data_image0
_cell_length_a       13.48
_cell_length_b       13.48
_cell_length_c       29.412
_cell_angle_alpha    90
_cell_angle_beta     90
_cell_angle_gamma    120

_symmetry_space_group_name_H-M    "P 1"
_symmetry_int_tables_number       1

loop_
  _symmetry_equiv_pos_as_xyz
  'x, y, z'

loop_
  _atom_site_label
  _atom_site_occupancy
  _atom_site_fract_x
  _atom_site_fract_y
  _atom_site_fract_z
  _atom_site_thermal_displace_type
  _atom_site_B_iso_or_equiv
  _atom_site_type_symbol
  C1       1.0000 0.73446  0.60468  0.60639  Biso   1.000  C
  N1       1.0000 0.68180  0.50188  0.57817  Biso   1.000  N
  N2       1.0000 0.74269  0.51876  0.57616  Biso   1.000  N
  H1       1.0000 0.68896  0.64202  0.60418  Biso   1.000  H
  H2       1.0000 0.81005  0.65719  0.59449  Biso   1.000  H
  C2       1.0000 0.74529  0.58258  0.65514  Biso   1.000  C
  H3       1.0000 0.79298  0.68091  0.59867  Biso   1.000  H
  H4       1.0000 0.66143  0.59928  0.60149  Biso   1.000  H
  C3       1.0000 0.69929  0.52707  0.52978  Biso   1.000  C
  H5       1.0000 0.60109  0.45871  0.58449  Biso   1.000  H
  H6       1.0000 0.82116  0.53743  0.57378  Biso   1.000  H
  C4       1.0000 0.70063  0.61847  0.68839  Biso   1.000  C
  C5       1.0000 0.80349  0.52553  0.66871  Biso   1.000  C
  C6       1.0000 0.63230  0.41520  0.50248  Biso   1.000  C
  C7       1.0000 0.73380  0.45306  0.49939  Biso   1.000  C
  H7       1.0000 0.78025  0.56287  0.52268  Biso   1.000  H
  H8       1.0000 0.67303  0.57975  0.52159  Biso   1.000  H
  H9       1.0000 0.73495  0.60476  0.51928  Biso   1.000  H
  H10      1.0000 0.61766  0.49512  0.53036  Biso   1.000  H
  H11      1.0000 0.66050  0.65513  0.68006  Biso   1.000  H
  C8       1.0000 0.71286  0.60168  0.73572  Biso   1.000  C
  C9       1.0000 0.81548  0.50634  0.71362  Biso   1.000  C
  H12      1.0000 0.83499  0.50026  0.64657  Biso   1.000  H
  C10      1.0000 0.54693  0.28079  0.49939  Biso   1.000  C
  N3       1.0000 0.66662  0.33339  0.51540  Biso   1.000  N
  H13      1.0000 0.55089  0.38264  0.50799  Biso   1.000  H
  H14      1.0000 0.64624  0.43164  0.47028  Biso   1.000  H
  C11      1.0000 0.78279  0.36765  0.50248  Biso   1.000  C
  H15      1.0000 0.71670  0.45803  0.46767  Biso   1.000  H
  H16      1.0000 0.81512  0.48038  0.50218  Biso   1.000  H
  H17      1.0000 0.68412  0.62952  0.75799  Biso   1.000  H
  C12      1.0000 0.76882  0.54283  0.74708  Biso   1.000  C
  H18      1.0000 0.85499  0.46873  0.72158  Biso   1.000  H
  C13      1.0000 0.58484  0.21715  0.50248  Biso   1.000  C
  C14      1.0000 0.47293  0.17226  0.52978  Biso   1.000  C
  H19      1.0000 0.54196  0.25869  0.46767  Biso   1.000  H
  H20      1.0000 0.51961  0.33476  0.50218  Biso   1.000  H
  C15      1.0000 0.71920  0.26615  0.49939  Biso   1.000  C
  H21      1.0000 0.83171  0.44903  0.50799  Biso   1.000  H
  H22      1.0000 0.78542  0.35378  0.47028  Biso   1.000  H
  C16      1.0000 0.82771  0.30067  0.52978  Biso   1.000  C
  O1       1.0000 0.78402  0.51833  0.79073  Biso   1.000  O
  H23      1.0000 0.61728  0.16824  0.50799  Biso   1.000  H
  H24      1.0000 0.56834  0.21458  0.47028  Biso   1.000  H
  N4       1.0000 0.49815  0.17997  0.57817  Biso   1.000  N
  H25      1.0000 0.43707  0.21732  0.52268  Biso   1.000  H
  H26      1.0000 0.42023  0.09328  0.52159  Biso   1.000  H
  N5       1.0000 0.48121  0.22400  0.57616  Biso   1.000  N
  H27      1.0000 0.39522  0.13020  0.51928  Biso   1.000  H
  H28      1.0000 0.50484  0.12258  0.53036  Biso   1.000  H
  H29      1.0000 0.74134  0.28328  0.46767  Biso   1.000  H
  H30      1.0000 0.66520  0.18485  0.50218  Biso   1.000  H
  N6       1.0000 0.81998  0.31814  0.57817  Biso   1.000  N
  H31      1.0000 0.78256  0.21972  0.52268  Biso   1.000  H
  H32      1.0000 0.90673  0.32697  0.52159  Biso   1.000  H
  N7       1.0000 0.77602  0.25724  0.57616  Biso   1.000  N
  H33      1.0000 0.86983  0.26503  0.51928  Biso   1.000  H
  H34      1.0000 0.87738  0.38222  0.53036  Biso   1.000  H
  C17      1.0000 0.71181  0.52124  0.82541  Biso   1.000  C
  H35      1.0000 0.54121  0.14237  0.58449  Biso   1.000  H
  C18      1.0000 0.39530  0.12978  0.60639  Biso   1.000  C
  H36      1.0000 0.46252  0.28379  0.57378  Biso   1.000  H
  H37      1.0000 0.85758  0.39883  0.58449  Biso   1.000  H
  C19      1.0000 0.87024  0.26555  0.60639  Biso   1.000  C
  H38      1.0000 0.71624  0.17877  0.57378  Biso   1.000  H
  H39      1.0000 0.63355  0.48698  0.81467  Biso   1.000  H
  H40      1.0000 0.73753  0.59954  0.83449  Biso   1.000  H
  C20      1.0000 0.71911  0.45366  0.86495  Biso   1.000  C
  H41      1.0000 0.35789  0.04694  0.60418  Biso   1.000  H
  H42      1.0000 0.34285  0.15290  0.59449  Biso   1.000  H
  C21      1.0000 0.41743  0.16275  0.65514  Biso   1.000  C
  H43      1.0000 0.31900  0.11204  0.59867  Biso   1.000  H
  H44      1.0000 0.40075  0.06219  0.60149  Biso   1.000  H
  H45      1.0000 0.95303  0.31095  0.60418  Biso   1.000  H
  H46      1.0000 0.84715  0.18999  0.59449  Biso   1.000  H
  C22      1.0000 0.83720  0.25467  0.65514  Biso   1.000  C
  H47      1.0000 0.88790  0.20696  0.59867  Biso   1.000  H
  H48      1.0000 0.93781  0.33853  0.60149  Biso   1.000  H
  N8       1.0000 0.66662  0.33339  0.85608  Biso   1.000  N
  H49      1.0000 0.79913  0.48312  0.87247  Biso   1.000  H
  H50      1.0000 0.68242  0.46514  0.89117  Biso   1.000  H
  C23      1.0000 0.38150  0.08215  0.68839  Biso   1.000  C
  C24      1.0000 0.47444  0.27797  0.66871  Biso   1.000  C
  C25      1.0000 0.91779  0.29938  0.68839  Biso   1.000  C
  C26      1.0000 0.72202  0.19642  0.66871  Biso   1.000  C
  C27      1.0000 0.54631  0.26546  0.86495  Biso   1.000  C
  C28      1.0000 0.73451  0.28088  0.86495  Biso   1.000  C
  H51      1.0000 0.34483  0.00540  0.68006  Biso   1.000  H
  C29      1.0000 0.39832  0.11119  0.73572  Biso   1.000  C
  C30      1.0000 0.49359  0.30915  0.71362  Biso   1.000  C
  H52      1.0000 0.49972  0.33476  0.64657  Biso   1.000  H
  H53      1.0000 0.99459  0.33947  0.68006  Biso   1.000  H
  C31      1.0000 0.88882  0.28713  0.73572  Biso   1.000  C
  C32      1.0000 0.69080  0.18443  0.71362  Biso   1.000  C
  H54      1.0000 0.66521  0.16498  0.64657  Biso   1.000  H
  C33      1.0000 0.47875  0.19059  0.82541  Biso   1.000  C
  H55      1.0000 0.51679  0.31592  0.87247  Biso   1.000  H
  H56      1.0000 0.53480  0.21723  0.89117  Biso   1.000  H
  C34      1.0000 0.80944  0.28816  0.82541  Biso   1.000  C
  H57      1.0000 0.68404  0.20087  0.87247  Biso   1.000  H
  H58      1.0000 0.78273  0.31754  0.89117  Biso   1.000  H
  H59      1.0000 0.37046  0.05457  0.75799  Biso   1.000  H
  C35      1.0000 0.45713  0.22597  0.74708  Biso   1.000  C
  H60      1.0000 0.53118  0.38624  0.72158  Biso   1.000  H
  H61      1.0000 0.94538  0.31583  0.75799  Biso   1.000  H
  C36      1.0000 0.77406  0.23120  0.74708  Biso   1.000  C
  H62      1.0000 0.61371  0.14494  0.72158  Biso   1.000  H
  O2       1.0000 0.48163  0.26563  0.79073  Biso   1.000  O
  H63      1.0000 0.51304  0.14656  0.81467  Biso   1.000  H
  H64      1.0000 0.40045  0.13800  0.83449  Biso   1.000  H
  O3       1.0000 0.73431  0.21595  0.79073  Biso   1.000  O
  H65      1.0000 0.85341  0.36645  0.81467  Biso   1.000  H
  H66      1.0000 0.86202  0.26246  0.83449  Biso   1.000  H
  C37      1.0000 0.48221  0.64245  0.54695  Biso   1.000  C
  C38      1.0000 0.47018  0.61127  0.50204  Biso   1.000  C
  C39      1.0000 0.43550  0.55928  0.58041  Biso   1.000  C
  H67      1.0000 0.52164  0.71955  0.55491  Biso   1.000  H
  C40      1.0000 0.41198  0.49606  0.48847  Biso   1.000  C
  H68      1.0000 0.50169  0.66806  0.47991  Biso   1.000  H
  C41      1.0000 0.37952  0.44449  0.56905  Biso   1.000  C
  O4       1.0000 0.45070  0.59902  0.62407  Biso   1.000  O
  C42      1.0000 0.40105  0.46308  0.43972  Biso   1.000  C
  C43      1.0000 0.36730  0.41545  0.52173  Biso   1.000  C
  H69      1.0000 0.35076  0.38787  0.59132  Biso   1.000  H
  C44      1.0000 0.37849  0.52390  0.65874  Biso   1.000  C
  N9       1.0000 0.34848  0.51328  0.41150  Biso   1.000  N
  N10      1.0000 0.40937  0.55731  0.40949  Biso   1.000  N
  H70      1.0000 0.35570  0.38025  0.43751  Biso   1.000  H
  H71      1.0000 0.47671  0.48621  0.42782  Biso   1.000  H
  H72      1.0000 0.45969  0.44535  0.43200  Biso   1.000  H
  H73      1.0000 0.32809  0.39549  0.43482  Biso   1.000  H
  H74      1.0000 0.32721  0.33870  0.51340  Biso   1.000  H
  H75      1.0000 0.30017  0.47987  0.64800  Biso   1.000  H
  H76      1.0000 0.40420  0.47130  0.66782  Biso   1.000  H
  C45      1.0000 0.38581  0.59877  0.69829  Biso   1.000  C
  C46      1.0000 0.36599  0.50557  0.36312  Biso   1.000  C
  H77      1.0000 0.26781  0.47567  0.41782  Biso   1.000  H
  H78      1.0000 0.48793  0.61710  0.40711  Biso   1.000  H
  N11      1.0000 0.33327  0.66669  0.68941  Biso   1.000  N
  H79      1.0000 0.46582  0.64930  0.70580  Biso   1.000  H
  H80      1.0000 0.34913  0.55062  0.72450  Biso   1.000  H
  C47      1.0000 0.29897  0.55045  0.33582  Biso   1.000  C
  H81      1.0000 0.44687  0.55071  0.35601  Biso   1.000  H
  H82      1.0000 0.33970  0.42659  0.35489  Biso   1.000  H
  C48      1.0000 0.40052  0.61410  0.33272  Biso   1.000  C
  H83      1.0000 0.40164  0.46351  0.35261  Biso   1.000  H
  H84      1.0000 0.28440  0.45588  0.36370  Biso   1.000  H
  C49      1.0000 0.21303  0.61418  0.69829  Biso   1.000  C
  C50      1.0000 0.40120  0.78696  0.69829  Biso   1.000  C
  N12      1.0000 0.33327  0.66669  0.34874  Biso   1.000  N
  H85      1.0000 0.21758  0.50163  0.34129  Biso   1.000  H
  H86      1.0000 0.31289  0.54788  0.30362  Biso   1.000  H
  C51      1.0000 0.21360  0.59945  0.33272  Biso   1.000  C
  C52      1.0000 0.44947  0.74850  0.33582  Biso   1.000  C
  H87      1.0000 0.38339  0.59200  0.30100  Biso   1.000  H
  H88      1.0000 0.48181  0.66806  0.33551  Biso   1.000  H
  C53      1.0000 0.14538  0.62147  0.65874  Biso   1.000  C
  H89      1.0000 0.18348  0.53418  0.70580  Biso   1.000  H
  H90      1.0000 0.20146  0.65085  0.72450  Biso   1.000  H
  C54      1.0000 0.47609  0.85455  0.65874  Biso   1.000  C
  H91      1.0000 0.35069  0.81651  0.70580  Biso   1.000  H
  H92      1.0000 0.44937  0.79844  0.72450  Biso   1.000  H
  C55      1.0000 0.25152  0.70096  0.33582  Biso   1.000  C
  C56      1.0000 0.38591  0.78636  0.33272  Biso   1.000  C
  C57      1.0000 0.13961  0.63397  0.36312  Biso   1.000  C
  H93      1.0000 0.20859  0.61658  0.30100  Biso   1.000  H
  H94      1.0000 0.18631  0.51816  0.33551  Biso   1.000  H
  H95      1.0000 0.49840  0.71595  0.34129  Biso   1.000  H
  H96      1.0000 0.45206  0.76495  0.30362  Biso   1.000  H
  C58      1.0000 0.49436  0.86037  0.36312  Biso   1.000  C
  O5       1.0000 0.14829  0.54925  0.62407  Biso   1.000  O
  H97      1.0000 0.17970  0.69976  0.64800  Biso   1.000  H
  H98      1.0000 0.06710  0.59577  0.66782  Biso   1.000  H
  O6       1.0000 0.40097  0.85163  0.62407  Biso   1.000  O
  H99      1.0000 0.52008  0.82028  0.64800  Biso   1.000  H
  H100     1.0000 0.52866  0.93284  0.66782  Biso   1.000  H
  H101     1.0000 0.28397  0.78234  0.34129  Biso   1.000  H
  H102     1.0000 0.23501  0.68708  0.30362  Biso   1.000  H
  H103     1.0000 0.40802  0.79142  0.30100  Biso   1.000  H
  H104     1.0000 0.33192  0.81369  0.33551  Biso   1.000  H
  N13      1.0000 0.16474  0.65145  0.41150  Biso   1.000  N
  H105     1.0000 0.10378  0.55311  0.35601  Biso   1.000  H
  H106     1.0000 0.08689  0.66027  0.35489  Biso   1.000  H
  N14      1.0000 0.14787  0.59054  0.40949  Biso   1.000  N
  H107     1.0000 0.06190  0.59842  0.35261  Biso   1.000  H
  H108     1.0000 0.17153  0.71561  0.36370  Biso   1.000  H
  N15      1.0000 0.48666  0.83519  0.41150  Biso   1.000  N
  H109     1.0000 0.44928  0.89618  0.35601  Biso   1.000  H
  H110     1.0000 0.57337  0.91305  0.35489  Biso   1.000  H
  N16      1.0000 0.44265  0.85206  0.40949  Biso   1.000  N
  H111     1.0000 0.53647  0.93807  0.35261  Biso   1.000  H
  H112     1.0000 0.54408  0.82851  0.36370  Biso   1.000  H
  C59      1.0000 0.12379  0.56450  0.58041  Biso   1.000  C
  C60      1.0000 0.44066  0.87613  0.58041  Biso   1.000  C
  H113     1.0000 0.20791  0.73214  0.41782  Biso   1.000  H
  C61      1.0000 0.06196  0.59885  0.43972  Biso   1.000  C
  H114     1.0000 0.12918  0.51208  0.40711  Biso   1.000  H
  H115     1.0000 0.52431  0.79210  0.41782  Biso   1.000  H
  C62      1.0000 0.53687  0.93798  0.43972  Biso   1.000  C
  H116     1.0000 0.38285  0.87074  0.40711  Biso   1.000  H
  C63      1.0000 0.06501  0.62052  0.56905  Biso   1.000  C
  C64      1.0000 0.16032  0.51782  0.54695  Biso   1.000  C
  C65      1.0000 0.55547  0.93498  0.56905  Biso   1.000  C
  C66      1.0000 0.35751  0.83964  0.54695  Biso   1.000  C
  H117     1.0000 0.02457  0.64425  0.43751  Biso   1.000  H
  H118     1.0000 0.00950  0.52330  0.42782  Biso   1.000  H
  C67      1.0000 0.08412  0.58797  0.48847  Biso   1.000  C
  H119     1.0000 0.06741  0.67192  0.43482  Biso   1.000  H
  H120     1.0000 0.98563  0.54026  0.43200  Biso   1.000  H
  H121     1.0000 0.61968  0.97541  0.43751  Biso   1.000  H
  H122     1.0000 0.51379  0.99049  0.42782  Biso   1.000  H
  C68      1.0000 0.50386  0.91588  0.48847  Biso   1.000  C
  H123     1.0000 0.60450  0.93258  0.43482  Biso   1.000  H
  H124     1.0000 0.55456  0.01430  0.43200  Biso   1.000  H
  C69      1.0000 0.04817  0.63269  0.52173  Biso   1.000  C
  H125     1.0000 0.03715  0.64922  0.59132  Biso   1.000  H
  C70      1.0000 0.14109  0.52981  0.50204  Biso   1.000  C
  H126     1.0000 0.19792  0.47833  0.55491  Biso   1.000  H
  C71      1.0000 0.58449  0.95177  0.52173  Biso   1.000  C
  H127     1.0000 0.61209  0.96291  0.59132  Biso   1.000  H
  C72      1.0000 0.38873  0.85892  0.50204  Biso   1.000  C
  H128     1.0000 0.28040  0.80204  0.55491  Biso   1.000  H
  H129     1.0000 0.01146  0.67278  0.51340  Biso   1.000  H
  H130     1.0000 0.16643  0.49829  0.47991  Biso   1.000  H
  H131     1.0000 0.66128  0.98843  0.51340  Biso   1.000  H
  H132     1.0000 0.33191  0.83356  0.47991  Biso   1.000  H
  C73      1.0000 0.81206  0.85720  0.49208  Biso   1.000  C
  O7       1.0000 0.81498  0.93233  0.45740  Biso   1.000  O
  H133     1.0000 0.84635  0.81317  0.48133  Biso   1.000  H
  H134     1.0000 0.73376  0.80461  0.50116  Biso   1.000  H
  C74      1.0000 0.87961  0.93207  0.53162  Biso   1.000  C
  C75      1.0000 0.79043  0.89258  0.41374  Biso   1.000  C
  H135     1.0000 0.85013  0.98261  0.53913  Biso   1.000  H
  H136     1.0000 0.86815  0.88393  0.55783  Biso   1.000  H
  N17      1.0000 0.99992  1.00000  0.52275  Biso   1.000  N
  C76      1.0000 0.73163  0.77780  0.40239  Biso   1.000  C
  C77      1.0000 0.82694  0.97584  0.38029  Biso   1.000  C
  C78      1.0000 0.06788  0.94749  0.53162  Biso   1.000  C
  C79      1.0000 0.05246  0.12035  0.53162  Biso   1.000  C
  C80      1.0000 0.71485  0.74884  0.35506  Biso   1.000  C
  H137     1.0000 0.70376  0.72117  0.42462  Biso   1.000  H
  C81      1.0000 0.80775  0.94458  0.33537  Biso   1.000  C
  H138     1.0000 0.86452  0.05294  0.38824  Biso   1.000  H
  C82      1.0000 0.14274  0.95477  0.49208  Biso   1.000  C
  H139     1.0000 0.01735  0.86748  0.53913  Biso   1.000  H
  H140     1.0000 0.11608  0.98424  0.55783  Biso   1.000  H
  C83      1.0000 0.04516  0.18794  0.49208  Biso   1.000  C
  H141     1.0000 0.13248  0.14982  0.53913  Biso   1.000  H
  H142     1.0000 0.01577  0.13183  0.55783  Biso   1.000  H
  C84      1.0000 0.75078  0.82945  0.32181  Biso   1.000  C
  H143     1.0000 0.67814  0.67200  0.34673  Biso   1.000  H
  H144     1.0000 0.83307  0.00145  0.31324  Biso   1.000  H
  O8       1.0000 0.06766  0.88264  0.45740  Biso   1.000  O
  H145     1.0000 0.19532  0.92907  0.50116  Biso   1.000  H
  H146     1.0000 0.18675  0.03315  0.48133  Biso   1.000  H
  H147     1.0000 0.96685  0.15359  0.48133  Biso   1.000  H
  O9       1.0000 0.11736  0.18502  0.45740  Biso   1.000  O
  H148     1.0000 0.07087  0.26623  0.50116  Biso   1.000  H
  C85      1.0000 0.72861  0.79638  0.27305  Biso   1.000  C
  C86      1.0000 0.10736  0.89781  0.41374  Biso   1.000  C
  C87      1.0000 0.10217  0.20952  0.41374  Biso   1.000  C
  N18      1.0000 0.83145  0.84658  0.24483  Biso   1.000  N
  H149     1.0000 0.69124  0.71364  0.27084  Biso   1.000  H
  H150     1.0000 0.67615  0.81951  0.26115  Biso   1.000  H
  N19      1.0000 0.81452  0.89061  0.24283  Biso   1.000  N
  H151     1.0000 0.65235  0.77874  0.26533  Biso   1.000  H
  H152     1.0000 0.73406  0.72880  0.26812  Biso   1.000  H
  C88      1.0000 0.22217  0.95383  0.40239  Biso   1.000  C
  C89      1.0000 0.02415  0.85112  0.38029  Biso   1.000  C
  C90      1.0000 0.04616  0.26829  0.40239  Biso   1.000  C
  C91      1.0000 0.14883  0.17303  0.38029  Biso   1.000  C
  H153     1.0000 0.87452  0.80898  0.25112  Biso   1.000  H
  C92      1.0000 0.80623  0.83887  0.19645  Biso   1.000  C
  H154     1.0000 0.79582  0.95040  0.24045  Biso   1.000  H
  C93      1.0000 0.25117  0.96599  0.35506  Biso   1.000  C
  H155     1.0000 0.27880  0.98252  0.42462  Biso   1.000  H
  C94      1.0000 0.05537  0.86311  0.33537  Biso   1.000  C
  H156     1.0000 0.94706  0.81163  0.38824  Biso   1.000  H
  C95      1.0000 0.03398  0.28516  0.35506  Biso   1.000  C
  H157     1.0000 0.01747  0.29621  0.42462  Biso   1.000  H
  C96      1.0000 0.13684  0.19222  0.33537  Biso   1.000  C
  H158     1.0000 0.18834  0.13543  0.38824  Biso   1.000  H
  C97      1.0000 0.91818  0.88384  0.16915  Biso   1.000  C
  H159     1.0000 0.77042  0.88401  0.18934  Biso   1.000  H
  H160     1.0000 0.75354  0.75989  0.18822  Biso   1.000  H
  C98      1.0000 0.88023  0.94740  0.16602  Biso   1.000  C
  H161     1.0000 0.72852  0.79681  0.18594  Biso   1.000  H
  H162     1.0000 0.83814  0.78919  0.19703  Biso   1.000  H
  C99      1.0000 0.17058  0.92128  0.32181  Biso   1.000  C
  H163     1.0000 0.32801  0.00617  0.34673  Biso   1.000  H
  H164     1.0000 0.99851  0.83159  0.31324  Biso   1.000  H
  C100     1.0000 0.07867  0.24918  0.32181  Biso   1.000  C
  H165     1.0000 0.99385  0.32182  0.34673  Biso   1.000  H
  H166     1.0000 0.16834  0.16695  0.31324  Biso   1.000  H
  H167     1.0000 0.95063  0.83493  0.17462  Biso   1.000  H
  H168     1.0000 0.90165  0.88119  0.13695  Biso   1.000  H
  N20      1.0000 0.99992  1.00000  0.18207  Biso   1.000  N
  C101     1.0000 0.05255  0.93284  0.16602  Biso   1.000  C
  H169     1.0000 0.87526  0.92530  0.13433  Biso   1.000  H
  C102     1.0000 0.96561  0.08180  0.16915  Biso   1.000  C
  H170     1.0000 0.85295  0.00145  0.16884  Biso   1.000  H
  C103     1.0000 0.20358  0.93224  0.27305  Biso   1.000  C
  C104     1.0000 0.06776  0.27128  0.27305  Biso   1.000  C
  C105     1.0000 0.11614  0.03435  0.16915  Biso   1.000  C
  C106     1.0000 0.06715  0.11975  0.16602  Biso   1.000  C
  H171     1.0000 0.99855  0.85155  0.16884  Biso   1.000  H
  C107     1.0000 0.16101  0.96728  0.19645  Biso   1.000  C
  H172     1.0000 0.07465  0.94989  0.13433  Biso   1.000  H
  H173     1.0000 0.88424  0.04934  0.17462  Biso   1.000  H
  H174     1.0000 0.97951  0.09834  0.13695  Biso   1.000  H
  C108     1.0000 0.03271  0.19376  0.19645  Biso   1.000  C
  N21      1.0000 0.15340  0.98484  0.24483  Biso   1.000  N
  N22      1.0000 0.10937  0.92393  0.24283  Biso   1.000  N
  H175     1.0000 0.28637  0.97764  0.27084  Biso   1.000  H
  H176     1.0000 0.18045  0.85660  0.26115  Biso   1.000  H
  H177     1.0000 0.22125  0.87365  0.26533  Biso   1.000  H
  H178     1.0000 0.27116  0.00522  0.26812  Biso   1.000  H
  N23      1.0000 0.01518  0.16849  0.24483  Biso   1.000  N
  N24      1.0000 0.07611  0.18545  0.24283  Biso   1.000  N
  H179     1.0000 0.99474  0.26589  0.26812  Biso   1.000  H
  H180     1.0000 0.02239  0.30872  0.27084  Biso   1.000  H
  H181     1.0000 0.14335  0.32379  0.26115  Biso   1.000  H
  H182     1.0000 0.12633  0.34761  0.26533  Biso   1.000  H
  H183     1.0000 0.16506  0.11573  0.17462  Biso   1.000  H
  H184     1.0000 0.11877  0.02047  0.13695  Biso   1.000  H
  H185     1.0000 0.05005  0.12472  0.13433  Biso   1.000  H
  H186     1.0000 0.14842  0.14699  0.16884  Biso   1.000  H
  H187     1.0000 0.11598  0.88641  0.18934  Biso   1.000  H
  H188     1.0000 0.24004  0.99357  0.18822  Biso   1.000  H
  H189     1.0000 0.20318  0.93173  0.18594  Biso   1.000  H
  H190     1.0000 0.21073  0.04891  0.19703  Biso   1.000  H
  H191     1.0000 0.95101  0.16181  0.19703  Biso   1.000  H
  H192     1.0000 0.11355  0.22948  0.18934  Biso   1.000  H
  H193     1.0000 0.00638  0.24644  0.18822  Biso   1.000  H
  H194     1.0000 0.06829  0.27146  0.18594  Biso   1.000  H
  H195     1.0000 0.19092  0.06553  0.25112  Biso   1.000  H
  H196     1.0000 0.04955  0.84538  0.24045  Biso   1.000  H
  H197     1.0000 0.93444  0.12540  0.25112  Biso   1.000  H
  H198     1.0000 0.15459  0.20413  0.24045  Biso   1.000  H
  C109     1.0000 0.88029  0.93284  0.66605  Biso   1.000  C
  C110     1.0000 0.96566  0.88384  0.66915  Biso   1.000  C
  C111     1.0000 0.80626  0.96728  0.69645  Biso   1.000  C
  H199     1.0000 0.87524  0.94989  0.63433  Biso   1.000  H
  H200     1.0000 0.85293  0.85155  0.66884  Biso   1.000  H
  N25      1.0000 0.99992  1.00000  0.68207  Biso   1.000  N
  C112     1.0000 0.91814  0.03435  0.66915  Biso   1.000  C
  H201     1.0000 0.88423  0.83493  0.67466  Biso   1.000  H
  H202     1.0000 0.97954  0.88119  0.63695  Biso   1.000  H
  C113     1.0000 0.03264  0.83887  0.69645  Biso   1.000  C
  C114     1.0000 0.06717  0.94740  0.66605  Biso   1.000  C
  N26      1.0000 0.83144  0.98484  0.74483  Biso   1.000  N
  H203     1.0000 0.77043  0.88641  0.68934  Biso   1.000  H
  H204     1.0000 0.75354  0.99357  0.68826  Biso   1.000  H
  N27      1.0000 0.81456  0.92393  0.74286  Biso   1.000  N
  H205     1.0000 0.72855  0.93173  0.68594  Biso   1.000  H
  H206     1.0000 0.83810  0.04891  0.69703  Biso   1.000  H
  C115     1.0000 0.11612  0.08180  0.66915  Biso   1.000  C
  C116     1.0000 0.05261  0.11975  0.66605  Biso   1.000  C
  H207     1.0000 0.95067  0.11573  0.67466  Biso   1.000  H
  H208     1.0000 0.90163  0.02047  0.63695  Biso   1.000  H
  H209     1.0000 0.95105  0.78919  0.69703  Biso   1.000  H
  N28      1.0000 0.01513  0.84658  0.74483  Biso   1.000  N
  H210     1.0000 0.11359  0.88401  0.68934  Biso   1.000  H
  H211     1.0000 0.00636  0.75989  0.68826  Biso   1.000  H
  N29      1.0000 0.07609  0.89061  0.74286  Biso   1.000  N
  H212     1.0000 0.06829  0.79681  0.68594  Biso   1.000  H
  H213     1.0000 0.05004  0.92530  0.63433  Biso   1.000  H
  H214     1.0000 0.14850  0.00145  0.66884  Biso   1.000  H
  C117     1.0000 0.72866  0.93224  0.77305  Biso   1.000  C
  H215     1.0000 0.87453  0.06553  0.75116  Biso   1.000  H
  H216     1.0000 0.79584  0.84538  0.74045  Biso   1.000  H
  H217     1.0000 0.16510  0.04934  0.67466  Biso   1.000  H
  H218     1.0000 0.11875  0.09834  0.63695  Biso   1.000  H
  C118     1.0000 0.16105  0.19376  0.69645  Biso   1.000  C
  H219     1.0000 0.99850  0.14699  0.66884  Biso   1.000  H
  H220     1.0000 0.07467  0.12472  0.63433  Biso   1.000  H
  H221     1.0000 0.93446  0.80898  0.75116  Biso   1.000  H
  C119     1.0000 0.06778  0.79638  0.77305  Biso   1.000  C
  H222     1.0000 0.15458  0.95040  0.74045  Biso   1.000  H
  H223     1.0000 0.69127  0.97764  0.77084  Biso   1.000  H
  H224     1.0000 0.67615  0.85660  0.76115  Biso   1.000  H
  C120     1.0000 0.75070  0.92128  0.82181  Biso   1.000  C
  H225     1.0000 0.65240  0.87365  0.76533  Biso   1.000  H
  H226     1.0000 0.73407  0.00522  0.76816  Biso   1.000  H
  N30      1.0000 0.15331  0.16849  0.74483  Biso   1.000  N
  H227     1.0000 0.11593  0.22948  0.68934  Biso   1.000  H
  H228     1.0000 0.24006  0.24644  0.68826  Biso   1.000  H
  N31      1.0000 0.10934  0.18545  0.74286  Biso   1.000  N
  H229     1.0000 0.20316  0.27146  0.68594  Biso   1.000  H
  H230     1.0000 0.21073  0.16181  0.69703  Biso   1.000  H
  H231     1.0000 0.99474  0.72880  0.76816  Biso   1.000  H
  H232     1.0000 0.02240  0.71364  0.77084  Biso   1.000  H
  H233     1.0000 0.14336  0.81951  0.76115  Biso   1.000  H
  C121     1.0000 0.07867  0.82945  0.82181  Biso   1.000  C
  H234     1.0000 0.12639  0.77874  0.76533  Biso   1.000  H
  C122     1.0000 0.71482  0.96599  0.85506  Biso   1.000  C
  C123     1.0000 0.80774  0.86311  0.83537  Biso   1.000  C
  H235     1.0000 0.19097  0.12540  0.75116  Biso   1.000  H
  C124     1.0000 0.20352  0.27128  0.77305  Biso   1.000  C
  H236     1.0000 0.04954  0.20413  0.74045  Biso   1.000  H
  C125     1.0000 0.03399  0.74884  0.85506  Biso   1.000  C
  C126     1.0000 0.13683  0.94458  0.83537  Biso   1.000  C
  C127     1.0000 0.73166  0.95383  0.90239  Biso   1.000  C
  H237     1.0000 0.67816  0.00617  0.84673  Biso   1.000  H
  C128     1.0000 0.82697  0.85112  0.88029  Biso   1.000  C
  H238     1.0000 0.83301  0.83159  0.81324  Biso   1.000  H
  H239     1.0000 0.28633  0.30872  0.77084  Biso   1.000  H
  H240     1.0000 0.18044  0.32379  0.76115  Biso   1.000  H
  C129     1.0000 0.17051  0.24918  0.82181  Biso   1.000  C
  H241     1.0000 0.22128  0.34761  0.76533  Biso   1.000  H
  H242     1.0000 0.27115  0.26589  0.76816  Biso   1.000  H
  H243     1.0000 0.99387  0.67200  0.84673  Biso   1.000  H
  C130     1.0000 0.04617  0.77780  0.90239  Biso   1.000  C
  C131     1.0000 0.14890  0.97584  0.88029  Biso   1.000  C
  H244     1.0000 0.16838  0.00145  0.81324  Biso   1.000  H
  H245     1.0000 0.70372  0.98252  0.92466  Biso   1.000  H
  C132     1.0000 0.79045  0.89781  0.91374  Biso   1.000  C
  H246     1.0000 0.86457  0.81163  0.88824  Biso   1.000  H
  C133     1.0000 0.25119  0.28516  0.85506  Biso   1.000  C
  C134     1.0000 0.05538  0.19222  0.83537  Biso   1.000  C
  H247     1.0000 0.01741  0.72117  0.92466  Biso   1.000  H
  C135     1.0000 0.10215  0.89258  0.91374  Biso   1.000  C
  H248     1.0000 0.18834  0.05294  0.88824  Biso   1.000  H
  O10      1.0000 0.81499  0.88264  0.95743  Biso   1.000  O
  H249     1.0000 0.32797  0.32182  0.84673  Biso   1.000  H
  C136     1.0000 0.22213  0.26829  0.90239  Biso   1.000  C
  H250     1.0000 0.99853  0.16695  0.81324  Biso   1.000  H
  C137     1.0000 0.02420  0.17303  0.88029  Biso   1.000  C
  O11      1.0000 0.11735  0.93233  0.95743  Biso   1.000  O
  C138     1.0000 0.81203  0.95477  0.99211  Biso   1.000  C
  H251     1.0000 0.27874  0.29621  0.92466  Biso   1.000  H
  C139     1.0000 0.10736  0.20952  0.91374  Biso   1.000  C
  H252     1.0000 0.94702  0.13543  0.88824  Biso   1.000  H
  C140     1.0000 0.04514  0.85720  0.99211  Biso   1.000  C
  H253     1.0000 0.73375  0.92907  0.00112  Biso   1.000  H
  C141     1.0000 0.87960  0.94749  0.03162  Biso   1.000  C
  H254     1.0000 0.84632  0.03315  0.98133  Biso   1.000  H
  O12      1.0000 0.06766  0.18502  0.95743  Biso   1.000  O
  H255     1.0000 0.96682  0.81317  0.98133  Biso   1.000  H
  H256     1.0000 0.07085  0.80461  0.00112  Biso   1.000  H
  C142     1.0000 0.05246  0.93207  0.03162  Biso   1.000  C
  H257     1.0000 0.85014  0.86748  0.03913  Biso   1.000  H
  H258     1.0000 0.86816  0.98424  0.05783  Biso   1.000  H
  N32      1.0000 0.99992  1.00000  0.02275  Biso   1.000  N
  C143     1.0000 0.14278  0.18794  0.99211  Biso   1.000  C
  H259     1.0000 0.13248  0.98261  0.03913  Biso   1.000  H
  H260     1.0000 0.01578  0.88393  0.05783  Biso   1.000  H
  C144     1.0000 0.06789  0.12035  0.03162  Biso   1.000  C
  H261     1.0000 0.18673  0.15359  0.98133  Biso   1.000  H
  H262     1.0000 0.19536  0.26623  0.00112  Biso   1.000  H
  H263     1.0000 0.01734  0.14982  0.03913  Biso   1.000  H
  H264     1.0000 0.11606  0.13183  0.05783  Biso   1.000  H
  C145     1.0000 0.73454  0.45366  0.36495  Biso   1.000  C
  N33      1.0000 0.66662  0.33339  0.35608  Biso   1.000  N
  C146     1.0000 0.80943  0.52124  0.32541  Biso   1.000  C
  H265     1.0000 0.68400  0.48312  0.37247  Biso   1.000  H
  H266     1.0000 0.78272  0.46514  0.39117  Biso   1.000  H
  C147     1.0000 0.54630  0.28088  0.36495  Biso   1.000  C
  C148     1.0000 0.71908  0.26546  0.36495  Biso   1.000  C
  O13      1.0000 0.73431  0.51833  0.29073  Biso   1.000  O
  H267     1.0000 0.85343  0.48698  0.31467  Biso   1.000  H
  H268     1.0000 0.86201  0.59954  0.33446  Biso   1.000  H
  C149     1.0000 0.47872  0.28816  0.32541  Biso   1.000  C
  H269     1.0000 0.51683  0.20087  0.37247  Biso   1.000  H
  H270     1.0000 0.53481  0.31754  0.39117  Biso   1.000  H
  C150     1.0000 0.71184  0.19059  0.32541  Biso   1.000  C
  H271     1.0000 0.79906  0.31592  0.37247  Biso   1.000  H
  H272     1.0000 0.68243  0.21723  0.39117  Biso   1.000  H
  C151     1.0000 0.77401  0.54283  0.24708  Biso   1.000  C
  O14      1.0000 0.48164  0.21595  0.29073  Biso   1.000  O
  H273     1.0000 0.51305  0.36645  0.31467  Biso   1.000  H
  H274     1.0000 0.40045  0.26246  0.33446  Biso   1.000  H
  O15      1.0000 0.78400  0.26563  0.29073  Biso   1.000  O
  H275     1.0000 0.63352  0.14656  0.31467  Biso   1.000  H
  H276     1.0000 0.73755  0.13800  0.33446  Biso   1.000  H
  C152     1.0000 0.88882  0.60168  0.23572  Biso   1.000  C
  C153     1.0000 0.69078  0.50634  0.21362  Biso   1.000  C
  C154     1.0000 0.45714  0.23120  0.24708  Biso   1.000  C
  C155     1.0000 0.76885  0.22597  0.24708  Biso   1.000  C
  C156     1.0000 0.91784  0.61847  0.18839  Biso   1.000  C
  H277     1.0000 0.94540  0.62952  0.25796  Biso   1.000  H
  H278     1.0000 0.61367  0.46873  0.22158  Biso   1.000  H
  C157     1.0000 0.72204  0.52553  0.16867  Biso   1.000  C
  C158     1.0000 0.39831  0.28713  0.23572  Biso   1.000  C
  C159     1.0000 0.49362  0.18443  0.21362  Biso   1.000  C
  C160     1.0000 0.71279  0.11119  0.23572  Biso   1.000  C
  C161     1.0000 0.81548  0.30915  0.21362  Biso   1.000  C
  C162     1.0000 0.83721  0.58258  0.15514  Biso   1.000  C
  H279     1.0000 0.99463  0.65513  0.18006  Biso   1.000  H
  H280     1.0000 0.66519  0.50026  0.14657  Biso   1.000  H
  C163     1.0000 0.38152  0.29938  0.18839  Biso   1.000  C
  H281     1.0000 0.37038  0.31583  0.25796  Biso   1.000  H
  C164     1.0000 0.47440  0.19642  0.16867  Biso   1.000  C
  H282     1.0000 0.53122  0.14494  0.22158  Biso   1.000  H
  C165     1.0000 0.70057  0.08215  0.18839  Biso   1.000  C
  H283     1.0000 0.68411  0.05457  0.25796  Biso   1.000  H
  H284     1.0000 0.85499  0.38624  0.22158  Biso   1.000  H
  C166     1.0000 0.80352  0.27797  0.16867  Biso   1.000  C
  C167     1.0000 0.87022  0.60468  0.10639  Biso   1.000  C
  C168     1.0000 0.41739  0.25467  0.15514  Biso   1.000  C
  H285     1.0000 0.34481  0.33947  0.18006  Biso   1.000  H
  H286     1.0000 0.49970  0.16498  0.14657  Biso   1.000  H
  C169     1.0000 0.74532  0.16275  0.15514  Biso   1.000  C
  H287     1.0000 0.66056  0.00540  0.18006  Biso   1.000  H
  H288     1.0000 0.83504  0.33476  0.14657  Biso   1.000  H
  N34      1.0000 0.82001  0.50188  0.07817  Biso   1.000  N
  N35      1.0000 0.77600  0.51876  0.07616  Biso   1.000  N
  H289     1.0000 0.95299  0.64202  0.10418  Biso   1.000  H
  H290     1.0000 0.84714  0.65719  0.09445  Biso   1.000  H
  H291     1.0000 0.88786  0.68091  0.09867  Biso   1.000  H
  H292     1.0000 0.93784  0.59928  0.10146  Biso   1.000  H
  C170     1.0000 0.39531  0.26555  0.10639  Biso   1.000  C
  C171     1.0000 0.73440  0.12978  0.10639  Biso   1.000  C
  C172     1.0000 0.82770  0.52707  0.02978  Biso   1.000  C
  H293     1.0000 0.85762  0.45871  0.08446  Biso   1.000  H
  H294     1.0000 0.71619  0.53743  0.07378  Biso   1.000  H
  N36      1.0000 0.49809  0.31814  0.07817  Biso   1.000  N
  H295     1.0000 0.35792  0.31095  0.10418  Biso   1.000  H
  H296     1.0000 0.34285  0.18999  0.09445  Biso   1.000  H
  N37      1.0000 0.48122  0.25724  0.07616  Biso   1.000  N
  H297     1.0000 0.31906  0.20696  0.09867  Biso   1.000  H
  H298     1.0000 0.40072  0.33853  0.10146  Biso   1.000  H
  N38      1.0000 0.68183  0.17997  0.07817  Biso   1.000  N
  N39      1.0000 0.74271  0.22400  0.07616  Biso   1.000  N
  H299     1.0000 0.68898  0.04694  0.10418  Biso   1.000  H
  H300     1.0000 0.81006  0.15290  0.09445  Biso   1.000  H
  H301     1.0000 0.79297  0.11204  0.09867  Biso   1.000  H
  H302     1.0000 0.66144  0.06219  0.10146  Biso   1.000  H
  C173     1.0000 0.71918  0.45306  0.99939  Biso   1.000  C
  C174     1.0000 0.78282  0.41520  0.00248  Biso   1.000  C
  H303     1.0000 0.78262  0.56287  0.02268  Biso   1.000  H
  H304     1.0000 0.90671  0.57975  0.02156  Biso   1.000  H
  H305     1.0000 0.86981  0.60476  0.01928  Biso   1.000  H
  H306     1.0000 0.87738  0.49512  0.03036  Biso   1.000  H
  H307     1.0000 0.54118  0.39883  0.08446  Biso   1.000  H
  C175     1.0000 0.47296  0.30067  0.02978  Biso   1.000  C
  H308     1.0000 0.46253  0.17877  0.07378  Biso   1.000  H
  C176     1.0000 0.69934  0.17226  0.02978  Biso   1.000  C
  H309     1.0000 0.60115  0.14237  0.08446  Biso   1.000  H
  H310     1.0000 0.82120  0.28379  0.07378  Biso   1.000  H
  C177     1.0000 0.58479  0.36765  0.00248  Biso   1.000  C
  N40      1.0000 0.66662  0.33339  0.01540  Biso   1.000  N
  H311     1.0000 0.66527  0.48038  0.00218  Biso   1.000  H
  H312     1.0000 0.74133  0.45803  0.96767  Biso   1.000  H
  C178     1.0000 0.73379  0.28079  0.99939  Biso   1.000  C
  H313     1.0000 0.83168  0.38264  0.00796  Biso   1.000  H
  H314     1.0000 0.78541  0.43164  0.97028  Biso   1.000  H
  H315     1.0000 0.43708  0.21972  0.02268  Biso   1.000  H
  H316     1.0000 0.42023  0.32697  0.02156  Biso   1.000  H
  H317     1.0000 0.39520  0.26503  0.01928  Biso   1.000  H
  H318     1.0000 0.50483  0.38222  0.03036  Biso   1.000  H
  C179     1.0000 0.54695  0.26615  0.99939  Biso   1.000  C
  C180     1.0000 0.63231  0.21715  0.00248  Biso   1.000  C
  H319     1.0000 0.78017  0.21732  0.02268  Biso   1.000  H
  H320     1.0000 0.67305  0.09328  0.02156  Biso   1.000  H
  H321     1.0000 0.73491  0.13020  0.01928  Biso   1.000  H
  H322     1.0000 0.61774  0.12258  0.03036  Biso   1.000  H
  H323     1.0000 0.61732  0.44903  0.00796  Biso   1.000  H
  H324     1.0000 0.56836  0.35378  0.97028  Biso   1.000  H
  H325     1.0000 0.81508  0.33476  0.00218  Biso   1.000  H
  H326     1.0000 0.71674  0.25869  0.96767  Biso   1.000  H
  H327     1.0000 0.51958  0.18485  0.00218  Biso   1.000  H
  H328     1.0000 0.54194  0.28328  0.96767  Biso   1.000  H
  H329     1.0000 0.55088  0.16824  0.00796  Biso   1.000  H
  H330     1.0000 0.64624  0.21458  0.97028  Biso   1.000  H
  C181     1.0000 0.44944  0.70096  0.83582  Biso   1.000  C
  C182     1.0000 0.38585  0.59945  0.83272  Biso   1.000  C
  N41      1.0000 0.33327  0.66669  0.84874  Biso   1.000  N
  C183     1.0000 0.49436  0.63397  0.86312  Biso   1.000  C
  C184     1.0000 0.40045  0.78636  0.83272  Biso   1.000  C
  H331     1.0000 0.49836  0.78234  0.84132  Biso   1.000  H
  H332     1.0000 0.45207  0.68708  0.80362  Biso   1.000  H
  C185     1.0000 0.25149  0.55045  0.83582  Biso   1.000  C
  H333     1.0000 0.40799  0.61658  0.80100  Biso   1.000  H
  H334     1.0000 0.33185  0.51816  0.83551  Biso   1.000  H
  C186     1.0000 0.29903  0.74850  0.83582  Biso   1.000  C
  C187     1.0000 0.21358  0.61410  0.83272  Biso   1.000  C
  N42      1.0000 0.48670  0.65145  0.91150  Biso   1.000  N
  H335     1.0000 0.44933  0.55311  0.85601  Biso   1.000  H
  H336     1.0000 0.57338  0.66027  0.85492  Biso   1.000  H
  N43      1.0000 0.44267  0.59054  0.90953  Biso   1.000  N
  H337     1.0000 0.53653  0.59842  0.85261  Biso   1.000  H
  H338     1.0000 0.54408  0.71561  0.86370  Biso   1.000  H
  C188     1.0000 0.36602  0.86037  0.86312  Biso   1.000  C
  H339     1.0000 0.38339  0.79142  0.80100  Biso   1.000  H
  H340     1.0000 0.48177  0.81369  0.83551  Biso   1.000  H
  H341     1.0000 0.28405  0.50163  0.84132  Biso   1.000  H
  H342     1.0000 0.23499  0.54788  0.80362  Biso   1.000  H
  C189     1.0000 0.13958  0.50557  0.86312  Biso   1.000  C
  H343     1.0000 0.21754  0.71595  0.84132  Biso   1.000  H
  H344     1.0000 0.31289  0.76495  0.80362  Biso   1.000  H
  H345     1.0000 0.20861  0.59200  0.80100  Biso   1.000  H
  H346     1.0000 0.18626  0.66806  0.83551  Biso   1.000  H
  H347     1.0000 0.52423  0.73214  0.91782  Biso   1.000  H
  C190     1.0000 0.53689  0.59885  0.93972  Biso   1.000  C
  H348     1.0000 0.38289  0.51208  0.90711  Biso   1.000  H
  N44      1.0000 0.34853  0.83519  0.91150  Biso   1.000  N
  H349     1.0000 0.44690  0.89618  0.85601  Biso   1.000  H
  H350     1.0000 0.33969  0.91305  0.85492  Biso   1.000  H
  N45      1.0000 0.40941  0.85206  0.90953  Biso   1.000  N
  H351     1.0000 0.40160  0.93807  0.85261  Biso   1.000  H
  H352     1.0000 0.28443  0.82851  0.86370  Biso   1.000  H
  N46      1.0000 0.16480  0.51328  0.91150  Biso   1.000  N
  H353     1.0000 0.10384  0.55071  0.85601  Biso   1.000  H
  H354     1.0000 0.08688  0.42659  0.85492  Biso   1.000  H
  N47      1.0000 0.14794  0.55731  0.90953  Biso   1.000  N
  H355     1.0000 0.06187  0.46351  0.85261  Biso   1.000  H
  H356     1.0000 0.17149  0.45588  0.86370  Biso   1.000  H
  H357     1.0000 0.61968  0.64425  0.93751  Biso   1.000  H
  H358     1.0000 0.51380  0.52330  0.92782  Biso   1.000  H
  C191     1.0000 0.50385  0.58797  0.98847  Biso   1.000  C
  H359     1.0000 0.55455  0.54026  0.93200  Biso   1.000  H
  H360     1.0000 0.60451  0.67192  0.93482  Biso   1.000  H
  H361     1.0000 0.26779  0.79210  0.91782  Biso   1.000  H
  C192     1.0000 0.40111  0.93798  0.93972  Biso   1.000  C
  H362     1.0000 0.48789  0.87074  0.90711  Biso   1.000  H
  H363     1.0000 0.20787  0.47567  0.91782  Biso   1.000  H
  C193     1.0000 0.06203  0.46308  0.93972  Biso   1.000  C
  H364     1.0000 0.12917  0.61710  0.90711  Biso   1.000  H
  C194     1.0000 0.58452  0.63269  0.02173  Biso   1.000  C
  C195     1.0000 0.38872  0.52981  0.00201  Biso   1.000  C
  H365     1.0000 0.35573  0.97541  0.93751  Biso   1.000  H
  H366     1.0000 0.47670  0.99049  0.92782  Biso   1.000  H
  C196     1.0000 0.41202  0.91588  0.98847  Biso   1.000  C
  H367     1.0000 0.32809  0.93258  0.93482  Biso   1.000  H
  H368     1.0000 0.45967  0.01430  0.93200  Biso   1.000  H
  H369     1.0000 0.02454  0.38025  0.93751  Biso   1.000  H
  H370     1.0000 0.00950  0.48621  0.92782  Biso   1.000  H
  C197     1.0000 0.08408  0.49606  0.98847  Biso   1.000  C
  H371     1.0000 0.06741  0.39549  0.93482  Biso   1.000  H
  H372     1.0000 0.98566  0.44535  0.93200  Biso   1.000  H
  H373     1.0000 0.66131  0.67278  0.01340  Biso   1.000  H
  C198     1.0000 0.55551  0.62052  0.06905  Biso   1.000  C
  H374     1.0000 0.33186  0.49829  0.97991  Biso   1.000  H
  C199     1.0000 0.35750  0.51782  0.04695  Biso   1.000  C
  C200     1.0000 0.36728  0.95177  0.02173  Biso   1.000  C
  C201     1.0000 0.47018  0.85892  0.00201  Biso   1.000  C
  C202     1.0000 0.04816  0.41545  0.02173  Biso   1.000  C
  C203     1.0000 0.14110  0.61127  0.00201  Biso   1.000  C
  H375     1.0000 0.61207  0.64922  0.09129  Biso   1.000  H
  C204     1.0000 0.44071  0.56450  0.08041  Biso   1.000  C
  H376     1.0000 0.28041  0.47833  0.05491  Biso   1.000  H
  H377     1.0000 0.32715  0.98843  0.01340  Biso   1.000  H
  C205     1.0000 0.37951  0.93498  0.06905  Biso   1.000  C
  H378     1.0000 0.50165  0.83356  0.97991  Biso   1.000  H
  C206     1.0000 0.48214  0.83964  0.04695  Biso   1.000  C
  H379     1.0000 0.01149  0.33870  0.01340  Biso   1.000  H
  C207     1.0000 0.06498  0.44449  0.06905  Biso   1.000  C
  H380     1.0000 0.16638  0.66806  0.97991  Biso   1.000  H
  C208     1.0000 0.16025  0.64245  0.04695  Biso   1.000  C
  O16      1.0000 0.40096  0.54925  0.12407  Biso   1.000  O
  H381     1.0000 0.35082  0.96291  0.09129  Biso   1.000  H
  C209     1.0000 0.43547  0.87613  0.08041  Biso   1.000  C
  H382     1.0000 0.52164  0.80204  0.05491  Biso   1.000  H
  H383     1.0000 0.03711  0.38787  0.09129  Biso   1.000  H
  C210     1.0000 0.12378  0.55928  0.08041  Biso   1.000  C
  H384     1.0000 0.19790  0.71955  0.05491  Biso   1.000  H
  C211     1.0000 0.47609  0.62147  0.15874  Biso   1.000  C
  O17      1.0000 0.45067  0.85163  0.12407  Biso   1.000  O
  O18      1.0000 0.14832  0.59902  0.12407  Biso   1.000  O
  H385     1.0000 0.52006  0.69976  0.14800  Biso   1.000  H
  H386     1.0000 0.52867  0.59577  0.16779  Biso   1.000  H
  C212     1.0000 0.40116  0.61418  0.19829  Biso   1.000  C
  C213     1.0000 0.37846  0.85455  0.15874  Biso   1.000  C
  C214     1.0000 0.14541  0.52390  0.15874  Biso   1.000  C
  N48      1.0000 0.33327  0.66669  0.18941  Biso   1.000  N
  H387     1.0000 0.35069  0.53418  0.20580  Biso   1.000  H
  H388     1.0000 0.44938  0.65085  0.22450  Biso   1.000  H
  H389     1.0000 0.30020  0.82028  0.14800  Biso   1.000  H
  H390     1.0000 0.40418  0.93284  0.16779  Biso   1.000  H
  C215     1.0000 0.38577  0.78696  0.19829  Biso   1.000  C
  H391     1.0000 0.17970  0.47987  0.14800  Biso   1.000  H
  H392     1.0000 0.06711  0.47130  0.16779  Biso   1.000  H
  C216     1.0000 0.21296  0.59877  0.19829  Biso   1.000  C
  H393     1.0000 0.46582  0.81651  0.20580  Biso   1.000  H
  H394     1.0000 0.34907  0.79844  0.22450  Biso   1.000  H
  H395     1.0000 0.18348  0.64930  0.20580  Biso   1.000  H
  H396     1.0000 0.20150  0.55062  0.22450  Biso   1.000  H
