data_image0
_cell_length_a       13.48
_cell_length_b       13.48
_cell_length_c       29.412
_cell_angle_alpha    90
_cell_angle_beta     90
_cell_angle_gamma    120

_symmetry_space_group_name_H-M    "P 1"
_symmetry_int_tables_number       1

loop_
  _symmetry_equiv_pos_as_xyz
  'x, y, z'

loop_
  _atom_site_label
  _atom_site_occupancy
  _atom_site_fract_x
  _atom_site_fract_y
  _atom_site_fract_z
  _atom_site_thermal_displace_type
  _atom_site_B_iso_or_equiv
  _atom_site_type_symbol
  C1       1.0000 0.55547  0.93498  0.56905  Biso   1.000  C
  C2       1.0000 0.58449  0.95177  0.52173  Biso   1.000  C
  H1       1.0000 0.61209  0.96291  0.59132  Biso   1.000  H
  C3       1.0000 0.44066  0.87613  0.58041  Biso   1.000  C
  C4       1.0000 0.50386  0.91588  0.48847  Biso   1.000  C
  H2       1.0000 0.66128  0.98843  0.51340  Biso   1.000  H
  C5       1.0000 0.35751  0.83964  0.54695  Biso   1.000  C
  O1       1.0000 0.40097  0.85163  0.62407  Biso   1.000  O
  C6       1.0000 0.53687  0.93798  0.43972  Biso   1.000  C
  C7       1.0000 0.38873  0.85892  0.50204  Biso   1.000  C
  H3       1.0000 0.28040  0.80204  0.55491  Biso   1.000  H
  C8       1.0000 0.47609  0.85455  0.65874  Biso   1.000  C
  N1       1.0000 0.48666  0.83519  0.41150  Biso   1.000  N
  N2       1.0000 0.44265  0.85206  0.40949  Biso   1.000  N
  H4       1.0000 0.61968  0.97541  0.43751  Biso   1.000  H
  H5       1.0000 0.51379  0.99049  0.42782  Biso   1.000  H
  H6       1.0000 0.60450  0.93258  0.43482  Biso   1.000  H
  H7       1.0000 0.55463  0.01430  0.43200  Biso   1.000  H
  H8       1.0000 0.33191  0.83356  0.47991  Biso   1.000  H
  C9       1.0000 0.40120  0.78696  0.69829  Biso   1.000  C
  H9       1.0000 0.52008  0.82028  0.64800  Biso   1.000  H
  H10      1.0000 0.52866  0.93284  0.66782  Biso   1.000  H
  C10      1.0000 0.49436  0.86037  0.36312  Biso   1.000  C
  H11      1.0000 0.52431  0.79210  0.41782  Biso   1.000  H
  H12      1.0000 0.38285  0.87074  0.40711  Biso   1.000  H
  N3       1.0000 0.33327  0.66669  0.68941  Biso   1.000  N
  H13      1.0000 0.35069  0.81651  0.70580  Biso   1.000  H
  H14      1.0000 0.44937  0.79844  0.72450  Biso   1.000  H
  C11      1.0000 0.44947  0.74850  0.33582  Biso   1.000  C
  C12      1.0000 0.38591  0.78636  0.33272  Biso   1.000  C
  H15      1.0000 0.44928  0.89618  0.35601  Biso   1.000  H
  H16      1.0000 0.57337  0.91305  0.35489  Biso   1.000  H
  H17      1.0000 0.53647  0.93807  0.35261  Biso   1.000  H
  H18      1.0000 0.54408  0.82851  0.36370  Biso   1.000  H
  C13      1.0000 0.38581  0.59877  0.69829  Biso   1.000  C
  C14      1.0000 0.21303  0.61418  0.69829  Biso   1.000  C
  C15      1.0000 0.40052  0.61410  0.33272  Biso   1.000  C
  N4       1.0000 0.33327  0.66669  0.34874  Biso   1.000  N
  H19      1.0000 0.49840  0.71595  0.34129  Biso   1.000  H
  H20      1.0000 0.45206  0.76495  0.30362  Biso   1.000  H
  C16      1.0000 0.25152  0.70096  0.33582  Biso   1.000  C
  H21      1.0000 0.40802  0.79142  0.30100  Biso   1.000  H
  H22      1.0000 0.33192  0.81369  0.33551  Biso   1.000  H
  C17      1.0000 0.37849  0.52390  0.65874  Biso   1.000  C
  H23      1.0000 0.46582  0.64930  0.70580  Biso   1.000  H
  H24      1.0000 0.34913  0.55062  0.72450  Biso   1.000  H
  C18      1.0000 0.14538  0.62147  0.65874  Biso   1.000  C
  H25      1.0000 0.18348  0.53418  0.70580  Biso   1.000  H
  H26      1.0000 0.20146  0.65085  0.72450  Biso   1.000  H
  C19      1.0000 0.36599  0.50557  0.36312  Biso   1.000  C
  C20      1.0000 0.29897  0.55045  0.33582  Biso   1.000  C
  H27      1.0000 0.38339  0.59200  0.30100  Biso   1.000  H
  H28      1.0000 0.48181  0.66806  0.33551  Biso   1.000  H
  C21      1.0000 0.21360  0.59945  0.33272  Biso   1.000  C
  C22      1.0000 0.13961  0.63397  0.36312  Biso   1.000  C
  H29      1.0000 0.28397  0.78234  0.34129  Biso   1.000  H
  H30      1.0000 0.23501  0.68708  0.30362  Biso   1.000  H
  O2       1.0000 0.45070  0.59902  0.62407  Biso   1.000  O
  H31      1.0000 0.30017  0.47987  0.64800  Biso   1.000  H
  H32      1.0000 0.40420  0.47130  0.66782  Biso   1.000  H
  O3       1.0000 0.14829  0.54925  0.62407  Biso   1.000  O
  H33      1.0000 0.17970  0.69976  0.64800  Biso   1.000  H
  H34      1.0000 0.06710  0.59577  0.66782  Biso   1.000  H
  N5       1.0000 0.34848  0.51328  0.41150  Biso   1.000  N
  H35      1.0000 0.44687  0.55071  0.35601  Biso   1.000  H
  H36      1.0000 0.33970  0.42659  0.35489  Biso   1.000  H
  N6       1.0000 0.40937  0.55731  0.40949  Biso   1.000  N
  H37      1.0000 0.40164  0.46351  0.35261  Biso   1.000  H
  H38      1.0000 0.28440  0.45588  0.36370  Biso   1.000  H
  H39      1.0000 0.21758  0.50163  0.34129  Biso   1.000  H
  H40      1.0000 0.31289  0.54788  0.30362  Biso   1.000  H
  H41      1.0000 0.20859  0.61658  0.30100  Biso   1.000  H
  H42      1.0000 0.18631  0.51816  0.33551  Biso   1.000  H
  N7       1.0000 0.16474  0.65145  0.41150  Biso   1.000  N
  H43      1.0000 0.10378  0.55311  0.35601  Biso   1.000  H
  H44      1.0000 0.08689  0.66027  0.35489  Biso   1.000  H
  N8       1.0000 0.14787  0.59054  0.40949  Biso   1.000  N
  H45      1.0000 0.06190  0.59842  0.35261  Biso   1.000  H
  H46      1.0000 0.17153  0.71561  0.36370  Biso   1.000  H
  C23      1.0000 0.43550  0.55928  0.58041  Biso   1.000  C
  C24      1.0000 0.12379  0.56450  0.58041  Biso   1.000  C
  H47      1.0000 0.26781  0.47567  0.41782  Biso   1.000  H
  C25      1.0000 0.40105  0.46308  0.43972  Biso   1.000  C
  H48      1.0000 0.48793  0.61710  0.40711  Biso   1.000  H
  H49      1.0000 0.20791  0.73214  0.41782  Biso   1.000  H
  C26      1.0000 0.06196  0.59885  0.43972  Biso   1.000  C
  H50      1.0000 0.12918  0.51208  0.40711  Biso   1.000  H
  C27      1.0000 0.37952  0.44449  0.56905  Biso   1.000  C
  C28      1.0000 0.48221  0.64245  0.54695  Biso   1.000  C
  C29      1.0000 0.06501  0.62052  0.56905  Biso   1.000  C
  C30      1.0000 0.16032  0.51782  0.54695  Biso   1.000  C
  H51      1.0000 0.35570  0.38025  0.43751  Biso   1.000  H
  H52      1.0000 0.47671  0.48621  0.42782  Biso   1.000  H
  C31      1.0000 0.41198  0.49606  0.48847  Biso   1.000  C
  H53      1.0000 0.45969  0.44535  0.43200  Biso   1.000  H
  H54      1.0000 0.32809  0.39549  0.43482  Biso   1.000  H
  H55      1.0000 0.02457  0.64425  0.43751  Biso   1.000  H
  H56      1.0000 0.00950  0.52330  0.42782  Biso   1.000  H
  C32      1.0000 0.08412  0.58797  0.48847  Biso   1.000  C
  H57      1.0000 0.06741  0.67192  0.43482  Biso   1.000  H
  H58      1.0000 0.98571  0.54026  0.43200  Biso   1.000  H
  C33      1.0000 0.36730  0.41545  0.52173  Biso   1.000  C
  H59      1.0000 0.35076  0.38787  0.59132  Biso   1.000  H
  C34      1.0000 0.47018  0.61127  0.50204  Biso   1.000  C
  H60      1.0000 0.52164  0.71955  0.55491  Biso   1.000  H
  C35      1.0000 0.04817  0.63269  0.52173  Biso   1.000  C
  H61      1.0000 0.03715  0.64922  0.59132  Biso   1.000  H
  C36      1.0000 0.14109  0.52981  0.50204  Biso   1.000  C
  H62      1.0000 0.19792  0.47833  0.55491  Biso   1.000  H
  H63      1.0000 0.32721  0.33870  0.51340  Biso   1.000  H
  H64      1.0000 0.50169  0.66806  0.47991  Biso   1.000  H
  H65      1.0000 0.01146  0.67278  0.51340  Biso   1.000  H
  H66      1.0000 0.16643  0.49829  0.47991  Biso   1.000  H
  C37      1.0000 0.81206  0.85720  0.49208  Biso   1.000  C
  O4       1.0000 0.81498  0.93233  0.45740  Biso   1.000  O
  O5       1.0000 0.81490  0.93233  0.45740  Biso   1.000  O
  H67      1.0000 0.84639  0.81326  0.48133  Biso   1.000  H
  H68      1.0000 0.73376  0.80461  0.50116  Biso   1.000  H
  C38      1.0000 0.87965  0.93216  0.53162  Biso   1.000  C
  H69      1.0000 0.84635  0.81317  0.48133  Biso   1.000  H
  C39      1.0000 0.87968  0.93207  0.53162  Biso   1.000  C
  H70      1.0000 0.84632  0.81326  0.48133  Biso   1.000  H
  C40      1.0000 0.87961  0.93207  0.53162  Biso   1.000  C
  C41      1.0000 0.79047  0.89267  0.41374  Biso   1.000  C
  C42      1.0000 0.79043  0.89258  0.41374  Biso   1.000  C
  H71      1.0000 0.85013  0.98261  0.53913  Biso   1.000  H
  H72      1.0000 0.86815  0.88393  0.55783  Biso   1.000  H
  H73      1.0000 0.85021  0.98261  0.53913  Biso   1.000  H
  N9       1.0000 0.99992  1.00000  0.52275  Biso   1.000  N
  C43      1.0000 0.73163  0.77780  0.40239  Biso   1.000  C
  C44      1.0000 0.73170  0.77780  0.40239  Biso   1.000  C
  C45      1.0000 0.82694  0.97584  0.38029  Biso   1.000  C
  C46      1.0000 0.82702  0.97584  0.38029  Biso   1.000  C
  C47      1.0000 0.06785  0.94757  0.53162  Biso   1.000  C
  C48      1.0000 0.06788  0.94749  0.53162  Biso   1.000  C
  C49      1.0000 0.06793  0.94757  0.53162  Biso   1.000  C
  C50      1.0000 0.06781  0.94749  0.53162  Biso   1.000  C
  C51      1.0000 0.05246  0.12035  0.53162  Biso   1.000  C
  C52      1.0000 0.05242  0.12027  0.53162  Biso   1.000  C
  C53      1.0000 0.71485  0.74884  0.35506  Biso   1.000  C
  C54      1.0000 0.71493  0.74884  0.35506  Biso   1.000  C
  H74      1.0000 0.70380  0.72126  0.42462  Biso   1.000  H
  H75      1.0000 0.70376  0.72117  0.42462  Biso   1.000  H
  H76      1.0000 0.70373  0.72126  0.42462  Biso   1.000  H
  C55      1.0000 0.80779  0.94466  0.33537  Biso   1.000  C
  C56      1.0000 0.80775  0.94458  0.33537  Biso   1.000  C
  H77      1.0000 0.86460  0.05294  0.38824  Biso   1.000  H
  H78      1.0000 0.86452  0.05294  0.38824  Biso   1.000  H
  C57      1.0000 0.14278  0.95486  0.49208  Biso   1.000  C
  H79      1.0000 0.01739  0.86757  0.53913  Biso   1.000  H
  H80      1.0000 0.11608  0.98424  0.55783  Biso   1.000  H
  C58      1.0000 0.14274  0.95477  0.49208  Biso   1.000  C
  H81      1.0000 0.01735  0.86748  0.53913  Biso   1.000  H
  C59      1.0000 0.04516  0.18794  0.49208  Biso   1.000  C
  H82      1.0000 0.13248  0.14982  0.53913  Biso   1.000  H
  H83      1.0000 0.01577  0.13183  0.55783  Biso   1.000  H
  H84      1.0000 0.13240  0.14982  0.53913  Biso   1.000  H
  C60      1.0000 0.75078  0.82945  0.32181  Biso   1.000  C
  H85      1.0000 0.67814  0.67200  0.34673  Biso   1.000  H
  H86      1.0000 0.83307  0.00145  0.31324  Biso   1.000  H
  H87      1.0000 0.83295  0.00137  0.31324  Biso   1.000  H
  H88      1.0000 0.83303  0.00137  0.31324  Biso   1.000  H
  O6       1.0000 0.06766  0.88264  0.45740  Biso   1.000  O
  H89      1.0000 0.19536  0.92916  0.50116  Biso   1.000  H
  H90      1.0000 0.19532  0.92907  0.50116  Biso   1.000  H
  O7       1.0000 0.06773  0.88264  0.45740  Biso   1.000  O
  H91      1.0000 0.19544  0.92916  0.50116  Biso   1.000  H
  H92      1.0000 0.18675  0.03315  0.48133  Biso   1.000  H
  H93      1.0000 0.18671  0.03306  0.48133  Biso   1.000  H
  H94      1.0000 0.96685  0.15359  0.48133  Biso   1.000  H
  H95      1.0000 0.96678  0.15359  0.48133  Biso   1.000  H
  O8       1.0000 0.11736  0.18502  0.45740  Biso   1.000  O
  H96      1.0000 0.07087  0.26623  0.50116  Biso   1.000  H
  H97      1.0000 0.07080  0.26623  0.50116  Biso   1.000  H
  C61      1.0000 0.72861  0.79638  0.27305  Biso   1.000  C
  C62      1.0000 0.72872  0.79647  0.27305  Biso   1.000  C
  C63      1.0000 0.72868  0.79638  0.27305  Biso   1.000  C
  C64      1.0000 0.72865  0.79647  0.27305  Biso   1.000  C
  C65      1.0000 0.10736  0.89781  0.41374  Biso   1.000  C
  C66      1.0000 0.10217  0.20952  0.41374  Biso   1.000  C
  N10      1.0000 0.83149  0.84667  0.24483  Biso   1.000  N
  H98      1.0000 0.69124  0.71364  0.27084  Biso   1.000  H
  H99      1.0000 0.67615  0.81951  0.26115  Biso   1.000  H
  N11      1.0000 0.83145  0.84658  0.24483  Biso   1.000  N
  H100     1.0000 0.69131  0.71364  0.27084  Biso   1.000  H
  N12      1.0000 0.83142  0.84667  0.24483  Biso   1.000  N
  N13      1.0000 0.81452  0.89061  0.24283  Biso   1.000  N
  H101     1.0000 0.65235  0.77874  0.26533  Biso   1.000  H
  H102     1.0000 0.73406  0.72880  0.26812  Biso   1.000  H
  C67      1.0000 0.22217  0.95383  0.40239  Biso   1.000  C
  C68      1.0000 0.02415  0.85112  0.38029  Biso   1.000  C
  C69      1.0000 0.02422  0.85112  0.38029  Biso   1.000  C
  C70      1.0000 0.04616  0.26829  0.40239  Biso   1.000  C
  C71      1.0000 0.04609  0.26829  0.40239  Biso   1.000  C
  C72      1.0000 0.14883  0.17303  0.38029  Biso   1.000  C
  C73      1.0000 0.14890  0.17303  0.38029  Biso   1.000  C
  H103     1.0000 0.87456  0.80906  0.25112  Biso   1.000  H
  C74      1.0000 0.80627  0.83896  0.19645  Biso   1.000  C
  H104     1.0000 0.87452  0.80898  0.25112  Biso   1.000  H
  C75      1.0000 0.80623  0.83887  0.19645  Biso   1.000  C
  H105     1.0000 0.79582  0.95040  0.24045  Biso   1.000  H
  C76      1.0000 0.25117  0.96599  0.35506  Biso   1.000  C
  C77      1.0000 0.25110  0.96599  0.35506  Biso   1.000  C
  H106     1.0000 0.27872  0.98252  0.42462  Biso   1.000  H
  H107     1.0000 0.27880  0.98252  0.42462  Biso   1.000  H
  C78      1.0000 0.05537  0.86311  0.33537  Biso   1.000  C
  H108     1.0000 0.94706  0.81163  0.38824  Biso   1.000  H
  C79      1.0000 0.03398  0.28516  0.35506  Biso   1.000  C
  C80      1.0000 0.03393  0.28508  0.35506  Biso   1.000  C
  H109     1.0000 0.01747  0.29621  0.42462  Biso   1.000  H
  H110     1.0000 0.01739  0.29621  0.42462  Biso   1.000  H
  C81      1.0000 0.13684  0.19222  0.33537  Biso   1.000  C
  H111     1.0000 0.18834  0.13543  0.38824  Biso   1.000  H
  H112     1.0000 0.18841  0.13543  0.38824  Biso   1.000  H
  C82      1.0000 0.91818  0.88384  0.16915  Biso   1.000  C
  H113     1.0000 0.77049  0.88401  0.18934  Biso   1.000  H
  H114     1.0000 0.75358  0.75998  0.18822  Biso   1.000  H
  H115     1.0000 0.75354  0.75989  0.18822  Biso   1.000  H
  C83      1.0000 0.91811  0.88384  0.16915  Biso   1.000  C
  H116     1.0000 0.77042  0.88401  0.18934  Biso   1.000  H
  C84      1.0000 0.88023  0.94740  0.16602  Biso   1.000  C
  H117     1.0000 0.72852  0.79681  0.18594  Biso   1.000  H
  H118     1.0000 0.83814  0.78919  0.19703  Biso   1.000  H
  C85      1.0000 0.17055  0.92136  0.32181  Biso   1.000  C
  C86      1.0000 0.17058  0.92128  0.32181  Biso   1.000  C
  C87      1.0000 0.17062  0.92136  0.32181  Biso   1.000  C
  C88      1.0000 0.17050  0.92128  0.32181  Biso   1.000  C
  H119     1.0000 0.32801  0.00617  0.34673  Biso   1.000  H
  H120     1.0000 0.32797  0.00608  0.34673  Biso   1.000  H
  H121     1.0000 0.32793  0.00617  0.34673  Biso   1.000  H
  H122     1.0000 0.32789  0.00608  0.34673  Biso   1.000  H
  H123     1.0000 0.99855  0.83168  0.31324  Biso   1.000  H
  H124     1.0000 0.99858  0.83159  0.31324  Biso   1.000  H
  H125     1.0000 0.99851  0.83159  0.31324  Biso   1.000  H
  C89      1.0000 0.07867  0.24918  0.32181  Biso   1.000  C
  C90      1.0000 0.07860  0.24918  0.32181  Biso   1.000  C
  H126     1.0000 0.99385  0.32182  0.34673  Biso   1.000  H
  H127     1.0000 0.99378  0.32182  0.34673  Biso   1.000  H
  H128     1.0000 0.16834  0.16695  0.31324  Biso   1.000  H
  H129     1.0000 0.16837  0.16686  0.31324  Biso   1.000  H
  H130     1.0000 0.16830  0.16686  0.31324  Biso   1.000  H
  H131     1.0000 0.95070  0.83493  0.17462  Biso   1.000  H
  H132     1.0000 0.90169  0.88127  0.13695  Biso   1.000  H
  H133     1.0000 0.90165  0.88119  0.13695  Biso   1.000  H
  H134     1.0000 0.95063  0.83493  0.17462  Biso   1.000  H
  N14      1.0000 0.99992  1.00000  0.18207  Biso   1.000  N
  C91      1.0000 0.05255  0.93284  0.16602  Biso   1.000  C
  H135     1.0000 0.87526  0.92530  0.13433  Biso   1.000  H
  C92      1.0000 0.96568  0.08180  0.16915  Biso   1.000  C
  C93      1.0000 0.96561  0.08180  0.16915  Biso   1.000  C
  H136     1.0000 0.85291  0.00137  0.16884  Biso   1.000  H
  C94      1.0000 0.20358  0.93224  0.27305  Biso   1.000  C
  C95      1.0000 0.06776  0.27128  0.27305  Biso   1.000  C
  C96      1.0000 0.06769  0.27128  0.27305  Biso   1.000  C
  C97      1.0000 0.11614  0.03435  0.16915  Biso   1.000  C
  C98      1.0000 0.11617  0.03426  0.16915  Biso   1.000  C
  C99      1.0000 0.11609  0.03426  0.16915  Biso   1.000  C
  C100     1.0000 0.06715  0.11975  0.16602  Biso   1.000  C
  H137     1.0000 0.99862  0.85155  0.16884  Biso   1.000  H
  C101     1.0000 0.16105  0.96736  0.19645  Biso   1.000  C
  C102     1.0000 0.16101  0.96728  0.19645  Biso   1.000  C
  C103     1.0000 0.16113  0.96736  0.19645  Biso   1.000  C
  H138     1.0000 0.07465  0.94989  0.13433  Biso   1.000  H
  H139     1.0000 0.88424  0.04934  0.17462  Biso   1.000  H
  H140     1.0000 0.97958  0.09834  0.13695  Biso   1.000  H
  H141     1.0000 0.97951  0.09834  0.13695  Biso   1.000  H
  C104     1.0000 0.03271  0.19376  0.19645  Biso   1.000  C
  C105     1.0000 0.03267  0.19368  0.19645  Biso   1.000  C
  C106     1.0000 0.03264  0.19376  0.19645  Biso   1.000  C
  C107     1.0000 0.03259  0.19368  0.19645  Biso   1.000  C
  N15      1.0000 0.15340  0.98484  0.24483  Biso   1.000  N
  N16      1.0000 0.15332  0.98484  0.24483  Biso   1.000  N
  N17      1.0000 0.10937  0.92393  0.24283  Biso   1.000  N
  H142     1.0000 0.28637  0.97764  0.27084  Biso   1.000  H
  H143     1.0000 0.18045  0.85660  0.26115  Biso   1.000  H
  H144     1.0000 0.22125  0.87365  0.26533  Biso   1.000  H
  H145     1.0000 0.27116  0.00522  0.26812  Biso   1.000  H
  N18      1.0000 0.01518  0.16849  0.24483  Biso   1.000  N
  N19      1.0000 0.01511  0.16849  0.24483  Biso   1.000  N
  N20      1.0000 0.07611  0.18545  0.24283  Biso   1.000  N
  H146     1.0000 0.99474  0.26589  0.26812  Biso   1.000  H
  H147     1.0000 0.02239  0.30872  0.27084  Biso   1.000  H
  H148     1.0000 0.14335  0.32379  0.26115  Biso   1.000  H
  H149     1.0000 0.02231  0.30872  0.27084  Biso   1.000  H
  H150     1.0000 0.12633  0.34761  0.26533  Biso   1.000  H
  H151     1.0000 0.16506  0.11573  0.17462  Biso   1.000  H
  H152     1.0000 0.11877  0.02047  0.13695  Biso   1.000  H
  H153     1.0000 0.11872  0.02039  0.13695  Biso   1.000  H
  H154     1.0000 0.05005  0.12472  0.13433  Biso   1.000  H
  H155     1.0000 0.14842  0.14699  0.16884  Biso   1.000  H
  H156     1.0000 0.11598  0.88641  0.18934  Biso   1.000  H
  H157     1.0000 0.24008  0.99366  0.18822  Biso   1.000  H
  H158     1.0000 0.24004  0.99357  0.18822  Biso   1.000  H
  H159     1.0000 0.24015  0.99366  0.18822  Biso   1.000  H
  H160     1.0000 0.11591  0.88641  0.18934  Biso   1.000  H
  H161     1.0000 0.20318  0.93173  0.18594  Biso   1.000  H
  H162     1.0000 0.21073  0.04891  0.19703  Biso   1.000  H
  H163     1.0000 0.95108  0.16181  0.19703  Biso   1.000  H
  H164     1.0000 0.11355  0.22948  0.18934  Biso   1.000  H
  H165     1.0000 0.00638  0.24644  0.18822  Biso   1.000  H
  H166     1.0000 0.00634  0.24636  0.18822  Biso   1.000  H
  H167     1.0000 0.11348  0.22948  0.18934  Biso   1.000  H
  H168     1.0000 0.06829  0.27146  0.18594  Biso   1.000  H
  H169     1.0000 0.19092  0.06553  0.25112  Biso   1.000  H
  H170     1.0000 0.19100  0.06553  0.25112  Biso   1.000  H
  H171     1.0000 0.04955  0.84538  0.24045  Biso   1.000  H
  H172     1.0000 0.93444  0.12540  0.25112  Biso   1.000  H
  H173     1.0000 0.93436  0.12540  0.25112  Biso   1.000  H
  H174     1.0000 0.15459  0.20413  0.24045  Biso   1.000  H
  C108     1.0000 0.81206  0.85720  0.49208  Biso   1.000  C
  O9       1.0000 0.81498  0.93233  0.45740  Biso   1.000  O
  O10      1.0000 0.81490  0.93233  0.45740  Biso   1.000  O
  H175     1.0000 0.73376  0.80461  0.50116  Biso   1.000  H
  C109     1.0000 0.87965  0.93216  0.53162  Biso   1.000  C
  H176     1.0000 0.84635  0.81317  0.48133  Biso   1.000  H
  H177     1.0000 0.84639  0.81326  0.48133  Biso   1.000  H
  C110     1.0000 0.87968  0.93207  0.53162  Biso   1.000  C
  H178     1.0000 0.84632  0.81326  0.48133  Biso   1.000  H
  C111     1.0000 0.87961  0.93207  0.53162  Biso   1.000  C
  C112     1.0000 0.79047  0.89267  0.41374  Biso   1.000  C
  C113     1.0000 0.79043  0.89258  0.41374  Biso   1.000  C
  H179     1.0000 0.86815  0.88393  0.55783  Biso   1.000  H
  H180     1.0000 0.85013  0.98261  0.53913  Biso   1.000  H
  H181     1.0000 0.85021  0.98261  0.53913  Biso   1.000  H
  N21      1.0000 0.99992  1.00000  0.52275  Biso   1.000  N
  C114     1.0000 0.73163  0.77780  0.40239  Biso   1.000  C
  C115     1.0000 0.73170  0.77780  0.40239  Biso   1.000  C
  C116     1.0000 0.82694  0.97584  0.38029  Biso   1.000  C
  C117     1.0000 0.82702  0.97584  0.38029  Biso   1.000  C
  C118     1.0000 0.06785  0.94757  0.53162  Biso   1.000  C
  C119     1.0000 0.06788  0.94749  0.53162  Biso   1.000  C
  C120     1.0000 0.06793  0.94757  0.53162  Biso   1.000  C
  C121     1.0000 0.06781  0.94749  0.53162  Biso   1.000  C
  C122     1.0000 0.05246  0.12035  0.53162  Biso   1.000  C
  C123     1.0000 0.05242  0.12027  0.53162  Biso   1.000  C
  C124     1.0000 0.71485  0.74884  0.35506  Biso   1.000  C
  C125     1.0000 0.71493  0.74884  0.35506  Biso   1.000  C
  H182     1.0000 0.70376  0.72117  0.42462  Biso   1.000  H
  H183     1.0000 0.70380  0.72126  0.42462  Biso   1.000  H
  H184     1.0000 0.70373  0.72126  0.42462  Biso   1.000  H
  C126     1.0000 0.80779  0.94466  0.33537  Biso   1.000  C
  C127     1.0000 0.80775  0.94458  0.33537  Biso   1.000  C
  H185     1.0000 0.86460  0.05294  0.38824  Biso   1.000  H
  H186     1.0000 0.86452  0.05294  0.38824  Biso   1.000  H
  C128     1.0000 0.14278  0.95486  0.49208  Biso   1.000  C
  H187     1.0000 0.01739  0.86757  0.53913  Biso   1.000  H
  H188     1.0000 0.11608  0.98424  0.55783  Biso   1.000  H
  C129     1.0000 0.14274  0.95477  0.49208  Biso   1.000  C
  H189     1.0000 0.01735  0.86748  0.53913  Biso   1.000  H
  C130     1.0000 0.04516  0.18794  0.49208  Biso   1.000  C
  H190     1.0000 0.13248  0.14982  0.53913  Biso   1.000  H
  H191     1.0000 0.01577  0.13183  0.55783  Biso   1.000  H
  H192     1.0000 0.13240  0.14982  0.53913  Biso   1.000  H
  C131     1.0000 0.75078  0.82945  0.32181  Biso   1.000  C
  H193     1.0000 0.67814  0.67200  0.34673  Biso   1.000  H
  H194     1.0000 0.83307  0.00145  0.31324  Biso   1.000  H
  H195     1.0000 0.83295  0.00137  0.31324  Biso   1.000  H
  H196     1.0000 0.83303  0.00137  0.31324  Biso   1.000  H
  O11      1.0000 0.06766  0.88264  0.45740  Biso   1.000  O
  H197     1.0000 0.19536  0.92916  0.50116  Biso   1.000  H
  H198     1.0000 0.19532  0.92907  0.50116  Biso   1.000  H
  O12      1.0000 0.06773  0.88264  0.45740  Biso   1.000  O
  H199     1.0000 0.19544  0.92916  0.50116  Biso   1.000  H
  H200     1.0000 0.18675  0.03315  0.48133  Biso   1.000  H
  H201     1.0000 0.18671  0.03306  0.48133  Biso   1.000  H
  H202     1.0000 0.96685  0.15359  0.48133  Biso   1.000  H
  H203     1.0000 0.96678  0.15359  0.48133  Biso   1.000  H
  O13      1.0000 0.11736  0.18502  0.45740  Biso   1.000  O
  H204     1.0000 0.07087  0.26623  0.50116  Biso   1.000  H
  H205     1.0000 0.07080  0.26623  0.50116  Biso   1.000  H
  C132     1.0000 0.72872  0.79647  0.27305  Biso   1.000  C
  C133     1.0000 0.72868  0.79638  0.27305  Biso   1.000  C
  C134     1.0000 0.72865  0.79647  0.27305  Biso   1.000  C
  C135     1.0000 0.72861  0.79638  0.27305  Biso   1.000  C
  C136     1.0000 0.10736  0.89781  0.41374  Biso   1.000  C
  C137     1.0000 0.10217  0.20952  0.41374  Biso   1.000  C
  H206     1.0000 0.67615  0.81951  0.26115  Biso   1.000  H
  H207     1.0000 0.69124  0.71364  0.27084  Biso   1.000  H
  N22      1.0000 0.83145  0.84658  0.24483  Biso   1.000  N
  N23      1.0000 0.83149  0.84667  0.24483  Biso   1.000  N
  H208     1.0000 0.69131  0.71364  0.27084  Biso   1.000  H
  N24      1.0000 0.83142  0.84667  0.24483  Biso   1.000  N
  N25      1.0000 0.81452  0.89061  0.24283  Biso   1.000  N
  H209     1.0000 0.65235  0.77874  0.26533  Biso   1.000  H
  H210     1.0000 0.73406  0.72880  0.26812  Biso   1.000  H
  C138     1.0000 0.22217  0.95383  0.40239  Biso   1.000  C
  C139     1.0000 0.02415  0.85112  0.38029  Biso   1.000  C
  C140     1.0000 0.02422  0.85112  0.38029  Biso   1.000  C
  C141     1.0000 0.04616  0.26829  0.40239  Biso   1.000  C
  C142     1.0000 0.14883  0.17303  0.38029  Biso   1.000  C
  C143     1.0000 0.14890  0.17303  0.38029  Biso   1.000  C
  C144     1.0000 0.04609  0.26829  0.40239  Biso   1.000  C
  H211     1.0000 0.87456  0.80906  0.25112  Biso   1.000  H
  C145     1.0000 0.80627  0.83896  0.19645  Biso   1.000  C
  H212     1.0000 0.87452  0.80898  0.25112  Biso   1.000  H
  C146     1.0000 0.80623  0.83887  0.19645  Biso   1.000  C
  H213     1.0000 0.79582  0.95040  0.24045  Biso   1.000  H
  C147     1.0000 0.25117  0.96599  0.35506  Biso   1.000  C
  C148     1.0000 0.25110  0.96599  0.35506  Biso   1.000  C
  H214     1.0000 0.27872  0.98252  0.42462  Biso   1.000  H
  H215     1.0000 0.27880  0.98252  0.42462  Biso   1.000  H
  C149     1.0000 0.05537  0.86311  0.33537  Biso   1.000  C
  H216     1.0000 0.94706  0.81163  0.38824  Biso   1.000  H
  C150     1.0000 0.03398  0.28516  0.35506  Biso   1.000  C
  C151     1.0000 0.03393  0.28508  0.35506  Biso   1.000  C
  H217     1.0000 0.01747  0.29621  0.42462  Biso   1.000  H
  H218     1.0000 0.01739  0.29621  0.42462  Biso   1.000  H
  C152     1.0000 0.13684  0.19222  0.33537  Biso   1.000  C
  H219     1.0000 0.18834  0.13543  0.38824  Biso   1.000  H
  H220     1.0000 0.18841  0.13543  0.38824  Biso   1.000  H
  C153     1.0000 0.91818  0.88384  0.16915  Biso   1.000  C
  H221     1.0000 0.77049  0.88401  0.18934  Biso   1.000  H
  H222     1.0000 0.75358  0.75998  0.18822  Biso   1.000  H
  H223     1.0000 0.77042  0.88401  0.18934  Biso   1.000  H
  H224     1.0000 0.75354  0.75989  0.18822  Biso   1.000  H
  C154     1.0000 0.91811  0.88384  0.16915  Biso   1.000  C
  C155     1.0000 0.88023  0.94740  0.16602  Biso   1.000  C
  H225     1.0000 0.72852  0.79681  0.18594  Biso   1.000  H
  H226     1.0000 0.83814  0.78919  0.19703  Biso   1.000  H
  C156     1.0000 0.17055  0.92136  0.32181  Biso   1.000  C
  C157     1.0000 0.17058  0.92128  0.32181  Biso   1.000  C
  C158     1.0000 0.17062  0.92136  0.32181  Biso   1.000  C
  C159     1.0000 0.17050  0.92128  0.32181  Biso   1.000  C
  H227     1.0000 0.32801  0.00617  0.34673  Biso   1.000  H
  H228     1.0000 0.32797  0.00608  0.34673  Biso   1.000  H
  H229     1.0000 0.32793  0.00617  0.34673  Biso   1.000  H
  H230     1.0000 0.32789  0.00608  0.34673  Biso   1.000  H
  H231     1.0000 0.99855  0.83168  0.31324  Biso   1.000  H
  H232     1.0000 0.99858  0.83159  0.31324  Biso   1.000  H
  H233     1.0000 0.99851  0.83159  0.31324  Biso   1.000  H
  C160     1.0000 0.07867  0.24918  0.32181  Biso   1.000  C
  C161     1.0000 0.07860  0.24918  0.32181  Biso   1.000  C
  H234     1.0000 0.99385  0.32182  0.34673  Biso   1.000  H
  H235     1.0000 0.99378  0.32182  0.34673  Biso   1.000  H
  H236     1.0000 0.16834  0.16695  0.31324  Biso   1.000  H
  H237     1.0000 0.16837  0.16686  0.31324  Biso   1.000  H
  H238     1.0000 0.16830  0.16686  0.31324  Biso   1.000  H
  H239     1.0000 0.95070  0.83493  0.17462  Biso   1.000  H
  H240     1.0000 0.90169  0.88127  0.13695  Biso   1.000  H
  H241     1.0000 0.95063  0.83493  0.17462  Biso   1.000  H
  H242     1.0000 0.90165  0.88119  0.13695  Biso   1.000  H
  N26      1.0000 0.99992  1.00000  0.18207  Biso   1.000  N
  C162     1.0000 0.05255  0.93284  0.16602  Biso   1.000  C
  H243     1.0000 0.87526  0.92530  0.13433  Biso   1.000  H
  C163     1.0000 0.96568  0.08180  0.16915  Biso   1.000  C
  C164     1.0000 0.96561  0.08180  0.16915  Biso   1.000  C
  H244     1.0000 0.85291  0.00137  0.16884  Biso   1.000  H
  C165     1.0000 0.20358  0.93224  0.27305  Biso   1.000  C
  C166     1.0000 0.06776  0.27128  0.27305  Biso   1.000  C
  C167     1.0000 0.06769  0.27128  0.27305  Biso   1.000  C
  C168     1.0000 0.11614  0.03435  0.16915  Biso   1.000  C
  C169     1.0000 0.11617  0.03426  0.16915  Biso   1.000  C
  C170     1.0000 0.11609  0.03426  0.16915  Biso   1.000  C
  C171     1.0000 0.06715  0.11975  0.16602  Biso   1.000  C
  H245     1.0000 0.99862  0.85155  0.16884  Biso   1.000  H
  C172     1.0000 0.16105  0.96736  0.19645  Biso   1.000  C
  C173     1.0000 0.16101  0.96728  0.19645  Biso   1.000  C
  C174     1.0000 0.16113  0.96736  0.19645  Biso   1.000  C
  H246     1.0000 0.07465  0.94989  0.13433  Biso   1.000  H
  H247     1.0000 0.88424  0.04934  0.17462  Biso   1.000  H
  H248     1.0000 0.97958  0.09834  0.13695  Biso   1.000  H
  H249     1.0000 0.97951  0.09834  0.13695  Biso   1.000  H
  C175     1.0000 0.03271  0.19376  0.19645  Biso   1.000  C
  C176     1.0000 0.03267  0.19368  0.19645  Biso   1.000  C
  C177     1.0000 0.03264  0.19376  0.19645  Biso   1.000  C
  C178     1.0000 0.03259  0.19368  0.19645  Biso   1.000  C
  N27      1.0000 0.15340  0.98484  0.24483  Biso   1.000  N
  N28      1.0000 0.15332  0.98484  0.24483  Biso   1.000  N
  N29      1.0000 0.10937  0.92393  0.24283  Biso   1.000  N
  H250     1.0000 0.28637  0.97764  0.27084  Biso   1.000  H
  H251     1.0000 0.18045  0.85660  0.26115  Biso   1.000  H
  H252     1.0000 0.22125  0.87365  0.26533  Biso   1.000  H
  H253     1.0000 0.27116  0.00522  0.26812  Biso   1.000  H
  N30      1.0000 0.01518  0.16849  0.24483  Biso   1.000  N
  N31      1.0000 0.01511  0.16849  0.24483  Biso   1.000  N
  N32      1.0000 0.07611  0.18545  0.24283  Biso   1.000  N
  H254     1.0000 0.99474  0.26589  0.26812  Biso   1.000  H
  H255     1.0000 0.02239  0.30872  0.27084  Biso   1.000  H
  H256     1.0000 0.14335  0.32379  0.26115  Biso   1.000  H
  H257     1.0000 0.02231  0.30872  0.27084  Biso   1.000  H
  H258     1.0000 0.12633  0.34761  0.26533  Biso   1.000  H
  H259     1.0000 0.16506  0.11573  0.17462  Biso   1.000  H
  H260     1.0000 0.11877  0.02047  0.13695  Biso   1.000  H
  H261     1.0000 0.11872  0.02039  0.13695  Biso   1.000  H
  H262     1.0000 0.05005  0.12472  0.13433  Biso   1.000  H
  H263     1.0000 0.14842  0.14699  0.16884  Biso   1.000  H
  H264     1.0000 0.11598  0.88641  0.18934  Biso   1.000  H
  H265     1.0000 0.24008  0.99366  0.18822  Biso   1.000  H
  H266     1.0000 0.24004  0.99357  0.18822  Biso   1.000  H
  H267     1.0000 0.24015  0.99366  0.18822  Biso   1.000  H
  H268     1.0000 0.11591  0.88641  0.18934  Biso   1.000  H
  H269     1.0000 0.20318  0.93173  0.18594  Biso   1.000  H
  H270     1.0000 0.21073  0.04891  0.19703  Biso   1.000  H
  H271     1.0000 0.95108  0.16181  0.19703  Biso   1.000  H
  H272     1.0000 0.11355  0.22948  0.18934  Biso   1.000  H
  H273     1.0000 0.00638  0.24644  0.18822  Biso   1.000  H
  H274     1.0000 0.00634  0.24636  0.18822  Biso   1.000  H
  H275     1.0000 0.11348  0.22948  0.18934  Biso   1.000  H
  H276     1.0000 0.06829  0.27146  0.18594  Biso   1.000  H
  H277     1.0000 0.19092  0.06553  0.25112  Biso   1.000  H
  H278     1.0000 0.19100  0.06553  0.25112  Biso   1.000  H
  H279     1.0000 0.04955  0.84538  0.24045  Biso   1.000  H
  H280     1.0000 0.93444  0.12540  0.25112  Biso   1.000  H
  H281     1.0000 0.93436  0.12540  0.25112  Biso   1.000  H
  H282     1.0000 0.15459  0.20413  0.24045  Biso   1.000  H
  C179     1.0000 0.81206  0.85720  0.49208  Biso   1.000  C
  O14      1.0000 0.81498  0.93233  0.45740  Biso   1.000  O
  O15      1.0000 0.81490  0.93233  0.45740  Biso   1.000  O
  H283     1.0000 0.73376  0.80461  0.50116  Biso   1.000  H
  H284     1.0000 0.84639  0.81326  0.48133  Biso   1.000  H
  C180     1.0000 0.87965  0.93216  0.53162  Biso   1.000  C
  H285     1.0000 0.84635  0.81317  0.48133  Biso   1.000  H
  C181     1.0000 0.87968  0.93207  0.53162  Biso   1.000  C
  H286     1.0000 0.84632  0.81326  0.48133  Biso   1.000  H
  C182     1.0000 0.87961  0.93207  0.53162  Biso   1.000  C
  C183     1.0000 0.79047  0.89267  0.41374  Biso   1.000  C
  C184     1.0000 0.79043  0.89258  0.41374  Biso   1.000  C
  H287     1.0000 0.86815  0.88393  0.55783  Biso   1.000  H
  H288     1.0000 0.85013  0.98261  0.53913  Biso   1.000  H
  H289     1.0000 0.85021  0.98261  0.53913  Biso   1.000  H
  N33      1.0000 0.99992  1.00000  0.52275  Biso   1.000  N
  C185     1.0000 0.73163  0.77780  0.40239  Biso   1.000  C
  C186     1.0000 0.73170  0.77780  0.40239  Biso   1.000  C
  C187     1.0000 0.82694  0.97584  0.38029  Biso   1.000  C
  C188     1.0000 0.82702  0.97584  0.38029  Biso   1.000  C
  C189     1.0000 0.06785  0.94757  0.53162  Biso   1.000  C
  C190     1.0000 0.06788  0.94749  0.53162  Biso   1.000  C
  C191     1.0000 0.06793  0.94757  0.53162  Biso   1.000  C
  C192     1.0000 0.06781  0.94749  0.53162  Biso   1.000  C
  C193     1.0000 0.05246  0.12035  0.53162  Biso   1.000  C
  C194     1.0000 0.05242  0.12027  0.53162  Biso   1.000  C
  C195     1.0000 0.71485  0.74884  0.35506  Biso   1.000  C
  C196     1.0000 0.71493  0.74884  0.35506  Biso   1.000  C
  H290     1.0000 0.70380  0.72126  0.42462  Biso   1.000  H
  H291     1.0000 0.70376  0.72117  0.42462  Biso   1.000  H
  H292     1.0000 0.70373  0.72126  0.42462  Biso   1.000  H
  C197     1.0000 0.80779  0.94466  0.33537  Biso   1.000  C
  C198     1.0000 0.80775  0.94458  0.33537  Biso   1.000  C
  H293     1.0000 0.86460  0.05294  0.38824  Biso   1.000  H
  H294     1.0000 0.86452  0.05294  0.38824  Biso   1.000  H
  C199     1.0000 0.14278  0.95486  0.49208  Biso   1.000  C
  H295     1.0000 0.01739  0.86757  0.53913  Biso   1.000  H
  H296     1.0000 0.11608  0.98424  0.55783  Biso   1.000  H
  C200     1.0000 0.14274  0.95477  0.49208  Biso   1.000  C
  H297     1.0000 0.01735  0.86748  0.53913  Biso   1.000  H
  C201     1.0000 0.04516  0.18794  0.49208  Biso   1.000  C
  H298     1.0000 0.13248  0.14982  0.53913  Biso   1.000  H
  H299     1.0000 0.01577  0.13183  0.55783  Biso   1.000  H
  H300     1.0000 0.13240  0.14982  0.53913  Biso   1.000  H
  C202     1.0000 0.75078  0.82945  0.32181  Biso   1.000  C
  H301     1.0000 0.67814  0.67200  0.34673  Biso   1.000  H
  H302     1.0000 0.83307  0.00145  0.31324  Biso   1.000  H
  H303     1.0000 0.83295  0.00137  0.31324  Biso   1.000  H
  H304     1.0000 0.83303  0.00137  0.31324  Biso   1.000  H
  O16      1.0000 0.06766  0.88264  0.45740  Biso   1.000  O
  H305     1.0000 0.19536  0.92916  0.50116  Biso   1.000  H
  H306     1.0000 0.19532  0.92907  0.50116  Biso   1.000  H
  O17      1.0000 0.06773  0.88264  0.45740  Biso   1.000  O
  H307     1.0000 0.19544  0.92916  0.50116  Biso   1.000  H
  H308     1.0000 0.18675  0.03315  0.48133  Biso   1.000  H
  H309     1.0000 0.18671  0.03306  0.48133  Biso   1.000  H
  H310     1.0000 0.96685  0.15359  0.48133  Biso   1.000  H
  H311     1.0000 0.96678  0.15359  0.48133  Biso   1.000  H
  O18      1.0000 0.11736  0.18502  0.45740  Biso   1.000  O
  H312     1.0000 0.07087  0.26623  0.50116  Biso   1.000  H
  H313     1.0000 0.07080  0.26623  0.50116  Biso   1.000  H
  C203     1.0000 0.72872  0.79647  0.27305  Biso   1.000  C
  C204     1.0000 0.72868  0.79638  0.27305  Biso   1.000  C
  C205     1.0000 0.72865  0.79647  0.27305  Biso   1.000  C
  C206     1.0000 0.72861  0.79638  0.27305  Biso   1.000  C
  C207     1.0000 0.10736  0.89781  0.41374  Biso   1.000  C
  C208     1.0000 0.10217  0.20952  0.41374  Biso   1.000  C
  H314     1.0000 0.67615  0.81951  0.26115  Biso   1.000  H
  H315     1.0000 0.69124  0.71364  0.27084  Biso   1.000  H
  N34      1.0000 0.83149  0.84667  0.24483  Biso   1.000  N
  N35      1.0000 0.83145  0.84658  0.24483  Biso   1.000  N
  H316     1.0000 0.69131  0.71364  0.27084  Biso   1.000  H
  N36      1.0000 0.83142  0.84667  0.24483  Biso   1.000  N
  N37      1.0000 0.81452  0.89061  0.24283  Biso   1.000  N
  H317     1.0000 0.65235  0.77874  0.26533  Biso   1.000  H
  H318     1.0000 0.73406  0.72880  0.26812  Biso   1.000  H
  C209     1.0000 0.22217  0.95383  0.40239  Biso   1.000  C
  C210     1.0000 0.02415  0.85112  0.38029  Biso   1.000  C
  C211     1.0000 0.02422  0.85112  0.38029  Biso   1.000  C
  C212     1.0000 0.04616  0.26829  0.40239  Biso   1.000  C
  C213     1.0000 0.14883  0.17303  0.38029  Biso   1.000  C
  C214     1.0000 0.14890  0.17303  0.38029  Biso   1.000  C
  C215     1.0000 0.04609  0.26829  0.40239  Biso   1.000  C
  H319     1.0000 0.87456  0.80906  0.25112  Biso   1.000  H
  C216     1.0000 0.80627  0.83896  0.19645  Biso   1.000  C
  H320     1.0000 0.87452  0.80898  0.25112  Biso   1.000  H
  C217     1.0000 0.80623  0.83887  0.19645  Biso   1.000  C
  H321     1.0000 0.79582  0.95040  0.24045  Biso   1.000  H
  C218     1.0000 0.25117  0.96599  0.35506  Biso   1.000  C
  C219     1.0000 0.25110  0.96599  0.35506  Biso   1.000  C
  H322     1.0000 0.27872  0.98252  0.42462  Biso   1.000  H
  H323     1.0000 0.27880  0.98252  0.42462  Biso   1.000  H
  C220     1.0000 0.05537  0.86311  0.33537  Biso   1.000  C
  H324     1.0000 0.94706  0.81163  0.38824  Biso   1.000  H
  C221     1.0000 0.03398  0.28516  0.35506  Biso   1.000  C
  C222     1.0000 0.03393  0.28508  0.35506  Biso   1.000  C
  H325     1.0000 0.01747  0.29621  0.42462  Biso   1.000  H
  H326     1.0000 0.01739  0.29621  0.42462  Biso   1.000  H
  C223     1.0000 0.13684  0.19222  0.33537  Biso   1.000  C
  H327     1.0000 0.18834  0.13543  0.38824  Biso   1.000  H
  H328     1.0000 0.18841  0.13543  0.38824  Biso   1.000  H
  C224     1.0000 0.91818  0.88384  0.16915  Biso   1.000  C
  H329     1.0000 0.77049  0.88401  0.18934  Biso   1.000  H
  H330     1.0000 0.75358  0.75998  0.18822  Biso   1.000  H
  H331     1.0000 0.75354  0.75989  0.18822  Biso   1.000  H
  C225     1.0000 0.91811  0.88384  0.16915  Biso   1.000  C
  H332     1.0000 0.77042  0.88401  0.18934  Biso   1.000  H
  C226     1.0000 0.88023  0.94740  0.16602  Biso   1.000  C
  H333     1.0000 0.72852  0.79681  0.18594  Biso   1.000  H
  H334     1.0000 0.83814  0.78919  0.19703  Biso   1.000  H
  C227     1.0000 0.17055  0.92136  0.32181  Biso   1.000  C
  C228     1.0000 0.17058  0.92128  0.32181  Biso   1.000  C
  C229     1.0000 0.17062  0.92136  0.32181  Biso   1.000  C
  C230     1.0000 0.17050  0.92128  0.32181  Biso   1.000  C
  H335     1.0000 0.32801  0.00617  0.34673  Biso   1.000  H
  H336     1.0000 0.32797  0.00608  0.34673  Biso   1.000  H
  H337     1.0000 0.32793  0.00617  0.34673  Biso   1.000  H
  H338     1.0000 0.32789  0.00608  0.34673  Biso   1.000  H
  H339     1.0000 0.99855  0.83168  0.31324  Biso   1.000  H
  H340     1.0000 0.99858  0.83159  0.31324  Biso   1.000  H
  H341     1.0000 0.99851  0.83159  0.31324  Biso   1.000  H
  C231     1.0000 0.07867  0.24918  0.32181  Biso   1.000  C
  C232     1.0000 0.07860  0.24918  0.32181  Biso   1.000  C
  H342     1.0000 0.99385  0.32182  0.34673  Biso   1.000  H
  H343     1.0000 0.99378  0.32182  0.34673  Biso   1.000  H
  H344     1.0000 0.16834  0.16695  0.31324  Biso   1.000  H
  H345     1.0000 0.16837  0.16686  0.31324  Biso   1.000  H
  H346     1.0000 0.16830  0.16686  0.31324  Biso   1.000  H
  H347     1.0000 0.95070  0.83493  0.17462  Biso   1.000  H
  H348     1.0000 0.90169  0.88127  0.13695  Biso   1.000  H
  H349     1.0000 0.90165  0.88119  0.13695  Biso   1.000  H
  H350     1.0000 0.95063  0.83493  0.17462  Biso   1.000  H
  N38      1.0000 0.99992  1.00000  0.18207  Biso   1.000  N
  C233     1.0000 0.05255  0.93284  0.16602  Biso   1.000  C
  H351     1.0000 0.87526  0.92530  0.13433  Biso   1.000  H
  C234     1.0000 0.96568  0.08180  0.16915  Biso   1.000  C
  C235     1.0000 0.96561  0.08180  0.16915  Biso   1.000  C
  H352     1.0000 0.85291  0.00137  0.16884  Biso   1.000  H
  C236     1.0000 0.20358  0.93224  0.27305  Biso   1.000  C
  C237     1.0000 0.06776  0.27128  0.27305  Biso   1.000  C
  C238     1.0000 0.06769  0.27128  0.27305  Biso   1.000  C
  C239     1.0000 0.11614  0.03435  0.16915  Biso   1.000  C
  C240     1.0000 0.11617  0.03426  0.16915  Biso   1.000  C
  C241     1.0000 0.11609  0.03426  0.16915  Biso   1.000  C
  C242     1.0000 0.06715  0.11975  0.16602  Biso   1.000  C
  H353     1.0000 0.99862  0.85155  0.16884  Biso   1.000  H
  C243     1.0000 0.16105  0.96736  0.19645  Biso   1.000  C
  C244     1.0000 0.16101  0.96728  0.19645  Biso   1.000  C
  C245     1.0000 0.16113  0.96736  0.19645  Biso   1.000  C
  H354     1.0000 0.07465  0.94989  0.13433  Biso   1.000  H
  H355     1.0000 0.88424  0.04934  0.17462  Biso   1.000  H
  H356     1.0000 0.97958  0.09834  0.13695  Biso   1.000  H
  H357     1.0000 0.97951  0.09834  0.13695  Biso   1.000  H
  C246     1.0000 0.03271  0.19376  0.19645  Biso   1.000  C
  C247     1.0000 0.03267  0.19368  0.19645  Biso   1.000  C
  C248     1.0000 0.03264  0.19376  0.19645  Biso   1.000  C
  C249     1.0000 0.03259  0.19368  0.19645  Biso   1.000  C
  N39      1.0000 0.15340  0.98484  0.24483  Biso   1.000  N
  N40      1.0000 0.15332  0.98484  0.24483  Biso   1.000  N
  N41      1.0000 0.10937  0.92393  0.24283  Biso   1.000  N
  H358     1.0000 0.28637  0.97764  0.27084  Biso   1.000  H
  H359     1.0000 0.18045  0.85660  0.26115  Biso   1.000  H
  H360     1.0000 0.22125  0.87365  0.26533  Biso   1.000  H
  H361     1.0000 0.27116  0.00522  0.26812  Biso   1.000  H
  N42      1.0000 0.01518  0.16849  0.24483  Biso   1.000  N
  N43      1.0000 0.01511  0.16849  0.24483  Biso   1.000  N
  N44      1.0000 0.07611  0.18545  0.24283  Biso   1.000  N
  H362     1.0000 0.99474  0.26589  0.26812  Biso   1.000  H
  H363     1.0000 0.02239  0.30872  0.27084  Biso   1.000  H
  H364     1.0000 0.14335  0.32379  0.26115  Biso   1.000  H
  H365     1.0000 0.02231  0.30872  0.27084  Biso   1.000  H
  H366     1.0000 0.12633  0.34761  0.26533  Biso   1.000  H
  H367     1.0000 0.16506  0.11573  0.17462  Biso   1.000  H
  H368     1.0000 0.11877  0.02047  0.13695  Biso   1.000  H
  H369     1.0000 0.11872  0.02039  0.13695  Biso   1.000  H
  H370     1.0000 0.05005  0.12472  0.13433  Biso   1.000  H
  H371     1.0000 0.14842  0.14699  0.16884  Biso   1.000  H
  H372     1.0000 0.11598  0.88641  0.18934  Biso   1.000  H
  H373     1.0000 0.24008  0.99366  0.18822  Biso   1.000  H
  H374     1.0000 0.24004  0.99357  0.18822  Biso   1.000  H
  H375     1.0000 0.24015  0.99366  0.18822  Biso   1.000  H
  H376     1.0000 0.11591  0.88641  0.18934  Biso   1.000  H
  H377     1.0000 0.20318  0.93173  0.18594  Biso   1.000  H
  H378     1.0000 0.21073  0.04891  0.19703  Biso   1.000  H
  H379     1.0000 0.95108  0.16181  0.19703  Biso   1.000  H
  H380     1.0000 0.11355  0.22948  0.18934  Biso   1.000  H
  H381     1.0000 0.00638  0.24644  0.18822  Biso   1.000  H
  H382     1.0000 0.00634  0.24636  0.18822  Biso   1.000  H
  H383     1.0000 0.11348  0.22948  0.18934  Biso   1.000  H
  H384     1.0000 0.06829  0.27146  0.18594  Biso   1.000  H
  H385     1.0000 0.19092  0.06553  0.25112  Biso   1.000  H
  H386     1.0000 0.19100  0.06553  0.25112  Biso   1.000  H
  H387     1.0000 0.04955  0.84538  0.24045  Biso   1.000  H
  H388     1.0000 0.93444  0.12540  0.25112  Biso   1.000  H
  H389     1.0000 0.93436  0.12540  0.25112  Biso   1.000  H
  H390     1.0000 0.15459  0.20413  0.24045  Biso   1.000  H
  C250     1.0000 0.81206  0.85720  0.49208  Biso   1.000  C
  O19      1.0000 0.81498  0.93233  0.45740  Biso   1.000  O
  O20      1.0000 0.81490  0.93233  0.45740  Biso   1.000  O
  H391     1.0000 0.73376  0.80461  0.50116  Biso   1.000  H
  H392     1.0000 0.84639  0.81326  0.48133  Biso   1.000  H
  C251     1.0000 0.87965  0.93216  0.53162  Biso   1.000  C
  H393     1.0000 0.84635  0.81317  0.48133  Biso   1.000  H
  C252     1.0000 0.87968  0.93207  0.53162  Biso   1.000  C
  H394     1.0000 0.84632  0.81326  0.48133  Biso   1.000  H
  C253     1.0000 0.87961  0.93207  0.53162  Biso   1.000  C
  C254     1.0000 0.79047  0.89267  0.41374  Biso   1.000  C
  C255     1.0000 0.79043  0.89258  0.41374  Biso   1.000  C
  H395     1.0000 0.86815  0.88393  0.55783  Biso   1.000  H
  H396     1.0000 0.85013  0.98261  0.53913  Biso   1.000  H
  H397     1.0000 0.85021  0.98261  0.53913  Biso   1.000  H
  N45      1.0000 0.99992  1.00000  0.52275  Biso   1.000  N
  C256     1.0000 0.73163  0.77780  0.40239  Biso   1.000  C
  C257     1.0000 0.73170  0.77780  0.40239  Biso   1.000  C
  C258     1.0000 0.82694  0.97584  0.38029  Biso   1.000  C
  C259     1.0000 0.82702  0.97584  0.38029  Biso   1.000  C
  C260     1.0000 0.06785  0.94757  0.53162  Biso   1.000  C
  C261     1.0000 0.06788  0.94749  0.53162  Biso   1.000  C
  C262     1.0000 0.06793  0.94757  0.53162  Biso   1.000  C
  C263     1.0000 0.06781  0.94749  0.53162  Biso   1.000  C
  C264     1.0000 0.05246  0.12035  0.53162  Biso   1.000  C
  C265     1.0000 0.05242  0.12027  0.53162  Biso   1.000  C
  C266     1.0000 0.71485  0.74884  0.35506  Biso   1.000  C
  C267     1.0000 0.71493  0.74884  0.35506  Biso   1.000  C
  H398     1.0000 0.70380  0.72126  0.42462  Biso   1.000  H
  H399     1.0000 0.70376  0.72117  0.42462  Biso   1.000  H
  H400     1.0000 0.70373  0.72126  0.42462  Biso   1.000  H
  C268     1.0000 0.80779  0.94466  0.33537  Biso   1.000  C
  C269     1.0000 0.80775  0.94458  0.33537  Biso   1.000  C
  H401     1.0000 0.86460  0.05294  0.38824  Biso   1.000  H
  H402     1.0000 0.86452  0.05294  0.38824  Biso   1.000  H
  C270     1.0000 0.14278  0.95486  0.49208  Biso   1.000  C
  H403     1.0000 0.01739  0.86757  0.53913  Biso   1.000  H
  H404     1.0000 0.11608  0.98424  0.55783  Biso   1.000  H
  C271     1.0000 0.14274  0.95477  0.49208  Biso   1.000  C
  H405     1.0000 0.01735  0.86748  0.53913  Biso   1.000  H
  C272     1.0000 0.04516  0.18794  0.49208  Biso   1.000  C
  H406     1.0000 0.13248  0.14982  0.53913  Biso   1.000  H
  H407     1.0000 0.01577  0.13183  0.55783  Biso   1.000  H
  H408     1.0000 0.13240  0.14982  0.53913  Biso   1.000  H
  C273     1.0000 0.75078  0.82945  0.32181  Biso   1.000  C
  H409     1.0000 0.67814  0.67200  0.34673  Biso   1.000  H
  H410     1.0000 0.83307  0.00145  0.31324  Biso   1.000  H
  H411     1.0000 0.83295  0.00137  0.31324  Biso   1.000  H
  H412     1.0000 0.83303  0.00137  0.31324  Biso   1.000  H
  O21      1.0000 0.06766  0.88264  0.45740  Biso   1.000  O
  H413     1.0000 0.19536  0.92916  0.50116  Biso   1.000  H
  H414     1.0000 0.19532  0.92907  0.50116  Biso   1.000  H
  O22      1.0000 0.06773  0.88264  0.45740  Biso   1.000  O
  H415     1.0000 0.19544  0.92916  0.50116  Biso   1.000  H
  H416     1.0000 0.18675  0.03315  0.48133  Biso   1.000  H
  H417     1.0000 0.18671  0.03306  0.48133  Biso   1.000  H
  H418     1.0000 0.96685  0.15359  0.48133  Biso   1.000  H
  H419     1.0000 0.96678  0.15359  0.48133  Biso   1.000  H
  O23      1.0000 0.11736  0.18502  0.45740  Biso   1.000  O
  H420     1.0000 0.07087  0.26623  0.50116  Biso   1.000  H
  H421     1.0000 0.07080  0.26623  0.50116  Biso   1.000  H
  C274     1.0000 0.72872  0.79647  0.27305  Biso   1.000  C
  C275     1.0000 0.72868  0.79638  0.27305  Biso   1.000  C
  C276     1.0000 0.72865  0.79647  0.27305  Biso   1.000  C
  C277     1.0000 0.72861  0.79638  0.27305  Biso   1.000  C
  C278     1.0000 0.10736  0.89781  0.41374  Biso   1.000  C
  C279     1.0000 0.10217  0.20952  0.41374  Biso   1.000  C
  H422     1.0000 0.67615  0.81951  0.26115  Biso   1.000  H
  N46      1.0000 0.83149  0.84667  0.24483  Biso   1.000  N
  H423     1.0000 0.69124  0.71364  0.27084  Biso   1.000  H
  N47      1.0000 0.83145  0.84658  0.24483  Biso   1.000  N
  H424     1.0000 0.69131  0.71364  0.27084  Biso   1.000  H
  N48      1.0000 0.83142  0.84667  0.24483  Biso   1.000  N
  N49      1.0000 0.81452  0.89061  0.24283  Biso   1.000  N
  H425     1.0000 0.65235  0.77874  0.26533  Biso   1.000  H
  H426     1.0000 0.73406  0.72880  0.26812  Biso   1.000  H
  C280     1.0000 0.22217  0.95383  0.40239  Biso   1.000  C
  C281     1.0000 0.02415  0.85112  0.38029  Biso   1.000  C
  C282     1.0000 0.02422  0.85112  0.38029  Biso   1.000  C
  C283     1.0000 0.04616  0.26829  0.40239  Biso   1.000  C
  C284     1.0000 0.04609  0.26829  0.40239  Biso   1.000  C
  C285     1.0000 0.14883  0.17303  0.38029  Biso   1.000  C
  C286     1.0000 0.14890  0.17303  0.38029  Biso   1.000  C
  H427     1.0000 0.87456  0.80906  0.25112  Biso   1.000  H
  C287     1.0000 0.80627  0.83896  0.19645  Biso   1.000  C
  H428     1.0000 0.87452  0.80898  0.25112  Biso   1.000  H
  C288     1.0000 0.80623  0.83887  0.19645  Biso   1.000  C
  H429     1.0000 0.79582  0.95040  0.24045  Biso   1.000  H
  C289     1.0000 0.25117  0.96599  0.35506  Biso   1.000  C
  C290     1.0000 0.25110  0.96599  0.35506  Biso   1.000  C
  H430     1.0000 0.27872  0.98252  0.42462  Biso   1.000  H
  H431     1.0000 0.27880  0.98252  0.42462  Biso   1.000  H
  C291     1.0000 0.05537  0.86311  0.33537  Biso   1.000  C
  H432     1.0000 0.94706  0.81163  0.38824  Biso   1.000  H
  C292     1.0000 0.03398  0.28516  0.35506  Biso   1.000  C
  C293     1.0000 0.03393  0.28508  0.35506  Biso   1.000  C
  H433     1.0000 0.01747  0.29621  0.42462  Biso   1.000  H
  H434     1.0000 0.01739  0.29621  0.42462  Biso   1.000  H
  C294     1.0000 0.13684  0.19222  0.33537  Biso   1.000  C
  H435     1.0000 0.18834  0.13543  0.38824  Biso   1.000  H
  H436     1.0000 0.18841  0.13543  0.38824  Biso   1.000  H
  C295     1.0000 0.91818  0.88384  0.16915  Biso   1.000  C
  H437     1.0000 0.77049  0.88401  0.18934  Biso   1.000  H
  H438     1.0000 0.75358  0.75998  0.18822  Biso   1.000  H
  H439     1.0000 0.75354  0.75989  0.18822  Biso   1.000  H
  C296     1.0000 0.91811  0.88384  0.16915  Biso   1.000  C
  H440     1.0000 0.77042  0.88401  0.18934  Biso   1.000  H
  C297     1.0000 0.88023  0.94740  0.16602  Biso   1.000  C
  H441     1.0000 0.72852  0.79681  0.18594  Biso   1.000  H
  H442     1.0000 0.83814  0.78919  0.19703  Biso   1.000  H
  C298     1.0000 0.17055  0.92136  0.32181  Biso   1.000  C
  C299     1.0000 0.17058  0.92128  0.32181  Biso   1.000  C
  C300     1.0000 0.17062  0.92136  0.32181  Biso   1.000  C
  C301     1.0000 0.17050  0.92128  0.32181  Biso   1.000  C
  H443     1.0000 0.32801  0.00617  0.34673  Biso   1.000  H
  H444     1.0000 0.32797  0.00608  0.34673  Biso   1.000  H
  H445     1.0000 0.32793  0.00617  0.34673  Biso   1.000  H
  H446     1.0000 0.32789  0.00608  0.34673  Biso   1.000  H
  H447     1.0000 0.99855  0.83168  0.31324  Biso   1.000  H
  H448     1.0000 0.99858  0.83159  0.31324  Biso   1.000  H
  H449     1.0000 0.99851  0.83159  0.31324  Biso   1.000  H
  C302     1.0000 0.07867  0.24918  0.32181  Biso   1.000  C
  C303     1.0000 0.07860  0.24918  0.32181  Biso   1.000  C
  H450     1.0000 0.99385  0.32182  0.34673  Biso   1.000  H
  H451     1.0000 0.99378  0.32182  0.34673  Biso   1.000  H
  H452     1.0000 0.16834  0.16695  0.31324  Biso   1.000  H
  H453     1.0000 0.16837  0.16686  0.31324  Biso   1.000  H
  H454     1.0000 0.16830  0.16686  0.31324  Biso   1.000  H
  H455     1.0000 0.95070  0.83493  0.17462  Biso   1.000  H
  H456     1.0000 0.90169  0.88127  0.13695  Biso   1.000  H
  H457     1.0000 0.90165  0.88119  0.13695  Biso   1.000  H
  H458     1.0000 0.95063  0.83493  0.17462  Biso   1.000  H
  N50      1.0000 0.99992  1.00000  0.18207  Biso   1.000  N
  C304     1.0000 0.05255  0.93284  0.16602  Biso   1.000  C
  H459     1.0000 0.87526  0.92530  0.13433  Biso   1.000  H
  C305     1.0000 0.96568  0.08180  0.16915  Biso   1.000  C
  C306     1.0000 0.96561  0.08180  0.16915  Biso   1.000  C
  H460     1.0000 0.85291  0.00137  0.16884  Biso   1.000  H
  C307     1.0000 0.20358  0.93224  0.27305  Biso   1.000  C
  C308     1.0000 0.06776  0.27128  0.27305  Biso   1.000  C
  C309     1.0000 0.06769  0.27128  0.27305  Biso   1.000  C
  C310     1.0000 0.11614  0.03435  0.16915  Biso   1.000  C
  C311     1.0000 0.11617  0.03426  0.16915  Biso   1.000  C
  C312     1.0000 0.11609  0.03426  0.16915  Biso   1.000  C
  C313     1.0000 0.06715  0.11975  0.16602  Biso   1.000  C
  H461     1.0000 0.99862  0.85155  0.16884  Biso   1.000  H
  C314     1.0000 0.16105  0.96736  0.19645  Biso   1.000  C
  C315     1.0000 0.16101  0.96728  0.19645  Biso   1.000  C
  C316     1.0000 0.16113  0.96736  0.19645  Biso   1.000  C
  H462     1.0000 0.07465  0.94989  0.13433  Biso   1.000  H
  H463     1.0000 0.88424  0.04934  0.17462  Biso   1.000  H
  H464     1.0000 0.97958  0.09834  0.13695  Biso   1.000  H
  H465     1.0000 0.97951  0.09834  0.13695  Biso   1.000  H
  C317     1.0000 0.03271  0.19376  0.19645  Biso   1.000  C
  C318     1.0000 0.03267  0.19368  0.19645  Biso   1.000  C
  C319     1.0000 0.03264  0.19376  0.19645  Biso   1.000  C
  C320     1.0000 0.03259  0.19368  0.19645  Biso   1.000  C
  N51      1.0000 0.15340  0.98484  0.24483  Biso   1.000  N
  N52      1.0000 0.15332  0.98484  0.24483  Biso   1.000  N
  N53      1.0000 0.10937  0.92393  0.24283  Biso   1.000  N
  H466     1.0000 0.28637  0.97764  0.27084  Biso   1.000  H
  H467     1.0000 0.18045  0.85660  0.26115  Biso   1.000  H
  H468     1.0000 0.22125  0.87365  0.26533  Biso   1.000  H
  H469     1.0000 0.27116  0.00522  0.26812  Biso   1.000  H
  N54      1.0000 0.01518  0.16849  0.24483  Biso   1.000  N
  N55      1.0000 0.01511  0.16849  0.24483  Biso   1.000  N
  N56      1.0000 0.07611  0.18545  0.24283  Biso   1.000  N
  H470     1.0000 0.99474  0.26589  0.26812  Biso   1.000  H
  H471     1.0000 0.02239  0.30872  0.27084  Biso   1.000  H
  H472     1.0000 0.14335  0.32379  0.26115  Biso   1.000  H
  H473     1.0000 0.02231  0.30872  0.27084  Biso   1.000  H
  H474     1.0000 0.12633  0.34761  0.26533  Biso   1.000  H
  H475     1.0000 0.16506  0.11573  0.17462  Biso   1.000  H
  H476     1.0000 0.11877  0.02047  0.13695  Biso   1.000  H
  H477     1.0000 0.11872  0.02039  0.13695  Biso   1.000  H
  H478     1.0000 0.05005  0.12472  0.13433  Biso   1.000  H
  H479     1.0000 0.14842  0.14699  0.16884  Biso   1.000  H
  H480     1.0000 0.11598  0.88641  0.18934  Biso   1.000  H
  H481     1.0000 0.24008  0.99366  0.18822  Biso   1.000  H
  H482     1.0000 0.24004  0.99357  0.18822  Biso   1.000  H
  H483     1.0000 0.24015  0.99366  0.18822  Biso   1.000  H
  H484     1.0000 0.11591  0.88641  0.18934  Biso   1.000  H
  H485     1.0000 0.20318  0.93173  0.18594  Biso   1.000  H
  H486     1.0000 0.21073  0.04891  0.19703  Biso   1.000  H
  H487     1.0000 0.95108  0.16181  0.19703  Biso   1.000  H
  H488     1.0000 0.11355  0.22948  0.18934  Biso   1.000  H
  H489     1.0000 0.00638  0.24644  0.18822  Biso   1.000  H
  H490     1.0000 0.00634  0.24636  0.18822  Biso   1.000  H
  H491     1.0000 0.11348  0.22948  0.18934  Biso   1.000  H
  H492     1.0000 0.06829  0.27146  0.18594  Biso   1.000  H
  H493     1.0000 0.19092  0.06553  0.25112  Biso   1.000  H
  H494     1.0000 0.19100  0.06553  0.25112  Biso   1.000  H
  H495     1.0000 0.04955  0.84538  0.24045  Biso   1.000  H
  H496     1.0000 0.93444  0.12540  0.25112  Biso   1.000  H
  H497     1.0000 0.93436  0.12540  0.25112  Biso   1.000  H
  H498     1.0000 0.15459  0.20413  0.24045  Biso   1.000  H
  C321     1.0000 0.73446  0.60468  0.60639  Biso   1.000  C
  N57      1.0000 0.68180  0.50188  0.57817  Biso   1.000  N
  N58      1.0000 0.74269  0.51876  0.57616  Biso   1.000  N
  H499     1.0000 0.68896  0.64202  0.60418  Biso   1.000  H
  H500     1.0000 0.81005  0.65719  0.59449  Biso   1.000  H
  C322     1.0000 0.74529  0.58258  0.65514  Biso   1.000  C
  H501     1.0000 0.79298  0.68091  0.59867  Biso   1.000  H
  H502     1.0000 0.66143  0.59928  0.60149  Biso   1.000  H
  C323     1.0000 0.69929  0.52707  0.52978  Biso   1.000  C
  H503     1.0000 0.60109  0.45871  0.58449  Biso   1.000  H
  H504     1.0000 0.82116  0.53743  0.57378  Biso   1.000  H
  C324     1.0000 0.70063  0.61847  0.68839  Biso   1.000  C
  C325     1.0000 0.80349  0.52553  0.66871  Biso   1.000  C
  C326     1.0000 0.63230  0.41520  0.50248  Biso   1.000  C
  C327     1.0000 0.73380  0.45306  0.49939  Biso   1.000  C
  H505     1.0000 0.78025  0.56287  0.52268  Biso   1.000  H
  H506     1.0000 0.67303  0.57975  0.52159  Biso   1.000  H
  H507     1.0000 0.73495  0.60476  0.51928  Biso   1.000  H
  H508     1.0000 0.61766  0.49512  0.53036  Biso   1.000  H
  H509     1.0000 0.66050  0.65513  0.68006  Biso   1.000  H
  C328     1.0000 0.71286  0.60168  0.73572  Biso   1.000  C
  C329     1.0000 0.81548  0.50634  0.71362  Biso   1.000  C
  H510     1.0000 0.83499  0.50026  0.64657  Biso   1.000  H
  C330     1.0000 0.54693  0.28079  0.49939  Biso   1.000  C
  N59      1.0000 0.66662  0.33339  0.51540  Biso   1.000  N
  H511     1.0000 0.55089  0.38264  0.50799  Biso   1.000  H
  H512     1.0000 0.64624  0.43164  0.47028  Biso   1.000  H
  C331     1.0000 0.78279  0.36765  0.50248  Biso   1.000  C
  H513     1.0000 0.71670  0.45803  0.46767  Biso   1.000  H
  H514     1.0000 0.81512  0.48038  0.50218  Biso   1.000  H
  H515     1.0000 0.68412  0.62952  0.75799  Biso   1.000  H
  C332     1.0000 0.76882  0.54283  0.74708  Biso   1.000  C
  H516     1.0000 0.85499  0.46873  0.72158  Biso   1.000  H
  C333     1.0000 0.58484  0.21715  0.50248  Biso   1.000  C
  C334     1.0000 0.47293  0.17226  0.52978  Biso   1.000  C
  H517     1.0000 0.54196  0.25869  0.46767  Biso   1.000  H
  H518     1.0000 0.51961  0.33476  0.50218  Biso   1.000  H
  C335     1.0000 0.71920  0.26615  0.49939  Biso   1.000  C
  H519     1.0000 0.83171  0.44903  0.50799  Biso   1.000  H
  H520     1.0000 0.78542  0.35378  0.47028  Biso   1.000  H
  C336     1.0000 0.82771  0.30067  0.52978  Biso   1.000  C
  O24      1.0000 0.78402  0.51833  0.79073  Biso   1.000  O
  H521     1.0000 0.61728  0.16824  0.50799  Biso   1.000  H
  H522     1.0000 0.56834  0.21458  0.47028  Biso   1.000  H
  N60      1.0000 0.49815  0.17997  0.57817  Biso   1.000  N
  H523     1.0000 0.43707  0.21732  0.52268  Biso   1.000  H
  H524     1.0000 0.42023  0.09328  0.52159  Biso   1.000  H
  N61      1.0000 0.48121  0.22400  0.57616  Biso   1.000  N
  H525     1.0000 0.39522  0.13020  0.51928  Biso   1.000  H
  H526     1.0000 0.50484  0.12258  0.53036  Biso   1.000  H
  H527     1.0000 0.74134  0.28328  0.46767  Biso   1.000  H
  H528     1.0000 0.66520  0.18485  0.50218  Biso   1.000  H
  N62      1.0000 0.81998  0.31814  0.57817  Biso   1.000  N
  H529     1.0000 0.78256  0.21972  0.52268  Biso   1.000  H
  H530     1.0000 0.90673  0.32697  0.52159  Biso   1.000  H
  N63      1.0000 0.77602  0.25724  0.57616  Biso   1.000  N
  H531     1.0000 0.86983  0.26503  0.51928  Biso   1.000  H
  H532     1.0000 0.87738  0.38222  0.53036  Biso   1.000  H
  C337     1.0000 0.71181  0.52124  0.82541  Biso   1.000  C
  H533     1.0000 0.54121  0.14237  0.58449  Biso   1.000  H
  C338     1.0000 0.39530  0.12978  0.60639  Biso   1.000  C
  H534     1.0000 0.46252  0.28379  0.57378  Biso   1.000  H
  H535     1.0000 0.85758  0.39883  0.58449  Biso   1.000  H
  C339     1.0000 0.87024  0.26555  0.60639  Biso   1.000  C
  H536     1.0000 0.71624  0.17877  0.57378  Biso   1.000  H
  H537     1.0000 0.63355  0.48698  0.81467  Biso   1.000  H
  H538     1.0000 0.73753  0.59954  0.83449  Biso   1.000  H
  C340     1.0000 0.71911  0.45366  0.86495  Biso   1.000  C
  H539     1.0000 0.35789  0.04694  0.60418  Biso   1.000  H
  H540     1.0000 0.34285  0.15290  0.59449  Biso   1.000  H
  C341     1.0000 0.41743  0.16275  0.65514  Biso   1.000  C
  H541     1.0000 0.31900  0.11204  0.59867  Biso   1.000  H
  H542     1.0000 0.40075  0.06219  0.60149  Biso   1.000  H
  H543     1.0000 0.95303  0.31095  0.60418  Biso   1.000  H
  H544     1.0000 0.84715  0.18999  0.59449  Biso   1.000  H
  C342     1.0000 0.83720  0.25467  0.65514  Biso   1.000  C
  H545     1.0000 0.88790  0.20696  0.59867  Biso   1.000  H
  H546     1.0000 0.93781  0.33853  0.60149  Biso   1.000  H
  N64      1.0000 0.66662  0.33339  0.85608  Biso   1.000  N
  H547     1.0000 0.79913  0.48312  0.87247  Biso   1.000  H
  H548     1.0000 0.68242  0.46514  0.89117  Biso   1.000  H
  C343     1.0000 0.38150  0.08215  0.68839  Biso   1.000  C
  C344     1.0000 0.47444  0.27797  0.66871  Biso   1.000  C
  C345     1.0000 0.91779  0.29938  0.68839  Biso   1.000  C
  C346     1.0000 0.72202  0.19642  0.66871  Biso   1.000  C
  C347     1.0000 0.54631  0.26546  0.86495  Biso   1.000  C
  C348     1.0000 0.73451  0.28088  0.86495  Biso   1.000  C
  H549     1.0000 0.34483  0.00540  0.68006  Biso   1.000  H
  C349     1.0000 0.39832  0.11119  0.73572  Biso   1.000  C
  C350     1.0000 0.49359  0.30915  0.71362  Biso   1.000  C
  H550     1.0000 0.49972  0.33476  0.64657  Biso   1.000  H
  H551     1.0000 0.99459  0.33947  0.68006  Biso   1.000  H
  C351     1.0000 0.88882  0.28713  0.73572  Biso   1.000  C
  C352     1.0000 0.69080  0.18443  0.71362  Biso   1.000  C
  H552     1.0000 0.66521  0.16498  0.64657  Biso   1.000  H
  C353     1.0000 0.47875  0.19059  0.82541  Biso   1.000  C
  H553     1.0000 0.51679  0.31592  0.87247  Biso   1.000  H
  H554     1.0000 0.53480  0.21723  0.89117  Biso   1.000  H
  C354     1.0000 0.80944  0.28816  0.82541  Biso   1.000  C
  H555     1.0000 0.68404  0.20087  0.87247  Biso   1.000  H
  H556     1.0000 0.78273  0.31754  0.89117  Biso   1.000  H
  H557     1.0000 0.37046  0.05457  0.75799  Biso   1.000  H
  C355     1.0000 0.45713  0.22597  0.74708  Biso   1.000  C
  H558     1.0000 0.53118  0.38624  0.72158  Biso   1.000  H
  H559     1.0000 0.94538  0.31583  0.75799  Biso   1.000  H
  C356     1.0000 0.77406  0.23120  0.74708  Biso   1.000  C
  H560     1.0000 0.61371  0.14494  0.72158  Biso   1.000  H
  O25      1.0000 0.48163  0.26563  0.79073  Biso   1.000  O
  H561     1.0000 0.51304  0.14656  0.81467  Biso   1.000  H
  H562     1.0000 0.40045  0.13800  0.83449  Biso   1.000  H
  O26      1.0000 0.73431  0.21595  0.79073  Biso   1.000  O
  H563     1.0000 0.85341  0.36645  0.81467  Biso   1.000  H
  H564     1.0000 0.86202  0.26246  0.83449  Biso   1.000  H
  C357     1.0000 0.06717  0.94740  0.66605  Biso   1.000  C
  C358     1.0000 0.03264  0.83887  0.69645  Biso   1.000  C
  C359     1.0000 0.96566  0.88384  0.66915  Biso   1.000  C
  C360     1.0000 0.03268  0.83896  0.69645  Biso   1.000  C
  H565     1.0000 0.05004  0.92530  0.63433  Biso   1.000  H
  N65      1.0000 0.99992  1.00000  0.68207  Biso   1.000  N
  C361     1.0000 0.11612  0.08180  0.66915  Biso   1.000  C
  C362     1.0000 0.11620  0.08180  0.66915  Biso   1.000  C
  H566     1.0000 0.14846  0.00137  0.66884  Biso   1.000  H
  N66      1.0000 0.01517  0.84667  0.74483  Biso   1.000  N
  H567     1.0000 0.11352  0.88401  0.68934  Biso   1.000  H
  H568     1.0000 0.00640  0.75998  0.68826  Biso   1.000  H
  N67      1.0000 0.01513  0.84658  0.74483  Biso   1.000  N
  H569     1.0000 0.11359  0.88401  0.68934  Biso   1.000  H
  H570     1.0000 0.00636  0.75989  0.68826  Biso   1.000  H
  N68      1.0000 0.01525  0.84667  0.74483  Biso   1.000  N
  N69      1.0000 0.07609  0.89061  0.74286  Biso   1.000  N
  H571     1.0000 0.06829  0.79681  0.68594  Biso   1.000  H
  H572     1.0000 0.95105  0.78919  0.69703  Biso   1.000  H
  H573     1.0000 0.88423  0.83493  0.67466  Biso   1.000  H
  H574     1.0000 0.97958  0.88127  0.63695  Biso   1.000  H
  H575     1.0000 0.88431  0.83493  0.67466  Biso   1.000  H
  H576     1.0000 0.97954  0.88119  0.63695  Biso   1.000  H
  C363     1.0000 0.88029  0.93284  0.66605  Biso   1.000  C
  C364     1.0000 0.91821  0.03435  0.66915  Biso   1.000  C
  C365     1.0000 0.91810  0.03426  0.66915  Biso   1.000  C
  C366     1.0000 0.91814  0.03435  0.66915  Biso   1.000  C
  C367     1.0000 0.05261  0.11975  0.66605  Biso   1.000  C
  H577     1.0000 0.16510  0.04934  0.67466  Biso   1.000  H
  H578     1.0000 0.11875  0.09834  0.63695  Biso   1.000  H
  C368     1.0000 0.16105  0.19376  0.69645  Biso   1.000  C
  C369     1.0000 0.16108  0.19368  0.69645  Biso   1.000  C
  H579     1.0000 0.16503  0.04934  0.67466  Biso   1.000  H
  C370     1.0000 0.16101  0.19368  0.69645  Biso   1.000  C
  C371     1.0000 0.06775  0.79647  0.77305  Biso   1.000  C
  C372     1.0000 0.06778  0.79638  0.77305  Biso   1.000  C
  C373     1.0000 0.06782  0.79647  0.77305  Biso   1.000  C
  C374     1.0000 0.06770  0.79638  0.77305  Biso   1.000  C
  H580     1.0000 0.93450  0.80906  0.75116  Biso   1.000  H
  H581     1.0000 0.93446  0.80898  0.75116  Biso   1.000  H
  H582     1.0000 0.93443  0.80906  0.75116  Biso   1.000  H
  H583     1.0000 0.15458  0.95040  0.74045  Biso   1.000  H
  C375     1.0000 0.80631  0.96736  0.69645  Biso   1.000  C
  C376     1.0000 0.80626  0.96728  0.69645  Biso   1.000  C
  C377     1.0000 0.80623  0.96736  0.69645  Biso   1.000  C
  H584     1.0000 0.87524  0.94989  0.63433  Biso   1.000  H
  H585     1.0000 0.85293  0.85155  0.66884  Biso   1.000  H
  H586     1.0000 0.95067  0.11573  0.67466  Biso   1.000  H
  H587     1.0000 0.90170  0.02047  0.63695  Biso   1.000  H
  H588     1.0000 0.95059  0.11573  0.67466  Biso   1.000  H
  H589     1.0000 0.90159  0.02039  0.63695  Biso   1.000  H
  H590     1.0000 0.90163  0.02047  0.63695  Biso   1.000  H
  H591     1.0000 0.90166  0.02039  0.63695  Biso   1.000  H
  H592     1.0000 0.99857  0.14699  0.66884  Biso   1.000  H
  H593     1.0000 0.07467  0.12472  0.63433  Biso   1.000  H
  N70      1.0000 0.15331  0.16849  0.74483  Biso   1.000  N
  H594     1.0000 0.11593  0.22948  0.68934  Biso   1.000  H
  H595     1.0000 0.24006  0.24644  0.68826  Biso   1.000  H
  N71      1.0000 0.15339  0.16849  0.74483  Biso   1.000  N
  H596     1.0000 0.24002  0.24636  0.68826  Biso   1.000  H
  N72      1.0000 0.10934  0.18545  0.74286  Biso   1.000  N
  H597     1.0000 0.20316  0.27146  0.68594  Biso   1.000  H
  H598     1.0000 0.21073  0.16181  0.69703  Biso   1.000  H
  H599     1.0000 0.02240  0.71364  0.77084  Biso   1.000  H
  H600     1.0000 0.14336  0.81951  0.76115  Biso   1.000  H
  C378     1.0000 0.07867  0.82945  0.82181  Biso   1.000  C
  C379     1.0000 0.07875  0.82945  0.82181  Biso   1.000  C
  H601     1.0000 0.02232  0.71364  0.77084  Biso   1.000  H
  H602     1.0000 0.12639  0.77874  0.76533  Biso   1.000  H
  H603     1.0000 0.99474  0.72880  0.76816  Biso   1.000  H
  N73      1.0000 0.83144  0.98484  0.74483  Biso   1.000  N
  H604     1.0000 0.77043  0.88641  0.68934  Biso   1.000  H
  H605     1.0000 0.75358  0.99366  0.68826  Biso   1.000  H
  N74      1.0000 0.83151  0.98484  0.74483  Biso   1.000  N
  H606     1.0000 0.77051  0.88641  0.68934  Biso   1.000  H
  H607     1.0000 0.75354  0.99357  0.68826  Biso   1.000  H
  N75      1.0000 0.81456  0.92393  0.74286  Biso   1.000  N
  H608     1.0000 0.72855  0.93173  0.68594  Biso   1.000  H
  H609     1.0000 0.83818  0.04891  0.69703  Biso   1.000  H
  H610     1.0000 0.19097  0.12540  0.75116  Biso   1.000  H
  C380     1.0000 0.20352  0.27128  0.77305  Biso   1.000  C
  H611     1.0000 0.19089  0.12540  0.75116  Biso   1.000  H
  H612     1.0000 0.04954  0.20413  0.74045  Biso   1.000  H
  C381     1.0000 0.03399  0.74884  0.85506  Biso   1.000  C
  C382     1.0000 0.13687  0.94466  0.83537  Biso   1.000  C
  C383     1.0000 0.13683  0.94458  0.83537  Biso   1.000  C
  C384     1.0000 0.13695  0.94466  0.83537  Biso   1.000  C
  C385     1.0000 0.03392  0.74884  0.85506  Biso   1.000  C
  C386     1.0000 0.72866  0.93224  0.77305  Biso   1.000  C
  H613     1.0000 0.87460  0.06553  0.75116  Biso   1.000  H
  H614     1.0000 0.87453  0.06553  0.75116  Biso   1.000  H
  H615     1.0000 0.79584  0.84538  0.74045  Biso   1.000  H
  H616     1.0000 0.28633  0.30872  0.77084  Biso   1.000  H
  H617     1.0000 0.18044  0.32379  0.76115  Biso   1.000  H
  C387     1.0000 0.17051  0.24918  0.82181  Biso   1.000  C
  H618     1.0000 0.28641  0.30872  0.77084  Biso   1.000  H
  C388     1.0000 0.17059  0.24918  0.82181  Biso   1.000  C
  H619     1.0000 0.22128  0.34761  0.76533  Biso   1.000  H
  H620     1.0000 0.27115  0.26589  0.76816  Biso   1.000  H
  C389     1.0000 0.04617  0.77780  0.90239  Biso   1.000  C
  C390     1.0000 0.04609  0.77780  0.90239  Biso   1.000  C
  H621     1.0000 0.99387  0.67200  0.84673  Biso   1.000  H
  H622     1.0000 0.99379  0.67200  0.84673  Biso   1.000  H
  C391     1.0000 0.14890  0.97584  0.88029  Biso   1.000  C
  C392     1.0000 0.14883  0.97584  0.88029  Biso   1.000  C
  H623     1.0000 0.16838  0.00145  0.81324  Biso   1.000  H
  H624     1.0000 0.16834  0.00137  0.81324  Biso   1.000  H
  H625     1.0000 0.16831  0.00145  0.81324  Biso   1.000  H
  H626     1.0000 0.69127  0.97764  0.77084  Biso   1.000  H
  H627     1.0000 0.67615  0.85660  0.76115  Biso   1.000  H
  C393     1.0000 0.75081  0.92136  0.82181  Biso   1.000  C
  C394     1.0000 0.75077  0.92128  0.82181  Biso   1.000  C
  C395     1.0000 0.75074  0.92136  0.82181  Biso   1.000  C
  C396     1.0000 0.75070  0.92128  0.82181  Biso   1.000  C
  H628     1.0000 0.65240  0.87365  0.76533  Biso   1.000  H
  H629     1.0000 0.73407  0.00522  0.76816  Biso   1.000  H
  C397     1.0000 0.25119  0.28516  0.85506  Biso   1.000  C
  C398     1.0000 0.05538  0.19222  0.83537  Biso   1.000  C
  C399     1.0000 0.25114  0.28508  0.85506  Biso   1.000  C
  C400     1.0000 0.25111  0.28516  0.85506  Biso   1.000  C
  C401     1.0000 0.05531  0.19222  0.83537  Biso   1.000  C
  H630     1.0000 0.01745  0.72126  0.92466  Biso   1.000  H
  C402     1.0000 0.10219  0.89267  0.91374  Biso   1.000  C
  H631     1.0000 0.01741  0.72117  0.92466  Biso   1.000  H
  C403     1.0000 0.10215  0.89258  0.91374  Biso   1.000  C
  H632     1.0000 0.01753  0.72126  0.92466  Biso   1.000  H
  H633     1.0000 0.18834  0.05294  0.88824  Biso   1.000  H
  H634     1.0000 0.18841  0.05294  0.88824  Biso   1.000  H
  C404     1.0000 0.71482  0.96599  0.85506  Biso   1.000  C
  C405     1.0000 0.80774  0.86311  0.83537  Biso   1.000  C
  C406     1.0000 0.71489  0.96599  0.85506  Biso   1.000  C
  H635     1.0000 0.32797  0.32182  0.84673  Biso   1.000  H
  C407     1.0000 0.22213  0.26829  0.90239  Biso   1.000  C
  H636     1.0000 0.32790  0.32182  0.84673  Biso   1.000  H
  H637     1.0000 0.99861  0.16695  0.81324  Biso   1.000  H
  H638     1.0000 0.99849  0.16686  0.81324  Biso   1.000  H
  H639     1.0000 0.99853  0.16695  0.81324  Biso   1.000  H
  C408     1.0000 0.02420  0.17303  0.88029  Biso   1.000  C
  C409     1.0000 0.02413  0.17303  0.88029  Biso   1.000  C
  O27      1.0000 0.11735  0.93233  0.95743  Biso   1.000  O
  O28      1.0000 0.11742  0.93233  0.95743  Biso   1.000  O
  C410     1.0000 0.73166  0.95383  0.90239  Biso   1.000  C
  H640     1.0000 0.67816  0.00617  0.84673  Biso   1.000  H
  H641     1.0000 0.67811  0.00608  0.84673  Biso   1.000  H
  C411     1.0000 0.82697  0.85112  0.88029  Biso   1.000  C
  H642     1.0000 0.83312  0.83168  0.81324  Biso   1.000  H
  H643     1.0000 0.83308  0.83159  0.81324  Biso   1.000  H
  H644     1.0000 0.83305  0.83168  0.81324  Biso   1.000  H
  H645     1.0000 0.83301  0.83159  0.81324  Biso   1.000  H
  H646     1.0000 0.27874  0.29621  0.92466  Biso   1.000  H
  C412     1.0000 0.10736  0.20952  0.91374  Biso   1.000  C
  H647     1.0000 0.94709  0.13543  0.88824  Biso   1.000  H
  H648     1.0000 0.94702  0.13543  0.88824  Biso   1.000  H
  C413     1.0000 0.04514  0.85720  0.99211  Biso   1.000  C
  C414     1.0000 0.04522  0.85720  0.99211  Biso   1.000  C
  H649     1.0000 0.70380  0.98252  0.92466  Biso   1.000  H
  C415     1.0000 0.79045  0.89781  0.91374  Biso   1.000  C
  H650     1.0000 0.70372  0.98252  0.92466  Biso   1.000  H
  H651     1.0000 0.86457  0.81163  0.88824  Biso   1.000  H
  O29      1.0000 0.06766  0.18502  0.95743  Biso   1.000  O
  H652     1.0000 0.96687  0.81326  0.98133  Biso   1.000  H
  H653     1.0000 0.96682  0.81317  0.98133  Biso   1.000  H
  H654     1.0000 0.07085  0.80461  0.00116  Biso   1.000  H
  C416     1.0000 0.05250  0.93216  0.03162  Biso   1.000  C
  C417     1.0000 0.05246  0.93207  0.03162  Biso   1.000  C
  H655     1.0000 0.07092  0.80461  0.00116  Biso   1.000  H
  C418     1.0000 0.05238  0.93207  0.03162  Biso   1.000  C
  O30      1.0000 0.81499  0.88264  0.95743  Biso   1.000  O
  O31      1.0000 0.81491  0.88264  0.95743  Biso   1.000  O
  C419     1.0000 0.14278  0.18794  0.99211  Biso   1.000  C
  C420     1.0000 0.14271  0.18794  0.99211  Biso   1.000  C
  N76      1.0000 0.99992  1.00000  0.02275  Biso   1.000  N
  H656     1.0000 0.13248  0.98261  0.03913  Biso   1.000  H
  H657     1.0000 0.01578  0.88393  0.05783  Biso   1.000  H
  H658     1.0000 0.13240  0.98261  0.03913  Biso   1.000  H
  C421     1.0000 0.81207  0.95486  0.99211  Biso   1.000  C
  C422     1.0000 0.81203  0.95477  0.99211  Biso   1.000  C
  C423     1.0000 0.06789  0.12035  0.03162  Biso   1.000  C
  C424     1.0000 0.06785  0.12027  0.03162  Biso   1.000  C
  C425     1.0000 0.06782  0.12035  0.03162  Biso   1.000  C
  H659     1.0000 0.18673  0.15359  0.98133  Biso   1.000  H
  H660     1.0000 0.19536  0.26623  0.00116  Biso   1.000  H
  C426     1.0000 0.87972  0.94757  0.03162  Biso   1.000  C
  C427     1.0000 0.87968  0.94749  0.03162  Biso   1.000  C
  C428     1.0000 0.87965  0.94757  0.03162  Biso   1.000  C
  C429     1.0000 0.87960  0.94749  0.03162  Biso   1.000  C
  H661     1.0000 0.73379  0.92916  0.00116  Biso   1.000  H
  H662     1.0000 0.73375  0.92907  0.00116  Biso   1.000  H
  H663     1.0000 0.84640  0.03315  0.98133  Biso   1.000  H
  H664     1.0000 0.84628  0.03306  0.98133  Biso   1.000  H
  H665     1.0000 0.84632  0.03315  0.98133  Biso   1.000  H
  H666     1.0000 0.84635  0.03306  0.98133  Biso   1.000  H
  H667     1.0000 0.01734  0.14982  0.03913  Biso   1.000  H
  H668     1.0000 0.11606  0.13183  0.05783  Biso   1.000  H
  H669     1.0000 0.85018  0.86757  0.03913  Biso   1.000  H
  H670     1.0000 0.86816  0.98424  0.05783  Biso   1.000  H
  H671     1.0000 0.85014  0.86748  0.03913  Biso   1.000  H
  C430     1.0000 0.06717  0.94740  0.66605  Biso   1.000  C
  C431     1.0000 0.03264  0.83887  0.69645  Biso   1.000  C
  C432     1.0000 0.96566  0.88384  0.66915  Biso   1.000  C
  C433     1.0000 0.03268  0.83896  0.69645  Biso   1.000  C
  N77      1.0000 0.99992  1.00000  0.68207  Biso   1.000  N
  H672     1.0000 0.05004  0.92530  0.63433  Biso   1.000  H
  C434     1.0000 0.11612  0.08180  0.66915  Biso   1.000  C
  C435     1.0000 0.11620  0.08180  0.66915  Biso   1.000  C
  H673     1.0000 0.14846  0.00137  0.66884  Biso   1.000  H
  H674     1.0000 0.11359  0.88401  0.68934  Biso   1.000  H
  H675     1.0000 0.00640  0.75998  0.68826  Biso   1.000  H
  N78      1.0000 0.01513  0.84658  0.74483  Biso   1.000  N
  H676     1.0000 0.11352  0.88401  0.68934  Biso   1.000  H
  H677     1.0000 0.00636  0.75989  0.68826  Biso   1.000  H
  H678     1.0000 0.95105  0.78919  0.69703  Biso   1.000  H
  N79      1.0000 0.01517  0.84667  0.74483  Biso   1.000  N
  N80      1.0000 0.01525  0.84667  0.74483  Biso   1.000  N
  N81      1.0000 0.07609  0.89061  0.74286  Biso   1.000  N
  H679     1.0000 0.06829  0.79681  0.68594  Biso   1.000  H
  H680     1.0000 0.88423  0.83493  0.67466  Biso   1.000  H
  H681     1.0000 0.97958  0.88127  0.63695  Biso   1.000  H
  H682     1.0000 0.88431  0.83493  0.67466  Biso   1.000  H
  H683     1.0000 0.97954  0.88119  0.63695  Biso   1.000  H
  C436     1.0000 0.88029  0.93284  0.66605  Biso   1.000  C
  C437     1.0000 0.91821  0.03435  0.66915  Biso   1.000  C
  C438     1.0000 0.91810  0.03426  0.66915  Biso   1.000  C
  C439     1.0000 0.91814  0.03435  0.66915  Biso   1.000  C
  C440     1.0000 0.05261  0.11975  0.66605  Biso   1.000  C
  H684     1.0000 0.16510  0.04934  0.67466  Biso   1.000  H
  H685     1.0000 0.11875  0.09834  0.63695  Biso   1.000  H
  C441     1.0000 0.16105  0.19376  0.69645  Biso   1.000  C
  C442     1.0000 0.16108  0.19368  0.69645  Biso   1.000  C
  H686     1.0000 0.16503  0.04934  0.67466  Biso   1.000  H
  C443     1.0000 0.16101  0.19368  0.69645  Biso   1.000  C
  H687     1.0000 0.93450  0.80906  0.75116  Biso   1.000  H
  H688     1.0000 0.93446  0.80898  0.75116  Biso   1.000  H
  H689     1.0000 0.93443  0.80906  0.75116  Biso   1.000  H
  C444     1.0000 0.06775  0.79647  0.77305  Biso   1.000  C
  C445     1.0000 0.06778  0.79638  0.77305  Biso   1.000  C
  C446     1.0000 0.06782  0.79647  0.77305  Biso   1.000  C
  C447     1.0000 0.06770  0.79638  0.77305  Biso   1.000  C
  H690     1.0000 0.15458  0.95040  0.74045  Biso   1.000  H
  C448     1.0000 0.80631  0.96736  0.69645  Biso   1.000  C
  C449     1.0000 0.80626  0.96728  0.69645  Biso   1.000  C
  C450     1.0000 0.80623  0.96736  0.69645  Biso   1.000  C
  H691     1.0000 0.87524  0.94989  0.63433  Biso   1.000  H
  H692     1.0000 0.85293  0.85155  0.66884  Biso   1.000  H
  H693     1.0000 0.95067  0.11573  0.67466  Biso   1.000  H
  H694     1.0000 0.90170  0.02047  0.63695  Biso   1.000  H
  H695     1.0000 0.95059  0.11573  0.67466  Biso   1.000  H
  H696     1.0000 0.90159  0.02039  0.63695  Biso   1.000  H
  H697     1.0000 0.90163  0.02047  0.63695  Biso   1.000  H
  H698     1.0000 0.90166  0.02039  0.63695  Biso   1.000  H
  H699     1.0000 0.99857  0.14699  0.66884  Biso   1.000  H
  H700     1.0000 0.07467  0.12472  0.63433  Biso   1.000  H
  N82      1.0000 0.15331  0.16849  0.74483  Biso   1.000  N
  H701     1.0000 0.11593  0.22948  0.68934  Biso   1.000  H
  H702     1.0000 0.24006  0.24644  0.68826  Biso   1.000  H
  N83      1.0000 0.15339  0.16849  0.74483  Biso   1.000  N
  H703     1.0000 0.24002  0.24636  0.68826  Biso   1.000  H
  N84      1.0000 0.10934  0.18545  0.74286  Biso   1.000  N
  H704     1.0000 0.20316  0.27146  0.68594  Biso   1.000  H
  H705     1.0000 0.21073  0.16181  0.69703  Biso   1.000  H
  H706     1.0000 0.02240  0.71364  0.77084  Biso   1.000  H
  H707     1.0000 0.14336  0.81951  0.76115  Biso   1.000  H
  C451     1.0000 0.07867  0.82945  0.82181  Biso   1.000  C
  H708     1.0000 0.99474  0.72880  0.76816  Biso   1.000  H
  C452     1.0000 0.07875  0.82945  0.82181  Biso   1.000  C
  H709     1.0000 0.02232  0.71364  0.77084  Biso   1.000  H
  H710     1.0000 0.12639  0.77874  0.76533  Biso   1.000  H
  N85      1.0000 0.83144  0.98484  0.74483  Biso   1.000  N
  H711     1.0000 0.77043  0.88641  0.68934  Biso   1.000  H
  H712     1.0000 0.75358  0.99366  0.68826  Biso   1.000  H
  N86      1.0000 0.83151  0.98484  0.74483  Biso   1.000  N
  H713     1.0000 0.77051  0.88641  0.68934  Biso   1.000  H
  H714     1.0000 0.75354  0.99357  0.68826  Biso   1.000  H
  N87      1.0000 0.81456  0.92393  0.74286  Biso   1.000  N
  H715     1.0000 0.72855  0.93173  0.68594  Biso   1.000  H
  H716     1.0000 0.83818  0.04891  0.69703  Biso   1.000  H
  H717     1.0000 0.19097  0.12540  0.75116  Biso   1.000  H
  C453     1.0000 0.20352  0.27128  0.77305  Biso   1.000  C
  H718     1.0000 0.19089  0.12540  0.75116  Biso   1.000  H
  H719     1.0000 0.04954  0.20413  0.74045  Biso   1.000  H
  C454     1.0000 0.03399  0.74884  0.85506  Biso   1.000  C
  C455     1.0000 0.13683  0.94458  0.83537  Biso   1.000  C
  C456     1.0000 0.13687  0.94466  0.83537  Biso   1.000  C
  C457     1.0000 0.13695  0.94466  0.83537  Biso   1.000  C
  C458     1.0000 0.03392  0.74884  0.85506  Biso   1.000  C
  C459     1.0000 0.72866  0.93224  0.77305  Biso   1.000  C
  H720     1.0000 0.87460  0.06553  0.75116  Biso   1.000  H
  H721     1.0000 0.87453  0.06553  0.75116  Biso   1.000  H
  H722     1.0000 0.79584  0.84538  0.74045  Biso   1.000  H
  H723     1.0000 0.28633  0.30872  0.77084  Biso   1.000  H
  H724     1.0000 0.18044  0.32379  0.76115  Biso   1.000  H
  C460     1.0000 0.17051  0.24918  0.82181  Biso   1.000  C
  H725     1.0000 0.28641  0.30872  0.77084  Biso   1.000  H
  C461     1.0000 0.17059  0.24918  0.82181  Biso   1.000  C
  H726     1.0000 0.22128  0.34761  0.76533  Biso   1.000  H
  H727     1.0000 0.27115  0.26589  0.76816  Biso   1.000  H
  C462     1.0000 0.04617  0.77780  0.90239  Biso   1.000  C
  H728     1.0000 0.99387  0.67200  0.84673  Biso   1.000  H
  H729     1.0000 0.99379  0.67200  0.84673  Biso   1.000  H
  C463     1.0000 0.04609  0.77780  0.90239  Biso   1.000  C
  C464     1.0000 0.14890  0.97584  0.88029  Biso   1.000  C
  C465     1.0000 0.14883  0.97584  0.88029  Biso   1.000  C
  H730     1.0000 0.16838  0.00145  0.81324  Biso   1.000  H
  H731     1.0000 0.16834  0.00137  0.81324  Biso   1.000  H
  H732     1.0000 0.16831  0.00145  0.81324  Biso   1.000  H
  H733     1.0000 0.69127  0.97764  0.77084  Biso   1.000  H
  H734     1.0000 0.67615  0.85660  0.76115  Biso   1.000  H
  C466     1.0000 0.75081  0.92136  0.82181  Biso   1.000  C
  C467     1.0000 0.75077  0.92128  0.82181  Biso   1.000  C
  C468     1.0000 0.75074  0.92136  0.82181  Biso   1.000  C
  C469     1.0000 0.75070  0.92128  0.82181  Biso   1.000  C
  H735     1.0000 0.65240  0.87365  0.76533  Biso   1.000  H
  H736     1.0000 0.73407  0.00522  0.76816  Biso   1.000  H
  C470     1.0000 0.25119  0.28516  0.85506  Biso   1.000  C
  C471     1.0000 0.05538  0.19222  0.83537  Biso   1.000  C
  C472     1.0000 0.25114  0.28508  0.85506  Biso   1.000  C
  C473     1.0000 0.25111  0.28516  0.85506  Biso   1.000  C
  C474     1.0000 0.05531  0.19222  0.83537  Biso   1.000  C
  C475     1.0000 0.10219  0.89267  0.91374  Biso   1.000  C
  H737     1.0000 0.01741  0.72117  0.92466  Biso   1.000  H
  C476     1.0000 0.10215  0.89258  0.91374  Biso   1.000  C
  H738     1.0000 0.01745  0.72126  0.92466  Biso   1.000  H
  H739     1.0000 0.01753  0.72126  0.92466  Biso   1.000  H
  H740     1.0000 0.18834  0.05294  0.88824  Biso   1.000  H
  H741     1.0000 0.18841  0.05294  0.88824  Biso   1.000  H
  C477     1.0000 0.71482  0.96599  0.85506  Biso   1.000  C
  C478     1.0000 0.80774  0.86311  0.83537  Biso   1.000  C
  C479     1.0000 0.71489  0.96599  0.85506  Biso   1.000  C
  H742     1.0000 0.32797  0.32182  0.84673  Biso   1.000  H
  C480     1.0000 0.22213  0.26829  0.90239  Biso   1.000  C
  H743     1.0000 0.32790  0.32182  0.84673  Biso   1.000  H
  H744     1.0000 0.99861  0.16695  0.81324  Biso   1.000  H
  H745     1.0000 0.99849  0.16686  0.81324  Biso   1.000  H
  H746     1.0000 0.99853  0.16695  0.81324  Biso   1.000  H
  C481     1.0000 0.02420  0.17303  0.88029  Biso   1.000  C
  C482     1.0000 0.02413  0.17303  0.88029  Biso   1.000  C
  O32      1.0000 0.11735  0.93233  0.95743  Biso   1.000  O
  O33      1.0000 0.11742  0.93233  0.95743  Biso   1.000  O
  C483     1.0000 0.73166  0.95383  0.90239  Biso   1.000  C
  H747     1.0000 0.67816  0.00617  0.84673  Biso   1.000  H
  H748     1.0000 0.67811  0.00608  0.84673  Biso   1.000  H
  C484     1.0000 0.82697  0.85112  0.88029  Biso   1.000  C
  H749     1.0000 0.83312  0.83168  0.81324  Biso   1.000  H
  H750     1.0000 0.83308  0.83159  0.81324  Biso   1.000  H
  H751     1.0000 0.83305  0.83168  0.81324  Biso   1.000  H
  H752     1.0000 0.83301  0.83159  0.81324  Biso   1.000  H
  H753     1.0000 0.27874  0.29621  0.92466  Biso   1.000  H
  C485     1.0000 0.10736  0.20952  0.91374  Biso   1.000  C
  H754     1.0000 0.94709  0.13543  0.88824  Biso   1.000  H
  H755     1.0000 0.94702  0.13543  0.88824  Biso   1.000  H
  C486     1.0000 0.04514  0.85720  0.99211  Biso   1.000  C
  C487     1.0000 0.04522  0.85720  0.99211  Biso   1.000  C
  H756     1.0000 0.70380  0.98252  0.92466  Biso   1.000  H
  C488     1.0000 0.79045  0.89781  0.91374  Biso   1.000  C
  H757     1.0000 0.70372  0.98252  0.92466  Biso   1.000  H
  H758     1.0000 0.86457  0.81163  0.88824  Biso   1.000  H
  O34      1.0000 0.06766  0.18502  0.95743  Biso   1.000  O
  H759     1.0000 0.96687  0.81326  0.98133  Biso   1.000  H
  H760     1.0000 0.96682  0.81317  0.98133  Biso   1.000  H
  H761     1.0000 0.07085  0.80461  0.00116  Biso   1.000  H
  C489     1.0000 0.05250  0.93216  0.03162  Biso   1.000  C
  C490     1.0000 0.05246  0.93207  0.03162  Biso   1.000  C
  H762     1.0000 0.07092  0.80461  0.00116  Biso   1.000  H
  C491     1.0000 0.05238  0.93207  0.03162  Biso   1.000  C
  O35      1.0000 0.81499  0.88264  0.95743  Biso   1.000  O
  O36      1.0000 0.81491  0.88264  0.95743  Biso   1.000  O
  C492     1.0000 0.14278  0.18794  0.99211  Biso   1.000  C
  C493     1.0000 0.14271  0.18794  0.99211  Biso   1.000  C
  N88      1.0000 0.99992  1.00000  0.02275  Biso   1.000  N
  H763     1.0000 0.13248  0.98261  0.03913  Biso   1.000  H
  H764     1.0000 0.01578  0.88393  0.05783  Biso   1.000  H
  H765     1.0000 0.13240  0.98261  0.03913  Biso   1.000  H
  C494     1.0000 0.81207  0.95486  0.99211  Biso   1.000  C
  C495     1.0000 0.81203  0.95477  0.99211  Biso   1.000  C
  C496     1.0000 0.06789  0.12035  0.03162  Biso   1.000  C
  C497     1.0000 0.06785  0.12027  0.03162  Biso   1.000  C
  C498     1.0000 0.06782  0.12035  0.03162  Biso   1.000  C
  H766     1.0000 0.18673  0.15359  0.98133  Biso   1.000  H
  H767     1.0000 0.19536  0.26623  0.00116  Biso   1.000  H
  C499     1.0000 0.87972  0.94757  0.03162  Biso   1.000  C
  C500     1.0000 0.87968  0.94749  0.03162  Biso   1.000  C
  C501     1.0000 0.87965  0.94757  0.03162  Biso   1.000  C
  C502     1.0000 0.87960  0.94749  0.03162  Biso   1.000  C
  H768     1.0000 0.73379  0.92916  0.00116  Biso   1.000  H
  H769     1.0000 0.73375  0.92907  0.00116  Biso   1.000  H
  H770     1.0000 0.84640  0.03315  0.98133  Biso   1.000  H
  H771     1.0000 0.84628  0.03306  0.98133  Biso   1.000  H
  H772     1.0000 0.84632  0.03315  0.98133  Biso   1.000  H
  H773     1.0000 0.84635  0.03306  0.98133  Biso   1.000  H
  H774     1.0000 0.01734  0.14982  0.03913  Biso   1.000  H
  H775     1.0000 0.11606  0.13183  0.05783  Biso   1.000  H
  H776     1.0000 0.85018  0.86757  0.03913  Biso   1.000  H
  H777     1.0000 0.86816  0.98424  0.05783  Biso   1.000  H
  H778     1.0000 0.85014  0.86748  0.03913  Biso   1.000  H
  C503     1.0000 0.06717  0.94740  0.66605  Biso   1.000  C
  C504     1.0000 0.03268  0.83896  0.69645  Biso   1.000  C
  C505     1.0000 0.03264  0.83887  0.69645  Biso   1.000  C
  C506     1.0000 0.96566  0.88384  0.66915  Biso   1.000  C
  N89      1.0000 0.99992  1.00000  0.68207  Biso   1.000  N
  H779     1.0000 0.05004  0.92530  0.63433  Biso   1.000  H
  C507     1.0000 0.11612  0.08180  0.66915  Biso   1.000  C
  C508     1.0000 0.11620  0.08180  0.66915  Biso   1.000  C
  H780     1.0000 0.14846  0.00137  0.66884  Biso   1.000  H
  N90      1.0000 0.01517  0.84667  0.74483  Biso   1.000  N
  N91      1.0000 0.01513  0.84658  0.74483  Biso   1.000  N
  N92      1.0000 0.01525  0.84667  0.74483  Biso   1.000  N
  N93      1.0000 0.07609  0.89061  0.74286  Biso   1.000  N
  H781     1.0000 0.95105  0.78919  0.69703  Biso   1.000  H
  H782     1.0000 0.11352  0.88401  0.68934  Biso   1.000  H
  H783     1.0000 0.00640  0.75998  0.68826  Biso   1.000  H
  H784     1.0000 0.11359  0.88401  0.68934  Biso   1.000  H
  H785     1.0000 0.00636  0.75989  0.68826  Biso   1.000  H
  H786     1.0000 0.06829  0.79681  0.68594  Biso   1.000  H
  H787     1.0000 0.88423  0.83493  0.67466  Biso   1.000  H
  H788     1.0000 0.97958  0.88127  0.63695  Biso   1.000  H
  H789     1.0000 0.88431  0.83493  0.67466  Biso   1.000  H
  H790     1.0000 0.97954  0.88119  0.63695  Biso   1.000  H
  C509     1.0000 0.88029  0.93284  0.66605  Biso   1.000  C
  C510     1.0000 0.91821  0.03435  0.66915  Biso   1.000  C
  C511     1.0000 0.91810  0.03426  0.66915  Biso   1.000  C
  C512     1.0000 0.91814  0.03435  0.66915  Biso   1.000  C
  C513     1.0000 0.05261  0.11975  0.66605  Biso   1.000  C
  H791     1.0000 0.16510  0.04934  0.67466  Biso   1.000  H
  H792     1.0000 0.11875  0.09834  0.63695  Biso   1.000  H
  C514     1.0000 0.16105  0.19376  0.69645  Biso   1.000  C
  C515     1.0000 0.16108  0.19368  0.69645  Biso   1.000  C
  H793     1.0000 0.16503  0.04934  0.67466  Biso   1.000  H
  C516     1.0000 0.16101  0.19368  0.69645  Biso   1.000  C
  C517     1.0000 0.06775  0.79647  0.77305  Biso   1.000  C
  C518     1.0000 0.06778  0.79638  0.77305  Biso   1.000  C
  C519     1.0000 0.06782  0.79647  0.77305  Biso   1.000  C
  C520     1.0000 0.06770  0.79638  0.77305  Biso   1.000  C
  H794     1.0000 0.93450  0.80906  0.75116  Biso   1.000  H
  H795     1.0000 0.93446  0.80898  0.75116  Biso   1.000  H
  H796     1.0000 0.93443  0.80906  0.75116  Biso   1.000  H
  H797     1.0000 0.15458  0.95040  0.74045  Biso   1.000  H
  C521     1.0000 0.80631  0.96736  0.69645  Biso   1.000  C
  C522     1.0000 0.80626  0.96728  0.69645  Biso   1.000  C
  C523     1.0000 0.80623  0.96736  0.69645  Biso   1.000  C
  H798     1.0000 0.87524  0.94989  0.63433  Biso   1.000  H
  H799     1.0000 0.85293  0.85155  0.66884  Biso   1.000  H
  H800     1.0000 0.95067  0.11573  0.67466  Biso   1.000  H
  H801     1.0000 0.90170  0.02047  0.63695  Biso   1.000  H
  H802     1.0000 0.95059  0.11573  0.67466  Biso   1.000  H
  H803     1.0000 0.90159  0.02039  0.63695  Biso   1.000  H
  H804     1.0000 0.90163  0.02047  0.63695  Biso   1.000  H
  H805     1.0000 0.90166  0.02039  0.63695  Biso   1.000  H
  H806     1.0000 0.99857  0.14699  0.66884  Biso   1.000  H
  H807     1.0000 0.07467  0.12472  0.63433  Biso   1.000  H
  N94      1.0000 0.15331  0.16849  0.74483  Biso   1.000  N
  H808     1.0000 0.11593  0.22948  0.68934  Biso   1.000  H
  H809     1.0000 0.24006  0.24644  0.68826  Biso   1.000  H
  N95      1.0000 0.15339  0.16849  0.74483  Biso   1.000  N
  H810     1.0000 0.24002  0.24636  0.68826  Biso   1.000  H
  N96      1.0000 0.10934  0.18545  0.74286  Biso   1.000  N
  H811     1.0000 0.20316  0.27146  0.68594  Biso   1.000  H
  H812     1.0000 0.21073  0.16181  0.69703  Biso   1.000  H
  C524     1.0000 0.07867  0.82945  0.82181  Biso   1.000  C
  C525     1.0000 0.07875  0.82945  0.82181  Biso   1.000  C
  H813     1.0000 0.02240  0.71364  0.77084  Biso   1.000  H
  H814     1.0000 0.14336  0.81951  0.76115  Biso   1.000  H
  H815     1.0000 0.99474  0.72880  0.76816  Biso   1.000  H
  H816     1.0000 0.02232  0.71364  0.77084  Biso   1.000  H
  H817     1.0000 0.12639  0.77874  0.76533  Biso   1.000  H
  N97      1.0000 0.83144  0.98484  0.74483  Biso   1.000  N
  H818     1.0000 0.77043  0.88641  0.68934  Biso   1.000  H
  H819     1.0000 0.75358  0.99366  0.68826  Biso   1.000  H
  N98      1.0000 0.83151  0.98484  0.74483  Biso   1.000  N
  H820     1.0000 0.77051  0.88641  0.68934  Biso   1.000  H
  H821     1.0000 0.75354  0.99357  0.68826  Biso   1.000  H
  N99      1.0000 0.81456  0.92393  0.74286  Biso   1.000  N
  H822     1.0000 0.72855  0.93173  0.68594  Biso   1.000  H
  H823     1.0000 0.83818  0.04891  0.69703  Biso   1.000  H
  H824     1.0000 0.19097  0.12540  0.75116  Biso   1.000  H
  C526     1.0000 0.20352  0.27128  0.77305  Biso   1.000  C
  H825     1.0000 0.19089  0.12540  0.75116  Biso   1.000  H
  H826     1.0000 0.04954  0.20413  0.74045  Biso   1.000  H
  C527     1.0000 0.03399  0.74884  0.85506  Biso   1.000  C
  C528     1.0000 0.13687  0.94466  0.83537  Biso   1.000  C
  C529     1.0000 0.13683  0.94458  0.83537  Biso   1.000  C
  C530     1.0000 0.13695  0.94466  0.83537  Biso   1.000  C
  C531     1.0000 0.03392  0.74884  0.85506  Biso   1.000  C
  C532     1.0000 0.72866  0.93224  0.77305  Biso   1.000  C
  H827     1.0000 0.87460  0.06553  0.75116  Biso   1.000  H
  H828     1.0000 0.87453  0.06553  0.75116  Biso   1.000  H
  H829     1.0000 0.79584  0.84538  0.74045  Biso   1.000  H
  H830     1.0000 0.28633  0.30872  0.77084  Biso   1.000  H
  H831     1.0000 0.18044  0.32379  0.76115  Biso   1.000  H
  C533     1.0000 0.17051  0.24918  0.82181  Biso   1.000  C
  H832     1.0000 0.28641  0.30872  0.77084  Biso   1.000  H
  C534     1.0000 0.17059  0.24918  0.82181  Biso   1.000  C
  H833     1.0000 0.22128  0.34761  0.76533  Biso   1.000  H
  H834     1.0000 0.27115  0.26589  0.76816  Biso   1.000  H
  C535     1.0000 0.04617  0.77780  0.90239  Biso   1.000  C
  H835     1.0000 0.99387  0.67200  0.84673  Biso   1.000  H
  H836     1.0000 0.99379  0.67200  0.84673  Biso   1.000  H
  C536     1.0000 0.04609  0.77780  0.90239  Biso   1.000  C
  C537     1.0000 0.14890  0.97584  0.88029  Biso   1.000  C
  C538     1.0000 0.14883  0.97584  0.88029  Biso   1.000  C
  H837     1.0000 0.16838  0.00145  0.81324  Biso   1.000  H
  H838     1.0000 0.16834  0.00137  0.81324  Biso   1.000  H
  H839     1.0000 0.16831  0.00145  0.81324  Biso   1.000  H
  H840     1.0000 0.69127  0.97764  0.77084  Biso   1.000  H
  H841     1.0000 0.67615  0.85660  0.76115  Biso   1.000  H
  C539     1.0000 0.75081  0.92136  0.82181  Biso   1.000  C
  C540     1.0000 0.75077  0.92128  0.82181  Biso   1.000  C
  C541     1.0000 0.75074  0.92136  0.82181  Biso   1.000  C
  C542     1.0000 0.75070  0.92128  0.82181  Biso   1.000  C
  H842     1.0000 0.65240  0.87365  0.76533  Biso   1.000  H
  H843     1.0000 0.73407  0.00522  0.76816  Biso   1.000  H
  C543     1.0000 0.25119  0.28516  0.85506  Biso   1.000  C
  C544     1.0000 0.05538  0.19222  0.83537  Biso   1.000  C
  C545     1.0000 0.25114  0.28508  0.85506  Biso   1.000  C
  C546     1.0000 0.25111  0.28516  0.85506  Biso   1.000  C
  C547     1.0000 0.05531  0.19222  0.83537  Biso   1.000  C
  H844     1.0000 0.01745  0.72126  0.92466  Biso   1.000  H
  C548     1.0000 0.10219  0.89267  0.91374  Biso   1.000  C
  H845     1.0000 0.01741  0.72117  0.92466  Biso   1.000  H
  C549     1.0000 0.10215  0.89258  0.91374  Biso   1.000  C
  H846     1.0000 0.01753  0.72126  0.92466  Biso   1.000  H
  H847     1.0000 0.18834  0.05294  0.88824  Biso   1.000  H
  H848     1.0000 0.18841  0.05294  0.88824  Biso   1.000  H
  C550     1.0000 0.71482  0.96599  0.85506  Biso   1.000  C
  C551     1.0000 0.80774  0.86311  0.83537  Biso   1.000  C
  C552     1.0000 0.71489  0.96599  0.85506  Biso   1.000  C
  H849     1.0000 0.32797  0.32182  0.84673  Biso   1.000  H
  C553     1.0000 0.22213  0.26829  0.90239  Biso   1.000  C
  H850     1.0000 0.32790  0.32182  0.84673  Biso   1.000  H
  H851     1.0000 0.99861  0.16695  0.81324  Biso   1.000  H
  H852     1.0000 0.99849  0.16686  0.81324  Biso   1.000  H
  H853     1.0000 0.99853  0.16695  0.81324  Biso   1.000  H
  C554     1.0000 0.02420  0.17303  0.88029  Biso   1.000  C
  C555     1.0000 0.02413  0.17303  0.88029  Biso   1.000  C
  O37      1.0000 0.11735  0.93233  0.95743  Biso   1.000  O
  O38      1.0000 0.11742  0.93233  0.95743  Biso   1.000  O
  C556     1.0000 0.73166  0.95383  0.90239  Biso   1.000  C
  H854     1.0000 0.67816  0.00617  0.84673  Biso   1.000  H
  H855     1.0000 0.67811  0.00608  0.84673  Biso   1.000  H
  C557     1.0000 0.82697  0.85112  0.88029  Biso   1.000  C
  H856     1.0000 0.83312  0.83168  0.81324  Biso   1.000  H
  H857     1.0000 0.83308  0.83159  0.81324  Biso   1.000  H
  H858     1.0000 0.83305  0.83168  0.81324  Biso   1.000  H
  H859     1.0000 0.83301  0.83159  0.81324  Biso   1.000  H
  C558     1.0000 0.10736  0.20952  0.91374  Biso   1.000  C
  H860     1.0000 0.27874  0.29621  0.92466  Biso   1.000  H
  H861     1.0000 0.94709  0.13543  0.88824  Biso   1.000  H
  H862     1.0000 0.94702  0.13543  0.88824  Biso   1.000  H
  C559     1.0000 0.04514  0.85720  0.99211  Biso   1.000  C
  C560     1.0000 0.04522  0.85720  0.99211  Biso   1.000  C
  C561     1.0000 0.79045  0.89781  0.91374  Biso   1.000  C
  H863     1.0000 0.70380  0.98252  0.92466  Biso   1.000  H
  H864     1.0000 0.70372  0.98252  0.92466  Biso   1.000  H
  H865     1.0000 0.86457  0.81163  0.88824  Biso   1.000  H
  O39      1.0000 0.06766  0.18502  0.95743  Biso   1.000  O
  H866     1.0000 0.96687  0.81326  0.98133  Biso   1.000  H
  H867     1.0000 0.96682  0.81317  0.98133  Biso   1.000  H
  H868     1.0000 0.07085  0.80461  0.00116  Biso   1.000  H
  C562     1.0000 0.05250  0.93216  0.03162  Biso   1.000  C
  C563     1.0000 0.05246  0.93207  0.03162  Biso   1.000  C
  H869     1.0000 0.07092  0.80461  0.00116  Biso   1.000  H
  C564     1.0000 0.05238  0.93207  0.03162  Biso   1.000  C
  O40      1.0000 0.81499  0.88264  0.95743  Biso   1.000  O
  O41      1.0000 0.81491  0.88264  0.95743  Biso   1.000  O
  C565     1.0000 0.14278  0.18794  0.99211  Biso   1.000  C
  C566     1.0000 0.14271  0.18794  0.99211  Biso   1.000  C
  N100     1.0000 0.99992  1.00000  0.02275  Biso   1.000  N
  H870     1.0000 0.13248  0.98261  0.03913  Biso   1.000  H
  H871     1.0000 0.01578  0.88393  0.05783  Biso   1.000  H
  H872     1.0000 0.13240  0.98261  0.03913  Biso   1.000  H
  C567     1.0000 0.81207  0.95486  0.99211  Biso   1.000  C
  C568     1.0000 0.81203  0.95477  0.99211  Biso   1.000  C
  C569     1.0000 0.06789  0.12035  0.03162  Biso   1.000  C
  C570     1.0000 0.06785  0.12027  0.03162  Biso   1.000  C
  C571     1.0000 0.06782  0.12035  0.03162  Biso   1.000  C
  H873     1.0000 0.18673  0.15359  0.98133  Biso   1.000  H
  H874     1.0000 0.19536  0.26623  0.00116  Biso   1.000  H
  C572     1.0000 0.87972  0.94757  0.03162  Biso   1.000  C
  C573     1.0000 0.87968  0.94749  0.03162  Biso   1.000  C
  C574     1.0000 0.87965  0.94757  0.03162  Biso   1.000  C
  C575     1.0000 0.87960  0.94749  0.03162  Biso   1.000  C
  H875     1.0000 0.73379  0.92916  0.00116  Biso   1.000  H
  H876     1.0000 0.73375  0.92907  0.00116  Biso   1.000  H
  H877     1.0000 0.84640  0.03315  0.98133  Biso   1.000  H
  H878     1.0000 0.84628  0.03306  0.98133  Biso   1.000  H
  H879     1.0000 0.84632  0.03315  0.98133  Biso   1.000  H
  H880     1.0000 0.84635  0.03306  0.98133  Biso   1.000  H
  H881     1.0000 0.01734  0.14982  0.03913  Biso   1.000  H
  H882     1.0000 0.11606  0.13183  0.05783  Biso   1.000  H
  H883     1.0000 0.85018  0.86757  0.03913  Biso   1.000  H
  H884     1.0000 0.86816  0.98424  0.05783  Biso   1.000  H
  H885     1.0000 0.85014  0.86748  0.03913  Biso   1.000  H
  C576     1.0000 0.40045  0.78636  0.83272  Biso   1.000  C
  N101     1.0000 0.33327  0.66669  0.84874  Biso   1.000  N
  C577     1.0000 0.44944  0.70096  0.83578  Biso   1.000  C
  C578     1.0000 0.29903  0.74850  0.83578  Biso   1.000  C
  C579     1.0000 0.36602  0.86037  0.86312  Biso   1.000  C
  H886     1.0000 0.38339  0.79142  0.80100  Biso   1.000  H
  H887     1.0000 0.48177  0.81369  0.83551  Biso   1.000  H
  C580     1.0000 0.38585  0.59945  0.83272  Biso   1.000  C
  C581     1.0000 0.25149  0.55045  0.83578  Biso   1.000  C
  C582     1.0000 0.21358  0.61410  0.83272  Biso   1.000  C
  C583     1.0000 0.49436  0.63397  0.86312  Biso   1.000  C
  H888     1.0000 0.49836  0.78234  0.84129  Biso   1.000  H
  H889     1.0000 0.45207  0.68708  0.80358  Biso   1.000  H
  H890     1.0000 0.21754  0.71595  0.84129  Biso   1.000  H
  H891     1.0000 0.31289  0.76495  0.80358  Biso   1.000  H
  N102     1.0000 0.34853  0.83519  0.91150  Biso   1.000  N
  H892     1.0000 0.44690  0.89618  0.85601  Biso   1.000  H
  H893     1.0000 0.33969  0.91305  0.85489  Biso   1.000  H
  N103     1.0000 0.40941  0.85206  0.90953  Biso   1.000  N
  H894     1.0000 0.40160  0.93807  0.85261  Biso   1.000  H
  H895     1.0000 0.28443  0.82851  0.86370  Biso   1.000  H
  H896     1.0000 0.40799  0.61658  0.80100  Biso   1.000  H
  H897     1.0000 0.33185  0.51816  0.83551  Biso   1.000  H
  H898     1.0000 0.28405  0.50163  0.84129  Biso   1.000  H
  H899     1.0000 0.23499  0.54788  0.80358  Biso   1.000  H
  C584     1.0000 0.13958  0.50557  0.86312  Biso   1.000  C
  H900     1.0000 0.20861  0.59200  0.80100  Biso   1.000  H
  H901     1.0000 0.18626  0.66806  0.83551  Biso   1.000  H
  N104     1.0000 0.48670  0.65145  0.91150  Biso   1.000  N
  H902     1.0000 0.44933  0.55311  0.85601  Biso   1.000  H
  H903     1.0000 0.57338  0.66027  0.85489  Biso   1.000  H
  N105     1.0000 0.44267  0.59054  0.90953  Biso   1.000  N
  H904     1.0000 0.53653  0.59842  0.85261  Biso   1.000  H
  H905     1.0000 0.54408  0.71561  0.86370  Biso   1.000  H
  H906     1.0000 0.26779  0.79210  0.91779  Biso   1.000  H
  C585     1.0000 0.40111  0.93798  0.93972  Biso   1.000  C
  H907     1.0000 0.48789  0.87074  0.90711  Biso   1.000  H
  N106     1.0000 0.16480  0.51328  0.91150  Biso   1.000  N
  H908     1.0000 0.10384  0.55071  0.85601  Biso   1.000  H
  H909     1.0000 0.08688  0.42659  0.85489  Biso   1.000  H
  N107     1.0000 0.14794  0.55731  0.90953  Biso   1.000  N
  H910     1.0000 0.06187  0.46351  0.85261  Biso   1.000  H
  H911     1.0000 0.17149  0.45588  0.86370  Biso   1.000  H
  H912     1.0000 0.52423  0.73214  0.91779  Biso   1.000  H
  C586     1.0000 0.53689  0.59885  0.93972  Biso   1.000  C
  H913     1.0000 0.38289  0.51208  0.90711  Biso   1.000  H
  H914     1.0000 0.35573  0.97541  0.93751  Biso   1.000  H
  H915     1.0000 0.47670  0.99049  0.92778  Biso   1.000  H
  C587     1.0000 0.41202  0.91588  0.98847  Biso   1.000  C
  H916     1.0000 0.32809  0.93258  0.93482  Biso   1.000  H
  H917     1.0000 0.45967  0.01430  0.93200  Biso   1.000  H
  H918     1.0000 0.20787  0.47567  0.91779  Biso   1.000  H
  C588     1.0000 0.06203  0.46308  0.93972  Biso   1.000  C
  H919     1.0000 0.12917  0.61710  0.90711  Biso   1.000  H
  H920     1.0000 0.61968  0.64425  0.93751  Biso   1.000  H
  H921     1.0000 0.51380  0.52330  0.92778  Biso   1.000  H
  C589     1.0000 0.50385  0.58797  0.98847  Biso   1.000  C
  H922     1.0000 0.55455  0.54026  0.93200  Biso   1.000  H
  H923     1.0000 0.60451  0.67192  0.93482  Biso   1.000  H
  C590     1.0000 0.36728  0.95177  0.02173  Biso   1.000  C
  C591     1.0000 0.47018  0.85892  0.00201  Biso   1.000  C
  H924     1.0000 0.02454  0.38025  0.93751  Biso   1.000  H
  H925     1.0000 0.00950  0.48621  0.92778  Biso   1.000  H
  C592     1.0000 0.08408  0.49606  0.98847  Biso   1.000  C
  H926     1.0000 0.06741  0.39549  0.93482  Biso   1.000  H
  H927     1.0000 0.98566  0.44535  0.93200  Biso   1.000  H
  C593     1.0000 0.58452  0.63269  0.02173  Biso   1.000  C
  C594     1.0000 0.38872  0.52981  0.00201  Biso   1.000  C
  H928     1.0000 0.32715  0.98843  0.01340  Biso   1.000  H
  C595     1.0000 0.37951  0.93498  0.06905  Biso   1.000  C
  H929     1.0000 0.50165  0.83356  0.97991  Biso   1.000  H
  C596     1.0000 0.48214  0.83964  0.04695  Biso   1.000  C
  C597     1.0000 0.04816  0.41545  0.02173  Biso   1.000  C
  C598     1.0000 0.14110  0.61127  0.00201  Biso   1.000  C
  H930     1.0000 0.66131  0.67278  0.01340  Biso   1.000  H
  C599     1.0000 0.55551  0.62052  0.06905  Biso   1.000  C
  H931     1.0000 0.33186  0.49829  0.97991  Biso   1.000  H
  C600     1.0000 0.35750  0.51782  0.04695  Biso   1.000  C
  H932     1.0000 0.35082  0.96291  0.09129  Biso   1.000  H
  C601     1.0000 0.43547  0.87613  0.08041  Biso   1.000  C
  H933     1.0000 0.52164  0.80204  0.05491  Biso   1.000  H
  H934     1.0000 0.01149  0.33870  0.01340  Biso   1.000  H
  C602     1.0000 0.06498  0.44449  0.06905  Biso   1.000  C
  H935     1.0000 0.16638  0.66806  0.97991  Biso   1.000  H
  C603     1.0000 0.16025  0.64245  0.04695  Biso   1.000  C
  H936     1.0000 0.61207  0.64922  0.09129  Biso   1.000  H
  C604     1.0000 0.44071  0.56450  0.08041  Biso   1.000  C
  H937     1.0000 0.28041  0.47833  0.05491  Biso   1.000  H
  O42      1.0000 0.45067  0.85163  0.12407  Biso   1.000  O
  H938     1.0000 0.03711  0.38787  0.09129  Biso   1.000  H
  C605     1.0000 0.12378  0.55928  0.08041  Biso   1.000  C
  H939     1.0000 0.19790  0.71955  0.05491  Biso   1.000  H
  O43      1.0000 0.40096  0.54925  0.12407  Biso   1.000  O
  C606     1.0000 0.37846  0.85455  0.15874  Biso   1.000  C
  O44      1.0000 0.14832  0.59902  0.12407  Biso   1.000  O
  C607     1.0000 0.47609  0.62147  0.15874  Biso   1.000  C
  H940     1.0000 0.30020  0.82028  0.14800  Biso   1.000  H
  H941     1.0000 0.40418  0.93284  0.16779  Biso   1.000  H
  C608     1.0000 0.38577  0.78696  0.19829  Biso   1.000  C
  C609     1.0000 0.14541  0.52390  0.15874  Biso   1.000  C
  H942     1.0000 0.52006  0.69976  0.14800  Biso   1.000  H
  H943     1.0000 0.52867  0.59577  0.16779  Biso   1.000  H
  C610     1.0000 0.40116  0.61418  0.19829  Biso   1.000  C
  N108     1.0000 0.33327  0.66669  0.18941  Biso   1.000  N
  H944     1.0000 0.46582  0.81651  0.20580  Biso   1.000  H
  H945     1.0000 0.34907  0.79844  0.22450  Biso   1.000  H
  H946     1.0000 0.17970  0.47987  0.14800  Biso   1.000  H
  H947     1.0000 0.06711  0.47130  0.16779  Biso   1.000  H
  C611     1.0000 0.21296  0.59877  0.19829  Biso   1.000  C
  H948     1.0000 0.35069  0.53418  0.20580  Biso   1.000  H
  H949     1.0000 0.44938  0.65085  0.22450  Biso   1.000  H
  H950     1.0000 0.18348  0.64930  0.20580  Biso   1.000  H
  H951     1.0000 0.20150  0.55062  0.22450  Biso   1.000  H
  C612     1.0000 0.73454  0.45366  0.36495  Biso   1.000  C
  N109     1.0000 0.66662  0.33339  0.35608  Biso   1.000  N
  C613     1.0000 0.80943  0.52124  0.32541  Biso   1.000  C
  H952     1.0000 0.68400  0.48312  0.37247  Biso   1.000  H
  H953     1.0000 0.78272  0.46514  0.39117  Biso   1.000  H
  C614     1.0000 0.54630  0.28088  0.36495  Biso   1.000  C
  C615     1.0000 0.71908  0.26546  0.36495  Biso   1.000  C
  O45      1.0000 0.73431  0.51833  0.29073  Biso   1.000  O
  H954     1.0000 0.85343  0.48698  0.31467  Biso   1.000  H
  H955     1.0000 0.86201  0.59954  0.33446  Biso   1.000  H
  C616     1.0000 0.47872  0.28816  0.32541  Biso   1.000  C
  H956     1.0000 0.51683  0.20087  0.37247  Biso   1.000  H
  H957     1.0000 0.53481  0.31754  0.39117  Biso   1.000  H
  C617     1.0000 0.71184  0.19059  0.32541  Biso   1.000  C
  H958     1.0000 0.79906  0.31592  0.37247  Biso   1.000  H
  H959     1.0000 0.68243  0.21723  0.39117  Biso   1.000  H
  C618     1.0000 0.77401  0.54283  0.24708  Biso   1.000  C
  O46      1.0000 0.48164  0.21595  0.29073  Biso   1.000  O
  H960     1.0000 0.51305  0.36645  0.31467  Biso   1.000  H
  H961     1.0000 0.40045  0.26246  0.33446  Biso   1.000  H
  O47      1.0000 0.78400  0.26563  0.29073  Biso   1.000  O
  H962     1.0000 0.63352  0.14656  0.31467  Biso   1.000  H
  H963     1.0000 0.73755  0.13800  0.33446  Biso   1.000  H
  C619     1.0000 0.88882  0.60168  0.23572  Biso   1.000  C
  C620     1.0000 0.69078  0.50634  0.21362  Biso   1.000  C
  C621     1.0000 0.45714  0.23120  0.24708  Biso   1.000  C
  C622     1.0000 0.76885  0.22597  0.24708  Biso   1.000  C
  C623     1.0000 0.91784  0.61847  0.18839  Biso   1.000  C
  H964     1.0000 0.94540  0.62952  0.25796  Biso   1.000  H
  H965     1.0000 0.61367  0.46873  0.22158  Biso   1.000  H
  C624     1.0000 0.72204  0.52553  0.16867  Biso   1.000  C
  C625     1.0000 0.39831  0.28713  0.23572  Biso   1.000  C
  C626     1.0000 0.49362  0.18443  0.21362  Biso   1.000  C
  C627     1.0000 0.71279  0.11119  0.23572  Biso   1.000  C
  C628     1.0000 0.81548  0.30915  0.21362  Biso   1.000  C
  C629     1.0000 0.83721  0.58258  0.15514  Biso   1.000  C
  H966     1.0000 0.99463  0.65513  0.18006  Biso   1.000  H
  H967     1.0000 0.66519  0.50026  0.14657  Biso   1.000  H
  C630     1.0000 0.38152  0.29938  0.18839  Biso   1.000  C
  H968     1.0000 0.37038  0.31583  0.25796  Biso   1.000  H
  C631     1.0000 0.47440  0.19642  0.16867  Biso   1.000  C
  H969     1.0000 0.53122  0.14494  0.22158  Biso   1.000  H
  C632     1.0000 0.70057  0.08215  0.18839  Biso   1.000  C
  H970     1.0000 0.68411  0.05457  0.25796  Biso   1.000  H
  H971     1.0000 0.85499  0.38624  0.22158  Biso   1.000  H
  C633     1.0000 0.80352  0.27797  0.16867  Biso   1.000  C
  C634     1.0000 0.87022  0.60468  0.10639  Biso   1.000  C
  C635     1.0000 0.41739  0.25467  0.15514  Biso   1.000  C
  H972     1.0000 0.34481  0.33947  0.18006  Biso   1.000  H
  H973     1.0000 0.49970  0.16498  0.14657  Biso   1.000  H
  C636     1.0000 0.74532  0.16275  0.15514  Biso   1.000  C
  H974     1.0000 0.66056  0.00540  0.18006  Biso   1.000  H
  H975     1.0000 0.83504  0.33476  0.14657  Biso   1.000  H
  N110     1.0000 0.82001  0.50188  0.07817  Biso   1.000  N
  N111     1.0000 0.77600  0.51876  0.07616  Biso   1.000  N
  H976     1.0000 0.95299  0.64202  0.10418  Biso   1.000  H
  H977     1.0000 0.84714  0.65719  0.09445  Biso   1.000  H
  H978     1.0000 0.88786  0.68091  0.09867  Biso   1.000  H
  H979     1.0000 0.93784  0.59928  0.10146  Biso   1.000  H
  C637     1.0000 0.39531  0.26555  0.10639  Biso   1.000  C
  C638     1.0000 0.73440  0.12978  0.10639  Biso   1.000  C
  C639     1.0000 0.82770  0.52707  0.02978  Biso   1.000  C
  H980     1.0000 0.85762  0.45871  0.08446  Biso   1.000  H
  H981     1.0000 0.71619  0.53743  0.07378  Biso   1.000  H
  N112     1.0000 0.49809  0.31814  0.07817  Biso   1.000  N
  H982     1.0000 0.35792  0.31095  0.10418  Biso   1.000  H
  H983     1.0000 0.34285  0.18999  0.09445  Biso   1.000  H
  N113     1.0000 0.48122  0.25724  0.07616  Biso   1.000  N
  H984     1.0000 0.31906  0.20696  0.09867  Biso   1.000  H
  H985     1.0000 0.40072  0.33853  0.10146  Biso   1.000  H
  N114     1.0000 0.68183  0.17997  0.07817  Biso   1.000  N
  N115     1.0000 0.74271  0.22400  0.07616  Biso   1.000  N
  H986     1.0000 0.68898  0.04694  0.10418  Biso   1.000  H
  H987     1.0000 0.81006  0.15290  0.09445  Biso   1.000  H
  H988     1.0000 0.79297  0.11204  0.09867  Biso   1.000  H
  H989     1.0000 0.66144  0.06219  0.10146  Biso   1.000  H
  C640     1.0000 0.71918  0.45306  0.99935  Biso   1.000  C
  C641     1.0000 0.78282  0.41520  0.00248  Biso   1.000  C
  H990     1.0000 0.78262  0.56287  0.02268  Biso   1.000  H
  H991     1.0000 0.90671  0.57975  0.02156  Biso   1.000  H
  H992     1.0000 0.86981  0.60476  0.01928  Biso   1.000  H
  H993     1.0000 0.87738  0.49512  0.03036  Biso   1.000  H
  H994     1.0000 0.54118  0.39883  0.08446  Biso   1.000  H
  C642     1.0000 0.47296  0.30067  0.02978  Biso   1.000  C
  H995     1.0000 0.46253  0.17877  0.07378  Biso   1.000  H
  C643     1.0000 0.69934  0.17226  0.02978  Biso   1.000  C
  H996     1.0000 0.60115  0.14237  0.08446  Biso   1.000  H
  H997     1.0000 0.82120  0.28379  0.07378  Biso   1.000  H
  C644     1.0000 0.58479  0.36765  0.00248  Biso   1.000  C
  N116     1.0000 0.66662  0.33339  0.01540  Biso   1.000  N
  H998     1.0000 0.66527  0.48038  0.00218  Biso   1.000  H
  H999     1.0000 0.74133  0.45803  0.96767  Biso   1.000  H
  C645     1.0000 0.73379  0.28079  0.99935  Biso   1.000  C
  H1000    1.0000 0.83168  0.38264  0.00796  Biso   1.000  H
  H1001    1.0000 0.78541  0.43164  0.97025  Biso   1.000  H
  H1002    1.0000 0.43708  0.21972  0.02268  Biso   1.000  H
  H1003    1.0000 0.42023  0.32697  0.02156  Biso   1.000  H
  H1004    1.0000 0.39520  0.26503  0.01928  Biso   1.000  H
  H1005    1.0000 0.50483  0.38222  0.03036  Biso   1.000  H
  C646     1.0000 0.54695  0.26615  0.99935  Biso   1.000  C
  C647     1.0000 0.63231  0.21715  0.00248  Biso   1.000  C
  H1006    1.0000 0.78017  0.21732  0.02268  Biso   1.000  H
  H1007    1.0000 0.67305  0.09328  0.02156  Biso   1.000  H
  H1008    1.0000 0.73491  0.13020  0.01928  Biso   1.000  H
  H1009    1.0000 0.61774  0.12258  0.03036  Biso   1.000  H
  H1010    1.0000 0.61732  0.44903  0.00796  Biso   1.000  H
  H1011    1.0000 0.56836  0.35378  0.97025  Biso   1.000  H
  H1012    1.0000 0.81508  0.33476  0.00218  Biso   1.000  H
  H1013    1.0000 0.71674  0.25869  0.96767  Biso   1.000  H
  H1014    1.0000 0.51958  0.18485  0.00218  Biso   1.000  H
  H1015    1.0000 0.54194  0.28328  0.96767  Biso   1.000  H
  H1016    1.0000 0.55088  0.16824  0.00796  Biso   1.000  H
  H1017    1.0000 0.64624  0.21458  0.97025  Biso   1.000  H
