data_image0
_cell_length_a       18.91
_cell_length_b       21.516
_cell_length_c       23.042
_cell_angle_alpha    90
_cell_angle_beta     90
_cell_angle_gamma    90

_symmetry_space_group_name_H-M    "P 1"
_symmetry_int_tables_number       1

loop_
  _symmetry_equiv_pos_as_xyz
  'x, y, z'

loop_
  _atom_site_label
  _atom_site_occupancy
  _atom_site_fract_x
  _atom_site_fract_y
  _atom_site_fract_z
  _atom_site_thermal_displace_type
  _atom_site_B_iso_or_equiv
  _atom_site_type_symbol
  C1       1.0000 0.50709  0.41811  0.54049  Biso   1.000  C
  O1       1.0000 0.46811  0.37818  0.51128  Biso   1.000  O
  H1       1.0000 0.48080  0.45190  0.55681  Biso   1.000  H
  H2       1.0000 0.52692  0.39338  0.57109  Biso   1.000  H
  H3       1.0000 0.54442  0.43410  0.51658  Biso   1.000  H
  C2       1.0000 0.49942  0.33282  0.48229  Biso   1.000  C
  C3       1.0000 0.50418  0.33752  0.41819  Biso   1.000  C
  C4       1.0000 0.46959  0.26761  0.49740  Biso   1.000  C
  H4       1.0000 0.54781  0.33161  0.49501  Biso   1.000  H
  C5       1.0000 0.53770  0.28072  0.38868  Biso   1.000  C
  O2       1.0000 0.54632  0.39222  0.40969  Biso   1.000  O
  H5       1.0000 0.45669  0.34309  0.40439  Biso   1.000  H
  O3       1.0000 0.50550  0.21630  0.47318  Biso   1.000  O
  O4       1.0000 0.39572  0.26910  0.48728  Biso   1.000  O
  H6       1.0000 0.47372  0.26050  0.53841  Biso   1.000  H
  O5       1.0000 0.52591  0.29341  0.32970  Biso   1.000  O
  C6       1.0000 0.50561  0.22249  0.41168  Biso   1.000  C
  H7       1.0000 0.58720  0.28049  0.39771  Biso   1.000  H
  C7       1.0000 0.51237  0.43451  0.37011  Biso   1.000  C
  C8       1.0000 0.35241  0.23071  0.52278  Biso   1.000  C
  C9       1.0000 0.56721  0.26538  0.29199  Biso   1.000  C
  C10      1.0000 0.53829  0.16202  0.39172  Biso   1.000  C
  H8       1.0000 0.45680  0.22300  0.40010  Biso   1.000  H
  H9       1.0000 0.53908  0.47160  0.36290  Biso   1.000  H
  H10      1.0000 0.50270  0.41388  0.33400  Biso   1.000  H
  H11      1.0000 0.46869  0.44511  0.38881  Biso   1.000  H
  C11      1.0000 0.32110  0.26752  0.57130  Biso   1.000  C
  C12      1.0000 0.29408  0.20008  0.48581  Biso   1.000  C
  H12      1.0000 0.37959  0.19771  0.53980  Biso   1.000  H
  O6       1.0000 0.52988  0.21630  0.26139  Biso   1.000  O
  C13      1.0000 0.60222  0.30759  0.24612  Biso   1.000  C
  H13      1.0000 0.60481  0.24382  0.31152  Biso   1.000  H
  Br1      1.0000 0.63580  0.15300  0.40899  Biso   1.000  Br
  H14      1.0000 0.53490  0.16402  0.35019  Biso   1.000  H
  H15      1.0000 0.50978  0.12758  0.40422  Biso   1.000  H
  C14      1.0000 0.26372  0.23229  0.60368  Biso   1.000  C
  O7       1.0000 0.37663  0.28769  0.61188  Biso   1.000  O
  H16      1.0000 0.29868  0.30340  0.55490  Biso   1.000  H
  O8       1.0000 0.24722  0.16848  0.51810  Biso   1.000  O
  C15      1.0000 0.31851  0.15858  0.43920  Biso   1.000  C
  H17      1.0000 0.26991  0.23331  0.46641  Biso   1.000  H
  C16      1.0000 0.46711  0.24298  0.23501  Biso   1.000  C
  C17      1.0000 0.54331  0.33580  0.20970  Biso   1.000  C
  O9       1.0000 0.63728  0.35392  0.27389  Biso   1.000  O
  H18      1.0000 0.63178  0.28472  0.21982  Biso   1.000  H
  C18      1.0000 0.21348  0.20208  0.56041  Biso   1.000  C
  O10      1.0000 0.23400  0.26980  0.64751  Biso   1.000  O
  H19      1.0000 0.28778  0.19832  0.62191  Biso   1.000  H
  C19      1.0000 0.37049  0.35271  0.63371  Biso   1.000  C
  Br2      1.0000 0.36869  0.08770  0.46519  Biso   1.000  Br
  H20      1.0000 0.34781  0.18321  0.41411  Biso   1.000  H
  H21      1.0000 0.27800  0.14691  0.41672  Biso   1.000  H
  C20      1.0000 0.42422  0.18679  0.20819  Biso   1.000  C
  C21      1.0000 0.49201  0.28969  0.18462  Biso   1.000  C
  H22      1.0000 0.44151  0.26808  0.26230  Biso   1.000  H
  O11      1.0000 0.57409  0.37312  0.16140  Biso   1.000  O
  H23      1.0000 0.51650  0.36252  0.23479  Biso   1.000  H
  C22      1.0000 0.70032  0.33868  0.29880  Biso   1.000  C
  O12      1.0000 0.17472  0.25339  0.53602  Biso   1.000  O
  H24      1.0000 0.18191  0.17489  0.58090  Biso   1.000  H
  C23      1.0000 0.18392  0.24391  0.68631  Biso   1.000  C
  H25      1.0000 0.40941  0.36099  0.65919  Biso   1.000  H
  H26      1.0000 0.37118  0.38172  0.60212  Biso   1.000  H
  H27      1.0000 0.32692  0.35680  0.65472  Biso   1.000  H
  Br3      1.0000 0.38572  0.13571  0.26721  Biso   1.000  Br
  H28      1.0000 0.45590  0.16230  0.18510  Biso   1.000  H
  H29      1.0000 0.38731  0.20199  0.18332  Biso   1.000  H
  Br4      1.0000 0.43871  0.10169  0.22541  Biso   1.000  Br
  O13      1.0000 0.43020  0.31800  0.16340  Biso   1.000  O
  H30      1.0000 0.51518  0.26752  0.15389  Biso   1.000  H
  C24      1.0000 0.56240  0.43758  0.19438  Biso   1.000  C
  H31      1.0000 0.72538  0.37242  0.31681  Biso   1.000  H
  H32      1.0000 0.69339  0.30600  0.32649  Biso   1.000  H
  H33      1.0000 0.72718  0.32329  0.26651  Biso   1.000  H
  C25      1.0000 0.09910  0.24712  0.52860  Biso   1.000  C
  H34      1.0000 0.16748  0.27570  0.71231  Biso   1.000  H
  H35      1.0000 0.14447  0.22741  0.66500  Biso   1.000  H
  H36      1.0000 0.20592  0.21128  0.70819  Biso   1.000  H
  C26      1.0000 0.42232  0.32018  0.10290  Biso   1.000  C
  H37      1.0000 0.59900  0.43549  0.16561  Biso   1.000  H
  H38      1.0000 0.52729  0.46728  0.18271  Biso   1.000  H
  H39      1.0000 0.58239  0.44999  0.23088  Biso   1.000  H
  C27      1.0000 0.06980  0.31358  0.53689  Biso   1.000  C
  C28      1.0000 0.08170  0.22290  0.46919  Biso   1.000  C
  H40      1.0000 0.07890  0.22002  0.55720  Biso   1.000  H
  C29      1.0000 0.39249  0.37800  0.08259  Biso   1.000  C
  O14      1.0000 0.38281  0.26952  0.08359  Biso   1.000  O
  H41      1.0000 0.46859  0.31660  0.08610  Biso   1.000  H
  O15      1.0000 0.07229  0.32478  0.59839  Biso   1.000  O
  H42      1.0000 0.09662  0.34309  0.51458  Biso   1.000  H
  C30      1.0000 0.99339  0.32060  0.52001  Biso   1.000  C
  O16      1.0000 0.00381  0.22588  0.46311  Biso   1.000  O
  C31      1.0000 0.09788  0.15709  0.45981  Biso   1.000  C
  H43      1.0000 0.10338  0.24870  0.44020  Biso   1.000  H
  O17      1.0000 0.43131  0.42922  0.10572  Biso   1.000  O
  C32      1.0000 0.32031  0.38432  0.09739  Biso   1.000  C
  H44      1.0000 0.39429  0.37851  0.04101  Biso   1.000  H
  C33      1.0000 0.31042  0.27050  0.10138  Biso   1.000  C
  C34      1.0000 0.11449  0.37061  0.61132  Biso   1.000  C
  C35      1.0000 0.97869  0.28909  0.45999  Biso   1.000  C
  O18      1.0000 0.97599  0.38311  0.52131  Biso   1.000  O
  H45      1.0000 0.96621  0.30001  0.54952  Biso   1.000  H
  Br5      1.0000 0.09223  0.13320  0.38078  Biso   1.000  Br
  H46      1.0000 0.07150  0.13172  0.48629  Biso   1.000  H
  H47      1.0000 0.14728  0.15128  0.46788  Biso   1.000  H
  C36      1.0000 0.45521  0.46849  0.06219  Biso   1.000  C
  O19      1.0000 0.28990  0.43721  0.06371  Biso   1.000  O
  C37      1.0000 0.27398  0.32850  0.08181  Biso   1.000  C
  H48      1.0000 0.31380  0.39171  0.13818  Biso   1.000  H
  C38      1.0000 0.27668  0.21110  0.08198  Biso   1.000  C
  H49      1.0000 0.30851  0.27008  0.14309  Biso   1.000  H
  H50      1.0000 0.10011  0.35899  0.64968  Biso   1.000  H
  H51      1.0000 0.16499  0.36722  0.60802  Biso   1.000  H
  H52      1.0000 0.10042  0.41272  0.60368  Biso   1.000  H
  O20      1.0000 0.00799  0.32292  0.41589  Biso   1.000  O
  H53      1.0000 0.92861  0.28709  0.45330  Biso   1.000  H
  C39      1.0000 0.92020  0.39840  0.55360  Biso   1.000  C
  C40      1.0000 0.90851  0.39998  0.52669  Biso   1.000  C
  H54      1.0000 0.48022  0.50409  0.07682  Biso   1.000  H
  H55      1.0000 0.48858  0.43809  0.04891  Biso   1.000  H
  H56      1.0000 0.42538  0.48090  0.03060  Biso   1.000  H
  C41      1.0000 0.26980  0.48160  0.09821  Biso   1.000  C
  O21      1.0000 0.20687  0.33631  0.10672  Biso   1.000  O
  H57      1.0000 0.26928  0.32822  0.04032  Biso   1.000  H
  Br6      1.0000 0.27361  0.19990  0.00052  Biso   1.000  Br
  H58      1.0000 0.23152  0.20571  0.10021  Biso   1.000  H
  H59      1.0000 0.30629  0.17750  0.09461  Biso   1.000  H
  C42      1.0000 0.96452  0.33598  0.36859  Biso   1.000  C
  H60      1.0000 0.91232  0.44251  0.55368  Biso   1.000  H
  H61      1.0000 0.87922  0.37781  0.53819  Biso   1.000  H
  H62      1.0000 0.92850  0.38441  0.59261  Biso   1.000  H
  H63      1.0000 0.90391  0.44441  0.52808  Biso   1.000  H
  H64      1.0000 0.88652  0.38209  0.56028  Biso   1.000  H
  H65      1.0000 0.88588  0.38450  0.49232  Biso   1.000  H
  H66      1.0000 0.25299  0.51501  0.07430  Biso   1.000  H
  H67      1.0000 0.23162  0.46598  0.12139  Biso   1.000  H
  H68      1.0000 0.30682  0.49661  0.12308  Biso   1.000  H
  C43      1.0000 0.14669  0.30930  0.08020  Biso   1.000  C
  C44      1.0000 0.99741  0.39492  0.34250  Biso   1.000  C
  C45      1.0000 0.96542  0.28802  0.32488  Biso   1.000  C
  H69      1.0000 0.91708  0.34328  0.38191  Biso   1.000  H
  C46      1.0000 0.09069  0.35490  0.07152  Biso   1.000  C
  O22      1.0000 0.12210  0.25920  0.11349  Biso   1.000  O
  H70      1.0000 0.16029  0.29392  0.04270  Biso   1.000  H
  C47      1.0000 0.96002  0.41318  0.28522  Biso   1.000  C
  H71      1.0000 0.04728  0.39022  0.33600  Biso   1.000  H
  O23      1.0000 0.98080  0.44781  0.38070  Biso   1.000  O
  O24      1.0000 0.92861  0.30512  0.27129  Biso   1.000  O
  H72      1.0000 0.01370  0.27951  0.31490  Biso   1.000  H
  C48      1.0000 0.93009  0.23029  0.34051  Biso   1.000  C
  O25      1.0000 0.11132  0.40751  0.04080  Biso   1.000  O
  C49      1.0000 0.05870  0.37642  0.12881  Biso   1.000  C
  H73      1.0000 0.05272  0.33570  0.05039  Biso   1.000  H
  C50      1.0000 0.10137  0.27919  0.17151  Biso   1.000  C
  C51      1.0000 0.96192  0.35769  0.24698  Biso   1.000  C
  O26      1.0000 0.99127  0.46449  0.26022  Biso   1.000  O
  H74      1.0000 0.91169  0.42322  0.29398  Biso   1.000  H
  C52      1.0000 0.03612  0.45961  0.41611  Biso   1.000  C
  Br7      1.0000 0.83332  0.23271  0.36160  Biso   1.000  Br
  H75      1.0000 0.95568  0.21231  0.37232  Biso   1.000  H
  H76      1.0000 0.93458  0.20241  0.30831  Biso   1.000  H
  Br8      1.0000 0.91142  0.15830  0.29581  Biso   1.000  Br
  C53      1.0000 0.11898  0.39561  0.98229  Biso   1.000  C
  C54      1.0000 0.04400  0.32469  0.17099  Biso   1.000  C
  H77      1.0000 0.09159  0.40500  0.14599  Biso   1.000  H
  O27      1.0000 0.99291  0.40500  0.11891  Biso   1.000  O
  C55      1.0000 0.07800  0.21468  0.20011  Biso   1.000  C
  H78      1.0000 0.14209  0.29638  0.19061  Biso   1.000  H
  O28      1.0000 0.03131  0.34732  0.22828  Biso   1.000  O
  H79      1.0000 0.93501  0.36782  0.21292  Biso   1.000  H
  C56      1.0000 0.95368  0.52138  0.26890  Biso   1.000  C
  H80      1.0000 0.02528  0.49321  0.44202  Biso   1.000  H
  H81      1.0000 0.05040  0.42392  0.43829  Biso   1.000  H
  H82      1.0000 0.07372  0.47179  0.39059  Biso   1.000  H
  H83      1.0000 0.13559  0.43358  0.96519  Biso   1.000  H
  H84      1.0000 0.15341  0.36340  0.97622  Biso   1.000  H
  H85      1.0000 0.07499  0.38381  0.96480  Biso   1.000  H
  H86      1.0000 0.00169  0.30438  0.15802  Biso   1.000  H
  C57      1.0000 0.99773  0.46709  0.10911  Biso   1.000  C
  Br9      1.0000 0.15722  0.16309  0.21478  Biso   1.000  Br
  H87      1.0000 0.04500  0.19279  0.17598  Biso   1.000  H
  H88      1.0000 0.05479  0.22411  0.23609  Biso   1.000  H
  H89      1.0000 0.98170  0.55261  0.25002  Biso   1.000  H
  H90      1.0000 0.90740  0.52022  0.25171  Biso   1.000  H
  H91      1.0000 0.94960  0.53119  0.30939  Biso   1.000  H
  H92      1.0000 0.01872  0.48201  0.14439  Biso   1.000  H
  H93      1.0000 0.02909  0.47500  0.07721  Biso   1.000  H
  H94      1.0000 0.95362  0.48819  0.10260  Biso   1.000  H
  C58      1.0000 0.50709  0.58189  0.45951  Biso   1.000  C
  O29      1.0000 0.46811  0.62182  0.48872  Biso   1.000  O
  H95      1.0000 0.48080  0.54810  0.44319  Biso   1.000  H
  H96      1.0000 0.52692  0.60662  0.42891  Biso   1.000  H
  H97      1.0000 0.54442  0.56590  0.48342  Biso   1.000  H
  C59      1.0000 0.49942  0.66718  0.51771  Biso   1.000  C
  C60      1.0000 0.46959  0.73239  0.50260  Biso   1.000  C
  C61      1.0000 0.50418  0.66248  0.58181  Biso   1.000  C
  H98      1.0000 0.54781  0.66839  0.50499  Biso   1.000  H
  O30      1.0000 0.39572  0.73090  0.51272  Biso   1.000  O
  O31      1.0000 0.50550  0.78370  0.52682  Biso   1.000  O
  H99      1.0000 0.47372  0.73950  0.46159  Biso   1.000  H
  O32      1.0000 0.54632  0.60778  0.59031  Biso   1.000  O
  C62      1.0000 0.53770  0.71928  0.61132  Biso   1.000  C
  H100     1.0000 0.45669  0.65691  0.59561  Biso   1.000  H
  C63      1.0000 0.35241  0.76929  0.47722  Biso   1.000  C
  C64      1.0000 0.50561  0.77751  0.58832  Biso   1.000  C
  C65      1.0000 0.51237  0.56549  0.62989  Biso   1.000  C
  O33      1.0000 0.52591  0.70659  0.67030  Biso   1.000  O
  H101     1.0000 0.58720  0.71951  0.60229  Biso   1.000  H
  C66      1.0000 0.32110  0.73248  0.42870  Biso   1.000  C
  C67      1.0000 0.29408  0.79992  0.51419  Biso   1.000  C
  H102     1.0000 0.37959  0.80229  0.46020  Biso   1.000  H
  C68      1.0000 0.53829  0.83798  0.60828  Biso   1.000  C
  H103     1.0000 0.45680  0.77700  0.59990  Biso   1.000  H
  H104     1.0000 0.53908  0.52840  0.63710  Biso   1.000  H
  H105     1.0000 0.50270  0.58612  0.66600  Biso   1.000  H
  H106     1.0000 0.46869  0.55489  0.61119  Biso   1.000  H
  C69      1.0000 0.56721  0.73462  0.70801  Biso   1.000  C
  C70      1.0000 0.26372  0.76771  0.39632  Biso   1.000  C
  O34      1.0000 0.37663  0.71231  0.38812  Biso   1.000  O
  H107     1.0000 0.29868  0.69660  0.44510  Biso   1.000  H
  O35      1.0000 0.24722  0.83152  0.48190  Biso   1.000  O
  C71      1.0000 0.31851  0.84142  0.56080  Biso   1.000  C
  H108     1.0000 0.26991  0.76669  0.53359  Biso   1.000  H
  Br10     1.0000 0.63580  0.84700  0.59101  Biso   1.000  Br
  H109     1.0000 0.53490  0.83598  0.64981  Biso   1.000  H
  H110     1.0000 0.50978  0.87242  0.59578  Biso   1.000  H
  C72      1.0000 0.60222  0.69241  0.75388  Biso   1.000  C
  O36      1.0000 0.52988  0.78370  0.73861  Biso   1.000  O
  H111     1.0000 0.60481  0.75618  0.68848  Biso   1.000  H
  C73      1.0000 0.21348  0.79792  0.43959  Biso   1.000  C
  O37      1.0000 0.23400  0.73020  0.35249  Biso   1.000  O
  H112     1.0000 0.28778  0.80168  0.37809  Biso   1.000  H
  C74      1.0000 0.37049  0.64729  0.36629  Biso   1.000  C
  Br11     1.0000 0.36869  0.91230  0.53481  Biso   1.000  Br
  H113     1.0000 0.34781  0.81679  0.58589  Biso   1.000  H
  H114     1.0000 0.27800  0.85309  0.58328  Biso   1.000  H
  O38      1.0000 0.63728  0.64608  0.72611  Biso   1.000  O
  C75      1.0000 0.54331  0.66420  0.79030  Biso   1.000  C
  H115     1.0000 0.63178  0.71528  0.78018  Biso   1.000  H
  C76      1.0000 0.46711  0.75702  0.76499  Biso   1.000  C
  O39      1.0000 0.17472  0.74661  0.46398  Biso   1.000  O
  H116     1.0000 0.18191  0.82511  0.41910  Biso   1.000  H
  C77      1.0000 0.18392  0.75609  0.31369  Biso   1.000  C
  H117     1.0000 0.40941  0.63901  0.34081  Biso   1.000  H
  H118     1.0000 0.37118  0.61828  0.39788  Biso   1.000  H
  H119     1.0000 0.32692  0.64320  0.34528  Biso   1.000  H
  C78      1.0000 0.70032  0.66132  0.70120  Biso   1.000  C
  O40      1.0000 0.57409  0.62688  0.83860  Biso   1.000  O
  C79      1.0000 0.49201  0.71031  0.81538  Biso   1.000  C
  H120     1.0000 0.51650  0.63748  0.76521  Biso   1.000  H
  C80      1.0000 0.42422  0.81321  0.79181  Biso   1.000  C
  H121     1.0000 0.44151  0.73192  0.73770  Biso   1.000  H
  C81      1.0000 0.09910  0.75288  0.47140  Biso   1.000  C
  H122     1.0000 0.16748  0.72430  0.28769  Biso   1.000  H
  H123     1.0000 0.14447  0.77259  0.33500  Biso   1.000  H
  H124     1.0000 0.20592  0.78872  0.29181  Biso   1.000  H
  H125     1.0000 0.72538  0.62758  0.68319  Biso   1.000  H
  H126     1.0000 0.69339  0.69400  0.67351  Biso   1.000  H
  H127     1.0000 0.72718  0.67671  0.73349  Biso   1.000  H
  C82      1.0000 0.56240  0.56242  0.80562  Biso   1.000  C
  O41      1.0000 0.43020  0.68200  0.83660  Biso   1.000  O
  H128     1.0000 0.51518  0.73248  0.84611  Biso   1.000  H
  Br12     1.0000 0.38572  0.86429  0.73279  Biso   1.000  Br
  H129     1.0000 0.45590  0.83770  0.81490  Biso   1.000  H
  H130     1.0000 0.38731  0.79801  0.81668  Biso   1.000  H
  Br13     1.0000 0.43871  0.89831  0.77459  Biso   1.000  Br
  C83      1.0000 0.06980  0.68642  0.46311  Biso   1.000  C
  C84      1.0000 0.08170  0.77710  0.53081  Biso   1.000  C
  H131     1.0000 0.07890  0.77998  0.44280  Biso   1.000  H
  H132     1.0000 0.59900  0.56451  0.83439  Biso   1.000  H
  H133     1.0000 0.52729  0.53272  0.81729  Biso   1.000  H
  H134     1.0000 0.58239  0.55001  0.76912  Biso   1.000  H
  C85      1.0000 0.42232  0.67982  0.89710  Biso   1.000  C
  O42      1.0000 0.07229  0.67522  0.40161  Biso   1.000  O
  H135     1.0000 0.09662  0.65691  0.48542  Biso   1.000  H
  C86      1.0000 0.99339  0.67940  0.47999  Biso   1.000  C
  O43      1.0000 0.00381  0.77412  0.53689  Biso   1.000  O
  C87      1.0000 0.09788  0.84291  0.54019  Biso   1.000  C
  H136     1.0000 0.10338  0.75130  0.55980  Biso   1.000  H
  C88      1.0000 0.39249  0.62200  0.91741  Biso   1.000  C
  O44      1.0000 0.38281  0.73048  0.91641  Biso   1.000  O
  H137     1.0000 0.46859  0.68340  0.91390  Biso   1.000  H
  C89      1.0000 0.11449  0.62939  0.38868  Biso   1.000  C
  C90      1.0000 0.97869  0.71091  0.54001  Biso   1.000  C
  O45      1.0000 0.97599  0.61689  0.47869  Biso   1.000  O
  H138     1.0000 0.96621  0.69999  0.45048  Biso   1.000  H
  Br14     1.0000 0.09223  0.86680  0.61922  Biso   1.000  Br
  H139     1.0000 0.07150  0.86828  0.51371  Biso   1.000  H
  H140     1.0000 0.14728  0.84872  0.53212  Biso   1.000  H
  C91      1.0000 0.32031  0.61568  0.90261  Biso   1.000  C
  O46      1.0000 0.43131  0.57078  0.89428  Biso   1.000  O
  H141     1.0000 0.39429  0.62149  0.95899  Biso   1.000  H
  C92      1.0000 0.31042  0.72950  0.89862  Biso   1.000  C
  H142     1.0000 0.10011  0.64101  0.35032  Biso   1.000  H
  H143     1.0000 0.16499  0.63278  0.39198  Biso   1.000  H
  H144     1.0000 0.10042  0.58728  0.39632  Biso   1.000  H
  O47      1.0000 0.00799  0.67708  0.58411  Biso   1.000  O
  H145     1.0000 0.92861  0.71291  0.54670  Biso   1.000  H
  C93      1.0000 0.92020  0.60160  0.44640  Biso   1.000  C
  C94      1.0000 0.90851  0.60002  0.47331  Biso   1.000  C
  C95      1.0000 0.27398  0.67150  0.91819  Biso   1.000  C
  O48      1.0000 0.28990  0.56279  0.93629  Biso   1.000  O
  H146     1.0000 0.31380  0.60829  0.86182  Biso   1.000  H
  C96      1.0000 0.45521  0.53151  0.93781  Biso   1.000  C
  C97      1.0000 0.27668  0.78890  0.91802  Biso   1.000  C
  H147     1.0000 0.30851  0.72992  0.85691  Biso   1.000  H
  C98      1.0000 0.96452  0.66402  0.63141  Biso   1.000  C
  H148     1.0000 0.91232  0.55749  0.44632  Biso   1.000  H
  H149     1.0000 0.87922  0.62219  0.46181  Biso   1.000  H
  H150     1.0000 0.92850  0.61559  0.40739  Biso   1.000  H
  H151     1.0000 0.90391  0.55559  0.47192  Biso   1.000  H
  H152     1.0000 0.88652  0.61791  0.43972  Biso   1.000  H
  H153     1.0000 0.88588  0.61550  0.50768  Biso   1.000  H
  O49      1.0000 0.20687  0.66369  0.89328  Biso   1.000  O
  H154     1.0000 0.26928  0.67178  0.95968  Biso   1.000  H
  C99      1.0000 0.26980  0.51840  0.90179  Biso   1.000  C
  H155     1.0000 0.48022  0.49591  0.92318  Biso   1.000  H
  H156     1.0000 0.48858  0.56191  0.95109  Biso   1.000  H
  H157     1.0000 0.42538  0.51910  0.96940  Biso   1.000  H
  Br15     1.0000 0.27361  0.80010  0.99948  Biso   1.000  Br
  H158     1.0000 0.23152  0.79429  0.89979  Biso   1.000  H
  H159     1.0000 0.30629  0.82250  0.90539  Biso   1.000  H
  C100     1.0000 0.99741  0.60508  0.65750  Biso   1.000  C
  C101     1.0000 0.96542  0.71198  0.67512  Biso   1.000  C
  H160     1.0000 0.91708  0.65672  0.61809  Biso   1.000  H
  C102     1.0000 0.14669  0.69070  0.91980  Biso   1.000  C
  H161     1.0000 0.25299  0.48499  0.92570  Biso   1.000  H
  H162     1.0000 0.23162  0.53402  0.87861  Biso   1.000  H
  H163     1.0000 0.30682  0.50339  0.87692  Biso   1.000  H
  H164     1.0000 0.04728  0.60978  0.66400  Biso   1.000  H
  C103     1.0000 0.96002  0.58682  0.71478  Biso   1.000  C
  O50      1.0000 0.98080  0.55219  0.61930  Biso   1.000  O
  H165     1.0000 0.01370  0.72049  0.68510  Biso   1.000  H
  O51      1.0000 0.92861  0.69488  0.72871  Biso   1.000  O
  C104     1.0000 0.93009  0.76971  0.65949  Biso   1.000  C
  C105     1.0000 0.09069  0.64510  0.92848  Biso   1.000  C
  O52      1.0000 0.12210  0.74080  0.88651  Biso   1.000  O
  H166     1.0000 0.16029  0.70608  0.95730  Biso   1.000  H
  C106     1.0000 0.96192  0.64231  0.75302  Biso   1.000  C
  O53      1.0000 0.99127  0.53551  0.73978  Biso   1.000  O
  H167     1.0000 0.91169  0.57678  0.70602  Biso   1.000  H
  C107     1.0000 0.03612  0.54039  0.58389  Biso   1.000  C
  Br16     1.0000 0.83332  0.76729  0.63840  Biso   1.000  Br
  H168     1.0000 0.95568  0.78769  0.62768  Biso   1.000  H
  H169     1.0000 0.93458  0.79759  0.69169  Biso   1.000  H
  Br17     1.0000 0.91142  0.84170  0.70419  Biso   1.000  Br
  C108     1.0000 0.05870  0.62358  0.87119  Biso   1.000  C
  O54      1.0000 0.11132  0.59249  0.95920  Biso   1.000  O
  H170     1.0000 0.05272  0.66430  0.94961  Biso   1.000  H
  C109     1.0000 0.10137  0.72081  0.82849  Biso   1.000  C
  O55      1.0000 0.03131  0.65268  0.77172  Biso   1.000  O
  H171     1.0000 0.93501  0.63218  0.78708  Biso   1.000  H
  C110     1.0000 0.95368  0.47862  0.73110  Biso   1.000  C
  H172     1.0000 0.02528  0.50679  0.55798  Biso   1.000  H
  H173     1.0000 0.05040  0.57608  0.56171  Biso   1.000  H
  H174     1.0000 0.07372  0.52821  0.60941  Biso   1.000  H
  C111     1.0000 0.04400  0.67531  0.82901  Biso   1.000  C
  H175     1.0000 0.09159  0.59500  0.85401  Biso   1.000  H
  O56      1.0000 0.99291  0.59500  0.88109  Biso   1.000  O
  C112     1.0000 0.11898  0.60439  0.01771  Biso   1.000  C
  C113     1.0000 0.07800  0.78532  0.79989  Biso   1.000  C
  H176     1.0000 0.14209  0.70362  0.80939  Biso   1.000  H
  H177     1.0000 0.98170  0.44739  0.75002  Biso   1.000  H
  H178     1.0000 0.90740  0.47978  0.74829  Biso   1.000  H
  H179     1.0000 0.94960  0.46881  0.69061  Biso   1.000  H
  H180     1.0000 0.00169  0.69562  0.84198  Biso   1.000  H
  C114     1.0000 0.99773  0.53291  0.89089  Biso   1.000  C
  H181     1.0000 0.13559  0.56642  0.03481  Biso   1.000  H
  H182     1.0000 0.15341  0.63660  0.02378  Biso   1.000  H
  H183     1.0000 0.07499  0.61619  0.03520  Biso   1.000  H
  Br18     1.0000 0.15722  0.83691  0.78522  Biso   1.000  Br
  H184     1.0000 0.04500  0.80721  0.82402  Biso   1.000  H
  H185     1.0000 0.05479  0.77589  0.76391  Biso   1.000  H
  H186     1.0000 0.01872  0.51799  0.85561  Biso   1.000  H
  H187     1.0000 0.02909  0.52500  0.92279  Biso   1.000  H
  H188     1.0000 0.95362  0.51181  0.89740  Biso   1.000  H
  C115     1.0000 0.57578  0.31321  0.70819  Biso   1.000  C
  C116     1.0000 0.53289  0.25702  0.73501  Biso   1.000  C
  Br19     1.0000 0.61428  0.36429  0.76721  Biso   1.000  Br
  H189     1.0000 0.54410  0.33770  0.68510  Biso   1.000  H
  H190     1.0000 0.61269  0.29801  0.68332  Biso   1.000  H
  Br20     1.0000 0.56129  0.39831  0.72541  Biso   1.000  Br
  C117     1.0000 0.50799  0.21031  0.68462  Biso   1.000  C
  O57      1.0000 0.47012  0.28370  0.76139  Biso   1.000  O
  H191     1.0000 0.55849  0.23192  0.76230  Biso   1.000  H
  O58      1.0000 0.56980  0.18200  0.66340  Biso   1.000  O
  C118     1.0000 0.45669  0.16420  0.70970  Biso   1.000  C
  H192     1.0000 0.48482  0.23248  0.65389  Biso   1.000  H
  C119     1.0000 0.43279  0.23462  0.79199  Biso   1.000  C
  C120     1.0000 0.57768  0.17982  0.60290  Biso   1.000  C
  C121     1.0000 0.39778  0.19241  0.74612  Biso   1.000  C
  O59      1.0000 0.42591  0.12688  0.66140  Biso   1.000  O
  H193     1.0000 0.48350  0.13748  0.73479  Biso   1.000  H
  O60      1.0000 0.47409  0.20659  0.82970  Biso   1.000  O
  H194     1.0000 0.39519  0.25618  0.81152  Biso   1.000  H
  C122     1.0000 0.60751  0.12200  0.58259  Biso   1.000  C
  O61      1.0000 0.61719  0.23048  0.58359  Biso   1.000  O
  H195     1.0000 0.53141  0.18340  0.58610  Biso   1.000  H
  O62      1.0000 0.36272  0.14608  0.77389  Biso   1.000  O
  H196     1.0000 0.36822  0.21528  0.71982  Biso   1.000  H
  C123     1.0000 0.43760  0.06242  0.69438  Biso   1.000  C
  C124     1.0000 0.46230  0.21928  0.88868  Biso   1.000  C
  O63      1.0000 0.56869  0.07078  0.60572  Biso   1.000  O
  C125     1.0000 0.67969  0.11568  0.59739  Biso   1.000  C
  H197     1.0000 0.60571  0.12149  0.54101  Biso   1.000  H
  C126     1.0000 0.68958  0.22950  0.60138  Biso   1.000  C
  C127     1.0000 0.29968  0.16132  0.79880  Biso   1.000  C
  H198     1.0000 0.40100  0.06451  0.66561  Biso   1.000  H
  H199     1.0000 0.47271  0.03272  0.68271  Biso   1.000  H
  H200     1.0000 0.41761  0.05001  0.73088  Biso   1.000  H
  C128     1.0000 0.49582  0.16248  0.91819  Biso   1.000  C
  C129     1.0000 0.49439  0.27751  0.91168  Biso   1.000  C
  H201     1.0000 0.41280  0.21951  0.89771  Biso   1.000  H
  C130     1.0000 0.54479  0.03151  0.56219  Biso   1.000  C
  O64      1.0000 0.71010  0.06279  0.56371  Biso   1.000  O
  C131     1.0000 0.72602  0.17150  0.58181  Biso   1.000  C
  H202     1.0000 0.68620  0.10829  0.63818  Biso   1.000  H
  C132     1.0000 0.72332  0.28890  0.58198  Biso   1.000  C
  H203     1.0000 0.69149  0.22992  0.64309  Biso   1.000  H
  H204     1.0000 0.27462  0.12758  0.81681  Biso   1.000  H
  H205     1.0000 0.30661  0.19400  0.82649  Biso   1.000  H
  H206     1.0000 0.27282  0.17671  0.76651  Biso   1.000  H
  C133     1.0000 0.50058  0.16718  0.98229  Biso   1.000  C
  O65      1.0000 0.45368  0.10778  0.90969  Biso   1.000  O
  H207     1.0000 0.54331  0.15691  0.90439  Biso   1.000  H
  O66      1.0000 0.49450  0.28370  0.97318  Biso   1.000  O
  C134     1.0000 0.46171  0.33798  0.89172  Biso   1.000  C
  H208     1.0000 0.54320  0.27700  0.90010  Biso   1.000  H
  H209     1.0000 0.51142  0.06191  0.54891  Biso   1.000  H
  H210     1.0000 0.57462  0.01910  0.53060  Biso   1.000  H
  H211     1.0000 0.51978  0.99591  0.57682  Biso   1.000  H
  C135     1.0000 0.73020  0.01840  0.59821  Biso   1.000  C
  O67      1.0000 0.79313  0.16369  0.60672  Biso   1.000  O
  H212     1.0000 0.73072  0.17178  0.54032  Biso   1.000  H
  Br21     1.0000 0.72639  0.30010  0.50052  Biso   1.000  Br
  H213     1.0000 0.76848  0.29429  0.60021  Biso   1.000  H
  H214     1.0000 0.69371  0.32250  0.59461  Biso   1.000  H
  C136     1.0000 0.53041  0.23239  0.99740  Biso   1.000  C
  H215     1.0000 0.45219  0.16839  0.99501  Biso   1.000  H
  O68      1.0000 0.53189  0.12182  0.01128  Biso   1.000  O
  C137     1.0000 0.48763  0.06549  0.87011  Biso   1.000  C
  Br22     1.0000 0.36420  0.34700  0.90899  Biso   1.000  Br
  H216     1.0000 0.46510  0.33598  0.85019  Biso   1.000  H
  H217     1.0000 0.49022  0.37242  0.90422  Biso   1.000  H
  H218     1.0000 0.76838  0.03402  0.62139  Biso   1.000  H
  H219     1.0000 0.69318  0.00339  0.62308  Biso   1.000  H
  H220     1.0000 0.74701  0.98499  0.57430  Biso   1.000  H
  C138     1.0000 0.85331  0.19070  0.58020  Biso   1.000  C
  O69      1.0000 0.60428  0.23090  0.98728  Biso   1.000  O
  H221     1.0000 0.52628  0.23950  0.03841  Biso   1.000  H
  C139     1.0000 0.49291  0.08189  0.04049  Biso   1.000  C
  H222     1.0000 0.46092  0.02840  0.86290  Biso   1.000  H
  H223     1.0000 0.49730  0.08612  0.83400  Biso   1.000  H
  H224     1.0000 0.53131  0.05489  0.88881  Biso   1.000  H
  C140     1.0000 0.90931  0.14510  0.57152  Biso   1.000  C
  O70      1.0000 0.87790  0.24080  0.61349  Biso   1.000  O
  H225     1.0000 0.83971  0.20608  0.54270  Biso   1.000  H
  C141     1.0000 0.64759  0.26929  0.02278  Biso   1.000  C
  H226     1.0000 0.51920  0.04810  0.05681  Biso   1.000  H
  H227     1.0000 0.47308  0.10662  0.07109  Biso   1.000  H
  H228     1.0000 0.45558  0.06590  0.01658  Biso   1.000  H
  O71      1.0000 0.88868  0.09249  0.54080  Biso   1.000  O
  C142     1.0000 0.94130  0.12358  0.62881  Biso   1.000  C
  H229     1.0000 0.94728  0.16430  0.55039  Biso   1.000  H
  C143     1.0000 0.89863  0.22081  0.67151  Biso   1.000  C
  C144     1.0000 0.70592  0.29992  0.98581  Biso   1.000  C
  C145     1.0000 0.67890  0.23248  0.07130  Biso   1.000  C
  H230     1.0000 0.62041  0.30229  0.03980  Biso   1.000  H
  C146     1.0000 0.88102  0.10439  0.48229  Biso   1.000  C
  C147     1.0000 0.95600  0.17531  0.67099  Biso   1.000  C
  H231     1.0000 0.90841  0.09500  0.64599  Biso   1.000  H
  O72      1.0000 0.00709  0.09500  0.61891  Biso   1.000  O
  C148     1.0000 0.92200  0.28532  0.70011  Biso   1.000  C
  H232     1.0000 0.85791  0.20362  0.69061  Biso   1.000  H
  C149     1.0000 0.68149  0.34142  0.93920  Biso   1.000  C
  H233     1.0000 0.73009  0.26669  0.96641  Biso   1.000  H
  O73      1.0000 0.75278  0.33152  0.01810  Biso   1.000  O
  C150     1.0000 0.73628  0.26771  0.10368  Biso   1.000  C
  O74      1.0000 0.62337  0.21231  0.11188  Biso   1.000  O
  H234     1.0000 0.70132  0.19660  0.05490  Biso   1.000  H
  H235     1.0000 0.86441  0.06642  0.46519  Biso   1.000  H
  H236     1.0000 0.84659  0.13660  0.47622  Biso   1.000  H
  H237     1.0000 0.92501  0.11619  0.46480  Biso   1.000  H
  O75      1.0000 0.96869  0.15268  0.72828  Biso   1.000  O
  H238     1.0000 0.99831  0.19562  0.65802  Biso   1.000  H
  C151     1.0000 0.00227  0.03291  0.60911  Biso   1.000  C
  Br23     1.0000 0.84278  0.33691  0.71478  Biso   1.000  Br
  H239     1.0000 0.95500  0.30721  0.67598  Biso   1.000  H
  H240     1.0000 0.94521  0.27589  0.73609  Biso   1.000  H
  Br24     1.0000 0.63131  0.41230  0.96519  Biso   1.000  Br
  H241     1.0000 0.65219  0.31679  0.91411  Biso   1.000  H
  H242     1.0000 0.72200  0.35309  0.91672  Biso   1.000  H
  C152     1.0000 0.78652  0.29792  0.06041  Biso   1.000  C
  O76      1.0000 0.76600  0.23020  0.14751  Biso   1.000  O
  H243     1.0000 0.71222  0.30168  0.12191  Biso   1.000  H
  C153     1.0000 0.62951  0.14729  0.13371  Biso   1.000  C
  C154     1.0000 0.03808  0.14231  0.74698  Biso   1.000  C
  H244     1.0000 0.98128  0.01799  0.64439  Biso   1.000  H
  H245     1.0000 0.97091  0.02500  0.57721  Biso   1.000  H
  H246     1.0000 0.04638  0.01181  0.60260  Biso   1.000  H
  O77      1.0000 0.82528  0.24661  0.03602  Biso   1.000  O
  H247     1.0000 0.81809  0.32511  0.08090  Biso   1.000  H
  C155     1.0000 0.81608  0.25609  0.18631  Biso   1.000  C
  H248     1.0000 0.59059  0.13901  0.15919  Biso   1.000  H
  H249     1.0000 0.62882  0.11828  0.10212  Biso   1.000  H
  H250     1.0000 0.67308  0.14320  0.15472  Biso   1.000  H
  C156     1.0000 0.03998  0.08682  0.78522  Biso   1.000  C
  O78      1.0000 0.07139  0.19488  0.77129  Biso   1.000  O
  H251     1.0000 0.06499  0.13218  0.71292  Biso   1.000  H
  C157     1.0000 0.90090  0.25288  0.02860  Biso   1.000  C
  H252     1.0000 0.83252  0.22430  0.21231  Biso   1.000  H
  H253     1.0000 0.85553  0.27259  0.16500  Biso   1.000  H
  H254     1.0000 0.79408  0.28872  0.20819  Biso   1.000  H
  O79      1.0000 0.00873  0.03551  0.76022  Biso   1.000  O
  C158     1.0000 0.00259  0.10508  0.84250  Biso   1.000  C
  H255     1.0000 0.08831  0.07678  0.79398  Biso   1.000  H
  C159     1.0000 0.03458  0.21198  0.82488  Biso   1.000  C
  C160     1.0000 0.91830  0.27710  0.96919  Biso   1.000  C
  C161     1.0000 0.93020  0.18642  0.03689  Biso   1.000  C
  H256     1.0000 0.92110  0.27998  0.05720  Biso   1.000  H
  C162     1.0000 0.04632  0.97862  0.76890  Biso   1.000  C
  H257     1.0000 0.95272  0.10978  0.83600  Biso   1.000  H
  O80      1.0000 0.01920  0.05219  0.88070  Biso   1.000  O
  C163     1.0000 0.03548  0.16402  0.86859  Biso   1.000  C
  H258     1.0000 0.98630  0.22049  0.81490  Biso   1.000  H
  C164     1.0000 0.06991  0.26971  0.84051  Biso   1.000  C
  O81      1.0000 0.99619  0.27412  0.96311  Biso   1.000  O
  C165     1.0000 0.90212  0.34291  0.95981  Biso   1.000  C
  H259     1.0000 0.89662  0.25130  0.94020  Biso   1.000  H
  C166     1.0000 0.00661  0.17940  0.02001  Biso   1.000  C
  O82      1.0000 0.92771  0.17522  0.09839  Biso   1.000  O
  H260     1.0000 0.90338  0.15691  0.01458  Biso   1.000  H
  H261     1.0000 0.01830  0.94739  0.75002  Biso   1.000  H
  H262     1.0000 0.09260  0.97978  0.75171  Biso   1.000  H
  H263     1.0000 0.05040  0.96881  0.80939  Biso   1.000  H
  C167     1.0000 0.96388  0.04039  0.91611  Biso   1.000  C
  O83      1.0000 0.99201  0.17708  0.91589  Biso   1.000  O
  H264     1.0000 0.08292  0.15672  0.88191  Biso   1.000  H
  Br25     1.0000 0.16668  0.26729  0.86160  Biso   1.000  Br
  H265     1.0000 0.04432  0.28769  0.87232  Biso   1.000  H
  H266     1.0000 0.06542  0.29759  0.80831  Biso   1.000  H
  Br26     1.0000 0.08858  0.34170  0.79581  Biso   1.000  Br
  C168     1.0000 0.02131  0.21091  0.95999  Biso   1.000  C
  Br27     1.0000 0.90777  0.36680  0.88078  Biso   1.000  Br
  H267     1.0000 0.92850  0.36828  0.98629  Biso   1.000  H
  H268     1.0000 0.85272  0.34872  0.96788  Biso   1.000  H
  O84      1.0000 0.02401  0.11689  0.02131  Biso   1.000  O
  H269     1.0000 0.03379  0.19999  0.04952  Biso   1.000  H
  C169     1.0000 0.88551  0.12939  0.11132  Biso   1.000  C
  H270     1.0000 0.97472  0.00679  0.94202  Biso   1.000  H
  H271     1.0000 0.94960  0.07608  0.93829  Biso   1.000  H
  H272     1.0000 0.92628  0.02821  0.89059  Biso   1.000  H
  H273     1.0000 0.07139  0.21291  0.95330  Biso   1.000  H
  C170     1.0000 0.07980  0.10160  0.05360  Biso   1.000  C
  C171     1.0000 0.09149  0.10002  0.02669  Biso   1.000  C
  H274     1.0000 0.89989  0.14101  0.14968  Biso   1.000  H
  H275     1.0000 0.83501  0.13278  0.10802  Biso   1.000  H
  H276     1.0000 0.89958  0.08728  0.10368  Biso   1.000  H
  H277     1.0000 0.08768  0.05749  0.05368  Biso   1.000  H
  H278     1.0000 0.12078  0.12219  0.03819  Biso   1.000  H
  H279     1.0000 0.07150  0.11559  0.09261  Biso   1.000  H
  H280     1.0000 0.09609  0.05559  0.02808  Biso   1.000  H
  H281     1.0000 0.11348  0.11791  0.06028  Biso   1.000  H
  H282     1.0000 0.11412  0.11550  0.99232  Biso   1.000  H
  C172     1.0000 0.57578  0.68679  0.29181  Biso   1.000  C
  C173     1.0000 0.53289  0.74298  0.26499  Biso   1.000  C
  Br28     1.0000 0.61428  0.63571  0.23279  Biso   1.000  Br
  H283     1.0000 0.54410  0.66230  0.31490  Biso   1.000  H
  H284     1.0000 0.61269  0.70199  0.31668  Biso   1.000  H
  Br29     1.0000 0.56129  0.60169  0.27459  Biso   1.000  Br
  O85      1.0000 0.47012  0.71630  0.23861  Biso   1.000  O
  C174     1.0000 0.50799  0.78969  0.31538  Biso   1.000  C
  H285     1.0000 0.55849  0.76808  0.23770  Biso   1.000  H
  C175     1.0000 0.43279  0.76538  0.20801  Biso   1.000  C
  C176     1.0000 0.45669  0.83580  0.29030  Biso   1.000  C
  O86      1.0000 0.56980  0.81800  0.33660  Biso   1.000  O
  H286     1.0000 0.48482  0.76752  0.34611  Biso   1.000  H
  O87      1.0000 0.47409  0.79341  0.17030  Biso   1.000  O
  C177     1.0000 0.39778  0.80759  0.25388  Biso   1.000  C
  H287     1.0000 0.39519  0.74382  0.18848  Biso   1.000  H
  O88      1.0000 0.42591  0.87312  0.33860  Biso   1.000  O
  H288     1.0000 0.48350  0.86252  0.26521  Biso   1.000  H
  C178     1.0000 0.57768  0.82018  0.39710  Biso   1.000  C
  C179     1.0000 0.46230  0.78072  0.11132  Biso   1.000  C
  O89      1.0000 0.36272  0.85392  0.22611  Biso   1.000  O
  H289     1.0000 0.36822  0.78472  0.28018  Biso   1.000  H
  C180     1.0000 0.43760  0.93758  0.30562  Biso   1.000  C
  C181     1.0000 0.60751  0.87800  0.41741  Biso   1.000  C
  O90      1.0000 0.61719  0.76952  0.41641  Biso   1.000  O
  H290     1.0000 0.53141  0.81660  0.41390  Biso   1.000  H
  C182     1.0000 0.49439  0.72249  0.08832  Biso   1.000  C
  C183     1.0000 0.49582  0.83752  0.08181  Biso   1.000  C
  H291     1.0000 0.41280  0.78049  0.10229  Biso   1.000  H
  C184     1.0000 0.29968  0.83868  0.20120  Biso   1.000  C
  H292     1.0000 0.40100  0.93549  0.33439  Biso   1.000  H
  H293     1.0000 0.47271  0.96728  0.31729  Biso   1.000  H
  H294     1.0000 0.41761  0.94999  0.26912  Biso   1.000  H
  O91      1.0000 0.56869  0.92922  0.39428  Biso   1.000  O
  C185     1.0000 0.67969  0.88432  0.40261  Biso   1.000  C
  H295     1.0000 0.60571  0.87851  0.45899  Biso   1.000  H
  C186     1.0000 0.68958  0.77050  0.39862  Biso   1.000  C
  C187     1.0000 0.46171  0.66202  0.10828  Biso   1.000  C
  O92      1.0000 0.49450  0.71630  0.02682  Biso   1.000  O
  H296     1.0000 0.54320  0.72300  0.09990  Biso   1.000  H
  C188     1.0000 0.50058  0.83282  0.01771  Biso   1.000  C
  O93      1.0000 0.45368  0.89222  0.09031  Biso   1.000  O
  H297     1.0000 0.54331  0.84309  0.09561  Biso   1.000  H
  H298     1.0000 0.27462  0.87242  0.18319  Biso   1.000  H
  H299     1.0000 0.30661  0.80600  0.17351  Biso   1.000  H
  H300     1.0000 0.27282  0.82329  0.23349  Biso   1.000  H
  C189     1.0000 0.54479  0.96849  0.43781  Biso   1.000  C
  O94      1.0000 0.71010  0.93721  0.43629  Biso   1.000  O
  C190     1.0000 0.72602  0.82850  0.41819  Biso   1.000  C
  H301     1.0000 0.68620  0.89171  0.36182  Biso   1.000  H
  C191     1.0000 0.72332  0.71110  0.41802  Biso   1.000  C
  H302     1.0000 0.69149  0.77008  0.35691  Biso   1.000  H
  Br30     1.0000 0.36420  0.65300  0.09101  Biso   1.000  Br
  H303     1.0000 0.46510  0.66402  0.14981  Biso   1.000  H
  H304     1.0000 0.49022  0.62758  0.09578  Biso   1.000  H
  C192     1.0000 0.53041  0.76761  0.00260  Biso   1.000  C
  H305     1.0000 0.45219  0.83161  0.00499  Biso   1.000  H
  O95      1.0000 0.53189  0.87818  0.98872  Biso   1.000  O
  C193     1.0000 0.48763  0.93451  0.12989  Biso   1.000  C
  H306     1.0000 0.51142  0.93809  0.45109  Biso   1.000  H
  H307     1.0000 0.57462  0.98090  0.46940  Biso   1.000  H
  H308     1.0000 0.51978  0.00409  0.42318  Biso   1.000  H
  C194     1.0000 0.73020  0.98160  0.40179  Biso   1.000  C
  O96      1.0000 0.79313  0.83631  0.39328  Biso   1.000  O
  H309     1.0000 0.73072  0.82822  0.45968  Biso   1.000  H
  Br31     1.0000 0.72639  0.69990  0.49948  Biso   1.000  Br
  H310     1.0000 0.76848  0.70571  0.39979  Biso   1.000  H
  H311     1.0000 0.69371  0.67750  0.40539  Biso   1.000  H
  O97      1.0000 0.60428  0.76910  0.01272  Biso   1.000  O
  H312     1.0000 0.52628  0.76050  0.96159  Biso   1.000  H
  C195     1.0000 0.49291  0.91811  0.95951  Biso   1.000  C
  H313     1.0000 0.46092  0.97160  0.13710  Biso   1.000  H
  H314     1.0000 0.49730  0.91388  0.16600  Biso   1.000  H
  H315     1.0000 0.53131  0.94511  0.11119  Biso   1.000  H
  H316     1.0000 0.76838  0.96598  0.37861  Biso   1.000  H
  H317     1.0000 0.69318  0.99661  0.37692  Biso   1.000  H
  H318     1.0000 0.74701  0.01501  0.42570  Biso   1.000  H
  C196     1.0000 0.85331  0.80930  0.41980  Biso   1.000  C
  C197     1.0000 0.64759  0.73071  0.97722  Biso   1.000  C
  H319     1.0000 0.51920  0.95190  0.94319  Biso   1.000  H
  H320     1.0000 0.47308  0.89338  0.92891  Biso   1.000  H
  H321     1.0000 0.45558  0.93410  0.98342  Biso   1.000  H
  C198     1.0000 0.90931  0.85490  0.42848  Biso   1.000  C
  O98      1.0000 0.87790  0.75920  0.38651  Biso   1.000  O
  H322     1.0000 0.83971  0.79392  0.45730  Biso   1.000  H
  C199     1.0000 0.70592  0.70008  0.01419  Biso   1.000  C
  C200     1.0000 0.67890  0.76752  0.92870  Biso   1.000  C
  H323     1.0000 0.62041  0.69771  0.96020  Biso   1.000  H
  O99      1.0000 0.88868  0.90751  0.45920  Biso   1.000  O
  C201     1.0000 0.94130  0.87642  0.37119  Biso   1.000  C
  H324     1.0000 0.94728  0.83570  0.44961  Biso   1.000  H
  C202     1.0000 0.89863  0.77919  0.32849  Biso   1.000  C
  C203     1.0000 0.68149  0.65858  0.06080  Biso   1.000  C
  H325     1.0000 0.73009  0.73331  0.03359  Biso   1.000  H
  O100     1.0000 0.75278  0.66848  0.98190  Biso   1.000  O
  C204     1.0000 0.73628  0.73229  0.89632  Biso   1.000  C
  O101     1.0000 0.62337  0.78769  0.88812  Biso   1.000  O
  H326     1.0000 0.70132  0.80340  0.94510  Biso   1.000  H
  C205     1.0000 0.88102  0.89561  0.51771  Biso   1.000  C
  C206     1.0000 0.95600  0.82469  0.32901  Biso   1.000  C
  H327     1.0000 0.90841  0.90500  0.35401  Biso   1.000  H
  O102     1.0000 0.00709  0.90500  0.38109  Biso   1.000  O
  C207     1.0000 0.92200  0.71468  0.29989  Biso   1.000  C
  H328     1.0000 0.85791  0.79638  0.30939  Biso   1.000  H
  Br32     1.0000 0.63131  0.58770  0.03481  Biso   1.000  Br
  H329     1.0000 0.65219  0.68321  0.08589  Biso   1.000  H
  H330     1.0000 0.72200  0.64691  0.08328  Biso   1.000  H
  C208     1.0000 0.78652  0.70208  0.93959  Biso   1.000  C
  O103     1.0000 0.76600  0.76980  0.85249  Biso   1.000  O
  H331     1.0000 0.71222  0.69832  0.87809  Biso   1.000  H
  C209     1.0000 0.62951  0.85271  0.86629  Biso   1.000  C
  H332     1.0000 0.86441  0.93358  0.53481  Biso   1.000  H
  H333     1.0000 0.84659  0.86340  0.52378  Biso   1.000  H
  H334     1.0000 0.92501  0.88381  0.53520  Biso   1.000  H
  O104     1.0000 0.96869  0.84732  0.27172  Biso   1.000  O
  H335     1.0000 0.99831  0.80438  0.34198  Biso   1.000  H
  C210     1.0000 0.00227  0.96709  0.39089  Biso   1.000  C
  Br33     1.0000 0.84278  0.66309  0.28522  Biso   1.000  Br
  H336     1.0000 0.95500  0.69279  0.32402  Biso   1.000  H
  H337     1.0000 0.94521  0.72411  0.26391  Biso   1.000  H
  O105     1.0000 0.82528  0.75339  0.96398  Biso   1.000  O
  H338     1.0000 0.81809  0.67489  0.91910  Biso   1.000  H
  C211     1.0000 0.81608  0.74391  0.81369  Biso   1.000  C
  H339     1.0000 0.59059  0.86099  0.84081  Biso   1.000  H
  H340     1.0000 0.62882  0.88172  0.89788  Biso   1.000  H
  H341     1.0000 0.67308  0.85680  0.84528  Biso   1.000  H
  C212     1.0000 0.03808  0.85769  0.25302  Biso   1.000  C
  H342     1.0000 0.98128  0.98201  0.35561  Biso   1.000  H
  H343     1.0000 0.97091  0.97500  0.42279  Biso   1.000  H
  H344     1.0000 0.04638  0.98819  0.39740  Biso   1.000  H
  C213     1.0000 0.90090  0.74712  0.97140  Biso   1.000  C
  H345     1.0000 0.83252  0.77570  0.78769  Biso   1.000  H
  H346     1.0000 0.85553  0.72741  0.83500  Biso   1.000  H
  H347     1.0000 0.79408  0.71128  0.79181  Biso   1.000  H
  C214     1.0000 0.03998  0.91318  0.21478  Biso   1.000  C
  O106     1.0000 0.07139  0.80512  0.22871  Biso   1.000  O
  H348     1.0000 0.06499  0.86782  0.28708  Biso   1.000  H
  C215     1.0000 0.91830  0.72290  0.03081  Biso   1.000  C
  C216     1.0000 0.93020  0.81358  0.96311  Biso   1.000  C
  H349     1.0000 0.92110  0.72002  0.94280  Biso   1.000  H
  C217     1.0000 0.00259  0.89492  0.15750  Biso   1.000  C
  O107     1.0000 0.00873  0.96449  0.23978  Biso   1.000  O
  H350     1.0000 0.08831  0.92322  0.20602  Biso   1.000  H
  C218     1.0000 0.03458  0.78802  0.17512  Biso   1.000  C
  O108     1.0000 0.99619  0.72588  0.03689  Biso   1.000  O
  C219     1.0000 0.90212  0.65709  0.04019  Biso   1.000  C
  H351     1.0000 0.89662  0.74870  0.05980  Biso   1.000  H
  O109     1.0000 0.92771  0.82478  0.90161  Biso   1.000  O
  H352     1.0000 0.90338  0.84309  0.98542  Biso   1.000  H
  C220     1.0000 0.00661  0.82060  0.97999  Biso   1.000  C
  C221     1.0000 0.03548  0.83598  0.13141  Biso   1.000  C
  H353     1.0000 0.95272  0.89022  0.16400  Biso   1.000  H
  O110     1.0000 0.01920  0.94781  0.11930  Biso   1.000  O
  C222     1.0000 0.04632  0.02138  0.23110  Biso   1.000  C
  H354     1.0000 0.98630  0.77951  0.18510  Biso   1.000  H
  C223     1.0000 0.06991  0.73029  0.15949  Biso   1.000  C
  C224     1.0000 0.02131  0.78909  0.04001  Biso   1.000  C
  Br34     1.0000 0.90777  0.63320  0.11922  Biso   1.000  Br
  H355     1.0000 0.92850  0.63172  0.01371  Biso   1.000  H
  H356     1.0000 0.85272  0.65128  0.03212  Biso   1.000  H
  C225     1.0000 0.88551  0.87061  0.88868  Biso   1.000  C
  O111     1.0000 0.02401  0.88311  0.97869  Biso   1.000  O
  H357     1.0000 0.03379  0.80001  0.95048  Biso   1.000  H
  O112     1.0000 0.99201  0.82292  0.08411  Biso   1.000  O
  H358     1.0000 0.08292  0.84328  0.11809  Biso   1.000  H
  C226     1.0000 0.96388  0.95961  0.08389  Biso   1.000  C
  H359     1.0000 0.01830  0.05261  0.25002  Biso   1.000  H
  H360     1.0000 0.09260  0.02022  0.24829  Biso   1.000  H
  H361     1.0000 0.05040  0.03119  0.19061  Biso   1.000  H
  Br35     1.0000 0.16668  0.73271  0.13840  Biso   1.000  Br
  H362     1.0000 0.04432  0.71231  0.12768  Biso   1.000  H
  H363     1.0000 0.06542  0.70241  0.19169  Biso   1.000  H
  Br36     1.0000 0.08858  0.65830  0.20419  Biso   1.000  Br
  H364     1.0000 0.07139  0.78709  0.04670  Biso   1.000  H
  H365     1.0000 0.89989  0.85899  0.85032  Biso   1.000  H
  H366     1.0000 0.83501  0.86722  0.89198  Biso   1.000  H
  H367     1.0000 0.89958  0.91272  0.89632  Biso   1.000  H
  C227     1.0000 0.07980  0.89840  0.94640  Biso   1.000  C
  C228     1.0000 0.09149  0.89998  0.97331  Biso   1.000  C
  H368     1.0000 0.97472  0.99321  0.05798  Biso   1.000  H
  H369     1.0000 0.94960  0.92392  0.06171  Biso   1.000  H
  H370     1.0000 0.92628  0.97179  0.10941  Biso   1.000  H
  H371     1.0000 0.08768  0.94251  0.94632  Biso   1.000  H
  H372     1.0000 0.12078  0.87781  0.96181  Biso   1.000  H
  H373     1.0000 0.07150  0.88441  0.90739  Biso   1.000  H
  H374     1.0000 0.09609  0.94441  0.97192  Biso   1.000  H
  H375     1.0000 0.11348  0.88209  0.93972  Biso   1.000  H
  H376     1.0000 0.11412  0.88450  0.00768  Biso   1.000  H
  Ne1      1.0000 0.24419  0.25906  0.31493  Biso   1.000  Ne
  He1      1.0000 0.27095  0.46191  0.30651  Biso   1.000  He
  He2      1.0000 0.24379  0.15244  0.32362  Biso   1.000  He
  Ar1      1.0000 0.26343  0.33603  0.32478  Biso   1.000  Ar
  Ne2      1.0000 0.24419  0.74094  0.68507  Biso   1.000  Ne
  He3      1.0000 0.26343  0.66397  0.67522  Biso   1.000  He
  He4      1.0000 0.24286  0.85362  0.67641  Biso   1.000  He
  Ar2      1.0000 0.26343  0.66397  0.67522  Biso   1.000  Ar
  Ne3      1.0000 0.75581  0.24094  0.81493  Biso   1.000  Ne
  He5      1.0000 0.72851  0.03197  0.80693  Biso   1.000  He
  He6      1.0000 0.75717  0.35383  0.82359  Biso   1.000  He
  Ar3      1.0000 0.73656  0.16397  0.82476  Biso   1.000  Ar
  Ne4      1.0000 0.75581  0.75906  0.18507  Biso   1.000  Ne
  He7      1.0000 0.73657  0.83604  0.17522  Biso   1.000  He
  He8      1.0000 0.75608  0.65326  0.17637  Biso   1.000  He
  Ar4      1.0000 0.73656  0.83603  0.17524  Biso   1.000  Ar
