data_image0
_cell_length_a       25.786
_cell_length_b       19.862
_cell_length_c       29.24
_cell_angle_alpha    90
_cell_angle_beta     94.96
_cell_angle_gamma    90

_symmetry_space_group_name_H-M    "P 1"
_symmetry_int_tables_number       1

loop_
  _symmetry_equiv_pos_as_xyz
  'x, y, z'

loop_
  _atom_site_label
  _atom_site_occupancy
  _atom_site_fract_x
  _atom_site_fract_y
  _atom_site_fract_z
  _atom_site_thermal_displace_type
  _atom_site_B_iso_or_equiv
  _atom_site_type_symbol
  C1       1.0000 0.21571  0.64279  0.11641  Biso   1.000  C
  C2       1.0000 0.22491  0.58312  0.14099  Biso   1.000  C
  C3       1.0000 0.25181  0.69510  0.12111  Biso   1.000  C
  H1       1.0000 0.18061  0.64842  0.09378  Biso   1.000  H
  C4       1.0000 0.27031  0.57592  0.17020  Biso   1.000  C
  H2       1.0000 0.19702  0.54259  0.13742  Biso   1.000  H
  C5       1.0000 0.29721  0.68790  0.15029  Biso   1.000  C
  H3       1.0000 0.24459  0.74132  0.10209  Biso   1.000  H
  C6       1.0000 0.30641  0.62829  0.17490  Biso   1.000  C
  H4       1.0000 0.27742  0.52970  0.18929  Biso   1.000  H
  H5       1.0000 0.32510  0.72848  0.15389  Biso   1.000  H
  C7       1.0000 0.35691  0.62179  0.20741  Biso   1.000  C
  C8       1.0000 0.34493  0.63820  0.25650  Biso   1.000  C
  H6       1.0000 0.37132  0.57079  0.20600  Biso   1.000  H
  H7       1.0000 0.38603  0.65618  0.19670  Biso   1.000  H
  C9       1.0000 0.39421  0.62698  0.29001  Biso   1.000  C
  H8       1.0000 0.31392  0.60588  0.26611  Biso   1.000  H
  H9       1.0000 0.33272  0.69011  0.25811  Biso   1.000  H
  C10      1.0000 0.40864  0.55412  0.29831  Biso   1.000  C
  C11      1.0000 0.38573  0.65628  0.33800  Biso   1.000  C
  H10      1.0000 0.42503  0.65190  0.27370  Biso   1.000  H
  C12      1.0000 0.37162  0.50262  0.29649  Biso   1.000  C
  C13      1.0000 0.46102  0.53942  0.30930  Biso   1.000  C
  C14      1.0000 0.33743  0.65769  0.35602  Biso   1.000  C
  C15      1.0000 0.42964  0.68110  0.36381  Biso   1.000  C
  C16      1.0000 0.38723  0.43641  0.30580  Biso   1.000  C
  H11      1.0000 0.33104  0.51400  0.28801  Biso   1.000  H
  C17      1.0000 0.47662  0.47311  0.31850  Biso   1.000  C
  O1       1.0000 0.49974  0.58650  0.30981  Biso   1.000  O
  C18      1.0000 0.33291  0.68402  0.39972  Biso   1.000  C
  H12      1.0000 0.30344  0.63851  0.33601  Biso   1.000  H
  O2       1.0000 0.47853  0.68452  0.34860  Biso   1.000  O
  C19      1.0000 0.42524  0.70738  0.40751  Biso   1.000  C
  C20      1.0000 0.34832  0.37891  0.30411  Biso   1.000  C
  C21      1.0000 0.43973  0.42161  0.31682  Biso   1.000  C
  O3       1.0000 0.52653  0.45902  0.33789  Biso   1.000  O
  C22      1.0000 0.50743  0.62662  0.35029  Biso   1.000  C
  C23      1.0000 0.28083  0.68050  0.42220  Biso   1.000  C
  C24      1.0000 0.37682  0.70879  0.42550  Biso   1.000  C
  O4       1.0000 0.46765  0.72379  0.43659  Biso   1.000  O
  C25      1.0000 0.30061  0.38979  0.26879  Biso   1.000  C
  C26      1.0000 0.33333  0.36789  0.35410  Biso   1.000  C
  H13      1.0000 0.36593  0.33411  0.29152  Biso   1.000  H
  O5       1.0000 0.45771  0.35601  0.32299  Biso   1.000  O
  C27      1.0000 0.56432  0.44759  0.30559  Biso   1.000  C
  H14      1.0000 0.49654  0.59672  0.37881  Biso   1.000  H
  H15      1.0000 0.54814  0.63971  0.35571  Biso   1.000  H
  C28      1.0000 0.27833  0.61681  0.44891  Biso   1.000  C
  H16      1.0000 0.27972  0.72238  0.44572  Biso   1.000  H
  C29      1.0000 0.23251  0.68900  0.38509  Biso   1.000  C
  O6       1.0000 0.37344  0.73850  0.46889  Biso   1.000  O
  C30      1.0000 0.48532  0.79030  0.43250  Biso   1.000  C
  C31      1.0000 0.26891  0.32288  0.26151  Biso   1.000  C
  H17      1.0000 0.31373  0.40630  0.23649  Biso   1.000  H
  H18      1.0000 0.27574  0.42780  0.28170  Biso   1.000  H
  C32      1.0000 0.29012  0.39981  0.36989  Biso   1.000  C
  C33      1.0000 0.36602  0.32922  0.38420  Biso   1.000  C
  C34      1.0000 0.45252  0.32811  0.36769  Biso   1.000  C
  C35      1.0000 0.61212  0.44301  0.33429  Biso   1.000  C
  H19      1.0000 0.56504  0.48792  0.28091  Biso   1.000  H
  H20      1.0000 0.55672  0.40051  0.28781  Biso   1.000  H
  C36      1.0000 0.25575  0.55790  0.43030  Biso   1.000  C
  C37      1.0000 0.30322  0.61630  0.49319  Biso   1.000  C
  H21      1.0000 0.23822  0.73391  0.36539  Biso   1.000  H
  H22      1.0000 0.22992  0.64581  0.36261  Biso   1.000  H
  C38      1.0000 0.18123  0.69510  0.40789  Biso   1.000  C
  C39      1.0000 0.37436  0.69182  0.50442  Biso   1.000  C
  C40      1.0000 0.53285  0.79252  0.46680  Biso   1.000  C
  H23      1.0000 0.45652  0.82640  0.44139  Biso   1.000  H
  H24      1.0000 0.49571  0.80022  0.39811  Biso   1.000  H
  H25      1.0000 0.29333  0.28542  0.24751  Biso   1.000  H
  H26      1.0000 0.25693  0.30541  0.29399  Biso   1.000  H
  C41      1.0000 0.22053  0.33390  0.22811  Biso   1.000  C
  H27      1.0000 0.26474  0.42982  0.34672  Biso   1.000  H
  C42      1.0000 0.27965  0.39311  0.41572  Biso   1.000  C
  C43      1.0000 0.35565  0.32248  0.42989  Biso   1.000  C
  O7       1.0000 0.40652  0.29222  0.36961  Biso   1.000  O
  H28      1.0000 0.48494  0.29468  0.37641  Biso   1.000  H
  H29      1.0000 0.45352  0.36890  0.39220  Biso   1.000  H
  C44      1.0000 0.64914  0.44019  0.36179  Biso   1.000  C
  C45      1.0000 0.25793  0.49869  0.45602  Biso   1.000  C
  H30      1.0000 0.23641  0.55830  0.39601  Biso   1.000  H
  C46      1.0000 0.30543  0.55709  0.51891  Biso   1.000  C
  O8       1.0000 0.32344  0.67400  0.51551  Biso   1.000  O
  H31      1.0000 0.17735  0.65270  0.43041  Biso   1.000  H
  H32      1.0000 0.18205  0.74111  0.42770  Biso   1.000  H
  C47      1.0000 0.13562  0.69600  0.37349  Biso   1.000  C
  H33      1.0000 0.39504  0.71332  0.53459  Biso   1.000  H
  H34      1.0000 0.39413  0.64691  0.49450  Biso   1.000  H
  C48      1.0000 0.56996  0.78698  0.49361  Biso   1.000  C
  C49      1.0000 0.17041  0.32842  0.24212  Biso   1.000  C
  C50      1.0000 0.22762  0.34679  0.18211  Biso   1.000  C
  C51      1.0000 0.23573  0.43158  0.43652  Biso   1.000  C
  C52      1.0000 0.31245  0.35440  0.44572  Biso   1.000  C
  O9       1.0000 0.39494  0.29478  0.46079  Biso   1.000  O
  C53      1.0000 0.69002  0.43868  0.40061  Biso   1.000  C
  C54      1.0000 0.28282  0.49829  0.50030  Biso   1.000  C
  O10      1.0000 0.33635  0.55302  0.55979  Biso   1.000  O
  C55      1.0000 0.10893  0.63649  0.36189  Biso   1.000  C
  C56      1.0000 0.11993  0.75622  0.35190  Biso   1.000  C
  C57      1.0000 0.61404  0.77590  0.52910  Biso   1.000  C
  C58      1.0000 0.12730  0.33592  0.21030  Biso   1.000  C
  H35      1.0000 0.16494  0.31840  0.27772  Biso   1.000  H
  C59      1.0000 0.18451  0.35429  0.15019  Biso   1.000  C
  H36      1.0000 0.26642  0.35102  0.17120  Biso   1.000  H
  H37      1.0000 0.22233  0.40092  0.46360  Biso   1.000  H
  C60      1.0000 0.18765  0.44432  0.40411  Biso   1.000  C
  O11      1.0000 0.30285  0.34362  0.49141  Biso   1.000  O
  C61      1.0000 0.38604  0.22410  0.47092  Biso   1.000  C
  O12      1.0000 0.66373  0.44698  0.44019  Biso   1.000  O
  H38      1.0000 0.71877  0.47790  0.39721  Biso   1.000  H
  H39      1.0000 0.70912  0.39019  0.40161  Biso   1.000  H
  O13      1.0000 0.28144  0.44250  0.52859  Biso   1.000  O
  C62      1.0000 0.31007  0.56132  0.59941  Biso   1.000  C
  C63      1.0000 0.06663  0.63710  0.32880  Biso   1.000  C
  H40      1.0000 0.12104  0.58992  0.37861  Biso   1.000  H
  C64      1.0000 0.07764  0.75692  0.31881  Biso   1.000  C
  H41      1.0000 0.14052  0.80239  0.36089  Biso   1.000  H
  O14      1.0000 0.60514  0.70522  0.53919  Biso   1.000  O
  H42      1.0000 0.65155  0.78401  0.51619  Biso   1.000  H
  H43      1.0000 0.61055  0.80742  0.55880  Biso   1.000  H
  C65      1.0000 0.13443  0.34881  0.16430  Biso   1.000  C
  H44      1.0000 0.08851  0.33169  0.22121  Biso   1.000  H
  H45      1.0000 0.19002  0.36431  0.11469  Biso   1.000  H
  H46      1.0000 0.16064  0.47669  0.41980  Biso   1.000  H
  H47      1.0000 0.19924  0.46788  0.37329  Biso   1.000  H
  C66      1.0000 0.16203  0.37700  0.39199  Biso   1.000  C
  C67      1.0000 0.31814  0.39472  0.52309  Biso   1.000  C
  C68      1.0000 0.43013  0.21302  0.50641  Biso   1.000  C
  H48      1.0000 0.34852  0.21599  0.48379  Biso   1.000  H
  H49      1.0000 0.38953  0.19258  0.44119  Biso   1.000  H
  C69      1.0000 0.69465  0.44291  0.48111  Biso   1.000  C
  C70      1.0000 0.35094  0.55981  0.63820  Biso   1.000  C
  H50      1.0000 0.28131  0.52210  0.60280  Biso   1.000  H
  H51      1.0000 0.29097  0.60981  0.59841  Biso   1.000  H
  C71      1.0000 0.05102  0.69731  0.30720  Biso   1.000  C
  H52      1.0000 0.04601  0.59098  0.31980  Biso   1.000  H
  H53      1.0000 0.06553  0.80349  0.30209  Biso   1.000  H
  C72      1.0000 0.64443  0.67752  0.57009  Biso   1.000  C
  H54      1.0000 0.10102  0.35460  0.13961  Biso   1.000  H
  H55      1.0000 0.15452  0.35148  0.42340  Biso   1.000  H
  H56      1.0000 0.18805  0.34699  0.37339  Biso   1.000  H
  C73      1.0000 0.11102  0.38732  0.36141  Biso   1.000  C
  H57      1.0000 0.32855  0.37161  0.55612  Biso   1.000  H
  H58      1.0000 0.35185  0.41939  0.51139  Biso   1.000  H
  C74      1.0000 0.46723  0.20748  0.53319  Biso   1.000  C
  C75      1.0000 0.71722  0.50171  0.49972  Biso   1.000  C
  C76      1.0000 0.69682  0.38370  0.50679  Biso   1.000  C
  C77      1.0000 0.38796  0.55699  0.66569  Biso   1.000  C
  H59      1.0000 0.01821  0.69781  0.28149  Biso   1.000  H
  C78      1.0000 0.68763  0.64560  0.55430  Biso   1.000  C
  C79      1.0000 0.63406  0.67078  0.61581  Biso   1.000  C
  C80      1.0000 0.08392  0.32791  0.34850  Biso   1.000  C
  C81      1.0000 0.08864  0.44940  0.34792  Biso   1.000  C
  C82      1.0000 0.51477  0.20970  0.56752  Biso   1.000  C
  C83      1.0000 0.74216  0.50131  0.54400  Biso   1.000  C
  O15      1.0000 0.71864  0.55750  0.47140  Biso   1.000  O
  O16      1.0000 0.67664  0.32600  0.48451  Biso   1.000  O
  C84      1.0000 0.72176  0.38319  0.55111  Biso   1.000  C
  C85      1.0000 0.43576  0.55241  0.69439  Biso   1.000  C
  C86      1.0000 0.72044  0.60689  0.58430  Biso   1.000  C
  O17      1.0000 0.69723  0.65638  0.50861  Biso   1.000  O
  C87      1.0000 0.66676  0.63211  0.64592  Biso   1.000  C
  O18      1.0000 0.59357  0.70778  0.63040  Biso   1.000  O
  C88      1.0000 0.03634  0.33048  0.32200  Biso   1.000  C
  H60      1.0000 0.10062  0.27978  0.35901  Biso   1.000  H
  C89      1.0000 0.04101  0.45202  0.32142  Biso   1.000  C
  H61      1.0000 0.10893  0.49542  0.35791  Biso   1.000  H
  O19      1.0000 0.53243  0.27621  0.56340  Biso   1.000  O
  H62      1.0000 0.54356  0.17360  0.55859  Biso   1.000  H
  H63      1.0000 0.50433  0.19978  0.60191  Biso   1.000  H
  C90      1.0000 0.74433  0.44210  0.56971  Biso   1.000  C
  C91      1.0000 0.76435  0.56842  0.56350  Biso   1.000  C
  C92      1.0000 0.68194  0.60528  0.47689  Biso   1.000  C
  C93      1.0000 0.62572  0.30818  0.49560  Biso   1.000  C
  C94      1.0000 0.71926  0.31950  0.57781  Biso   1.000  C
  O20      1.0000 0.47354  0.54098  0.66209  Biso   1.000  O
  H64      1.0000 0.43504  0.51208  0.71911  Biso   1.000  H
  H65      1.0000 0.44336  0.59949  0.71221  Biso   1.000  H
  C95      1.0000 0.70996  0.60019  0.63010  Biso   1.000  C
  C96      1.0000 0.65176  0.62109  0.69590  Biso   1.000  C
  C97      1.0000 0.54756  0.67189  0.63229  Biso   1.000  C
  C98      1.0000 0.01481  0.39261  0.30851  Biso   1.000  C
  H66      1.0000 0.01612  0.28451  0.31201  Biso   1.000  H
  H67      1.0000 0.02443  0.50010  0.31091  Biso   1.000  H
  C99      1.0000 0.57484  0.29262  0.59251  Biso   1.000  C
  H68      1.0000 0.76363  0.44170  0.60401  Biso   1.000  H
  H69      1.0000 0.77775  0.59908  0.53641  Biso   1.000  H
  C100     1.0000 0.81244  0.55568  0.59590  Biso   1.000  C
  H70      1.0000 0.67154  0.62839  0.44390  Biso   1.000  H
  H71      1.0000 0.64823  0.58061  0.48859  Biso   1.000  H
  O21      1.0000 0.62664  0.26150  0.53109  Biso   1.000  O
  H72      1.0000 0.60504  0.28668  0.46539  Biso   1.000  H
  H73      1.0000 0.60595  0.35309  0.50552  Biso   1.000  H
  C101     1.0000 0.66713  0.31598  0.60030  Biso   1.000  C
  H74      1.0000 0.72033  0.27762  0.55430  Biso   1.000  H
  C102     1.0000 0.76753  0.31100  0.61489  Biso   1.000  C
  C103     1.0000 0.52346  0.52689  0.68152  Biso   1.000  C
  H75      1.0000 0.73535  0.57018  0.65330  Biso   1.000  H
  C104     1.0000 0.61285  0.56359  0.69422  Biso   1.000  C
  H76      1.0000 0.63415  0.66589  0.70850  Biso   1.000  H
  C105     1.0000 0.69947  0.61021  0.73119  Biso   1.000  C
  O22      1.0000 0.54237  0.64399  0.67699  Biso   1.000  O
  H77      1.0000 0.51515  0.70532  0.62361  Biso   1.000  H
  H78      1.0000 0.54656  0.63110  0.60782  Biso   1.000  H
  H79      1.0000 0.97794  0.39472  0.28801  Biso   1.000  H
  C106     1.0000 0.57044  0.31890  0.63621  Biso   1.000  C
  C107     1.0000 0.62326  0.29121  0.57452  Biso   1.000  C
  H80      1.0000 0.83944  0.52331  0.58022  Biso   1.000  H
  H81      1.0000 0.80084  0.53212  0.62670  Biso   1.000  H
  C108     1.0000 0.83805  0.62300  0.60799  Biso   1.000  C
  C109     1.0000 0.66265  0.34231  0.64400  Biso   1.000  C
  H82      1.0000 0.76186  0.26609  0.63459  Biso   1.000  H
  H83      1.0000 0.77016  0.35419  0.63741  Biso   1.000  H
  C110     1.0000 0.81885  0.30490  0.59209  Biso   1.000  C
  C111     1.0000 0.53906  0.46058  0.69072  Biso   1.000  C
  C112     1.0000 0.56035  0.57839  0.68320  Biso   1.000  C
  C113     1.0000 0.62846  0.49738  0.70349  Biso   1.000  C
  H84      1.0000 0.68635  0.59370  0.76350  Biso   1.000  H
  H85      1.0000 0.72435  0.57220  0.71832  Biso   1.000  H
  C114     1.0000 0.73117  0.67712  0.73850  Biso   1.000  C
  C115     1.0000 0.61435  0.34372  0.66202  Biso   1.000  C
  O23      1.0000 0.52156  0.31548  0.65141  Biso   1.000  O
  H86      1.0000 0.84556  0.64852  0.57661  Biso   1.000  H
  H87      1.0000 0.81203  0.65301  0.62659  Biso   1.000  H
  C116     1.0000 0.88907  0.61268  0.63861  Biso   1.000  C
  H88      1.0000 0.69664  0.36149  0.66401  Biso   1.000  H
  H89      1.0000 0.82273  0.34730  0.56961  Biso   1.000  H
  H90      1.0000 0.81803  0.25889  0.57229  Biso   1.000  H
  C117     1.0000 0.86445  0.30400  0.62649  Biso   1.000  C
  C118     1.0000 0.59144  0.44588  0.70170  Biso   1.000  C
  O24      1.0000 0.50035  0.41350  0.69020  Biso   1.000  O
  H91      1.0000 0.66905  0.48600  0.71200  Biso   1.000  H
  H92      1.0000 0.70676  0.71458  0.75251  Biso   1.000  H
  H93      1.0000 0.74315  0.69459  0.70600  Biso   1.000  H
  C119     1.0000 0.77955  0.66610  0.77191  Biso   1.000  C
  C120     1.0000 0.60587  0.37302  0.71001  Biso   1.000  C
  C121     1.0000 0.49265  0.37338  0.64970  Biso   1.000  C
  C122     1.0000 0.91616  0.67209  0.65152  Biso   1.000  C
  C123     1.0000 0.91145  0.55060  0.65210  Biso   1.000  C
  C124     1.0000 0.89115  0.36351  0.63809  Biso   1.000  C
  C125     1.0000 0.88015  0.24378  0.64812  Biso   1.000  C
  C126     1.0000 0.82968  0.67158  0.75790  Biso   1.000  C
  C127     1.0000 0.77246  0.65321  0.81791  Biso   1.000  C
  C128     1.0000 0.65515  0.36180  0.74352  Biso   1.000  C
  H94      1.0000 0.57505  0.34810  0.72632  Biso   1.000  H
  H95      1.0000 0.50355  0.40328  0.62120  Biso   1.000  H
  H96      1.0000 0.45195  0.36029  0.64431  Biso   1.000  H
  C129     1.0000 0.96374  0.66952  0.67802  Biso   1.000  C
  H97      1.0000 0.89946  0.72022  0.64101  Biso   1.000  H
  C130     1.0000 0.95907  0.54798  0.67860  Biso   1.000  C
  H98      1.0000 0.89115  0.50458  0.64211  Biso   1.000  H
  C131     1.0000 0.93345  0.36290  0.67122  Biso   1.000  C
  H99      1.0000 0.87904  0.41008  0.62141  Biso   1.000  H
  C132     1.0000 0.92244  0.24308  0.68121  Biso   1.000  C
  H100     1.0000 0.85956  0.19761  0.63909  Biso   1.000  H
  C133     1.0000 0.87278  0.66408  0.78969  Biso   1.000  C
  H101     1.0000 0.83514  0.68160  0.72230  Biso   1.000  H
  C134     1.0000 0.81557  0.64571  0.84980  Biso   1.000  C
  H102     1.0000 0.73367  0.64898  0.82882  Biso   1.000  H
  C135     1.0000 0.64317  0.37821  0.79261  Biso   1.000  C
  H103     1.0000 0.68616  0.39412  0.73390  Biso   1.000  H
  H104     1.0000 0.66736  0.30989  0.74190  Biso   1.000  H
  C136     1.0000 0.98527  0.60739  0.69151  Biso   1.000  C
  H105     1.0000 0.98396  0.71549  0.68801  Biso   1.000  H
  H106     1.0000 0.97565  0.49990  0.68911  Biso   1.000  H
  C137     1.0000 0.94906  0.30269  0.69281  Biso   1.000  C
  H107     1.0000 0.95407  0.40902  0.68021  Biso   1.000  H
  H108     1.0000 0.93455  0.19651  0.69789  Biso   1.000  H
  C138     1.0000 0.86566  0.65119  0.83572  Biso   1.000  C
  H109     1.0000 0.91158  0.66831  0.77881  Biso   1.000  H
  H110     1.0000 0.81006  0.63569  0.88529  Biso   1.000  H
  C139     1.0000 0.69367  0.37171  0.82511  Biso   1.000  C
  H111     1.0000 0.62877  0.42921  0.79401  Biso   1.000  H
  H112     1.0000 0.61405  0.34382  0.80332  Biso   1.000  H
  H113     1.0000 0.02214  0.60528  0.71200  Biso   1.000  H
  H114     1.0000 0.98187  0.30219  0.71849  Biso   1.000  H
  H115     1.0000 0.89906  0.64540  0.86040  Biso   1.000  H
  C140     1.0000 0.72977  0.42408  0.82982  Biso   1.000  C
  C141     1.0000 0.70287  0.31210  0.84969  Biso   1.000  C
  C142     1.0000 0.77517  0.41688  0.85900  Biso   1.000  C
  H116     1.0000 0.72266  0.47030  0.81070  Biso   1.000  H
  C143     1.0000 0.74827  0.30490  0.87891  Biso   1.000  C
  H117     1.0000 0.67498  0.27152  0.84609  Biso   1.000  H
  C144     1.0000 0.78437  0.35721  0.88361  Biso   1.000  C
  H118     1.0000 0.80306  0.45741  0.86260  Biso   1.000  H
  H119     1.0000 0.75549  0.25868  0.89789  Biso   1.000  H
  H120     1.0000 0.81947  0.35158  0.90620  Biso   1.000  H
  O25      1.0000 0.09353  0.79222  0.13041  Biso   1.000  O
  C145     1.0000 0.13402  0.82922  0.11579  Biso   1.000  C
  C146     1.0000 0.04752  0.82811  0.13230  Biso   1.000  C
  C147     1.0000 0.16671  0.86789  0.14590  Biso   1.000  C
  C148     1.0000 0.14439  0.82248  0.07010  Biso   1.000  C
  O26      1.0000 0.09352  0.79222  0.13038  Biso   1.000  O
  O27      1.0000 0.04233  0.85601  0.17700  Biso   1.000  O
  H121     1.0000 0.01511  0.79468  0.12362  Biso   1.000  H
  H122     1.0000 0.04652  0.86890  0.10779  Biso   1.000  H
  H123     1.0000 0.01510  0.79468  0.12358  Biso   1.000  H
  C149     1.0000 0.15172  0.87891  0.19591  Biso   1.000  C
  C150     1.0000 0.15172  0.87891  0.19588  Biso   1.000  C
  C151     1.0000 0.20992  0.89981  0.13010  Biso   1.000  C
  C152     1.0000 0.18759  0.85440  0.05431  Biso   1.000  C
  C153     1.0000 0.18759  0.85440  0.05427  Biso   1.000  C
  O28      1.0000 0.10510  0.79478  0.03920  Biso   1.000  O
  C154     1.0000 0.06031  0.92161  0.18321  Biso   1.000  C
  C155     1.0000 0.06031  0.92161  0.18318  Biso   1.000  C
  C156     1.0000 0.19943  0.88979  0.23120  Biso   1.000  C
  H124     1.0000 0.13411  0.83411  0.20851  Biso   1.000  H
  C157     1.0000 0.11281  0.93641  0.19420  Biso   1.000  C
  H125     1.0000 0.13411  0.83411  0.20848  Biso   1.000  H
  H126     1.0000 0.23531  0.92982  0.15331  Biso   1.000  H
  C158     1.0000 0.22040  0.89311  0.08431  Biso   1.000  C
  H127     1.0000 0.23530  0.92982  0.15328  Biso   1.000  H
  C159     1.0000 0.22039  0.89311  0.08428  Biso   1.000  C
  O29      1.0000 0.19719  0.84362  0.00862  Biso   1.000  O
  O30      1.0000 0.19719  0.84362  0.00858  Biso   1.000  O
  C160     1.0000 0.11400  0.72410  0.02911  Biso   1.000  C
  C161     1.0000 0.11400  0.72410  0.02908  Biso   1.000  C
  C162     1.0000 0.02342  0.97311  0.18149  Biso   1.000  C
  C163     1.0000 0.23113  0.82288  0.23851  Biso   1.000  C
  H128     1.0000 0.18631  0.90630  0.26350  Biso   1.000  H
  H129     1.0000 0.22430  0.92780  0.21829  Biso   1.000  H
  C164     1.0000 0.23113  0.82288  0.23848  Biso   1.000  C
  C165     1.0000 0.12842  0.00262  0.20350  Biso   1.000  C
  C166     1.0000 0.26431  0.93158  0.06351  Biso   1.000  C
  C167     1.0000 0.26431  0.93158  0.06347  Biso   1.000  C
  C168     1.0000 0.18198  0.89472  0.97690  Biso   1.000  C
  H130     1.0000 0.15151  0.71599  0.01620  Biso   1.000  H
  H131     1.0000 0.11051  0.69258  0.05880  Biso   1.000  H
  C169     1.0000 0.06999  0.71302  0.99361  Biso   1.000  C
  C170     1.0000 0.06999  0.71302  0.99358  Biso   1.000  C
  O31      1.0000 0.97350  0.95902  0.16210  Biso   1.000  O
  C171     1.0000 0.03902  0.03942  0.19069  Biso   1.000  C
  H132     1.0000 0.20671  0.78542  0.25248  Biso   1.000  H
  H133     1.0000 0.24311  0.80541  0.20600  Biso   1.000  H
  C172     1.0000 0.27951  0.83390  0.27191  Biso   1.000  C
  C173     1.0000 0.27951  0.83390  0.27188  Biso   1.000  C
  H134     1.0000 0.16901  0.01400  0.21201  Biso   1.000  H
  C174     1.0000 0.09140  0.05412  0.20171  Biso   1.000  C
  H135     1.0000 0.16900  0.01400  0.21198  Biso   1.000  H
  C175     1.0000 0.09140  0.05412  0.20168  Biso   1.000  C
  C176     1.0000 0.24212  0.99869  0.04401  Biso   1.000  C
  H136     1.0000 0.27771  0.90092  0.03639  Biso   1.000  H
  C177     1.0000 0.31240  0.94432  0.09591  Biso   1.000  C
  C178     1.0000 0.24211  0.99869  0.04397  Biso   1.000  C
  C179     1.0000 0.31239  0.94432  0.09588  Biso   1.000  C
  O32      1.0000 0.21867  0.94250  0.97140  Biso   1.000  O
  H137     1.0000 0.17157  0.87161  0.94391  Biso   1.000  H
  H138     1.0000 0.14827  0.91939  0.98860  Biso   1.000  H
  H139     1.0000 0.17157  0.87161  0.94387  Biso   1.000  H
  C180     1.0000 0.03289  0.70748  0.96680  Biso   1.000  C
  C181     1.0000 0.93572  0.94759  0.19440  Biso   1.000  C
  O33      1.0000 0.00031  0.08650  0.19021  Biso   1.000  O
  O34      1.0000 0.00030  0.08650  0.19018  Biso   1.000  O
  C182     1.0000 0.32964  0.82842  0.25791  Biso   1.000  C
  C183     1.0000 0.27242  0.84679  0.31791  Biso   1.000  C
  C184     1.0000 0.32963  0.82842  0.25787  Biso   1.000  C
  C185     1.0000 0.27242  0.84679  0.31788  Biso   1.000  C
  C186     1.0000 0.10583  0.12698  0.20999  Biso   1.000  C
  C187     1.0000 0.21726  0.99829  0.99969  Biso   1.000  C
  C188     1.0000 0.24429  0.05790  0.06969  Biso   1.000  C
  H140     1.0000 0.33940  0.97669  0.08019  Biso   1.000  H
  H141     1.0000 0.30080  0.96788  0.12671  Biso   1.000  H
  C189     1.0000 0.33801  0.87700  0.10800  Biso   1.000  C
  C190     1.0000 0.98536  0.70970  0.93251  Biso   1.000  C
  C191     1.0000 0.98535  0.70970  0.93248  Biso   1.000  C
  C192     1.0000 0.88792  0.94301  0.16570  Biso   1.000  C
  H142     1.0000 0.93500  0.98792  0.21912  Biso   1.000  H
  H143     1.0000 0.94332  0.90051  0.21222  Biso   1.000  H
  H144     1.0000 0.93500  0.98792  0.21908  Biso   1.000  H
  H145     1.0000 0.94332  0.90051  0.21218  Biso   1.000  H
  C193     1.0000 0.99261  0.12662  0.14971  Biso   1.000  C
  C194     1.0000 0.37274  0.83592  0.28970  Biso   1.000  C
  H146     1.0000 0.33511  0.81840  0.22231  Biso   1.000  H
  H147     1.0000 0.33510  0.81840  0.22228  Biso   1.000  H
  C195     1.0000 0.31553  0.85429  0.34981  Biso   1.000  C
  H148     1.0000 0.23362  0.85102  0.32880  Biso   1.000  H
  C196     1.0000 0.11431  0.15628  0.16200  Biso   1.000  C
  C197     1.0000 0.15511  0.13820  0.24349  Biso   1.000  C
  H149     1.0000 0.07501  0.15190  0.22629  Biso   1.000  H
  C198     1.0000 0.19469  0.05709  0.98109  Biso   1.000  C
  C199     1.0000 0.22172  0.11681  0.05111  Biso   1.000  C
  H150     1.0000 0.26359  0.05830  0.10401  Biso   1.000  H
  C200     1.0000 0.22171  0.11681  0.05108  Biso   1.000  C
  H151     1.0000 0.26359  0.05830  0.10398  Biso   1.000  H
  H152     1.0000 0.34552  0.85148  0.07659  Biso   1.000  H
  H153     1.0000 0.31199  0.84699  0.12660  Biso   1.000  H
  C201     1.0000 0.38903  0.88732  0.13862  Biso   1.000  C
  C202     1.0000 0.38902  0.88732  0.13858  Biso   1.000  C
  O35      1.0000 0.96768  0.77621  0.93660  Biso   1.000  O
  H154     1.0000 0.95656  0.67360  0.94140  Biso   1.000  H
  H155     1.0000 0.99579  0.69978  0.89811  Biso   1.000  H
  H156     1.0000 0.99575  0.69978  0.89808  Biso   1.000  H
  C203     1.0000 0.85090  0.94019  0.13821  Biso   1.000  C
  H157     1.0000 0.95191  0.13971  0.14432  Biso   1.000  H
  H158     1.0000 0.95190  0.13971  0.14428  Biso   1.000  H
  H159     1.0000 0.00351  0.09672  0.12121  Biso   1.000  H
  O36      1.0000 0.02151  0.18452  0.15139  Biso   1.000  O
  H160     1.0000 0.00350  0.09672  0.12118  Biso   1.000  H
  C204     1.0000 0.36561  0.84881  0.33570  Biso   1.000  C
  H161     1.0000 0.41154  0.83169  0.27881  Biso   1.000  H
  H162     1.0000 0.41153  0.83169  0.27878  Biso   1.000  H
  H163     1.0000 0.31002  0.86431  0.38530  Biso   1.000  H
  C205     1.0000 0.16261  0.15769  0.14401  Biso   1.000  C
  C206     1.0000 0.07040  0.18110  0.13621  Biso   1.000  C
  C207     1.0000 0.16261  0.15769  0.14397  Biso   1.000  C
  C208     1.0000 0.07040  0.18110  0.13618  Biso   1.000  C
  C209     1.0000 0.14313  0.12179  0.29261  Biso   1.000  C
  H164     1.0000 0.18612  0.10588  0.23391  Biso   1.000  H
  H165     1.0000 0.16732  0.19011  0.24191  Biso   1.000  H
  C210     1.0000 0.14313  0.12179  0.29258  Biso   1.000  C
  H166     1.0000 0.18612  0.10588  0.23388  Biso   1.000  H
  H167     1.0000 0.16732  0.19011  0.24188  Biso   1.000  H
  O37      1.0000 0.16376  0.05302  0.94020  Biso   1.000  O
  C211     1.0000 0.19682  0.11630  0.00680  Biso   1.000  C
  C212     1.0000 0.19678  0.11630  0.00680  Biso   1.000  C
  C213     1.0000 0.21921  0.18050  0.07779  Biso   1.000  C
  C214     1.0000 0.41612  0.82791  0.15149  Biso   1.000  C
  C215     1.0000 0.41141  0.94940  0.15211  Biso   1.000  C
  C216     1.0000 0.41140  0.94940  0.15207  Biso   1.000  C
  C217     1.0000 0.92527  0.79262  0.90749  Biso   1.000  C
  C218     1.0000 0.81003  0.93868  0.09941  Biso   1.000  C
  C219     1.0000 0.81002  0.93868  0.09938  Biso   1.000  C
  H168     1.0000 0.39902  0.85460  0.36041  Biso   1.000  H
  H169     1.0000 0.39902  0.85460  0.36038  Biso   1.000  H
  C220     1.0000 0.16709  0.18402  0.10031  Biso   1.000  C
  H170     1.0000 0.19660  0.13851  0.16399  Biso   1.000  H
  C221     1.0000 0.16709  0.18402  0.10027  Biso   1.000  C
  C222     1.0000 0.07480  0.20738  0.09251  Biso   1.000  C
  C223     1.0000 0.07480  0.20738  0.09248  Biso   1.000  C
  C224     1.0000 0.19363  0.12829  0.32509  Biso   1.000  C
  H171     1.0000 0.12872  0.07079  0.29399  Biso   1.000  H
  H172     1.0000 0.11401  0.15618  0.30329  Biso   1.000  H
  C225     1.0000 0.19005  0.06132  0.90059  Biso   1.000  C
  O38      1.0000 0.17668  0.17400  0.98448  Biso   1.000  O
  H173     1.0000 0.22029  0.22238  0.05431  Biso   1.000  H
  C226     1.0000 0.26753  0.18900  0.11490  Biso   1.000  C
  H174     1.0000 0.22028  0.22238  0.05427  Biso   1.000  H
  C227     1.0000 0.26749  0.18900  0.11490  Biso   1.000  C
  C228     1.0000 0.46370  0.83048  0.17799  Biso   1.000  C
  H175     1.0000 0.39942  0.77978  0.14099  Biso   1.000  H
  C229     1.0000 0.45903  0.95202  0.17861  Biso   1.000  C
  H176     1.0000 0.39111  0.99542  0.14208  Biso   1.000  H
  C230     1.0000 0.45903  0.95202  0.17858  Biso   1.000  C
  C231     1.0000 0.92968  0.81890  0.86379  Biso   1.000  C
  C232     1.0000 0.87686  0.79121  0.92551  Biso   1.000  C
  C233     1.0000 0.87686  0.79121  0.92547  Biso   1.000  C
  O39      1.0000 0.83631  0.94698  0.05980  Biso   1.000  O
  H177     1.0000 0.78127  0.97790  0.10281  Biso   1.000  H
  H178     1.0000 0.79092  0.89019  0.09838  Biso   1.000  H
  H179     1.0000 0.78127  0.97790  0.10278  Biso   1.000  H
  C234     1.0000 0.12322  0.20879  0.07449  Biso   1.000  C
  O40      1.0000 0.03239  0.22379  0.06340  Biso   1.000  O
  C235     1.0000 0.22973  0.07592  0.32979  Biso   1.000  C
  C236     1.0000 0.20283  0.18790  0.34970  Biso   1.000  C
  C237     1.0000 0.14917  0.05981  0.86179  Biso   1.000  C
  H180     1.0000 0.21880  0.02210  0.89719  Biso   1.000  H
  H181     1.0000 0.20916  0.10981  0.90162  Biso   1.000  H
  H182     1.0000 0.20915  0.10981  0.90158  Biso   1.000  H
  C238     1.0000 0.12576  0.19182  0.99561  Biso   1.000  C
  H183     1.0000 0.26182  0.23391  0.13460  Biso   1.000  H
  H184     1.0000 0.27012  0.14581  0.13742  Biso   1.000  H
  C239     1.0000 0.31881  0.19510  0.09210  Biso   1.000  C
  H185     1.0000 0.27012  0.14581  0.13738  Biso   1.000  H
  C240     1.0000 0.48523  0.89261  0.19152  Biso   1.000  C
  H186     1.0000 0.48392  0.78451  0.18802  Biso   1.000  H
  C241     1.0000 0.48523  0.89261  0.19148  Biso   1.000  C
  H187     1.0000 0.48392  0.78451  0.18798  Biso   1.000  H
  H188     1.0000 0.47561  0.00010  0.18911  Biso   1.000  H
  H189     1.0000 0.47561  0.00010  0.18908  Biso   1.000  H
  C242     1.0000 0.88577  0.84372  0.83800  Biso   1.000  C
  O41      1.0000 0.97857  0.81548  0.84861  Biso   1.000  O
  O42      1.0000 0.97856  0.81548  0.84858  Biso   1.000  O
  C243     1.0000 0.83299  0.81598  0.89969  Biso   1.000  C
  O43      1.0000 0.87347  0.76150  0.96890  Biso   1.000  O
  C244     1.0000 0.83295  0.81598  0.89969  Biso   1.000  C
  C245     1.0000 0.80539  0.94291  0.01891  Biso   1.000  C
  C246     1.0000 0.80539  0.94291  0.01888  Biso   1.000  C
  O44      1.0000 0.12660  0.23850  0.03110  Biso   1.000  O
  C247     1.0000 0.01472  0.29030  0.06749  Biso   1.000  C
  C248     1.0000 0.01468  0.29030  0.06749  Biso   1.000  C
  C249     1.0000 0.27513  0.08312  0.35901  Biso   1.000  C
  H190     1.0000 0.22262  0.02970  0.31071  Biso   1.000  H
  C250     1.0000 0.24823  0.19510  0.37892  Biso   1.000  C
  H191     1.0000 0.17494  0.22848  0.34610  Biso   1.000  H
  C251     1.0000 0.24823  0.19510  0.37888  Biso   1.000  C
  C252     1.0000 0.11216  0.05699  0.83430  Biso   1.000  C
  H192     1.0000 0.10508  0.21332  0.96540  Biso   1.000  H
  H193     1.0000 0.10591  0.14691  0.00549  Biso   1.000  H
  H194     1.0000 0.32269  0.15270  0.06958  Biso   1.000  H
  H195     1.0000 0.31799  0.24111  0.07230  Biso   1.000  H
  C253     1.0000 0.36441  0.19600  0.12650  Biso   1.000  C
  H196     1.0000 0.52210  0.89472  0.21201  Biso   1.000  H
  H197     1.0000 0.52210  0.89472  0.21198  Biso   1.000  H
  C254     1.0000 0.89425  0.87302  0.79001  Biso   1.000  C
  C255     1.0000 0.83747  0.84231  0.85599  Biso   1.000  C
  C256     1.0000 0.89425  0.87302  0.78998  Biso   1.000  C
  C257     1.0000 0.00747  0.87338  0.85029  Biso   1.000  C
  C258     1.0000 0.78086  0.81950  0.92221  Biso   1.000  C
  C259     1.0000 0.78086  0.81950  0.92218  Biso   1.000  C
  C260     1.0000 0.87432  0.80818  0.00439  Biso   1.000  C
  C261     1.0000 0.80326  0.88370  0.99320  Biso   1.000  C
  C262     1.0000 0.78282  0.00171  0.00031  Biso   1.000  C
  C263     1.0000 0.78278  0.00171  0.00027  Biso   1.000  C
  C264     1.0000 0.96719  0.29252  0.03320  Biso   1.000  C
  H198     1.0000 0.04352  0.32640  0.05860  Biso   1.000  H
  H199     1.0000 0.00429  0.30022  0.10189  Biso   1.000  H
  C265     1.0000 0.28433  0.14279  0.38362  Biso   1.000  C
  H200     1.0000 0.30302  0.04259  0.36261  Biso   1.000  H
  C266     1.0000 0.28433  0.14279  0.38358  Biso   1.000  C
  H201     1.0000 0.30302  0.04259  0.36258  Biso   1.000  H
  H202     1.0000 0.25545  0.24132  0.39790  Biso   1.000  H
  C267     1.0000 0.06436  0.05241  0.80560  Biso   1.000  C
  C268     1.0000 0.39111  0.13649  0.13810  Biso   1.000  C
  C269     1.0000 0.38011  0.25622  0.14809  Biso   1.000  C
  C270     1.0000 0.84497  0.86180  0.75651  Biso   1.000  C
  H203     1.0000 0.92507  0.84810  0.77371  Biso   1.000  H
  C271     1.0000 0.90867  0.94588  0.79829  Biso   1.000  C
  C272     1.0000 0.84497  0.86180  0.75648  Biso   1.000  C
  H204     1.0000 0.92507  0.84810  0.77367  Biso   1.000  H
  H205     1.0000 0.80348  0.86149  0.83601  Biso   1.000  H
  H206     1.0000 0.80347  0.86149  0.83598  Biso   1.000  H
  O45      1.0000 0.99977  0.91350  0.80979  Biso   1.000  O
  H207     1.0000 0.99657  0.90328  0.87879  Biso   1.000  H
  H208     1.0000 0.04817  0.86029  0.85568  Biso   1.000  H
  C273     1.0000 0.77836  0.88319  0.94889  Biso   1.000  C
  H209     1.0000 0.77979  0.77762  0.94569  Biso   1.000  H
  C274     1.0000 0.73255  0.81100  0.88510  Biso   1.000  C
  H210     1.0000 0.77975  0.77762  0.94569  Biso   1.000  H
  O46      1.0000 0.82340  0.82600  0.01552  Biso   1.000  O
  O47      1.0000 0.82340  0.82600  0.01548  Biso   1.000  O
  H211     1.0000 0.89417  0.85309  0.99451  Biso   1.000  H
  H212     1.0000 0.89417  0.85309  0.99447  Biso   1.000  H
  H213     1.0000 0.89500  0.78668  0.03460  Biso   1.000  H
  C275     1.0000 0.75796  0.00131  0.95599  Biso   1.000  C
  O48      1.0000 0.78140  0.05750  0.02860  Biso   1.000  O
  C276     1.0000 0.93008  0.28698  0.00639  Biso   1.000  C
  H214     1.0000 0.31943  0.14842  0.40621  Biso   1.000  H
  O49      1.0000 0.02657  0.04098  0.83790  Biso   1.000  O
  H215     1.0000 0.06508  0.01208  0.78088  Biso   1.000  H
  H216     1.0000 0.05676  0.09949  0.78778  Biso   1.000  H
  H217     1.0000 0.06504  0.01208  0.78088  Biso   1.000  H
  C277     1.0000 0.43341  0.13710  0.17120  Biso   1.000  C
  H218     1.0000 0.37900  0.08992  0.12138  Biso   1.000  H
  C278     1.0000 0.42240  0.25692  0.18118  Biso   1.000  C
  H219     1.0000 0.35952  0.30239  0.13910  Biso   1.000  H
  C279     1.0000 0.85695  0.87821  0.70739  Biso   1.000  C
  H220     1.0000 0.81396  0.89412  0.76609  Biso   1.000  H
  H221     1.0000 0.83276  0.80989  0.75809  Biso   1.000  H
  C280     1.0000 0.96106  0.96058  0.80931  Biso   1.000  C
  C281     1.0000 0.96106  0.96058  0.80927  Biso   1.000  C
  C282     1.0000 0.87166  0.99738  0.79650  Biso   1.000  C
  C283     1.0000 0.75579  0.94210  0.93031  Biso   1.000  C
  C284     1.0000 0.75575  0.94210  0.93028  Biso   1.000  C
  H222     1.0000 0.73826  0.76609  0.86540  Biso   1.000  H
  H223     1.0000 0.72995  0.85419  0.86258  Biso   1.000  H
  C285     1.0000 0.68127  0.80490  0.90790  Biso   1.000  C
  C286     1.0000 0.73577  0.06842  0.93649  Biso   1.000  C
  C287     1.0000 0.81810  0.10528  0.02310  Biso   1.000  C
  C288     1.0000 0.88608  0.27590  0.97089  Biso   1.000  C
  C289     1.0000 0.97666  0.02689  0.81851  Biso   1.000  C
  C290     1.0000 0.97666  0.02689  0.81847  Biso   1.000  C
  C291     1.0000 0.44902  0.19731  0.19279  Biso   1.000  C
  H224     1.0000 0.45403  0.09098  0.18019  Biso   1.000  H
  H225     1.0000 0.43451  0.30349  0.19790  Biso   1.000  H
  C292     1.0000 0.80645  0.87171  0.67491  Biso   1.000  C
  H226     1.0000 0.87136  0.92921  0.70601  Biso   1.000  H
  H227     1.0000 0.88607  0.84382  0.69671  Biso   1.000  H
  C293     1.0000 0.80645  0.87171  0.67488  Biso   1.000  C
  H228     1.0000 0.87135  0.92921  0.70598  Biso   1.000  H
  H229     1.0000 0.88603  0.84382  0.69668  Biso   1.000  H
  C294     1.0000 0.88727  0.06359  0.80580  Biso   1.000  C
  H230     1.0000 0.83107  0.98600  0.78799  Biso   1.000  H
  H231     1.0000 0.73649  0.94170  0.89599  Biso   1.000  H
  H232     1.0000 0.73645  0.94170  0.89599  Biso   1.000  H
  H233     1.0000 0.67739  0.84730  0.93042  Biso   1.000  H
  H234     1.0000 0.68208  0.75889  0.92770  Biso   1.000  H
  C295     1.0000 0.63566  0.80400  0.87350  Biso   1.000  C
  H235     1.0000 0.67738  0.84730  0.93038  Biso   1.000  H
  H236     1.0000 0.72237  0.09908  0.96361  Biso   1.000  H
  C296     1.0000 0.68768  0.05568  0.90409  Biso   1.000  C
  C297     1.0000 0.77968  0.10689  0.91569  Biso   1.000  C
  H237     1.0000 0.72237  0.09908  0.96358  Biso   1.000  H
  O50      1.0000 0.80289  0.15638  0.99138  Biso   1.000  O
  H238     1.0000 0.82850  0.12839  0.05609  Biso   1.000  H
  H239     1.0000 0.85181  0.08061  0.01140  Biso   1.000  H
  O51      1.0000 0.89498  0.20522  0.96080  Biso   1.000  O
  H240     1.0000 0.84856  0.28401  0.98380  Biso   1.000  H
  H241     1.0000 0.88957  0.30742  0.94120  Biso   1.000  H
  C298     1.0000 0.93977  0.07839  0.81679  Biso   1.000  C
  H242     1.0000 0.48183  0.19781  0.21850  Biso   1.000  H
  C299     1.0000 0.77035  0.92408  0.67021  Biso   1.000  C
  C300     1.0000 0.79725  0.81210  0.65030  Biso   1.000  C
  C301     1.0000 0.77035  0.92408  0.67017  Biso   1.000  C
  C302     1.0000 0.84836  0.12109  0.80409  Biso   1.000  C
  C303     1.0000 0.60897  0.86351  0.86190  Biso   1.000  C
  C304     1.0000 0.61997  0.74378  0.85191  Biso   1.000  C
  C305     1.0000 0.61997  0.74378  0.85187  Biso   1.000  C
  H243     1.0000 0.66068  0.02331  0.91981  Biso   1.000  H
  H244     1.0000 0.69928  0.03212  0.87329  Biso   1.000  H
  C306     1.0000 0.66206  0.12300  0.89200  Biso   1.000  C
  H245     1.0000 0.66068  0.02331  0.91977  Biso   1.000  H
  C307     1.0000 0.81248  0.14560  0.94569  Biso   1.000  C
  C308     1.0000 0.79016  0.10019  0.86990  Biso   1.000  C
  C309     1.0000 0.85569  0.17752  0.92990  Biso   1.000  C
  O52      1.0000 0.95775  0.14399  0.82300  Biso   1.000  O
  C310     1.0000 0.72494  0.91688  0.64099  Biso   1.000  C
  H246     1.0000 0.77746  0.97030  0.68929  Biso   1.000  H
  C311     1.0000 0.75184  0.80490  0.62108  Biso   1.000  C
  H247     1.0000 0.82514  0.77152  0.65390  Biso   1.000  H
  C312     1.0000 0.83337  0.13211  0.85410  Biso   1.000  C
  H248     1.0000 0.86597  0.16589  0.79149  Biso   1.000  H
  C313     1.0000 0.80065  0.11021  0.76880  Biso   1.000  C
  C314     1.0000 0.56667  0.86290  0.82880  Biso   1.000  C
  H249     1.0000 0.62108  0.91008  0.87862  Biso   1.000  H
  H250     1.0000 0.62108  0.91008  0.87858  Biso   1.000  H
  C315     1.0000 0.57768  0.74308  0.81882  Biso   1.000  C
  H251     1.0000 0.64055  0.69761  0.86090  Biso   1.000  H
  C316     1.0000 0.57767  0.74308  0.81878  Biso   1.000  C
  H252     1.0000 0.65456  0.14852  0.92341  Biso   1.000  H
  H253     1.0000 0.68808  0.15301  0.87340  Biso   1.000  H
  C317     1.0000 0.61105  0.11268  0.86138  Biso   1.000  C
  H254     1.0000 0.65455  0.14852  0.92338  Biso   1.000  H
  H255     1.0000 0.76477  0.07018  0.84669  Biso   1.000  H
  C318     1.0000 0.86606  0.17078  0.88421  Biso   1.000  C
  C319     1.0000 0.86606  0.17078  0.88418  Biso   1.000  C
  C320     1.0000 0.95255  0.17189  0.86770  Biso   1.000  C
  C321     1.0000 0.71574  0.85721  0.61638  Biso   1.000  C
  H256     1.0000 0.69706  0.95741  0.63739  Biso   1.000  H
  H257     1.0000 0.74463  0.75868  0.60210  Biso   1.000  H
  H258     1.0000 0.81377  0.09370  0.73650  Biso   1.000  H
  H259     1.0000 0.77577  0.07220  0.78171  Biso   1.000  H
  C322     1.0000 0.76895  0.17712  0.76149  Biso   1.000  C
  H260     1.0000 0.77577  0.07220  0.78167  Biso   1.000  H
  C323     1.0000 0.55106  0.80269  0.80721  Biso   1.000  C
  H261     1.0000 0.54605  0.90902  0.81981  Biso   1.000  H
  C324     1.0000 0.55106  0.80269  0.80718  Biso   1.000  C
  H262     1.0000 0.54605  0.90902  0.81978  Biso   1.000  H
  H263     1.0000 0.56557  0.69651  0.80210  Biso   1.000  H
  C325     1.0000 0.58396  0.17209  0.84851  Biso   1.000  C
  C326     1.0000 0.58867  0.05060  0.84789  Biso   1.000  C
  C327     1.0000 0.58396  0.17209  0.84847  Biso   1.000  C
  O53      1.0000 0.90655  0.20778  0.86959  Biso   1.000  O
  H264     1.0000 0.98497  0.20532  0.87638  Biso   1.000  H
  H265     1.0000 0.95356  0.13110  0.89221  Biso   1.000  H
  H266     1.0000 0.95356  0.13110  0.89217  Biso   1.000  H
  H267     1.0000 0.68064  0.85158  0.59379  Biso   1.000  H
  H268     1.0000 0.79336  0.21458  0.74752  Biso   1.000  H
  H269     1.0000 0.75697  0.19459  0.79400  Biso   1.000  H
  C328     1.0000 0.72057  0.16610  0.72809  Biso   1.000  C
  H270     1.0000 0.79336  0.21458  0.74748  Biso   1.000  H
  H271     1.0000 0.51825  0.80219  0.78150  Biso   1.000  H
  C329     1.0000 0.53638  0.16952  0.82201  Biso   1.000  C
  H272     1.0000 0.60066  0.22022  0.85901  Biso   1.000  H
  C330     1.0000 0.53637  0.16952  0.82197  Biso   1.000  C
  H273     1.0000 0.60065  0.22022  0.85898  Biso   1.000  H
  C331     1.0000 0.54105  0.04798  0.82139  Biso   1.000  C
  H274     1.0000 0.60897  0.00458  0.85792  Biso   1.000  H
  H275     1.0000 0.60896  0.00458  0.85788  Biso   1.000  H
  C332     1.0000 0.67044  0.17158  0.74209  Biso   1.000  C
  C333     1.0000 0.72765  0.15321  0.68209  Biso   1.000  C
  C334     1.0000 0.51485  0.10739  0.80848  Biso   1.000  C
  H276     1.0000 0.51616  0.21549  0.81198  Biso   1.000  H
  H277     1.0000 0.52447  0.99990  0.81089  Biso   1.000  H
  C335     1.0000 0.62734  0.16408  0.71030  Biso   1.000  C
  H278     1.0000 0.66497  0.18160  0.77769  Biso   1.000  H
  C336     1.0000 0.68454  0.14571  0.65019  Biso   1.000  C
  H279     1.0000 0.76645  0.14898  0.67120  Biso   1.000  H
  H280     1.0000 0.47797  0.10528  0.78799  Biso   1.000  H
  C337     1.0000 0.63447  0.15119  0.66430  Biso   1.000  C
  H281     1.0000 0.58854  0.16831  0.72119  Biso   1.000  H
  H282     1.0000 0.69006  0.13569  0.61470  Biso   1.000  H
  H283     1.0000 0.60106  0.14540  0.63959  Biso   1.000  H
  O54      1.0000 0.09353  0.79222  0.13041  Biso   1.000  O
  C338     1.0000 0.13402  0.82922  0.11579  Biso   1.000  C
  C339     1.0000 0.04752  0.82811  0.13230  Biso   1.000  C
  C340     1.0000 0.16671  0.86789  0.14590  Biso   1.000  C
  C341     1.0000 0.14439  0.82248  0.07010  Biso   1.000  C
  O55      1.0000 0.09352  0.79222  0.13038  Biso   1.000  O
  O56      1.0000 0.04233  0.85601  0.17700  Biso   1.000  O
  H284     1.0000 0.04652  0.86890  0.10779  Biso   1.000  H
  H285     1.0000 0.01511  0.79468  0.12362  Biso   1.000  H
  H286     1.0000 0.01510  0.79468  0.12358  Biso   1.000  H
  C342     1.0000 0.15172  0.87891  0.19591  Biso   1.000  C
  C343     1.0000 0.15172  0.87891  0.19588  Biso   1.000  C
  C344     1.0000 0.20992  0.89981  0.13010  Biso   1.000  C
  C345     1.0000 0.18759  0.85440  0.05431  Biso   1.000  C
  C346     1.0000 0.18759  0.85440  0.05427  Biso   1.000  C
  O57      1.0000 0.10510  0.79478  0.03920  Biso   1.000  O
  C347     1.0000 0.06031  0.92161  0.18321  Biso   1.000  C
  C348     1.0000 0.06031  0.92161  0.18318  Biso   1.000  C
  C349     1.0000 0.19943  0.88979  0.23120  Biso   1.000  C
  C350     1.0000 0.11281  0.93641  0.19420  Biso   1.000  C
  H287     1.0000 0.13411  0.83411  0.20851  Biso   1.000  H
  H288     1.0000 0.13411  0.83411  0.20848  Biso   1.000  H
  H289     1.0000 0.23531  0.92982  0.15331  Biso   1.000  H
  C351     1.0000 0.22040  0.89311  0.08431  Biso   1.000  C
  H290     1.0000 0.23530  0.92982  0.15328  Biso   1.000  H
  C352     1.0000 0.22039  0.89311  0.08428  Biso   1.000  C
  O58      1.0000 0.19719  0.84362  0.00862  Biso   1.000  O
  O59      1.0000 0.19719  0.84362  0.00858  Biso   1.000  O
  C353     1.0000 0.11400  0.72410  0.02911  Biso   1.000  C
  C354     1.0000 0.11400  0.72410  0.02908  Biso   1.000  C
  C355     1.0000 0.02342  0.97311  0.18149  Biso   1.000  C
  C356     1.0000 0.23113  0.82288  0.23851  Biso   1.000  C
  H291     1.0000 0.18631  0.90630  0.26350  Biso   1.000  H
  H292     1.0000 0.22430  0.92780  0.21829  Biso   1.000  H
  C357     1.0000 0.23113  0.82288  0.23848  Biso   1.000  C
  C358     1.0000 0.12842  0.00262  0.20350  Biso   1.000  C
  C359     1.0000 0.26431  0.93158  0.06351  Biso   1.000  C
  C360     1.0000 0.26431  0.93158  0.06347  Biso   1.000  C
  C361     1.0000 0.18198  0.89472  0.97690  Biso   1.000  C
  H293     1.0000 0.15151  0.71599  0.01620  Biso   1.000  H
  H294     1.0000 0.11051  0.69258  0.05880  Biso   1.000  H
  C362     1.0000 0.06999  0.71302  0.99361  Biso   1.000  C
  C363     1.0000 0.06999  0.71302  0.99358  Biso   1.000  C
  O60      1.0000 0.97350  0.95902  0.16210  Biso   1.000  O
  C364     1.0000 0.03902  0.03942  0.19069  Biso   1.000  C
  H295     1.0000 0.20671  0.78542  0.25248  Biso   1.000  H
  H296     1.0000 0.24311  0.80541  0.20600  Biso   1.000  H
  C365     1.0000 0.27951  0.83390  0.27191  Biso   1.000  C
  C366     1.0000 0.27951  0.83390  0.27188  Biso   1.000  C
  H297     1.0000 0.16901  0.01400  0.21201  Biso   1.000  H
  C367     1.0000 0.09140  0.05412  0.20171  Biso   1.000  C
  H298     1.0000 0.16900  0.01400  0.21198  Biso   1.000  H
  C368     1.0000 0.09140  0.05412  0.20168  Biso   1.000  C
  H299     1.0000 0.27771  0.90092  0.03639  Biso   1.000  H
  C369     1.0000 0.24212  0.99869  0.04401  Biso   1.000  C
  C370     1.0000 0.31240  0.94432  0.09591  Biso   1.000  C
  C371     1.0000 0.24211  0.99869  0.04397  Biso   1.000  C
  C372     1.0000 0.31239  0.94432  0.09588  Biso   1.000  C
  O61      1.0000 0.21867  0.94250  0.97140  Biso   1.000  O
  H300     1.0000 0.17157  0.87161  0.94391  Biso   1.000  H
  H301     1.0000 0.14827  0.91939  0.98860  Biso   1.000  H
  H302     1.0000 0.17157  0.87161  0.94387  Biso   1.000  H
  C373     1.0000 0.03289  0.70748  0.96680  Biso   1.000  C
  C374     1.0000 0.93572  0.94759  0.19440  Biso   1.000  C
  O62      1.0000 0.00031  0.08650  0.19021  Biso   1.000  O
  O63      1.0000 0.00030  0.08650  0.19018  Biso   1.000  O
  C375     1.0000 0.32964  0.82842  0.25791  Biso   1.000  C
  C376     1.0000 0.27242  0.84679  0.31791  Biso   1.000  C
  C377     1.0000 0.32963  0.82842  0.25787  Biso   1.000  C
  C378     1.0000 0.27242  0.84679  0.31788  Biso   1.000  C
  C379     1.0000 0.10583  0.12698  0.20999  Biso   1.000  C
  C380     1.0000 0.21726  0.99829  0.99969  Biso   1.000  C
  C381     1.0000 0.24429  0.05790  0.06969  Biso   1.000  C
  H303     1.0000 0.33940  0.97669  0.08019  Biso   1.000  H
  H304     1.0000 0.30080  0.96788  0.12671  Biso   1.000  H
  C382     1.0000 0.33801  0.87700  0.10800  Biso   1.000  C
  C383     1.0000 0.98536  0.70970  0.93251  Biso   1.000  C
  C384     1.0000 0.98535  0.70970  0.93248  Biso   1.000  C
  C385     1.0000 0.88792  0.94301  0.16570  Biso   1.000  C
  H305     1.0000 0.93500  0.98792  0.21912  Biso   1.000  H
  H306     1.0000 0.94332  0.90051  0.21222  Biso   1.000  H
  H307     1.0000 0.93500  0.98792  0.21908  Biso   1.000  H
  H308     1.0000 0.94332  0.90051  0.21218  Biso   1.000  H
  C386     1.0000 0.99261  0.12662  0.14971  Biso   1.000  C
  C387     1.0000 0.37274  0.83592  0.28970  Biso   1.000  C
  H309     1.0000 0.33511  0.81840  0.22231  Biso   1.000  H
  H310     1.0000 0.33510  0.81840  0.22228  Biso   1.000  H
  C388     1.0000 0.31553  0.85429  0.34981  Biso   1.000  C
  H311     1.0000 0.23362  0.85102  0.32880  Biso   1.000  H
  C389     1.0000 0.11431  0.15628  0.16200  Biso   1.000  C
  C390     1.0000 0.15511  0.13820  0.24349  Biso   1.000  C
  H312     1.0000 0.07501  0.15190  0.22629  Biso   1.000  H
  C391     1.0000 0.19469  0.05709  0.98109  Biso   1.000  C
  C392     1.0000 0.22172  0.11681  0.05111  Biso   1.000  C
  H313     1.0000 0.26359  0.05830  0.10401  Biso   1.000  H
  C393     1.0000 0.22171  0.11681  0.05108  Biso   1.000  C
  H314     1.0000 0.26359  0.05830  0.10398  Biso   1.000  H
  H315     1.0000 0.34552  0.85148  0.07659  Biso   1.000  H
  H316     1.0000 0.31199  0.84699  0.12660  Biso   1.000  H
  C394     1.0000 0.38903  0.88732  0.13862  Biso   1.000  C
  C395     1.0000 0.38902  0.88732  0.13858  Biso   1.000  C
  O64      1.0000 0.96768  0.77621  0.93660  Biso   1.000  O
  H317     1.0000 0.95656  0.67360  0.94140  Biso   1.000  H
  H318     1.0000 0.99579  0.69978  0.89811  Biso   1.000  H
  H319     1.0000 0.99575  0.69978  0.89808  Biso   1.000  H
  C396     1.0000 0.85090  0.94019  0.13821  Biso   1.000  C
  H320     1.0000 0.95191  0.13971  0.14432  Biso   1.000  H
  H321     1.0000 0.95190  0.13971  0.14428  Biso   1.000  H
  H322     1.0000 0.00351  0.09672  0.12121  Biso   1.000  H
  O65      1.0000 0.02151  0.18452  0.15139  Biso   1.000  O
  H323     1.0000 0.00350  0.09672  0.12118  Biso   1.000  H
  C397     1.0000 0.36561  0.84881  0.33570  Biso   1.000  C
  H324     1.0000 0.41154  0.83169  0.27881  Biso   1.000  H
  H325     1.0000 0.41153  0.83169  0.27878  Biso   1.000  H
  H326     1.0000 0.31002  0.86431  0.38530  Biso   1.000  H
  C398     1.0000 0.16261  0.15769  0.14401  Biso   1.000  C
  C399     1.0000 0.07040  0.18110  0.13621  Biso   1.000  C
  C400     1.0000 0.16261  0.15769  0.14397  Biso   1.000  C
  C401     1.0000 0.07040  0.18110  0.13618  Biso   1.000  C
  C402     1.0000 0.14313  0.12179  0.29261  Biso   1.000  C
  H327     1.0000 0.18612  0.10588  0.23391  Biso   1.000  H
  H328     1.0000 0.16732  0.19011  0.24191  Biso   1.000  H
  C403     1.0000 0.14313  0.12179  0.29258  Biso   1.000  C
  H329     1.0000 0.18612  0.10588  0.23388  Biso   1.000  H
  H330     1.0000 0.16732  0.19011  0.24188  Biso   1.000  H
  O66      1.0000 0.16376  0.05302  0.94020  Biso   1.000  O
  C404     1.0000 0.19682  0.11630  0.00680  Biso   1.000  C
  C405     1.0000 0.19678  0.11630  0.00680  Biso   1.000  C
  C406     1.0000 0.21921  0.18050  0.07779  Biso   1.000  C
  C407     1.0000 0.41612  0.82791  0.15149  Biso   1.000  C
  C408     1.0000 0.41141  0.94940  0.15211  Biso   1.000  C
  C409     1.0000 0.41140  0.94940  0.15207  Biso   1.000  C
  C410     1.0000 0.92527  0.79262  0.90749  Biso   1.000  C
  C411     1.0000 0.81003  0.93868  0.09941  Biso   1.000  C
  C412     1.0000 0.81002  0.93868  0.09938  Biso   1.000  C
  H331     1.0000 0.39902  0.85460  0.36041  Biso   1.000  H
  H332     1.0000 0.39902  0.85460  0.36038  Biso   1.000  H
  C413     1.0000 0.16709  0.18402  0.10031  Biso   1.000  C
  H333     1.0000 0.19660  0.13851  0.16399  Biso   1.000  H
  C414     1.0000 0.16709  0.18402  0.10027  Biso   1.000  C
  C415     1.0000 0.07480  0.20738  0.09251  Biso   1.000  C
  C416     1.0000 0.07480  0.20738  0.09248  Biso   1.000  C
  C417     1.0000 0.19363  0.12829  0.32509  Biso   1.000  C
  H334     1.0000 0.12872  0.07079  0.29399  Biso   1.000  H
  H335     1.0000 0.11401  0.15618  0.30329  Biso   1.000  H
  C418     1.0000 0.19005  0.06132  0.90059  Biso   1.000  C
  O67      1.0000 0.17668  0.17400  0.98448  Biso   1.000  O
  H336     1.0000 0.22029  0.22238  0.05431  Biso   1.000  H
  C419     1.0000 0.26753  0.18900  0.11490  Biso   1.000  C
  H337     1.0000 0.22028  0.22238  0.05427  Biso   1.000  H
  C420     1.0000 0.26749  0.18900  0.11490  Biso   1.000  C
  C421     1.0000 0.46370  0.83048  0.17799  Biso   1.000  C
  H338     1.0000 0.39942  0.77978  0.14099  Biso   1.000  H
  H339     1.0000 0.39111  0.99542  0.14208  Biso   1.000  H
  C422     1.0000 0.45903  0.95202  0.17861  Biso   1.000  C
  C423     1.0000 0.45903  0.95202  0.17858  Biso   1.000  C
  C424     1.0000 0.92968  0.81890  0.86379  Biso   1.000  C
  C425     1.0000 0.87686  0.79121  0.92551  Biso   1.000  C
  C426     1.0000 0.87686  0.79121  0.92547  Biso   1.000  C
  O68      1.0000 0.83631  0.94698  0.05980  Biso   1.000  O
  H340     1.0000 0.78127  0.97790  0.10281  Biso   1.000  H
  H341     1.0000 0.79092  0.89019  0.09838  Biso   1.000  H
  H342     1.0000 0.78127  0.97790  0.10278  Biso   1.000  H
  C427     1.0000 0.12322  0.20879  0.07449  Biso   1.000  C
  O69      1.0000 0.03239  0.22379  0.06340  Biso   1.000  O
  C428     1.0000 0.22973  0.07592  0.32979  Biso   1.000  C
  C429     1.0000 0.20283  0.18790  0.34970  Biso   1.000  C
  C430     1.0000 0.14917  0.05981  0.86179  Biso   1.000  C
  H343     1.0000 0.21880  0.02210  0.89719  Biso   1.000  H
  H344     1.0000 0.20916  0.10981  0.90162  Biso   1.000  H
  H345     1.0000 0.20915  0.10981  0.90158  Biso   1.000  H
  C431     1.0000 0.12576  0.19182  0.99561  Biso   1.000  C
  H346     1.0000 0.26182  0.23391  0.13460  Biso   1.000  H
  H347     1.0000 0.27012  0.14581  0.13742  Biso   1.000  H
  C432     1.0000 0.31881  0.19510  0.09210  Biso   1.000  C
  H348     1.0000 0.27012  0.14581  0.13738  Biso   1.000  H
  C433     1.0000 0.48523  0.89261  0.19152  Biso   1.000  C
  H349     1.0000 0.48392  0.78451  0.18802  Biso   1.000  H
  C434     1.0000 0.48523  0.89261  0.19148  Biso   1.000  C
  H350     1.0000 0.48392  0.78451  0.18798  Biso   1.000  H
  H351     1.0000 0.47561  0.00010  0.18911  Biso   1.000  H
  H352     1.0000 0.47561  0.00010  0.18908  Biso   1.000  H
  C435     1.0000 0.88577  0.84372  0.83800  Biso   1.000  C
  O70      1.0000 0.97857  0.81548  0.84861  Biso   1.000  O
  O71      1.0000 0.97856  0.81548  0.84858  Biso   1.000  O
  C436     1.0000 0.83299  0.81598  0.89969  Biso   1.000  C
  O72      1.0000 0.87347  0.76150  0.96890  Biso   1.000  O
  C437     1.0000 0.83295  0.81598  0.89969  Biso   1.000  C
  C438     1.0000 0.80539  0.94291  0.01891  Biso   1.000  C
  C439     1.0000 0.80539  0.94291  0.01888  Biso   1.000  C
  O73      1.0000 0.12660  0.23850  0.03110  Biso   1.000  O
  C440     1.0000 0.01472  0.29030  0.06749  Biso   1.000  C
  C441     1.0000 0.01468  0.29030  0.06749  Biso   1.000  C
  C442     1.0000 0.27513  0.08312  0.35901  Biso   1.000  C
  H353     1.0000 0.22262  0.02970  0.31071  Biso   1.000  H
  C443     1.0000 0.24823  0.19510  0.37892  Biso   1.000  C
  H354     1.0000 0.17494  0.22848  0.34610  Biso   1.000  H
  C444     1.0000 0.24823  0.19510  0.37888  Biso   1.000  C
  C445     1.0000 0.11216  0.05699  0.83430  Biso   1.000  C
  H355     1.0000 0.10508  0.21332  0.96540  Biso   1.000  H
  H356     1.0000 0.10591  0.14691  0.00549  Biso   1.000  H
  H357     1.0000 0.32269  0.15270  0.06958  Biso   1.000  H
  H358     1.0000 0.31799  0.24111  0.07230  Biso   1.000  H
  C446     1.0000 0.36441  0.19600  0.12650  Biso   1.000  C
  H359     1.0000 0.52210  0.89472  0.21201  Biso   1.000  H
  H360     1.0000 0.52210  0.89472  0.21198  Biso   1.000  H
  C447     1.0000 0.89425  0.87302  0.79001  Biso   1.000  C
  C448     1.0000 0.83747  0.84231  0.85599  Biso   1.000  C
  C449     1.0000 0.89425  0.87302  0.78998  Biso   1.000  C
  C450     1.0000 0.00747  0.87338  0.85029  Biso   1.000  C
  C451     1.0000 0.78086  0.81950  0.92221  Biso   1.000  C
  C452     1.0000 0.78086  0.81950  0.92218  Biso   1.000  C
  C453     1.0000 0.87432  0.80818  0.00439  Biso   1.000  C
  C454     1.0000 0.80326  0.88370  0.99320  Biso   1.000  C
  C455     1.0000 0.78282  0.00171  0.00031  Biso   1.000  C
  C456     1.0000 0.78278  0.00171  0.00027  Biso   1.000  C
  C457     1.0000 0.96719  0.29252  0.03320  Biso   1.000  C
  H361     1.0000 0.04352  0.32640  0.05860  Biso   1.000  H
  H362     1.0000 0.00429  0.30022  0.10189  Biso   1.000  H
  C458     1.0000 0.28433  0.14279  0.38362  Biso   1.000  C
  H363     1.0000 0.30302  0.04259  0.36261  Biso   1.000  H
  C459     1.0000 0.28433  0.14279  0.38358  Biso   1.000  C
  H364     1.0000 0.30302  0.04259  0.36258  Biso   1.000  H
  H365     1.0000 0.25545  0.24132  0.39790  Biso   1.000  H
  C460     1.0000 0.06436  0.05241  0.80560  Biso   1.000  C
  C461     1.0000 0.39111  0.13649  0.13810  Biso   1.000  C
  C462     1.0000 0.38011  0.25622  0.14809  Biso   1.000  C
  C463     1.0000 0.84497  0.86180  0.75651  Biso   1.000  C
  H366     1.0000 0.92507  0.84810  0.77371  Biso   1.000  H
  C464     1.0000 0.90867  0.94588  0.79829  Biso   1.000  C
  C465     1.0000 0.84497  0.86180  0.75648  Biso   1.000  C
  H367     1.0000 0.92507  0.84810  0.77367  Biso   1.000  H
  H368     1.0000 0.80348  0.86149  0.83601  Biso   1.000  H
  H369     1.0000 0.80347  0.86149  0.83598  Biso   1.000  H
  O74      1.0000 0.99977  0.91350  0.80979  Biso   1.000  O
  H370     1.0000 0.99657  0.90328  0.87879  Biso   1.000  H
  H371     1.0000 0.04817  0.86029  0.85568  Biso   1.000  H
  C466     1.0000 0.77836  0.88319  0.94889  Biso   1.000  C
  H372     1.0000 0.77979  0.77762  0.94569  Biso   1.000  H
  C467     1.0000 0.73255  0.81100  0.88510  Biso   1.000  C
  H373     1.0000 0.77975  0.77762  0.94569  Biso   1.000  H
  O75      1.0000 0.82340  0.82600  0.01552  Biso   1.000  O
  O76      1.0000 0.82340  0.82600  0.01548  Biso   1.000  O
  H374     1.0000 0.89417  0.85309  0.99451  Biso   1.000  H
  H375     1.0000 0.89417  0.85309  0.99447  Biso   1.000  H
  H376     1.0000 0.89500  0.78668  0.03460  Biso   1.000  H
  C468     1.0000 0.75796  0.00131  0.95599  Biso   1.000  C
  O77      1.0000 0.78140  0.05750  0.02860  Biso   1.000  O
  C469     1.0000 0.93008  0.28698  0.00639  Biso   1.000  C
  H377     1.0000 0.31943  0.14842  0.40621  Biso   1.000  H
  O78      1.0000 0.02657  0.04098  0.83790  Biso   1.000  O
  H378     1.0000 0.06508  0.01208  0.78088  Biso   1.000  H
  H379     1.0000 0.05676  0.09949  0.78778  Biso   1.000  H
  H380     1.0000 0.06504  0.01208  0.78088  Biso   1.000  H
  C470     1.0000 0.43341  0.13710  0.17120  Biso   1.000  C
  H381     1.0000 0.37900  0.08992  0.12138  Biso   1.000  H
  C471     1.0000 0.42240  0.25692  0.18118  Biso   1.000  C
  H382     1.0000 0.35952  0.30239  0.13910  Biso   1.000  H
  C472     1.0000 0.85695  0.87821  0.70739  Biso   1.000  C
  H383     1.0000 0.81396  0.89412  0.76609  Biso   1.000  H
  H384     1.0000 0.83276  0.80989  0.75809  Biso   1.000  H
  C473     1.0000 0.96106  0.96058  0.80931  Biso   1.000  C
  C474     1.0000 0.96106  0.96058  0.80927  Biso   1.000  C
  C475     1.0000 0.87166  0.99738  0.79650  Biso   1.000  C
  C476     1.0000 0.75579  0.94210  0.93031  Biso   1.000  C
  C477     1.0000 0.75575  0.94210  0.93028  Biso   1.000  C
  H385     1.0000 0.73826  0.76609  0.86540  Biso   1.000  H
  H386     1.0000 0.72995  0.85419  0.86258  Biso   1.000  H
  C478     1.0000 0.68127  0.80490  0.90790  Biso   1.000  C
  C479     1.0000 0.73577  0.06842  0.93649  Biso   1.000  C
  C480     1.0000 0.81810  0.10528  0.02310  Biso   1.000  C
  C481     1.0000 0.88608  0.27590  0.97089  Biso   1.000  C
  C482     1.0000 0.97666  0.02689  0.81851  Biso   1.000  C
  C483     1.0000 0.97666  0.02689  0.81847  Biso   1.000  C
  C484     1.0000 0.44902  0.19731  0.19279  Biso   1.000  C
  H387     1.0000 0.45403  0.09098  0.18019  Biso   1.000  H
  H388     1.0000 0.43451  0.30349  0.19790  Biso   1.000  H
  C485     1.0000 0.80645  0.87171  0.67491  Biso   1.000  C
  H389     1.0000 0.87136  0.92921  0.70601  Biso   1.000  H
  H390     1.0000 0.88607  0.84382  0.69671  Biso   1.000  H
  C486     1.0000 0.80645  0.87171  0.67488  Biso   1.000  C
  H391     1.0000 0.87135  0.92921  0.70598  Biso   1.000  H
  H392     1.0000 0.88603  0.84382  0.69668  Biso   1.000  H
  C487     1.0000 0.88727  0.06359  0.80580  Biso   1.000  C
  H393     1.0000 0.83107  0.98600  0.78799  Biso   1.000  H
  H394     1.0000 0.73649  0.94170  0.89599  Biso   1.000  H
  H395     1.0000 0.73645  0.94170  0.89599  Biso   1.000  H
  H396     1.0000 0.67739  0.84730  0.93042  Biso   1.000  H
  H397     1.0000 0.68208  0.75889  0.92770  Biso   1.000  H
  C488     1.0000 0.63566  0.80400  0.87350  Biso   1.000  C
  H398     1.0000 0.67738  0.84730  0.93038  Biso   1.000  H
  H399     1.0000 0.72237  0.09908  0.96361  Biso   1.000  H
  C489     1.0000 0.68768  0.05568  0.90409  Biso   1.000  C
  C490     1.0000 0.77968  0.10689  0.91569  Biso   1.000  C
  H400     1.0000 0.72237  0.09908  0.96358  Biso   1.000  H
  O79      1.0000 0.80289  0.15638  0.99138  Biso   1.000  O
  H401     1.0000 0.82850  0.12839  0.05609  Biso   1.000  H
  H402     1.0000 0.85181  0.08061  0.01140  Biso   1.000  H
  O80      1.0000 0.89498  0.20522  0.96080  Biso   1.000  O
  H403     1.0000 0.84856  0.28401  0.98380  Biso   1.000  H
  H404     1.0000 0.88957  0.30742  0.94120  Biso   1.000  H
  C491     1.0000 0.93977  0.07839  0.81679  Biso   1.000  C
  H405     1.0000 0.48183  0.19781  0.21850  Biso   1.000  H
  C492     1.0000 0.77035  0.92408  0.67021  Biso   1.000  C
  C493     1.0000 0.79725  0.81210  0.65030  Biso   1.000  C
  C494     1.0000 0.77035  0.92408  0.67017  Biso   1.000  C
  C495     1.0000 0.84836  0.12109  0.80409  Biso   1.000  C
  C496     1.0000 0.60897  0.86351  0.86190  Biso   1.000  C
  C497     1.0000 0.61997  0.74378  0.85191  Biso   1.000  C
  C498     1.0000 0.61997  0.74378  0.85187  Biso   1.000  C
  H406     1.0000 0.66068  0.02331  0.91981  Biso   1.000  H
  H407     1.0000 0.69928  0.03212  0.87329  Biso   1.000  H
  C499     1.0000 0.66206  0.12300  0.89200  Biso   1.000  C
  H408     1.0000 0.66068  0.02331  0.91977  Biso   1.000  H
  C500     1.0000 0.81248  0.14560  0.94569  Biso   1.000  C
  C501     1.0000 0.79016  0.10019  0.86990  Biso   1.000  C
  C502     1.0000 0.85569  0.17752  0.92990  Biso   1.000  C
  O81      1.0000 0.95775  0.14399  0.82300  Biso   1.000  O
  C503     1.0000 0.72494  0.91688  0.64099  Biso   1.000  C
  H409     1.0000 0.77746  0.97030  0.68929  Biso   1.000  H
  C504     1.0000 0.75184  0.80490  0.62108  Biso   1.000  C
  H410     1.0000 0.82514  0.77152  0.65390  Biso   1.000  H
  C505     1.0000 0.83337  0.13211  0.85410  Biso   1.000  C
  H411     1.0000 0.86597  0.16589  0.79149  Biso   1.000  H
  C506     1.0000 0.80065  0.11021  0.76880  Biso   1.000  C
  C507     1.0000 0.56667  0.86290  0.82880  Biso   1.000  C
  H412     1.0000 0.62108  0.91008  0.87862  Biso   1.000  H
  H413     1.0000 0.62108  0.91008  0.87858  Biso   1.000  H
  C508     1.0000 0.57768  0.74308  0.81882  Biso   1.000  C
  H414     1.0000 0.64055  0.69761  0.86090  Biso   1.000  H
  C509     1.0000 0.57767  0.74308  0.81878  Biso   1.000  C
  H415     1.0000 0.65456  0.14852  0.92341  Biso   1.000  H
  H416     1.0000 0.68808  0.15301  0.87340  Biso   1.000  H
  C510     1.0000 0.61105  0.11268  0.86138  Biso   1.000  C
  H417     1.0000 0.65455  0.14852  0.92338  Biso   1.000  H
  H418     1.0000 0.76477  0.07018  0.84669  Biso   1.000  H
  C511     1.0000 0.86606  0.17078  0.88421  Biso   1.000  C
  C512     1.0000 0.86606  0.17078  0.88418  Biso   1.000  C
  C513     1.0000 0.95255  0.17189  0.86770  Biso   1.000  C
  C514     1.0000 0.71574  0.85721  0.61638  Biso   1.000  C
  H419     1.0000 0.69706  0.95741  0.63739  Biso   1.000  H
  H420     1.0000 0.74463  0.75868  0.60210  Biso   1.000  H
  H421     1.0000 0.81377  0.09370  0.73650  Biso   1.000  H
  H422     1.0000 0.77577  0.07220  0.78171  Biso   1.000  H
  C515     1.0000 0.76895  0.17712  0.76149  Biso   1.000  C
  H423     1.0000 0.77577  0.07220  0.78167  Biso   1.000  H
  C516     1.0000 0.55106  0.80269  0.80721  Biso   1.000  C
  H424     1.0000 0.54605  0.90902  0.81981  Biso   1.000  H
  C517     1.0000 0.55106  0.80269  0.80718  Biso   1.000  C
  H425     1.0000 0.54605  0.90902  0.81978  Biso   1.000  H
  H426     1.0000 0.56557  0.69651  0.80210  Biso   1.000  H
  C518     1.0000 0.58396  0.17209  0.84851  Biso   1.000  C
  C519     1.0000 0.58867  0.05060  0.84789  Biso   1.000  C
  C520     1.0000 0.58396  0.17209  0.84847  Biso   1.000  C
  O82      1.0000 0.90655  0.20778  0.86959  Biso   1.000  O
  H427     1.0000 0.98497  0.20532  0.87638  Biso   1.000  H
  H428     1.0000 0.95356  0.13110  0.89221  Biso   1.000  H
  H429     1.0000 0.95356  0.13110  0.89217  Biso   1.000  H
  H430     1.0000 0.68064  0.85158  0.59379  Biso   1.000  H
  H431     1.0000 0.79336  0.21458  0.74752  Biso   1.000  H
  H432     1.0000 0.75697  0.19459  0.79400  Biso   1.000  H
  C521     1.0000 0.72057  0.16610  0.72809  Biso   1.000  C
  H433     1.0000 0.79336  0.21458  0.74748  Biso   1.000  H
  H434     1.0000 0.51825  0.80219  0.78150  Biso   1.000  H
  C522     1.0000 0.53638  0.16952  0.82201  Biso   1.000  C
  H435     1.0000 0.60066  0.22022  0.85901  Biso   1.000  H
  C523     1.0000 0.53637  0.16952  0.82197  Biso   1.000  C
  H436     1.0000 0.60065  0.22022  0.85898  Biso   1.000  H
  C524     1.0000 0.54105  0.04798  0.82139  Biso   1.000  C
  H437     1.0000 0.60897  0.00458  0.85792  Biso   1.000  H
  H438     1.0000 0.60896  0.00458  0.85788  Biso   1.000  H
  C525     1.0000 0.67044  0.17158  0.74209  Biso   1.000  C
  C526     1.0000 0.72765  0.15321  0.68209  Biso   1.000  C
  C527     1.0000 0.51485  0.10739  0.80848  Biso   1.000  C
  H439     1.0000 0.51616  0.21549  0.81198  Biso   1.000  H
  H440     1.0000 0.52447  0.99990  0.81089  Biso   1.000  H
  C528     1.0000 0.62734  0.16408  0.71030  Biso   1.000  C
  H441     1.0000 0.66497  0.18160  0.77769  Biso   1.000  H
  C529     1.0000 0.68454  0.14571  0.65019  Biso   1.000  C
  H442     1.0000 0.76645  0.14898  0.67120  Biso   1.000  H
  H443     1.0000 0.47797  0.10528  0.78799  Biso   1.000  H
  C530     1.0000 0.63447  0.15119  0.66430  Biso   1.000  C
  H444     1.0000 0.58854  0.16831  0.72119  Biso   1.000  H
  H445     1.0000 0.69006  0.13569  0.61470  Biso   1.000  H
  H446     1.0000 0.60106  0.14540  0.63959  Biso   1.000  H
  O83      1.0000 0.09353  0.79222  0.13041  Biso   1.000  O
  C531     1.0000 0.13402  0.82922  0.11579  Biso   1.000  C
  C532     1.0000 0.04752  0.82811  0.13230  Biso   1.000  C
  C533     1.0000 0.16671  0.86789  0.14590  Biso   1.000  C
  C534     1.0000 0.14439  0.82248  0.07010  Biso   1.000  C
  O84      1.0000 0.09352  0.79222  0.13038  Biso   1.000  O
  O85      1.0000 0.04233  0.85601  0.17700  Biso   1.000  O
  H447     1.0000 0.04652  0.86890  0.10779  Biso   1.000  H
  H448     1.0000 0.01511  0.79468  0.12362  Biso   1.000  H
  H449     1.0000 0.01510  0.79468  0.12358  Biso   1.000  H
  C535     1.0000 0.15172  0.87891  0.19591  Biso   1.000  C
  C536     1.0000 0.15172  0.87891  0.19588  Biso   1.000  C
  C537     1.0000 0.20992  0.89981  0.13010  Biso   1.000  C
  C538     1.0000 0.18759  0.85440  0.05431  Biso   1.000  C
  C539     1.0000 0.18759  0.85440  0.05427  Biso   1.000  C
  O86      1.0000 0.10510  0.79478  0.03920  Biso   1.000  O
  C540     1.0000 0.06031  0.92161  0.18321  Biso   1.000  C
  C541     1.0000 0.06031  0.92161  0.18318  Biso   1.000  C
  C542     1.0000 0.19943  0.88979  0.23120  Biso   1.000  C
  C543     1.0000 0.11281  0.93641  0.19420  Biso   1.000  C
  H450     1.0000 0.13411  0.83411  0.20851  Biso   1.000  H
  H451     1.0000 0.13411  0.83411  0.20848  Biso   1.000  H
  H452     1.0000 0.23531  0.92982  0.15331  Biso   1.000  H
  C544     1.0000 0.22040  0.89311  0.08431  Biso   1.000  C
  H453     1.0000 0.23530  0.92982  0.15328  Biso   1.000  H
  C545     1.0000 0.22039  0.89311  0.08428  Biso   1.000  C
  O87      1.0000 0.19719  0.84362  0.00862  Biso   1.000  O
  O88      1.0000 0.19719  0.84362  0.00858  Biso   1.000  O
  C546     1.0000 0.11400  0.72410  0.02911  Biso   1.000  C
  C547     1.0000 0.11400  0.72410  0.02908  Biso   1.000  C
  C548     1.0000 0.02342  0.97311  0.18149  Biso   1.000  C
  C549     1.0000 0.23113  0.82288  0.23851  Biso   1.000  C
  H454     1.0000 0.18631  0.90630  0.26350  Biso   1.000  H
  H455     1.0000 0.22430  0.92780  0.21829  Biso   1.000  H
  C550     1.0000 0.23113  0.82288  0.23848  Biso   1.000  C
  C551     1.0000 0.12842  0.00262  0.20350  Biso   1.000  C
  C552     1.0000 0.26431  0.93158  0.06351  Biso   1.000  C
  C553     1.0000 0.26431  0.93158  0.06347  Biso   1.000  C
  C554     1.0000 0.18198  0.89472  0.97690  Biso   1.000  C
  H456     1.0000 0.15151  0.71599  0.01620  Biso   1.000  H
  H457     1.0000 0.11051  0.69258  0.05880  Biso   1.000  H
  C555     1.0000 0.06999  0.71302  0.99361  Biso   1.000  C
  C556     1.0000 0.06999  0.71302  0.99358  Biso   1.000  C
  O89      1.0000 0.97350  0.95902  0.16210  Biso   1.000  O
  C557     1.0000 0.03902  0.03942  0.19069  Biso   1.000  C
  H458     1.0000 0.20671  0.78542  0.25248  Biso   1.000  H
  H459     1.0000 0.24311  0.80541  0.20600  Biso   1.000  H
  C558     1.0000 0.27951  0.83390  0.27191  Biso   1.000  C
  C559     1.0000 0.27951  0.83390  0.27188  Biso   1.000  C
  H460     1.0000 0.16901  0.01400  0.21201  Biso   1.000  H
  C560     1.0000 0.09140  0.05412  0.20171  Biso   1.000  C
  H461     1.0000 0.16900  0.01400  0.21198  Biso   1.000  H
  C561     1.0000 0.09140  0.05412  0.20168  Biso   1.000  C
  H462     1.0000 0.27771  0.90092  0.03639  Biso   1.000  H
  C562     1.0000 0.24212  0.99869  0.04401  Biso   1.000  C
  C563     1.0000 0.31240  0.94432  0.09591  Biso   1.000  C
  C564     1.0000 0.24211  0.99869  0.04397  Biso   1.000  C
  C565     1.0000 0.31239  0.94432  0.09588  Biso   1.000  C
  O90      1.0000 0.21867  0.94250  0.97140  Biso   1.000  O
  H463     1.0000 0.17157  0.87161  0.94391  Biso   1.000  H
  H464     1.0000 0.14827  0.91939  0.98860  Biso   1.000  H
  H465     1.0000 0.17157  0.87161  0.94387  Biso   1.000  H
  C566     1.0000 0.03289  0.70748  0.96680  Biso   1.000  C
  C567     1.0000 0.93572  0.94759  0.19440  Biso   1.000  C
  O91      1.0000 0.00031  0.08650  0.19021  Biso   1.000  O
  O92      1.0000 0.00030  0.08650  0.19018  Biso   1.000  O
  C568     1.0000 0.32964  0.82842  0.25791  Biso   1.000  C
  C569     1.0000 0.27242  0.84679  0.31791  Biso   1.000  C
  C570     1.0000 0.32963  0.82842  0.25787  Biso   1.000  C
  C571     1.0000 0.27242  0.84679  0.31788  Biso   1.000  C
  C572     1.0000 0.10583  0.12698  0.20999  Biso   1.000  C
  C573     1.0000 0.21726  0.99829  0.99969  Biso   1.000  C
  C574     1.0000 0.24429  0.05790  0.06969  Biso   1.000  C
  H466     1.0000 0.33940  0.97669  0.08019  Biso   1.000  H
  H467     1.0000 0.30080  0.96788  0.12671  Biso   1.000  H
  C575     1.0000 0.33801  0.87700  0.10800  Biso   1.000  C
  C576     1.0000 0.98536  0.70970  0.93251  Biso   1.000  C
  C577     1.0000 0.98535  0.70970  0.93248  Biso   1.000  C
  C578     1.0000 0.88792  0.94301  0.16570  Biso   1.000  C
  H468     1.0000 0.93500  0.98792  0.21912  Biso   1.000  H
  H469     1.0000 0.94332  0.90051  0.21222  Biso   1.000  H
  H470     1.0000 0.93500  0.98792  0.21908  Biso   1.000  H
  H471     1.0000 0.94332  0.90051  0.21218  Biso   1.000  H
  C579     1.0000 0.99261  0.12662  0.14971  Biso   1.000  C
  C580     1.0000 0.37274  0.83592  0.28970  Biso   1.000  C
  H472     1.0000 0.33511  0.81840  0.22231  Biso   1.000  H
  H473     1.0000 0.33510  0.81840  0.22228  Biso   1.000  H
  C581     1.0000 0.31553  0.85429  0.34981  Biso   1.000  C
  H474     1.0000 0.23362  0.85102  0.32880  Biso   1.000  H
  C582     1.0000 0.11431  0.15628  0.16200  Biso   1.000  C
  C583     1.0000 0.15511  0.13820  0.24349  Biso   1.000  C
  H475     1.0000 0.07501  0.15190  0.22629  Biso   1.000  H
  C584     1.0000 0.19469  0.05709  0.98109  Biso   1.000  C
  C585     1.0000 0.22172  0.11681  0.05111  Biso   1.000  C
  H476     1.0000 0.26359  0.05830  0.10401  Biso   1.000  H
  C586     1.0000 0.22171  0.11681  0.05108  Biso   1.000  C
  H477     1.0000 0.26359  0.05830  0.10398  Biso   1.000  H
  H478     1.0000 0.34552  0.85148  0.07659  Biso   1.000  H
  H479     1.0000 0.31199  0.84699  0.12660  Biso   1.000  H
  C587     1.0000 0.38903  0.88732  0.13862  Biso   1.000  C
  C588     1.0000 0.38902  0.88732  0.13858  Biso   1.000  C
  O93      1.0000 0.96768  0.77621  0.93660  Biso   1.000  O
  H480     1.0000 0.95656  0.67360  0.94140  Biso   1.000  H
  H481     1.0000 0.99579  0.69978  0.89811  Biso   1.000  H
  H482     1.0000 0.99575  0.69978  0.89808  Biso   1.000  H
  C589     1.0000 0.85090  0.94019  0.13821  Biso   1.000  C
  H483     1.0000 0.95191  0.13971  0.14432  Biso   1.000  H
  H484     1.0000 0.95190  0.13971  0.14428  Biso   1.000  H
  H485     1.0000 0.00351  0.09672  0.12121  Biso   1.000  H
  O94      1.0000 0.02151  0.18452  0.15139  Biso   1.000  O
  H486     1.0000 0.00350  0.09672  0.12118  Biso   1.000  H
  C590     1.0000 0.36561  0.84881  0.33570  Biso   1.000  C
  H487     1.0000 0.41154  0.83169  0.27881  Biso   1.000  H
  H488     1.0000 0.41153  0.83169  0.27878  Biso   1.000  H
  H489     1.0000 0.31002  0.86431  0.38530  Biso   1.000  H
  C591     1.0000 0.16261  0.15769  0.14401  Biso   1.000  C
  C592     1.0000 0.07040  0.18110  0.13621  Biso   1.000  C
  C593     1.0000 0.16261  0.15769  0.14397  Biso   1.000  C
  C594     1.0000 0.07040  0.18110  0.13618  Biso   1.000  C
  C595     1.0000 0.14313  0.12179  0.29261  Biso   1.000  C
  H490     1.0000 0.18612  0.10588  0.23391  Biso   1.000  H
  H491     1.0000 0.16732  0.19011  0.24191  Biso   1.000  H
  C596     1.0000 0.14313  0.12179  0.29258  Biso   1.000  C
  H492     1.0000 0.18612  0.10588  0.23388  Biso   1.000  H
  H493     1.0000 0.16732  0.19011  0.24188  Biso   1.000  H
  O95      1.0000 0.16376  0.05302  0.94020  Biso   1.000  O
  C597     1.0000 0.19682  0.11630  0.00680  Biso   1.000  C
  C598     1.0000 0.19678  0.11630  0.00680  Biso   1.000  C
  C599     1.0000 0.21921  0.18050  0.07779  Biso   1.000  C
  C600     1.0000 0.41612  0.82791  0.15149  Biso   1.000  C
  C601     1.0000 0.41141  0.94940  0.15211  Biso   1.000  C
  C602     1.0000 0.41140  0.94940  0.15207  Biso   1.000  C
  C603     1.0000 0.92527  0.79262  0.90749  Biso   1.000  C
  C604     1.0000 0.81003  0.93868  0.09941  Biso   1.000  C
  C605     1.0000 0.81002  0.93868  0.09938  Biso   1.000  C
  H494     1.0000 0.39902  0.85460  0.36041  Biso   1.000  H
  H495     1.0000 0.39902  0.85460  0.36038  Biso   1.000  H
  C606     1.0000 0.16709  0.18402  0.10031  Biso   1.000  C
  H496     1.0000 0.19660  0.13851  0.16399  Biso   1.000  H
  C607     1.0000 0.16709  0.18402  0.10027  Biso   1.000  C
  C608     1.0000 0.07480  0.20738  0.09251  Biso   1.000  C
  C609     1.0000 0.07480  0.20738  0.09248  Biso   1.000  C
  C610     1.0000 0.19363  0.12829  0.32509  Biso   1.000  C
  H497     1.0000 0.12872  0.07079  0.29399  Biso   1.000  H
  H498     1.0000 0.11401  0.15618  0.30329  Biso   1.000  H
  C611     1.0000 0.19005  0.06132  0.90059  Biso   1.000  C
  O96      1.0000 0.17668  0.17400  0.98448  Biso   1.000  O
  H499     1.0000 0.22029  0.22238  0.05431  Biso   1.000  H
  C612     1.0000 0.26753  0.18900  0.11490  Biso   1.000  C
  H500     1.0000 0.22028  0.22238  0.05427  Biso   1.000  H
  C613     1.0000 0.26749  0.18900  0.11490  Biso   1.000  C
  C614     1.0000 0.46370  0.83048  0.17799  Biso   1.000  C
  H501     1.0000 0.39942  0.77978  0.14099  Biso   1.000  H
  H502     1.0000 0.39111  0.99542  0.14208  Biso   1.000  H
  C615     1.0000 0.45903  0.95202  0.17861  Biso   1.000  C
  C616     1.0000 0.45903  0.95202  0.17858  Biso   1.000  C
  C617     1.0000 0.92968  0.81890  0.86379  Biso   1.000  C
  C618     1.0000 0.87686  0.79121  0.92551  Biso   1.000  C
  C619     1.0000 0.87686  0.79121  0.92547  Biso   1.000  C
  O97      1.0000 0.83631  0.94698  0.05980  Biso   1.000  O
  H503     1.0000 0.78127  0.97790  0.10281  Biso   1.000  H
  H504     1.0000 0.79092  0.89019  0.09838  Biso   1.000  H
  H505     1.0000 0.78127  0.97790  0.10278  Biso   1.000  H
  C620     1.0000 0.12322  0.20879  0.07449  Biso   1.000  C
  O98      1.0000 0.03239  0.22379  0.06340  Biso   1.000  O
  C621     1.0000 0.22973  0.07592  0.32979  Biso   1.000  C
  C622     1.0000 0.20283  0.18790  0.34970  Biso   1.000  C
  C623     1.0000 0.14917  0.05981  0.86179  Biso   1.000  C
  H506     1.0000 0.21880  0.02210  0.89719  Biso   1.000  H
  H507     1.0000 0.20916  0.10981  0.90162  Biso   1.000  H
  H508     1.0000 0.20915  0.10981  0.90158  Biso   1.000  H
  C624     1.0000 0.12576  0.19182  0.99561  Biso   1.000  C
  H509     1.0000 0.26182  0.23391  0.13460  Biso   1.000  H
  H510     1.0000 0.27012  0.14581  0.13742  Biso   1.000  H
  C625     1.0000 0.31881  0.19510  0.09210  Biso   1.000  C
  H511     1.0000 0.27012  0.14581  0.13738  Biso   1.000  H
  C626     1.0000 0.48523  0.89261  0.19152  Biso   1.000  C
  H512     1.0000 0.48392  0.78451  0.18802  Biso   1.000  H
  C627     1.0000 0.48523  0.89261  0.19148  Biso   1.000  C
  H513     1.0000 0.48392  0.78451  0.18798  Biso   1.000  H
  H514     1.0000 0.47561  0.00010  0.18911  Biso   1.000  H
  H515     1.0000 0.47561  0.00010  0.18908  Biso   1.000  H
  C628     1.0000 0.88577  0.84372  0.83800  Biso   1.000  C
  O99      1.0000 0.97857  0.81548  0.84861  Biso   1.000  O
  O100     1.0000 0.97856  0.81548  0.84858  Biso   1.000  O
  C629     1.0000 0.83299  0.81598  0.89969  Biso   1.000  C
  O101     1.0000 0.87347  0.76150  0.96890  Biso   1.000  O
  C630     1.0000 0.83295  0.81598  0.89969  Biso   1.000  C
  C631     1.0000 0.80539  0.94291  0.01891  Biso   1.000  C
  C632     1.0000 0.80539  0.94291  0.01888  Biso   1.000  C
  O102     1.0000 0.12660  0.23850  0.03110  Biso   1.000  O
  C633     1.0000 0.01472  0.29030  0.06749  Biso   1.000  C
  C634     1.0000 0.01468  0.29030  0.06749  Biso   1.000  C
  C635     1.0000 0.27513  0.08312  0.35901  Biso   1.000  C
  H516     1.0000 0.22262  0.02970  0.31071  Biso   1.000  H
  C636     1.0000 0.24823  0.19510  0.37892  Biso   1.000  C
  H517     1.0000 0.17494  0.22848  0.34610  Biso   1.000  H
  C637     1.0000 0.24823  0.19510  0.37888  Biso   1.000  C
  C638     1.0000 0.11216  0.05699  0.83430  Biso   1.000  C
  H518     1.0000 0.10508  0.21332  0.96540  Biso   1.000  H
  H519     1.0000 0.10591  0.14691  0.00549  Biso   1.000  H
  H520     1.0000 0.32269  0.15270  0.06958  Biso   1.000  H
  H521     1.0000 0.31799  0.24111  0.07230  Biso   1.000  H
  C639     1.0000 0.36441  0.19600  0.12650  Biso   1.000  C
  H522     1.0000 0.52210  0.89472  0.21201  Biso   1.000  H
  H523     1.0000 0.52210  0.89472  0.21198  Biso   1.000  H
  C640     1.0000 0.89425  0.87302  0.79001  Biso   1.000  C
  C641     1.0000 0.83747  0.84231  0.85599  Biso   1.000  C
  C642     1.0000 0.89425  0.87302  0.78998  Biso   1.000  C
  C643     1.0000 0.00747  0.87338  0.85029  Biso   1.000  C
  C644     1.0000 0.78086  0.81950  0.92221  Biso   1.000  C
  C645     1.0000 0.78086  0.81950  0.92218  Biso   1.000  C
  C646     1.0000 0.87432  0.80818  0.00439  Biso   1.000  C
  C647     1.0000 0.80326  0.88370  0.99320  Biso   1.000  C
  C648     1.0000 0.78282  0.00171  0.00031  Biso   1.000  C
  C649     1.0000 0.78278  0.00171  0.00027  Biso   1.000  C
  C650     1.0000 0.96719  0.29252  0.03320  Biso   1.000  C
  H524     1.0000 0.04352  0.32640  0.05860  Biso   1.000  H
  H525     1.0000 0.00429  0.30022  0.10189  Biso   1.000  H
  C651     1.0000 0.28433  0.14279  0.38362  Biso   1.000  C
  H526     1.0000 0.30302  0.04259  0.36261  Biso   1.000  H
  C652     1.0000 0.28433  0.14279  0.38358  Biso   1.000  C
  H527     1.0000 0.30302  0.04259  0.36258  Biso   1.000  H
  H528     1.0000 0.25545  0.24132  0.39790  Biso   1.000  H
  C653     1.0000 0.06436  0.05241  0.80560  Biso   1.000  C
  C654     1.0000 0.39111  0.13649  0.13810  Biso   1.000  C
  C655     1.0000 0.38011  0.25622  0.14809  Biso   1.000  C
  C656     1.0000 0.84497  0.86180  0.75651  Biso   1.000  C
  H529     1.0000 0.92507  0.84810  0.77371  Biso   1.000  H
  C657     1.0000 0.90867  0.94588  0.79829  Biso   1.000  C
  C658     1.0000 0.84497  0.86180  0.75648  Biso   1.000  C
  H530     1.0000 0.92507  0.84810  0.77367  Biso   1.000  H
  H531     1.0000 0.80348  0.86149  0.83601  Biso   1.000  H
  H532     1.0000 0.80347  0.86149  0.83598  Biso   1.000  H
  O103     1.0000 0.99977  0.91350  0.80979  Biso   1.000  O
  H533     1.0000 0.99657  0.90328  0.87879  Biso   1.000  H
  H534     1.0000 0.04817  0.86029  0.85568  Biso   1.000  H
  C659     1.0000 0.77836  0.88319  0.94889  Biso   1.000  C
  H535     1.0000 0.77979  0.77762  0.94569  Biso   1.000  H
  C660     1.0000 0.73255  0.81100  0.88510  Biso   1.000  C
  H536     1.0000 0.77975  0.77762  0.94569  Biso   1.000  H
  O104     1.0000 0.82340  0.82600  0.01552  Biso   1.000  O
  O105     1.0000 0.82340  0.82600  0.01548  Biso   1.000  O
  H537     1.0000 0.89417  0.85309  0.99451  Biso   1.000  H
  H538     1.0000 0.89417  0.85309  0.99447  Biso   1.000  H
  H539     1.0000 0.89500  0.78668  0.03460  Biso   1.000  H
  C661     1.0000 0.75796  0.00131  0.95599  Biso   1.000  C
  O106     1.0000 0.78140  0.05750  0.02860  Biso   1.000  O
  C662     1.0000 0.93008  0.28698  0.00639  Biso   1.000  C
  H540     1.0000 0.31943  0.14842  0.40621  Biso   1.000  H
  O107     1.0000 0.02657  0.04098  0.83790  Biso   1.000  O
  H541     1.0000 0.06508  0.01208  0.78088  Biso   1.000  H
  H542     1.0000 0.05676  0.09949  0.78778  Biso   1.000  H
  H543     1.0000 0.06504  0.01208  0.78088  Biso   1.000  H
  C663     1.0000 0.43341  0.13710  0.17120  Biso   1.000  C
  H544     1.0000 0.37900  0.08992  0.12138  Biso   1.000  H
  C664     1.0000 0.42240  0.25692  0.18118  Biso   1.000  C
  H545     1.0000 0.35952  0.30239  0.13910  Biso   1.000  H
  C665     1.0000 0.85695  0.87821  0.70739  Biso   1.000  C
  H546     1.0000 0.81396  0.89412  0.76609  Biso   1.000  H
  H547     1.0000 0.83276  0.80989  0.75809  Biso   1.000  H
  C666     1.0000 0.96106  0.96058  0.80931  Biso   1.000  C
  C667     1.0000 0.96106  0.96058  0.80927  Biso   1.000  C
  C668     1.0000 0.87166  0.99738  0.79650  Biso   1.000  C
  C669     1.0000 0.75579  0.94210  0.93031  Biso   1.000  C
  C670     1.0000 0.75575  0.94210  0.93028  Biso   1.000  C
  H548     1.0000 0.73826  0.76609  0.86540  Biso   1.000  H
  H549     1.0000 0.72995  0.85419  0.86258  Biso   1.000  H
  C671     1.0000 0.68127  0.80490  0.90790  Biso   1.000  C
  C672     1.0000 0.73577  0.06842  0.93649  Biso   1.000  C
  C673     1.0000 0.81810  0.10528  0.02310  Biso   1.000  C
  C674     1.0000 0.88608  0.27590  0.97089  Biso   1.000  C
  C675     1.0000 0.97666  0.02689  0.81851  Biso   1.000  C
  C676     1.0000 0.97666  0.02689  0.81847  Biso   1.000  C
  C677     1.0000 0.44902  0.19731  0.19279  Biso   1.000  C
  H550     1.0000 0.45403  0.09098  0.18019  Biso   1.000  H
  H551     1.0000 0.43451  0.30349  0.19790  Biso   1.000  H
  C678     1.0000 0.80645  0.87171  0.67491  Biso   1.000  C
  H552     1.0000 0.87136  0.92921  0.70601  Biso   1.000  H
  H553     1.0000 0.88607  0.84382  0.69671  Biso   1.000  H
  C679     1.0000 0.80645  0.87171  0.67488  Biso   1.000  C
  H554     1.0000 0.87135  0.92921  0.70598  Biso   1.000  H
  H555     1.0000 0.88603  0.84382  0.69668  Biso   1.000  H
  C680     1.0000 0.88727  0.06359  0.80580  Biso   1.000  C
  H556     1.0000 0.83107  0.98600  0.78799  Biso   1.000  H
  H557     1.0000 0.73649  0.94170  0.89599  Biso   1.000  H
  H558     1.0000 0.73645  0.94170  0.89599  Biso   1.000  H
  H559     1.0000 0.67739  0.84730  0.93042  Biso   1.000  H
  H560     1.0000 0.68208  0.75889  0.92770  Biso   1.000  H
  C681     1.0000 0.63566  0.80400  0.87350  Biso   1.000  C
  H561     1.0000 0.67738  0.84730  0.93038  Biso   1.000  H
  H562     1.0000 0.72237  0.09908  0.96361  Biso   1.000  H
  C682     1.0000 0.68768  0.05568  0.90409  Biso   1.000  C
  C683     1.0000 0.77968  0.10689  0.91569  Biso   1.000  C
  H563     1.0000 0.72237  0.09908  0.96358  Biso   1.000  H
  O108     1.0000 0.80289  0.15638  0.99138  Biso   1.000  O
  H564     1.0000 0.82850  0.12839  0.05609  Biso   1.000  H
  H565     1.0000 0.85181  0.08061  0.01140  Biso   1.000  H
  O109     1.0000 0.89498  0.20522  0.96080  Biso   1.000  O
  H566     1.0000 0.84856  0.28401  0.98380  Biso   1.000  H
  H567     1.0000 0.88957  0.30742  0.94120  Biso   1.000  H
  C684     1.0000 0.93977  0.07839  0.81679  Biso   1.000  C
  H568     1.0000 0.48183  0.19781  0.21850  Biso   1.000  H
  C685     1.0000 0.77035  0.92408  0.67021  Biso   1.000  C
  C686     1.0000 0.79725  0.81210  0.65030  Biso   1.000  C
  C687     1.0000 0.77035  0.92408  0.67017  Biso   1.000  C
  C688     1.0000 0.84836  0.12109  0.80409  Biso   1.000  C
  C689     1.0000 0.60897  0.86351  0.86190  Biso   1.000  C
  C690     1.0000 0.61997  0.74378  0.85191  Biso   1.000  C
  C691     1.0000 0.61997  0.74378  0.85187  Biso   1.000  C
  H569     1.0000 0.66068  0.02331  0.91981  Biso   1.000  H
  H570     1.0000 0.69928  0.03212  0.87329  Biso   1.000  H
  C692     1.0000 0.66206  0.12300  0.89200  Biso   1.000  C
  H571     1.0000 0.66068  0.02331  0.91977  Biso   1.000  H
  C693     1.0000 0.81248  0.14560  0.94569  Biso   1.000  C
  C694     1.0000 0.79016  0.10019  0.86990  Biso   1.000  C
  C695     1.0000 0.85569  0.17752  0.92990  Biso   1.000  C
  O110     1.0000 0.95775  0.14399  0.82300  Biso   1.000  O
  C696     1.0000 0.72494  0.91688  0.64099  Biso   1.000  C
  H572     1.0000 0.77746  0.97030  0.68929  Biso   1.000  H
  C697     1.0000 0.75184  0.80490  0.62108  Biso   1.000  C
  H573     1.0000 0.82514  0.77152  0.65390  Biso   1.000  H
  C698     1.0000 0.83337  0.13211  0.85410  Biso   1.000  C
  H574     1.0000 0.86597  0.16589  0.79149  Biso   1.000  H
  C699     1.0000 0.80065  0.11021  0.76880  Biso   1.000  C
  C700     1.0000 0.56667  0.86290  0.82880  Biso   1.000  C
  H575     1.0000 0.62108  0.91008  0.87862  Biso   1.000  H
  H576     1.0000 0.62108  0.91008  0.87858  Biso   1.000  H
  C701     1.0000 0.57768  0.74308  0.81882  Biso   1.000  C
  H577     1.0000 0.64055  0.69761  0.86090  Biso   1.000  H
  C702     1.0000 0.57767  0.74308  0.81878  Biso   1.000  C
  H578     1.0000 0.65456  0.14852  0.92341  Biso   1.000  H
  H579     1.0000 0.68808  0.15301  0.87340  Biso   1.000  H
  C703     1.0000 0.61105  0.11268  0.86138  Biso   1.000  C
  H580     1.0000 0.65455  0.14852  0.92338  Biso   1.000  H
  H581     1.0000 0.76477  0.07018  0.84669  Biso   1.000  H
  C704     1.0000 0.86606  0.17078  0.88421  Biso   1.000  C
  C705     1.0000 0.86606  0.17078  0.88418  Biso   1.000  C
  C706     1.0000 0.95255  0.17189  0.86770  Biso   1.000  C
  C707     1.0000 0.71574  0.85721  0.61638  Biso   1.000  C
  H582     1.0000 0.69706  0.95741  0.63739  Biso   1.000  H
  H583     1.0000 0.74463  0.75868  0.60210  Biso   1.000  H
  H584     1.0000 0.81377  0.09370  0.73650  Biso   1.000  H
  H585     1.0000 0.77577  0.07220  0.78171  Biso   1.000  H
  C708     1.0000 0.76895  0.17712  0.76149  Biso   1.000  C
  H586     1.0000 0.77577  0.07220  0.78167  Biso   1.000  H
  C709     1.0000 0.55106  0.80269  0.80721  Biso   1.000  C
  H587     1.0000 0.54605  0.90902  0.81981  Biso   1.000  H
  C710     1.0000 0.55106  0.80269  0.80718  Biso   1.000  C
  H588     1.0000 0.54605  0.90902  0.81978  Biso   1.000  H
  H589     1.0000 0.56557  0.69651  0.80210  Biso   1.000  H
  C711     1.0000 0.58396  0.17209  0.84851  Biso   1.000  C
  C712     1.0000 0.58867  0.05060  0.84789  Biso   1.000  C
  C713     1.0000 0.58396  0.17209  0.84847  Biso   1.000  C
  O111     1.0000 0.90655  0.20778  0.86959  Biso   1.000  O
  H590     1.0000 0.98497  0.20532  0.87638  Biso   1.000  H
  H591     1.0000 0.95356  0.13110  0.89221  Biso   1.000  H
  H592     1.0000 0.95356  0.13110  0.89217  Biso   1.000  H
  H593     1.0000 0.68064  0.85158  0.59379  Biso   1.000  H
  H594     1.0000 0.79336  0.21458  0.74752  Biso   1.000  H
  H595     1.0000 0.75697  0.19459  0.79400  Biso   1.000  H
  C714     1.0000 0.72057  0.16610  0.72809  Biso   1.000  C
  H596     1.0000 0.79336  0.21458  0.74748  Biso   1.000  H
  H597     1.0000 0.51825  0.80219  0.78150  Biso   1.000  H
  C715     1.0000 0.53638  0.16952  0.82201  Biso   1.000  C
  H598     1.0000 0.60066  0.22022  0.85901  Biso   1.000  H
  C716     1.0000 0.53637  0.16952  0.82197  Biso   1.000  C
  H599     1.0000 0.60065  0.22022  0.85898  Biso   1.000  H
  C717     1.0000 0.54105  0.04798  0.82139  Biso   1.000  C
  H600     1.0000 0.60897  0.00458  0.85792  Biso   1.000  H
  H601     1.0000 0.60896  0.00458  0.85788  Biso   1.000  H
  C718     1.0000 0.67044  0.17158  0.74209  Biso   1.000  C
  C719     1.0000 0.72765  0.15321  0.68209  Biso   1.000  C
  C720     1.0000 0.51485  0.10739  0.80848  Biso   1.000  C
  H602     1.0000 0.51616  0.21549  0.81198  Biso   1.000  H
  H603     1.0000 0.52447  0.99990  0.81089  Biso   1.000  H
  C721     1.0000 0.62734  0.16408  0.71030  Biso   1.000  C
  H604     1.0000 0.66497  0.18160  0.77769  Biso   1.000  H
  C722     1.0000 0.68454  0.14571  0.65019  Biso   1.000  C
  H605     1.0000 0.76645  0.14898  0.67120  Biso   1.000  H
  H606     1.0000 0.47797  0.10528  0.78799  Biso   1.000  H
  C723     1.0000 0.63447  0.15119  0.66430  Biso   1.000  C
  H607     1.0000 0.58854  0.16831  0.72119  Biso   1.000  H
  H608     1.0000 0.69006  0.13569  0.61470  Biso   1.000  H
  H609     1.0000 0.60106  0.14540  0.63959  Biso   1.000  H
  O112     1.0000 0.09353  0.79222  0.13041  Biso   1.000  O
  C724     1.0000 0.13402  0.82922  0.11579  Biso   1.000  C
  C725     1.0000 0.04752  0.82811  0.13230  Biso   1.000  C
  C726     1.0000 0.16671  0.86789  0.14590  Biso   1.000  C
  C727     1.0000 0.14439  0.82248  0.07010  Biso   1.000  C
  O113     1.0000 0.09352  0.79222  0.13038  Biso   1.000  O
  O114     1.0000 0.04233  0.85601  0.17700  Biso   1.000  O
  H610     1.0000 0.04652  0.86890  0.10779  Biso   1.000  H
  H611     1.0000 0.01511  0.79468  0.12362  Biso   1.000  H
  H612     1.0000 0.01510  0.79468  0.12358  Biso   1.000  H
  C728     1.0000 0.15172  0.87891  0.19591  Biso   1.000  C
  C729     1.0000 0.15172  0.87891  0.19588  Biso   1.000  C
  C730     1.0000 0.20992  0.89981  0.13010  Biso   1.000  C
  C731     1.0000 0.18759  0.85440  0.05431  Biso   1.000  C
  C732     1.0000 0.18759  0.85440  0.05427  Biso   1.000  C
  O115     1.0000 0.10510  0.79478  0.03920  Biso   1.000  O
  C733     1.0000 0.06031  0.92161  0.18321  Biso   1.000  C
  C734     1.0000 0.06031  0.92161  0.18318  Biso   1.000  C
  C735     1.0000 0.19943  0.88979  0.23120  Biso   1.000  C
  C736     1.0000 0.11281  0.93641  0.19420  Biso   1.000  C
  H613     1.0000 0.13411  0.83411  0.20851  Biso   1.000  H
  H614     1.0000 0.13411  0.83411  0.20848  Biso   1.000  H
  H615     1.0000 0.23531  0.92982  0.15331  Biso   1.000  H
  C737     1.0000 0.22040  0.89311  0.08431  Biso   1.000  C
  H616     1.0000 0.23530  0.92982  0.15328  Biso   1.000  H
  C738     1.0000 0.22039  0.89311  0.08428  Biso   1.000  C
  O116     1.0000 0.19719  0.84362  0.00862  Biso   1.000  O
  O117     1.0000 0.19719  0.84362  0.00858  Biso   1.000  O
  C739     1.0000 0.11400  0.72410  0.02911  Biso   1.000  C
  C740     1.0000 0.11400  0.72410  0.02908  Biso   1.000  C
  C741     1.0000 0.02342  0.97311  0.18149  Biso   1.000  C
  C742     1.0000 0.23113  0.82288  0.23851  Biso   1.000  C
  H617     1.0000 0.18631  0.90630  0.26350  Biso   1.000  H
  H618     1.0000 0.22430  0.92780  0.21829  Biso   1.000  H
  C743     1.0000 0.23113  0.82288  0.23848  Biso   1.000  C
  C744     1.0000 0.12842  0.00262  0.20350  Biso   1.000  C
  C745     1.0000 0.26431  0.93158  0.06351  Biso   1.000  C
  C746     1.0000 0.26431  0.93158  0.06347  Biso   1.000  C
  C747     1.0000 0.18198  0.89472  0.97690  Biso   1.000  C
  H619     1.0000 0.15151  0.71599  0.01620  Biso   1.000  H
  H620     1.0000 0.11051  0.69258  0.05880  Biso   1.000  H
  C748     1.0000 0.06999  0.71302  0.99361  Biso   1.000  C
  C749     1.0000 0.06999  0.71302  0.99358  Biso   1.000  C
  O118     1.0000 0.97350  0.95902  0.16210  Biso   1.000  O
  C750     1.0000 0.03902  0.03942  0.19069  Biso   1.000  C
  H621     1.0000 0.20671  0.78542  0.25248  Biso   1.000  H
  H622     1.0000 0.24311  0.80541  0.20600  Biso   1.000  H
  C751     1.0000 0.27951  0.83390  0.27191  Biso   1.000  C
  C752     1.0000 0.27951  0.83390  0.27188  Biso   1.000  C
  H623     1.0000 0.16901  0.01400  0.21201  Biso   1.000  H
  C753     1.0000 0.09140  0.05412  0.20171  Biso   1.000  C
  H624     1.0000 0.16900  0.01400  0.21198  Biso   1.000  H
  C754     1.0000 0.09140  0.05412  0.20168  Biso   1.000  C
  H625     1.0000 0.27771  0.90092  0.03639  Biso   1.000  H
  C755     1.0000 0.24212  0.99869  0.04401  Biso   1.000  C
  C756     1.0000 0.31240  0.94432  0.09591  Biso   1.000  C
  C757     1.0000 0.24211  0.99869  0.04397  Biso   1.000  C
  C758     1.0000 0.31239  0.94432  0.09588  Biso   1.000  C
  O119     1.0000 0.21867  0.94250  0.97140  Biso   1.000  O
  H626     1.0000 0.17157  0.87161  0.94391  Biso   1.000  H
  H627     1.0000 0.14827  0.91939  0.98860  Biso   1.000  H
  H628     1.0000 0.17157  0.87161  0.94387  Biso   1.000  H
  C759     1.0000 0.03289  0.70748  0.96680  Biso   1.000  C
  C760     1.0000 0.93572  0.94759  0.19440  Biso   1.000  C
  O120     1.0000 0.00031  0.08650  0.19021  Biso   1.000  O
  O121     1.0000 0.00030  0.08650  0.19018  Biso   1.000  O
  C761     1.0000 0.32964  0.82842  0.25791  Biso   1.000  C
  C762     1.0000 0.27242  0.84679  0.31791  Biso   1.000  C
  C763     1.0000 0.32963  0.82842  0.25787  Biso   1.000  C
  C764     1.0000 0.27242  0.84679  0.31788  Biso   1.000  C
  C765     1.0000 0.10583  0.12698  0.20999  Biso   1.000  C
  C766     1.0000 0.21726  0.99829  0.99969  Biso   1.000  C
  C767     1.0000 0.24429  0.05790  0.06969  Biso   1.000  C
  H629     1.0000 0.33940  0.97669  0.08019  Biso   1.000  H
  H630     1.0000 0.30080  0.96788  0.12671  Biso   1.000  H
  C768     1.0000 0.33801  0.87700  0.10800  Biso   1.000  C
  C769     1.0000 0.98536  0.70970  0.93251  Biso   1.000  C
  C770     1.0000 0.98535  0.70970  0.93248  Biso   1.000  C
  C771     1.0000 0.88792  0.94301  0.16570  Biso   1.000  C
  H631     1.0000 0.93500  0.98792  0.21912  Biso   1.000  H
  H632     1.0000 0.94332  0.90051  0.21222  Biso   1.000  H
  H633     1.0000 0.93500  0.98792  0.21908  Biso   1.000  H
  H634     1.0000 0.94332  0.90051  0.21218  Biso   1.000  H
  C772     1.0000 0.99261  0.12662  0.14971  Biso   1.000  C
  C773     1.0000 0.37274  0.83592  0.28970  Biso   1.000  C
  H635     1.0000 0.33511  0.81840  0.22231  Biso   1.000  H
  H636     1.0000 0.33510  0.81840  0.22228  Biso   1.000  H
  C774     1.0000 0.31553  0.85429  0.34981  Biso   1.000  C
  H637     1.0000 0.23362  0.85102  0.32880  Biso   1.000  H
  C775     1.0000 0.11431  0.15628  0.16200  Biso   1.000  C
  C776     1.0000 0.15511  0.13820  0.24349  Biso   1.000  C
  H638     1.0000 0.07501  0.15190  0.22629  Biso   1.000  H
  C777     1.0000 0.19469  0.05709  0.98109  Biso   1.000  C
  C778     1.0000 0.22172  0.11681  0.05111  Biso   1.000  C
  H639     1.0000 0.26359  0.05830  0.10401  Biso   1.000  H
  C779     1.0000 0.22171  0.11681  0.05108  Biso   1.000  C
  H640     1.0000 0.26359  0.05830  0.10398  Biso   1.000  H
  H641     1.0000 0.34552  0.85148  0.07659  Biso   1.000  H
  H642     1.0000 0.31199  0.84699  0.12660  Biso   1.000  H
  C780     1.0000 0.38903  0.88732  0.13862  Biso   1.000  C
  C781     1.0000 0.38902  0.88732  0.13858  Biso   1.000  C
  O122     1.0000 0.96768  0.77621  0.93660  Biso   1.000  O
  H643     1.0000 0.95656  0.67360  0.94140  Biso   1.000  H
  H644     1.0000 0.99579  0.69978  0.89811  Biso   1.000  H
  H645     1.0000 0.99575  0.69978  0.89808  Biso   1.000  H
  C782     1.0000 0.85090  0.94019  0.13821  Biso   1.000  C
  H646     1.0000 0.95191  0.13971  0.14432  Biso   1.000  H
  H647     1.0000 0.95190  0.13971  0.14428  Biso   1.000  H
  H648     1.0000 0.00351  0.09672  0.12121  Biso   1.000  H
  O123     1.0000 0.02151  0.18452  0.15139  Biso   1.000  O
  H649     1.0000 0.00350  0.09672  0.12118  Biso   1.000  H
  C783     1.0000 0.36561  0.84881  0.33570  Biso   1.000  C
  H650     1.0000 0.41154  0.83169  0.27881  Biso   1.000  H
  H651     1.0000 0.41153  0.83169  0.27878  Biso   1.000  H
  H652     1.0000 0.31002  0.86431  0.38530  Biso   1.000  H
  C784     1.0000 0.16261  0.15769  0.14401  Biso   1.000  C
  C785     1.0000 0.07040  0.18110  0.13621  Biso   1.000  C
  C786     1.0000 0.16261  0.15769  0.14397  Biso   1.000  C
  C787     1.0000 0.07040  0.18110  0.13618  Biso   1.000  C
  C788     1.0000 0.14313  0.12179  0.29261  Biso   1.000  C
  H653     1.0000 0.18612  0.10588  0.23391  Biso   1.000  H
  H654     1.0000 0.16732  0.19011  0.24191  Biso   1.000  H
  C789     1.0000 0.14313  0.12179  0.29258  Biso   1.000  C
  H655     1.0000 0.18612  0.10588  0.23388  Biso   1.000  H
  H656     1.0000 0.16732  0.19011  0.24188  Biso   1.000  H
  O124     1.0000 0.16376  0.05302  0.94020  Biso   1.000  O
  C790     1.0000 0.19682  0.11630  0.00680  Biso   1.000  C
  C791     1.0000 0.19678  0.11630  0.00680  Biso   1.000  C
  C792     1.0000 0.21921  0.18050  0.07779  Biso   1.000  C
  C793     1.0000 0.41612  0.82791  0.15149  Biso   1.000  C
  C794     1.0000 0.41141  0.94940  0.15211  Biso   1.000  C
  C795     1.0000 0.41140  0.94940  0.15207  Biso   1.000  C
  C796     1.0000 0.92527  0.79262  0.90749  Biso   1.000  C
  C797     1.0000 0.81003  0.93868  0.09941  Biso   1.000  C
  C798     1.0000 0.81002  0.93868  0.09938  Biso   1.000  C
  H657     1.0000 0.39902  0.85460  0.36041  Biso   1.000  H
  H658     1.0000 0.39902  0.85460  0.36038  Biso   1.000  H
  C799     1.0000 0.16709  0.18402  0.10031  Biso   1.000  C
  H659     1.0000 0.19660  0.13851  0.16399  Biso   1.000  H
  C800     1.0000 0.16709  0.18402  0.10027  Biso   1.000  C
  C801     1.0000 0.07480  0.20738  0.09251  Biso   1.000  C
  C802     1.0000 0.07480  0.20738  0.09248  Biso   1.000  C
  C803     1.0000 0.19363  0.12829  0.32509  Biso   1.000  C
  H660     1.0000 0.12872  0.07079  0.29399  Biso   1.000  H
  H661     1.0000 0.11401  0.15618  0.30329  Biso   1.000  H
  C804     1.0000 0.19005  0.06132  0.90059  Biso   1.000  C
  O125     1.0000 0.17668  0.17400  0.98448  Biso   1.000  O
  H662     1.0000 0.22029  0.22238  0.05431  Biso   1.000  H
  C805     1.0000 0.26753  0.18900  0.11490  Biso   1.000  C
  H663     1.0000 0.22028  0.22238  0.05427  Biso   1.000  H
  C806     1.0000 0.26749  0.18900  0.11490  Biso   1.000  C
  C807     1.0000 0.46370  0.83048  0.17799  Biso   1.000  C
  H664     1.0000 0.39942  0.77978  0.14099  Biso   1.000  H
  H665     1.0000 0.39111  0.99542  0.14208  Biso   1.000  H
  C808     1.0000 0.45903  0.95202  0.17861  Biso   1.000  C
  C809     1.0000 0.45903  0.95202  0.17858  Biso   1.000  C
  C810     1.0000 0.92968  0.81890  0.86379  Biso   1.000  C
  C811     1.0000 0.87686  0.79121  0.92551  Biso   1.000  C
  C812     1.0000 0.87686  0.79121  0.92547  Biso   1.000  C
  O126     1.0000 0.83631  0.94698  0.05980  Biso   1.000  O
  H666     1.0000 0.78127  0.97790  0.10281  Biso   1.000  H
  H667     1.0000 0.79092  0.89019  0.09838  Biso   1.000  H
  H668     1.0000 0.78127  0.97790  0.10278  Biso   1.000  H
  C813     1.0000 0.12322  0.20879  0.07449  Biso   1.000  C
  O127     1.0000 0.03239  0.22379  0.06340  Biso   1.000  O
  C814     1.0000 0.22973  0.07592  0.32979  Biso   1.000  C
  C815     1.0000 0.20283  0.18790  0.34970  Biso   1.000  C
  C816     1.0000 0.14917  0.05981  0.86179  Biso   1.000  C
  H669     1.0000 0.21880  0.02210  0.89719  Biso   1.000  H
  H670     1.0000 0.20916  0.10981  0.90162  Biso   1.000  H
  H671     1.0000 0.20915  0.10981  0.90158  Biso   1.000  H
  C817     1.0000 0.12576  0.19182  0.99561  Biso   1.000  C
  H672     1.0000 0.26182  0.23391  0.13460  Biso   1.000  H
  H673     1.0000 0.27012  0.14581  0.13742  Biso   1.000  H
  C818     1.0000 0.31881  0.19510  0.09210  Biso   1.000  C
  H674     1.0000 0.27012  0.14581  0.13738  Biso   1.000  H
  C819     1.0000 0.48523  0.89261  0.19152  Biso   1.000  C
  H675     1.0000 0.48392  0.78451  0.18802  Biso   1.000  H
  C820     1.0000 0.48523  0.89261  0.19148  Biso   1.000  C
  H676     1.0000 0.48392  0.78451  0.18798  Biso   1.000  H
  H677     1.0000 0.47561  0.00010  0.18911  Biso   1.000  H
  H678     1.0000 0.47561  0.00010  0.18908  Biso   1.000  H
  C821     1.0000 0.88577  0.84372  0.83800  Biso   1.000  C
  O128     1.0000 0.97857  0.81548  0.84861  Biso   1.000  O
  O129     1.0000 0.97856  0.81548  0.84858  Biso   1.000  O
  C822     1.0000 0.83299  0.81598  0.89969  Biso   1.000  C
  O130     1.0000 0.87347  0.76150  0.96890  Biso   1.000  O
  C823     1.0000 0.83295  0.81598  0.89969  Biso   1.000  C
  C824     1.0000 0.80539  0.94291  0.01891  Biso   1.000  C
  C825     1.0000 0.80539  0.94291  0.01888  Biso   1.000  C
  O131     1.0000 0.12660  0.23850  0.03110  Biso   1.000  O
  C826     1.0000 0.01472  0.29030  0.06749  Biso   1.000  C
  C827     1.0000 0.01468  0.29030  0.06749  Biso   1.000  C
  C828     1.0000 0.27513  0.08312  0.35901  Biso   1.000  C
  H679     1.0000 0.22262  0.02970  0.31071  Biso   1.000  H
  C829     1.0000 0.24823  0.19510  0.37892  Biso   1.000  C
  H680     1.0000 0.17494  0.22848  0.34610  Biso   1.000  H
  C830     1.0000 0.24823  0.19510  0.37888  Biso   1.000  C
  C831     1.0000 0.11216  0.05699  0.83430  Biso   1.000  C
  H681     1.0000 0.10508  0.21332  0.96540  Biso   1.000  H
  H682     1.0000 0.10591  0.14691  0.00549  Biso   1.000  H
  H683     1.0000 0.32269  0.15270  0.06958  Biso   1.000  H
  H684     1.0000 0.31799  0.24111  0.07230  Biso   1.000  H
  C832     1.0000 0.36441  0.19600  0.12650  Biso   1.000  C
  H685     1.0000 0.52210  0.89472  0.21201  Biso   1.000  H
  H686     1.0000 0.52210  0.89472  0.21198  Biso   1.000  H
  C833     1.0000 0.89425  0.87302  0.79001  Biso   1.000  C
  C834     1.0000 0.83747  0.84231  0.85599  Biso   1.000  C
  C835     1.0000 0.89425  0.87302  0.78998  Biso   1.000  C
  C836     1.0000 0.00747  0.87338  0.85029  Biso   1.000  C
  C837     1.0000 0.78086  0.81950  0.92221  Biso   1.000  C
  C838     1.0000 0.78086  0.81950  0.92218  Biso   1.000  C
  C839     1.0000 0.87432  0.80818  0.00439  Biso   1.000  C
  C840     1.0000 0.80326  0.88370  0.99320  Biso   1.000  C
  C841     1.0000 0.78282  0.00171  0.00031  Biso   1.000  C
  C842     1.0000 0.78278  0.00171  0.00027  Biso   1.000  C
  C843     1.0000 0.96719  0.29252  0.03320  Biso   1.000  C
  H687     1.0000 0.04352  0.32640  0.05860  Biso   1.000  H
  H688     1.0000 0.00429  0.30022  0.10189  Biso   1.000  H
  C844     1.0000 0.28433  0.14279  0.38362  Biso   1.000  C
  H689     1.0000 0.30302  0.04259  0.36261  Biso   1.000  H
  C845     1.0000 0.28433  0.14279  0.38358  Biso   1.000  C
  H690     1.0000 0.30302  0.04259  0.36258  Biso   1.000  H
  H691     1.0000 0.25545  0.24132  0.39790  Biso   1.000  H
  C846     1.0000 0.06436  0.05241  0.80560  Biso   1.000  C
  C847     1.0000 0.39111  0.13649  0.13810  Biso   1.000  C
  C848     1.0000 0.38011  0.25622  0.14809  Biso   1.000  C
  C849     1.0000 0.84497  0.86180  0.75651  Biso   1.000  C
  H692     1.0000 0.92507  0.84810  0.77371  Biso   1.000  H
  C850     1.0000 0.90867  0.94588  0.79829  Biso   1.000  C
  C851     1.0000 0.84497  0.86180  0.75648  Biso   1.000  C
  H693     1.0000 0.92507  0.84810  0.77367  Biso   1.000  H
  H694     1.0000 0.80348  0.86149  0.83601  Biso   1.000  H
  H695     1.0000 0.80347  0.86149  0.83598  Biso   1.000  H
  O132     1.0000 0.99977  0.91350  0.80979  Biso   1.000  O
  H696     1.0000 0.99657  0.90328  0.87879  Biso   1.000  H
  H697     1.0000 0.04817  0.86029  0.85568  Biso   1.000  H
  C852     1.0000 0.77836  0.88319  0.94889  Biso   1.000  C
  H698     1.0000 0.77979  0.77762  0.94569  Biso   1.000  H
  C853     1.0000 0.73255  0.81100  0.88510  Biso   1.000  C
  H699     1.0000 0.77975  0.77762  0.94569  Biso   1.000  H
  O133     1.0000 0.82340  0.82600  0.01552  Biso   1.000  O
  O134     1.0000 0.82340  0.82600  0.01548  Biso   1.000  O
  H700     1.0000 0.89417  0.85309  0.99451  Biso   1.000  H
  H701     1.0000 0.89417  0.85309  0.99447  Biso   1.000  H
  H702     1.0000 0.89500  0.78668  0.03460  Biso   1.000  H
  C854     1.0000 0.75796  0.00131  0.95599  Biso   1.000  C
  O135     1.0000 0.78140  0.05750  0.02860  Biso   1.000  O
  C855     1.0000 0.93008  0.28698  0.00639  Biso   1.000  C
  H703     1.0000 0.31943  0.14842  0.40621  Biso   1.000  H
  O136     1.0000 0.02657  0.04098  0.83790  Biso   1.000  O
  H704     1.0000 0.06508  0.01208  0.78088  Biso   1.000  H
  H705     1.0000 0.05676  0.09949  0.78778  Biso   1.000  H
  H706     1.0000 0.06504  0.01208  0.78088  Biso   1.000  H
  C856     1.0000 0.43341  0.13710  0.17120  Biso   1.000  C
  H707     1.0000 0.37900  0.08992  0.12138  Biso   1.000  H
  C857     1.0000 0.42240  0.25692  0.18118  Biso   1.000  C
  H708     1.0000 0.35952  0.30239  0.13910  Biso   1.000  H
  C858     1.0000 0.85695  0.87821  0.70739  Biso   1.000  C
  H709     1.0000 0.81396  0.89412  0.76609  Biso   1.000  H
  H710     1.0000 0.83276  0.80989  0.75809  Biso   1.000  H
  C859     1.0000 0.96106  0.96058  0.80931  Biso   1.000  C
  C860     1.0000 0.96106  0.96058  0.80927  Biso   1.000  C
  C861     1.0000 0.87166  0.99738  0.79650  Biso   1.000  C
  C862     1.0000 0.75579  0.94210  0.93031  Biso   1.000  C
  C863     1.0000 0.75575  0.94210  0.93028  Biso   1.000  C
  H711     1.0000 0.73826  0.76609  0.86540  Biso   1.000  H
  H712     1.0000 0.72995  0.85419  0.86258  Biso   1.000  H
  C864     1.0000 0.68127  0.80490  0.90790  Biso   1.000  C
  C865     1.0000 0.73577  0.06842  0.93649  Biso   1.000  C
  C866     1.0000 0.81810  0.10528  0.02310  Biso   1.000  C
  C867     1.0000 0.88608  0.27590  0.97089  Biso   1.000  C
  C868     1.0000 0.97666  0.02689  0.81851  Biso   1.000  C
  C869     1.0000 0.97666  0.02689  0.81847  Biso   1.000  C
  C870     1.0000 0.44902  0.19731  0.19279  Biso   1.000  C
  H713     1.0000 0.45403  0.09098  0.18019  Biso   1.000  H
  H714     1.0000 0.43451  0.30349  0.19790  Biso   1.000  H
  C871     1.0000 0.80645  0.87171  0.67491  Biso   1.000  C
  H715     1.0000 0.87136  0.92921  0.70601  Biso   1.000  H
  H716     1.0000 0.88607  0.84382  0.69671  Biso   1.000  H
  C872     1.0000 0.80645  0.87171  0.67488  Biso   1.000  C
  H717     1.0000 0.87135  0.92921  0.70598  Biso   1.000  H
  H718     1.0000 0.88603  0.84382  0.69668  Biso   1.000  H
  C873     1.0000 0.88727  0.06359  0.80580  Biso   1.000  C
  H719     1.0000 0.83107  0.98600  0.78799  Biso   1.000  H
  H720     1.0000 0.73649  0.94170  0.89599  Biso   1.000  H
  H721     1.0000 0.73645  0.94170  0.89599  Biso   1.000  H
  H722     1.0000 0.67739  0.84730  0.93042  Biso   1.000  H
  H723     1.0000 0.68208  0.75889  0.92770  Biso   1.000  H
  C874     1.0000 0.63566  0.80400  0.87350  Biso   1.000  C
  H724     1.0000 0.67738  0.84730  0.93038  Biso   1.000  H
  H725     1.0000 0.72237  0.09908  0.96361  Biso   1.000  H
  C875     1.0000 0.68768  0.05568  0.90409  Biso   1.000  C
  C876     1.0000 0.77968  0.10689  0.91569  Biso   1.000  C
  H726     1.0000 0.72237  0.09908  0.96358  Biso   1.000  H
  O137     1.0000 0.80289  0.15638  0.99138  Biso   1.000  O
  H727     1.0000 0.82850  0.12839  0.05609  Biso   1.000  H
  H728     1.0000 0.85181  0.08061  0.01140  Biso   1.000  H
  O138     1.0000 0.89498  0.20522  0.96080  Biso   1.000  O
  H729     1.0000 0.84856  0.28401  0.98380  Biso   1.000  H
  H730     1.0000 0.88957  0.30742  0.94120  Biso   1.000  H
  C877     1.0000 0.93977  0.07839  0.81679  Biso   1.000  C
  H731     1.0000 0.48183  0.19781  0.21850  Biso   1.000  H
  C878     1.0000 0.77035  0.92408  0.67021  Biso   1.000  C
  C879     1.0000 0.79725  0.81210  0.65030  Biso   1.000  C
  C880     1.0000 0.77035  0.92408  0.67017  Biso   1.000  C
  C881     1.0000 0.84836  0.12109  0.80409  Biso   1.000  C
  C882     1.0000 0.60897  0.86351  0.86190  Biso   1.000  C
  C883     1.0000 0.61997  0.74378  0.85191  Biso   1.000  C
  C884     1.0000 0.61997  0.74378  0.85187  Biso   1.000  C
  H732     1.0000 0.66068  0.02331  0.91981  Biso   1.000  H
  H733     1.0000 0.69928  0.03212  0.87329  Biso   1.000  H
  C885     1.0000 0.66206  0.12300  0.89200  Biso   1.000  C
  H734     1.0000 0.66068  0.02331  0.91977  Biso   1.000  H
  C886     1.0000 0.81248  0.14560  0.94569  Biso   1.000  C
  C887     1.0000 0.79016  0.10019  0.86990  Biso   1.000  C
  C888     1.0000 0.85569  0.17752  0.92990  Biso   1.000  C
  O139     1.0000 0.95775  0.14399  0.82300  Biso   1.000  O
  C889     1.0000 0.72494  0.91688  0.64099  Biso   1.000  C
  H735     1.0000 0.77746  0.97030  0.68929  Biso   1.000  H
  C890     1.0000 0.75184  0.80490  0.62108  Biso   1.000  C
  H736     1.0000 0.82514  0.77152  0.65390  Biso   1.000  H
  C891     1.0000 0.83337  0.13211  0.85410  Biso   1.000  C
  H737     1.0000 0.86597  0.16589  0.79149  Biso   1.000  H
  C892     1.0000 0.80065  0.11021  0.76880  Biso   1.000  C
  C893     1.0000 0.56667  0.86290  0.82880  Biso   1.000  C
  H738     1.0000 0.62108  0.91008  0.87862  Biso   1.000  H
  H739     1.0000 0.62108  0.91008  0.87858  Biso   1.000  H
  C894     1.0000 0.57768  0.74308  0.81882  Biso   1.000  C
  H740     1.0000 0.64055  0.69761  0.86090  Biso   1.000  H
  C895     1.0000 0.57767  0.74308  0.81878  Biso   1.000  C
  H741     1.0000 0.65456  0.14852  0.92341  Biso   1.000  H
  H742     1.0000 0.68808  0.15301  0.87340  Biso   1.000  H
  C896     1.0000 0.61105  0.11268  0.86138  Biso   1.000  C
  H743     1.0000 0.65455  0.14852  0.92338  Biso   1.000  H
  H744     1.0000 0.76477  0.07018  0.84669  Biso   1.000  H
  C897     1.0000 0.86606  0.17078  0.88421  Biso   1.000  C
  C898     1.0000 0.86606  0.17078  0.88418  Biso   1.000  C
  C899     1.0000 0.95255  0.17189  0.86770  Biso   1.000  C
  C900     1.0000 0.71574  0.85721  0.61638  Biso   1.000  C
  H745     1.0000 0.69706  0.95741  0.63739  Biso   1.000  H
  H746     1.0000 0.74463  0.75868  0.60210  Biso   1.000  H
  H747     1.0000 0.81377  0.09370  0.73650  Biso   1.000  H
  H748     1.0000 0.77577  0.07220  0.78171  Biso   1.000  H
  C901     1.0000 0.76895  0.17712  0.76149  Biso   1.000  C
  H749     1.0000 0.77577  0.07220  0.78167  Biso   1.000  H
  C902     1.0000 0.55106  0.80269  0.80721  Biso   1.000  C
  H750     1.0000 0.54605  0.90902  0.81981  Biso   1.000  H
  C903     1.0000 0.55106  0.80269  0.80718  Biso   1.000  C
  H751     1.0000 0.54605  0.90902  0.81978  Biso   1.000  H
  H752     1.0000 0.56557  0.69651  0.80210  Biso   1.000  H
  C904     1.0000 0.58396  0.17209  0.84851  Biso   1.000  C
  C905     1.0000 0.58867  0.05060  0.84789  Biso   1.000  C
  C906     1.0000 0.58396  0.17209  0.84847  Biso   1.000  C
  O140     1.0000 0.90655  0.20778  0.86959  Biso   1.000  O
  H753     1.0000 0.98497  0.20532  0.87638  Biso   1.000  H
  H754     1.0000 0.95356  0.13110  0.89221  Biso   1.000  H
  H755     1.0000 0.95356  0.13110  0.89217  Biso   1.000  H
  H756     1.0000 0.68064  0.85158  0.59379  Biso   1.000  H
  H757     1.0000 0.79336  0.21458  0.74752  Biso   1.000  H
  H758     1.0000 0.75697  0.19459  0.79400  Biso   1.000  H
  C907     1.0000 0.72057  0.16610  0.72809  Biso   1.000  C
  H759     1.0000 0.79336  0.21458  0.74748  Biso   1.000  H
  H760     1.0000 0.51825  0.80219  0.78150  Biso   1.000  H
  C908     1.0000 0.53638  0.16952  0.82201  Biso   1.000  C
  H761     1.0000 0.60066  0.22022  0.85901  Biso   1.000  H
  C909     1.0000 0.53637  0.16952  0.82197  Biso   1.000  C
  H762     1.0000 0.60065  0.22022  0.85898  Biso   1.000  H
  C910     1.0000 0.54105  0.04798  0.82139  Biso   1.000  C
  H763     1.0000 0.60897  0.00458  0.85792  Biso   1.000  H
  H764     1.0000 0.60896  0.00458  0.85788  Biso   1.000  H
  C911     1.0000 0.67044  0.17158  0.74209  Biso   1.000  C
  C912     1.0000 0.72765  0.15321  0.68209  Biso   1.000  C
  C913     1.0000 0.51485  0.10739  0.80848  Biso   1.000  C
  H765     1.0000 0.51616  0.21549  0.81198  Biso   1.000  H
  H766     1.0000 0.52447  0.99990  0.81089  Biso   1.000  H
  C914     1.0000 0.62734  0.16408  0.71030  Biso   1.000  C
  H767     1.0000 0.66497  0.18160  0.77769  Biso   1.000  H
  C915     1.0000 0.68454  0.14571  0.65019  Biso   1.000  C
  H768     1.0000 0.76645  0.14898  0.67120  Biso   1.000  H
  H769     1.0000 0.47797  0.10528  0.78799  Biso   1.000  H
  C916     1.0000 0.63447  0.15119  0.66430  Biso   1.000  C
  H770     1.0000 0.58854  0.16831  0.72119  Biso   1.000  H
  H771     1.0000 0.69006  0.13569  0.61470  Biso   1.000  H
  H772     1.0000 0.60106  0.14540  0.63959  Biso   1.000  H
  O141     1.0000 0.09353  0.79222  0.13041  Biso   1.000  O
  C917     1.0000 0.13402  0.82922  0.11579  Biso   1.000  C
  C918     1.0000 0.04752  0.82811  0.13230  Biso   1.000  C
  C919     1.0000 0.16671  0.86789  0.14590  Biso   1.000  C
  C920     1.0000 0.14439  0.82248  0.07010  Biso   1.000  C
  O142     1.0000 0.09352  0.79222  0.13038  Biso   1.000  O
  O143     1.0000 0.04233  0.85601  0.17700  Biso   1.000  O
  H773     1.0000 0.04652  0.86890  0.10779  Biso   1.000  H
  H774     1.0000 0.01511  0.79468  0.12362  Biso   1.000  H
  H775     1.0000 0.01510  0.79468  0.12358  Biso   1.000  H
  C921     1.0000 0.15172  0.87891  0.19591  Biso   1.000  C
  C922     1.0000 0.15172  0.87891  0.19588  Biso   1.000  C
  C923     1.0000 0.20992  0.89981  0.13010  Biso   1.000  C
  C924     1.0000 0.18759  0.85440  0.05431  Biso   1.000  C
  C925     1.0000 0.18759  0.85440  0.05427  Biso   1.000  C
  O144     1.0000 0.10510  0.79478  0.03920  Biso   1.000  O
  C926     1.0000 0.06031  0.92161  0.18321  Biso   1.000  C
  C927     1.0000 0.06031  0.92161  0.18318  Biso   1.000  C
  C928     1.0000 0.19943  0.88979  0.23120  Biso   1.000  C
  C929     1.0000 0.11281  0.93641  0.19420  Biso   1.000  C
  H776     1.0000 0.13411  0.83411  0.20851  Biso   1.000  H
  H777     1.0000 0.13411  0.83411  0.20848  Biso   1.000  H
  H778     1.0000 0.23531  0.92982  0.15331  Biso   1.000  H
  C930     1.0000 0.22040  0.89311  0.08431  Biso   1.000  C
  H779     1.0000 0.23530  0.92982  0.15328  Biso   1.000  H
  C931     1.0000 0.22039  0.89311  0.08428  Biso   1.000  C
  O145     1.0000 0.19719  0.84362  0.00862  Biso   1.000  O
  O146     1.0000 0.19719  0.84362  0.00858  Biso   1.000  O
  C932     1.0000 0.11400  0.72410  0.02911  Biso   1.000  C
  C933     1.0000 0.11400  0.72410  0.02908  Biso   1.000  C
  C934     1.0000 0.02342  0.97311  0.18149  Biso   1.000  C
  C935     1.0000 0.23113  0.82288  0.23851  Biso   1.000  C
  C936     1.0000 0.23113  0.82288  0.23848  Biso   1.000  C
  H780     1.0000 0.18631  0.90630  0.26350  Biso   1.000  H
  H781     1.0000 0.22430  0.92780  0.21829  Biso   1.000  H
  C937     1.0000 0.12842  0.00262  0.20350  Biso   1.000  C
  C938     1.0000 0.26431  0.93158  0.06351  Biso   1.000  C
  C939     1.0000 0.26431  0.93158  0.06347  Biso   1.000  C
  C940     1.0000 0.18198  0.89472  0.97690  Biso   1.000  C
  H782     1.0000 0.15151  0.71599  0.01620  Biso   1.000  H
  H783     1.0000 0.11051  0.69258  0.05880  Biso   1.000  H
  C941     1.0000 0.06999  0.71302  0.99361  Biso   1.000  C
  C942     1.0000 0.06999  0.71302  0.99358  Biso   1.000  C
  O147     1.0000 0.97350  0.95902  0.16210  Biso   1.000  O
  C943     1.0000 0.03902  0.03942  0.19069  Biso   1.000  C
  C944     1.0000 0.27951  0.83390  0.27191  Biso   1.000  C
  C945     1.0000 0.27951  0.83390  0.27188  Biso   1.000  C
  H784     1.0000 0.20671  0.78542  0.25248  Biso   1.000  H
  H785     1.0000 0.24311  0.80541  0.20600  Biso   1.000  H
  H786     1.0000 0.16901  0.01400  0.21201  Biso   1.000  H
  C946     1.0000 0.09140  0.05412  0.20171  Biso   1.000  C
  H787     1.0000 0.16900  0.01400  0.21198  Biso   1.000  H
  C947     1.0000 0.09140  0.05412  0.20168  Biso   1.000  C
  H788     1.0000 0.27771  0.90092  0.03639  Biso   1.000  H
  C948     1.0000 0.24212  0.99869  0.04401  Biso   1.000  C
  C949     1.0000 0.31240  0.94432  0.09591  Biso   1.000  C
  C950     1.0000 0.24211  0.99869  0.04397  Biso   1.000  C
  C951     1.0000 0.31239  0.94432  0.09588  Biso   1.000  C
  O148     1.0000 0.21867  0.94250  0.97140  Biso   1.000  O
  H789     1.0000 0.17157  0.87161  0.94391  Biso   1.000  H
  H790     1.0000 0.14827  0.91939  0.98860  Biso   1.000  H
  H791     1.0000 0.17157  0.87161  0.94387  Biso   1.000  H
  C952     1.0000 0.03289  0.70748  0.96680  Biso   1.000  C
  C953     1.0000 0.93572  0.94759  0.19440  Biso   1.000  C
  O149     1.0000 0.00031  0.08650  0.19021  Biso   1.000  O
  O150     1.0000 0.00030  0.08650  0.19018  Biso   1.000  O
  C954     1.0000 0.32964  0.82842  0.25791  Biso   1.000  C
  C955     1.0000 0.32963  0.82842  0.25787  Biso   1.000  C
  C956     1.0000 0.27242  0.84679  0.31791  Biso   1.000  C
  C957     1.0000 0.27242  0.84679  0.31788  Biso   1.000  C
  C958     1.0000 0.10583  0.12698  0.20999  Biso   1.000  C
  C959     1.0000 0.21726  0.99829  0.99969  Biso   1.000  C
  C960     1.0000 0.24429  0.05790  0.06969  Biso   1.000  C
  H792     1.0000 0.33940  0.97669  0.08019  Biso   1.000  H
  H793     1.0000 0.30080  0.96788  0.12671  Biso   1.000  H
  C961     1.0000 0.33801  0.87700  0.10800  Biso   1.000  C
  C962     1.0000 0.98536  0.70970  0.93251  Biso   1.000  C
  C963     1.0000 0.98535  0.70970  0.93248  Biso   1.000  C
  C964     1.0000 0.88792  0.94301  0.16570  Biso   1.000  C
  H794     1.0000 0.93500  0.98792  0.21912  Biso   1.000  H
  H795     1.0000 0.94332  0.90051  0.21222  Biso   1.000  H
  H796     1.0000 0.93500  0.98792  0.21908  Biso   1.000  H
  H797     1.0000 0.94332  0.90051  0.21218  Biso   1.000  H
  C965     1.0000 0.99261  0.12662  0.14971  Biso   1.000  C
  C966     1.0000 0.37274  0.83592  0.28970  Biso   1.000  C
  H798     1.0000 0.33511  0.81840  0.22231  Biso   1.000  H
  H799     1.0000 0.33510  0.81840  0.22228  Biso   1.000  H
  C967     1.0000 0.31553  0.85429  0.34981  Biso   1.000  C
  H800     1.0000 0.23362  0.85102  0.32880  Biso   1.000  H
  C968     1.0000 0.11431  0.15628  0.16200  Biso   1.000  C
  C969     1.0000 0.15511  0.13820  0.24349  Biso   1.000  C
  H801     1.0000 0.07501  0.15190  0.22629  Biso   1.000  H
  C970     1.0000 0.19469  0.05709  0.98109  Biso   1.000  C
  C971     1.0000 0.22172  0.11681  0.05111  Biso   1.000  C
  H802     1.0000 0.26359  0.05830  0.10401  Biso   1.000  H
  C972     1.0000 0.22171  0.11681  0.05108  Biso   1.000  C
  H803     1.0000 0.26359  0.05830  0.10398  Biso   1.000  H
  H804     1.0000 0.34552  0.85148  0.07659  Biso   1.000  H
  H805     1.0000 0.31199  0.84699  0.12660  Biso   1.000  H
  C973     1.0000 0.38903  0.88732  0.13862  Biso   1.000  C
  C974     1.0000 0.38902  0.88732  0.13858  Biso   1.000  C
  O151     1.0000 0.96768  0.77621  0.93660  Biso   1.000  O
  H806     1.0000 0.95656  0.67360  0.94140  Biso   1.000  H
  H807     1.0000 0.99579  0.69978  0.89811  Biso   1.000  H
  H808     1.0000 0.99575  0.69978  0.89808  Biso   1.000  H
  C975     1.0000 0.85090  0.94019  0.13821  Biso   1.000  C
  H809     1.0000 0.95191  0.13971  0.14432  Biso   1.000  H
  H810     1.0000 0.95190  0.13971  0.14428  Biso   1.000  H
  H811     1.0000 0.00351  0.09672  0.12121  Biso   1.000  H
  O152     1.0000 0.02151  0.18452  0.15139  Biso   1.000  O
  H812     1.0000 0.00350  0.09672  0.12118  Biso   1.000  H
  C976     1.0000 0.36561  0.84881  0.33570  Biso   1.000  C
  H813     1.0000 0.41154  0.83169  0.27881  Biso   1.000  H
  H814     1.0000 0.41153  0.83169  0.27878  Biso   1.000  H
  H815     1.0000 0.31002  0.86431  0.38530  Biso   1.000  H
  C977     1.0000 0.16261  0.15769  0.14401  Biso   1.000  C
  C978     1.0000 0.07040  0.18110  0.13621  Biso   1.000  C
  C979     1.0000 0.16261  0.15769  0.14397  Biso   1.000  C
  C980     1.0000 0.07040  0.18110  0.13618  Biso   1.000  C
  C981     1.0000 0.14313  0.12179  0.29261  Biso   1.000  C
  H816     1.0000 0.18612  0.10588  0.23391  Biso   1.000  H
  H817     1.0000 0.16732  0.19011  0.24191  Biso   1.000  H
  C982     1.0000 0.14313  0.12179  0.29258  Biso   1.000  C
  H818     1.0000 0.18612  0.10588  0.23388  Biso   1.000  H
  H819     1.0000 0.16732  0.19011  0.24188  Biso   1.000  H
  O153     1.0000 0.16376  0.05302  0.94020  Biso   1.000  O
  C983     1.0000 0.19682  0.11630  0.00680  Biso   1.000  C
  C984     1.0000 0.19678  0.11630  0.00680  Biso   1.000  C
  C985     1.0000 0.21921  0.18050  0.07779  Biso   1.000  C
  C986     1.0000 0.41612  0.82791  0.15149  Biso   1.000  C
  C987     1.0000 0.41141  0.94940  0.15211  Biso   1.000  C
  C988     1.0000 0.41140  0.94940  0.15207  Biso   1.000  C
  C989     1.0000 0.92527  0.79262  0.90749  Biso   1.000  C
  C990     1.0000 0.81003  0.93868  0.09941  Biso   1.000  C
  C991     1.0000 0.81002  0.93868  0.09938  Biso   1.000  C
  H820     1.0000 0.39902  0.85460  0.36041  Biso   1.000  H
  H821     1.0000 0.39902  0.85460  0.36038  Biso   1.000  H
  C992     1.0000 0.16709  0.18402  0.10031  Biso   1.000  C
  H822     1.0000 0.19660  0.13851  0.16399  Biso   1.000  H
  C993     1.0000 0.16709  0.18402  0.10027  Biso   1.000  C
  C994     1.0000 0.07480  0.20738  0.09251  Biso   1.000  C
  C995     1.0000 0.07480  0.20738  0.09248  Biso   1.000  C
  C996     1.0000 0.19363  0.12829  0.32509  Biso   1.000  C
  H823     1.0000 0.12872  0.07079  0.29399  Biso   1.000  H
  H824     1.0000 0.11401  0.15618  0.30329  Biso   1.000  H
  C997     1.0000 0.19005  0.06132  0.90059  Biso   1.000  C
  O154     1.0000 0.17668  0.17400  0.98448  Biso   1.000  O
  H825     1.0000 0.22029  0.22238  0.05431  Biso   1.000  H
  C998     1.0000 0.26753  0.18900  0.11490  Biso   1.000  C
  H826     1.0000 0.22028  0.22238  0.05427  Biso   1.000  H
  C999     1.0000 0.26749  0.18900  0.11490  Biso   1.000  C
  C1000    1.0000 0.46370  0.83048  0.17799  Biso   1.000  C
  H827     1.0000 0.39942  0.77978  0.14099  Biso   1.000  H
  H828     1.0000 0.39111  0.99542  0.14208  Biso   1.000  H
  C1001    1.0000 0.45903  0.95202  0.17861  Biso   1.000  C
  C1002    1.0000 0.45903  0.95202  0.17858  Biso   1.000  C
  C1003    1.0000 0.92968  0.81890  0.86379  Biso   1.000  C
  C1004    1.0000 0.87686  0.79121  0.92551  Biso   1.000  C
  C1005    1.0000 0.87686  0.79121  0.92547  Biso   1.000  C
  O155     1.0000 0.83631  0.94698  0.05980  Biso   1.000  O
  H829     1.0000 0.78127  0.97790  0.10281  Biso   1.000  H
  H830     1.0000 0.79092  0.89019  0.09838  Biso   1.000  H
  H831     1.0000 0.78127  0.97790  0.10278  Biso   1.000  H
  C1006    1.0000 0.12322  0.20879  0.07449  Biso   1.000  C
  O156     1.0000 0.03239  0.22379  0.06340  Biso   1.000  O
  C1007    1.0000 0.22973  0.07592  0.32979  Biso   1.000  C
  C1008    1.0000 0.20283  0.18790  0.34970  Biso   1.000  C
  C1009    1.0000 0.14917  0.05981  0.86179  Biso   1.000  C
  H832     1.0000 0.21880  0.02210  0.89719  Biso   1.000  H
  H833     1.0000 0.20916  0.10981  0.90162  Biso   1.000  H
  H834     1.0000 0.20915  0.10981  0.90158  Biso   1.000  H
  C1010    1.0000 0.12576  0.19182  0.99561  Biso   1.000  C
  H835     1.0000 0.26182  0.23391  0.13460  Biso   1.000  H
  H836     1.0000 0.27012  0.14581  0.13742  Biso   1.000  H
  C1011    1.0000 0.31881  0.19510  0.09210  Biso   1.000  C
  H837     1.0000 0.27012  0.14581  0.13738  Biso   1.000  H
  C1012    1.0000 0.48523  0.89261  0.19152  Biso   1.000  C
  H838     1.0000 0.48392  0.78451  0.18802  Biso   1.000  H
  C1013    1.0000 0.48523  0.89261  0.19148  Biso   1.000  C
  H839     1.0000 0.48392  0.78451  0.18798  Biso   1.000  H
  H840     1.0000 0.47561  0.00010  0.18911  Biso   1.000  H
  H841     1.0000 0.47561  0.00010  0.18908  Biso   1.000  H
  C1014    1.0000 0.88577  0.84372  0.83800  Biso   1.000  C
  O157     1.0000 0.97857  0.81548  0.84861  Biso   1.000  O
  O158     1.0000 0.97856  0.81548  0.84858  Biso   1.000  O
  C1015    1.0000 0.83299  0.81598  0.89969  Biso   1.000  C
  O159     1.0000 0.87347  0.76150  0.96890  Biso   1.000  O
  C1016    1.0000 0.83295  0.81598  0.89969  Biso   1.000  C
  C1017    1.0000 0.80539  0.94291  0.01891  Biso   1.000  C
  C1018    1.0000 0.80539  0.94291  0.01888  Biso   1.000  C
  O160     1.0000 0.12660  0.23850  0.03110  Biso   1.000  O
  C1019    1.0000 0.01472  0.29030  0.06749  Biso   1.000  C
  C1020    1.0000 0.01468  0.29030  0.06749  Biso   1.000  C
  C1021    1.0000 0.27513  0.08312  0.35901  Biso   1.000  C
  H842     1.0000 0.22262  0.02970  0.31071  Biso   1.000  H
  C1022    1.0000 0.24823  0.19510  0.37892  Biso   1.000  C
  H843     1.0000 0.17494  0.22848  0.34610  Biso   1.000  H
  C1023    1.0000 0.24823  0.19510  0.37888  Biso   1.000  C
  C1024    1.0000 0.11216  0.05699  0.83430  Biso   1.000  C
  H844     1.0000 0.10508  0.21332  0.96540  Biso   1.000  H
  H845     1.0000 0.10591  0.14691  0.00549  Biso   1.000  H
  H846     1.0000 0.32269  0.15270  0.06958  Biso   1.000  H
  H847     1.0000 0.31799  0.24111  0.07230  Biso   1.000  H
  C1025    1.0000 0.36441  0.19600  0.12650  Biso   1.000  C
  H848     1.0000 0.52210  0.89472  0.21201  Biso   1.000  H
  H849     1.0000 0.52210  0.89472  0.21198  Biso   1.000  H
  C1026    1.0000 0.89425  0.87302  0.79001  Biso   1.000  C
  C1027    1.0000 0.83747  0.84231  0.85599  Biso   1.000  C
  C1028    1.0000 0.89425  0.87302  0.78998  Biso   1.000  C
  C1029    1.0000 0.00747  0.87338  0.85029  Biso   1.000  C
  C1030    1.0000 0.78086  0.81950  0.92221  Biso   1.000  C
  C1031    1.0000 0.78086  0.81950  0.92218  Biso   1.000  C
  C1032    1.0000 0.87432  0.80818  0.00439  Biso   1.000  C
  C1033    1.0000 0.80326  0.88370  0.99320  Biso   1.000  C
  C1034    1.0000 0.78282  0.00171  0.00031  Biso   1.000  C
  C1035    1.0000 0.78278  0.00171  0.00027  Biso   1.000  C
  C1036    1.0000 0.96719  0.29252  0.03320  Biso   1.000  C
  H850     1.0000 0.04352  0.32640  0.05860  Biso   1.000  H
  H851     1.0000 0.00429  0.30022  0.10189  Biso   1.000  H
  C1037    1.0000 0.28433  0.14279  0.38362  Biso   1.000  C
  H852     1.0000 0.30302  0.04259  0.36261  Biso   1.000  H
  C1038    1.0000 0.28433  0.14279  0.38358  Biso   1.000  C
  H853     1.0000 0.30302  0.04259  0.36258  Biso   1.000  H
  H854     1.0000 0.25545  0.24132  0.39790  Biso   1.000  H
  C1039    1.0000 0.06436  0.05241  0.80560  Biso   1.000  C
  C1040    1.0000 0.39111  0.13649  0.13810  Biso   1.000  C
  C1041    1.0000 0.38011  0.25622  0.14809  Biso   1.000  C
  C1042    1.0000 0.84497  0.86180  0.75651  Biso   1.000  C
  H855     1.0000 0.92507  0.84810  0.77371  Biso   1.000  H
  C1043    1.0000 0.90867  0.94588  0.79829  Biso   1.000  C
  C1044    1.0000 0.84497  0.86180  0.75648  Biso   1.000  C
  H856     1.0000 0.92507  0.84810  0.77367  Biso   1.000  H
  H857     1.0000 0.80348  0.86149  0.83601  Biso   1.000  H
  H858     1.0000 0.80347  0.86149  0.83598  Biso   1.000  H
  O161     1.0000 0.99977  0.91350  0.80979  Biso   1.000  O
  H859     1.0000 0.99657  0.90328  0.87879  Biso   1.000  H
  H860     1.0000 0.04817  0.86029  0.85568  Biso   1.000  H
  C1045    1.0000 0.77836  0.88319  0.94889  Biso   1.000  C
  H861     1.0000 0.77979  0.77762  0.94569  Biso   1.000  H
  C1046    1.0000 0.73255  0.81100  0.88510  Biso   1.000  C
  H862     1.0000 0.77975  0.77762  0.94569  Biso   1.000  H
  O162     1.0000 0.82340  0.82600  0.01552  Biso   1.000  O
  O163     1.0000 0.82340  0.82600  0.01548  Biso   1.000  O
  H863     1.0000 0.89417  0.85309  0.99451  Biso   1.000  H
  H864     1.0000 0.89417  0.85309  0.99447  Biso   1.000  H
  H865     1.0000 0.89500  0.78668  0.03460  Biso   1.000  H
  C1047    1.0000 0.75796  0.00131  0.95599  Biso   1.000  C
  O164     1.0000 0.78140  0.05750  0.02860  Biso   1.000  O
  C1048    1.0000 0.93008  0.28698  0.00639  Biso   1.000  C
  H866     1.0000 0.31943  0.14842  0.40621  Biso   1.000  H
  O165     1.0000 0.02657  0.04098  0.83790  Biso   1.000  O
  H867     1.0000 0.06508  0.01208  0.78088  Biso   1.000  H
  H868     1.0000 0.05676  0.09949  0.78778  Biso   1.000  H
  H869     1.0000 0.06504  0.01208  0.78088  Biso   1.000  H
  C1049    1.0000 0.43341  0.13710  0.17120  Biso   1.000  C
  H870     1.0000 0.37900  0.08992  0.12138  Biso   1.000  H
  C1050    1.0000 0.42240  0.25692  0.18118  Biso   1.000  C
  H871     1.0000 0.35952  0.30239  0.13910  Biso   1.000  H
  C1051    1.0000 0.85695  0.87821  0.70739  Biso   1.000  C
  H872     1.0000 0.81396  0.89412  0.76609  Biso   1.000  H
  H873     1.0000 0.83276  0.80989  0.75809  Biso   1.000  H
  C1052    1.0000 0.96106  0.96058  0.80931  Biso   1.000  C
  C1053    1.0000 0.96106  0.96058  0.80927  Biso   1.000  C
  C1054    1.0000 0.87166  0.99738  0.79650  Biso   1.000  C
  C1055    1.0000 0.75579  0.94210  0.93031  Biso   1.000  C
  C1056    1.0000 0.75575  0.94210  0.93028  Biso   1.000  C
  H874     1.0000 0.73826  0.76609  0.86540  Biso   1.000  H
  H875     1.0000 0.72995  0.85419  0.86258  Biso   1.000  H
  C1057    1.0000 0.68127  0.80490  0.90790  Biso   1.000  C
  C1058    1.0000 0.73577  0.06842  0.93649  Biso   1.000  C
  C1059    1.0000 0.81810  0.10528  0.02310  Biso   1.000  C
  C1060    1.0000 0.88608  0.27590  0.97089  Biso   1.000  C
  C1061    1.0000 0.97666  0.02689  0.81851  Biso   1.000  C
  C1062    1.0000 0.97666  0.02689  0.81847  Biso   1.000  C
  C1063    1.0000 0.44902  0.19731  0.19279  Biso   1.000  C
  H876     1.0000 0.45403  0.09098  0.18019  Biso   1.000  H
  H877     1.0000 0.43451  0.30349  0.19790  Biso   1.000  H
  C1064    1.0000 0.80645  0.87171  0.67491  Biso   1.000  C
  H878     1.0000 0.87136  0.92921  0.70601  Biso   1.000  H
  H879     1.0000 0.88607  0.84382  0.69671  Biso   1.000  H
  C1065    1.0000 0.80645  0.87171  0.67488  Biso   1.000  C
  H880     1.0000 0.87135  0.92921  0.70598  Biso   1.000  H
  H881     1.0000 0.88603  0.84382  0.69668  Biso   1.000  H
  C1066    1.0000 0.88727  0.06359  0.80580  Biso   1.000  C
  H882     1.0000 0.83107  0.98600  0.78799  Biso   1.000  H
  H883     1.0000 0.73649  0.94170  0.89599  Biso   1.000  H
  H884     1.0000 0.73645  0.94170  0.89599  Biso   1.000  H
  H885     1.0000 0.67739  0.84730  0.93042  Biso   1.000  H
  H886     1.0000 0.68208  0.75889  0.92770  Biso   1.000  H
  C1067    1.0000 0.63566  0.80400  0.87350  Biso   1.000  C
  H887     1.0000 0.67738  0.84730  0.93038  Biso   1.000  H
  H888     1.0000 0.72237  0.09908  0.96361  Biso   1.000  H
  C1068    1.0000 0.68768  0.05568  0.90409  Biso   1.000  C
  C1069    1.0000 0.77968  0.10689  0.91569  Biso   1.000  C
  H889     1.0000 0.72237  0.09908  0.96358  Biso   1.000  H
  O166     1.0000 0.80289  0.15638  0.99138  Biso   1.000  O
  H890     1.0000 0.82850  0.12839  0.05609  Biso   1.000  H
  H891     1.0000 0.85181  0.08061  0.01140  Biso   1.000  H
  O167     1.0000 0.89498  0.20522  0.96080  Biso   1.000  O
  H892     1.0000 0.84856  0.28401  0.98380  Biso   1.000  H
  H893     1.0000 0.88957  0.30742  0.94120  Biso   1.000  H
  C1070    1.0000 0.93977  0.07839  0.81679  Biso   1.000  C
  H894     1.0000 0.48183  0.19781  0.21850  Biso   1.000  H
  C1071    1.0000 0.77035  0.92408  0.67021  Biso   1.000  C
  C1072    1.0000 0.79725  0.81210  0.65030  Biso   1.000  C
  C1073    1.0000 0.77035  0.92408  0.67017  Biso   1.000  C
  C1074    1.0000 0.84836  0.12109  0.80409  Biso   1.000  C
  C1075    1.0000 0.60897  0.86351  0.86190  Biso   1.000  C
  C1076    1.0000 0.61997  0.74378  0.85191  Biso   1.000  C
  C1077    1.0000 0.61997  0.74378  0.85187  Biso   1.000  C
  H895     1.0000 0.66068  0.02331  0.91981  Biso   1.000  H
  H896     1.0000 0.69928  0.03212  0.87329  Biso   1.000  H
  C1078    1.0000 0.66206  0.12300  0.89200  Biso   1.000  C
  H897     1.0000 0.66068  0.02331  0.91977  Biso   1.000  H
  C1079    1.0000 0.81248  0.14560  0.94569  Biso   1.000  C
  C1080    1.0000 0.79016  0.10019  0.86990  Biso   1.000  C
  C1081    1.0000 0.85569  0.17752  0.92990  Biso   1.000  C
  O168     1.0000 0.95775  0.14399  0.82300  Biso   1.000  O
  C1082    1.0000 0.72494  0.91688  0.64099  Biso   1.000  C
  H898     1.0000 0.77746  0.97030  0.68929  Biso   1.000  H
  C1083    1.0000 0.75184  0.80490  0.62108  Biso   1.000  C
  H899     1.0000 0.82514  0.77152  0.65390  Biso   1.000  H
  C1084    1.0000 0.83337  0.13211  0.85410  Biso   1.000  C
  H900     1.0000 0.86597  0.16589  0.79149  Biso   1.000  H
  C1085    1.0000 0.80065  0.11021  0.76880  Biso   1.000  C
  C1086    1.0000 0.56667  0.86290  0.82880  Biso   1.000  C
  H901     1.0000 0.62108  0.91008  0.87862  Biso   1.000  H
  H902     1.0000 0.62108  0.91008  0.87858  Biso   1.000  H
  C1087    1.0000 0.57768  0.74308  0.81882  Biso   1.000  C
  H903     1.0000 0.64055  0.69761  0.86090  Biso   1.000  H
  C1088    1.0000 0.57767  0.74308  0.81878  Biso   1.000  C
  H904     1.0000 0.65456  0.14852  0.92341  Biso   1.000  H
  H905     1.0000 0.68808  0.15301  0.87340  Biso   1.000  H
  C1089    1.0000 0.61105  0.11268  0.86138  Biso   1.000  C
  H906     1.0000 0.65455  0.14852  0.92338  Biso   1.000  H
  H907     1.0000 0.76477  0.07018  0.84669  Biso   1.000  H
  C1090    1.0000 0.86606  0.17078  0.88421  Biso   1.000  C
  C1091    1.0000 0.86606  0.17078  0.88418  Biso   1.000  C
  C1092    1.0000 0.95255  0.17189  0.86770  Biso   1.000  C
  C1093    1.0000 0.71574  0.85721  0.61638  Biso   1.000  C
  H908     1.0000 0.69706  0.95741  0.63739  Biso   1.000  H
  H909     1.0000 0.74463  0.75868  0.60210  Biso   1.000  H
  H910     1.0000 0.81377  0.09370  0.73650  Biso   1.000  H
  H911     1.0000 0.77577  0.07220  0.78171  Biso   1.000  H
  C1094    1.0000 0.76895  0.17712  0.76149  Biso   1.000  C
  H912     1.0000 0.77577  0.07220  0.78167  Biso   1.000  H
  C1095    1.0000 0.55106  0.80269  0.80721  Biso   1.000  C
  H913     1.0000 0.54605  0.90902  0.81981  Biso   1.000  H
  C1096    1.0000 0.55106  0.80269  0.80718  Biso   1.000  C
  H914     1.0000 0.54605  0.90902  0.81978  Biso   1.000  H
  H915     1.0000 0.56557  0.69651  0.80210  Biso   1.000  H
  C1097    1.0000 0.58396  0.17209  0.84851  Biso   1.000  C
  C1098    1.0000 0.58867  0.05060  0.84789  Biso   1.000  C
  C1099    1.0000 0.58396  0.17209  0.84847  Biso   1.000  C
  O169     1.0000 0.90655  0.20778  0.86959  Biso   1.000  O
  H916     1.0000 0.98497  0.20532  0.87638  Biso   1.000  H
  H917     1.0000 0.95356  0.13110  0.89221  Biso   1.000  H
  H918     1.0000 0.95356  0.13110  0.89217  Biso   1.000  H
  H919     1.0000 0.68064  0.85158  0.59379  Biso   1.000  H
  H920     1.0000 0.79336  0.21458  0.74752  Biso   1.000  H
  H921     1.0000 0.75697  0.19459  0.79400  Biso   1.000  H
  C1100    1.0000 0.72057  0.16610  0.72809  Biso   1.000  C
  H922     1.0000 0.79336  0.21458  0.74748  Biso   1.000  H
  H923     1.0000 0.51825  0.80219  0.78150  Biso   1.000  H
  C1101    1.0000 0.53638  0.16952  0.82201  Biso   1.000  C
  H924     1.0000 0.60066  0.22022  0.85901  Biso   1.000  H
  C1102    1.0000 0.53637  0.16952  0.82197  Biso   1.000  C
  H925     1.0000 0.60065  0.22022  0.85898  Biso   1.000  H
  C1103    1.0000 0.54105  0.04798  0.82139  Biso   1.000  C
  H926     1.0000 0.60897  0.00458  0.85792  Biso   1.000  H
  H927     1.0000 0.60896  0.00458  0.85788  Biso   1.000  H
  C1104    1.0000 0.67044  0.17158  0.74209  Biso   1.000  C
  C1105    1.0000 0.72765  0.15321  0.68209  Biso   1.000  C
  C1106    1.0000 0.51485  0.10739  0.80848  Biso   1.000  C
  H928     1.0000 0.51616  0.21549  0.81198  Biso   1.000  H
  H929     1.0000 0.52447  0.99990  0.81089  Biso   1.000  H
  C1107    1.0000 0.62734  0.16408  0.71030  Biso   1.000  C
  H930     1.0000 0.66497  0.18160  0.77769  Biso   1.000  H
  C1108    1.0000 0.68454  0.14571  0.65019  Biso   1.000  C
  H931     1.0000 0.76645  0.14898  0.67120  Biso   1.000  H
  H932     1.0000 0.47797  0.10528  0.78799  Biso   1.000  H
  C1109    1.0000 0.63447  0.15119  0.66430  Biso   1.000  C
  H933     1.0000 0.58854  0.16831  0.72119  Biso   1.000  H
  H934     1.0000 0.69006  0.13569  0.61470  Biso   1.000  H
  H935     1.0000 0.60106  0.14540  0.63959  Biso   1.000  H
  O170     1.0000 0.09353  0.79222  0.13041  Biso   1.000  O
  C1110    1.0000 0.13402  0.82922  0.11579  Biso   1.000  C
  C1111    1.0000 0.04752  0.82811  0.13230  Biso   1.000  C
  C1112    1.0000 0.16671  0.86789  0.14590  Biso   1.000  C
  C1113    1.0000 0.14439  0.82248  0.07010  Biso   1.000  C
  O171     1.0000 0.09352  0.79222  0.13038  Biso   1.000  O
  O172     1.0000 0.04233  0.85601  0.17700  Biso   1.000  O
  H936     1.0000 0.04652  0.86890  0.10779  Biso   1.000  H
  H937     1.0000 0.01511  0.79468  0.12362  Biso   1.000  H
  H938     1.0000 0.01510  0.79468  0.12358  Biso   1.000  H
  C1114    1.0000 0.15172  0.87891  0.19591  Biso   1.000  C
  C1115    1.0000 0.15172  0.87891  0.19588  Biso   1.000  C
  C1116    1.0000 0.20992  0.89981  0.13010  Biso   1.000  C
  C1117    1.0000 0.18759  0.85440  0.05431  Biso   1.000  C
  C1118    1.0000 0.18759  0.85440  0.05427  Biso   1.000  C
  O173     1.0000 0.10510  0.79478  0.03920  Biso   1.000  O
  C1119    1.0000 0.06031  0.92161  0.18321  Biso   1.000  C
  C1120    1.0000 0.06031  0.92161  0.18318  Biso   1.000  C
  C1121    1.0000 0.19943  0.88979  0.23120  Biso   1.000  C
  C1122    1.0000 0.11281  0.93641  0.19420  Biso   1.000  C
  H939     1.0000 0.13411  0.83411  0.20851  Biso   1.000  H
  H940     1.0000 0.13411  0.83411  0.20848  Biso   1.000  H
  H941     1.0000 0.23531  0.92982  0.15331  Biso   1.000  H
  C1123    1.0000 0.22040  0.89311  0.08431  Biso   1.000  C
  H942     1.0000 0.23530  0.92982  0.15328  Biso   1.000  H
  C1124    1.0000 0.22039  0.89311  0.08428  Biso   1.000  C
  O174     1.0000 0.19719  0.84362  0.00862  Biso   1.000  O
  O175     1.0000 0.19719  0.84362  0.00858  Biso   1.000  O
  C1125    1.0000 0.11400  0.72410  0.02911  Biso   1.000  C
  C1126    1.0000 0.11400  0.72410  0.02908  Biso   1.000  C
  C1127    1.0000 0.02342  0.97311  0.18149  Biso   1.000  C
  C1128    1.0000 0.23113  0.82288  0.23851  Biso   1.000  C
  C1129    1.0000 0.23113  0.82288  0.23848  Biso   1.000  C
  H943     1.0000 0.18631  0.90630  0.26350  Biso   1.000  H
  H944     1.0000 0.22430  0.92780  0.21829  Biso   1.000  H
  C1130    1.0000 0.12842  0.00262  0.20350  Biso   1.000  C
  C1131    1.0000 0.26431  0.93158  0.06351  Biso   1.000  C
  C1132    1.0000 0.26431  0.93158  0.06347  Biso   1.000  C
  C1133    1.0000 0.18198  0.89472  0.97690  Biso   1.000  C
  H945     1.0000 0.15151  0.71599  0.01620  Biso   1.000  H
  H946     1.0000 0.11051  0.69258  0.05880  Biso   1.000  H
  C1134    1.0000 0.06999  0.71302  0.99361  Biso   1.000  C
  C1135    1.0000 0.06999  0.71302  0.99358  Biso   1.000  C
  O176     1.0000 0.97350  0.95902  0.16210  Biso   1.000  O
  C1136    1.0000 0.03902  0.03942  0.19069  Biso   1.000  C
  C1137    1.0000 0.27951  0.83390  0.27191  Biso   1.000  C
  C1138    1.0000 0.27951  0.83390  0.27188  Biso   1.000  C
  H947     1.0000 0.20671  0.78542  0.25248  Biso   1.000  H
  H948     1.0000 0.24311  0.80541  0.20600  Biso   1.000  H
  H949     1.0000 0.16901  0.01400  0.21201  Biso   1.000  H
  C1139    1.0000 0.09140  0.05412  0.20171  Biso   1.000  C
  H950     1.0000 0.16900  0.01400  0.21198  Biso   1.000  H
  C1140    1.0000 0.09140  0.05412  0.20168  Biso   1.000  C
  H951     1.0000 0.27771  0.90092  0.03639  Biso   1.000  H
  C1141    1.0000 0.24212  0.99869  0.04401  Biso   1.000  C
  C1142    1.0000 0.31240  0.94432  0.09591  Biso   1.000  C
  C1143    1.0000 0.24211  0.99869  0.04397  Biso   1.000  C
  C1144    1.0000 0.31239  0.94432  0.09588  Biso   1.000  C
  O177     1.0000 0.21867  0.94250  0.97140  Biso   1.000  O
  H952     1.0000 0.17157  0.87161  0.94391  Biso   1.000  H
  H953     1.0000 0.14827  0.91939  0.98860  Biso   1.000  H
  H954     1.0000 0.17157  0.87161  0.94387  Biso   1.000  H
  C1145    1.0000 0.03289  0.70748  0.96680  Biso   1.000  C
  C1146    1.0000 0.93572  0.94759  0.19440  Biso   1.000  C
  O178     1.0000 0.00031  0.08650  0.19021  Biso   1.000  O
  O179     1.0000 0.00030  0.08650  0.19018  Biso   1.000  O
  C1147    1.0000 0.32964  0.82842  0.25791  Biso   1.000  C
  C1148    1.0000 0.32963  0.82842  0.25787  Biso   1.000  C
  C1149    1.0000 0.27242  0.84679  0.31791  Biso   1.000  C
  C1150    1.0000 0.27242  0.84679  0.31788  Biso   1.000  C
  C1151    1.0000 0.10583  0.12698  0.20999  Biso   1.000  C
  C1152    1.0000 0.21726  0.99829  0.99969  Biso   1.000  C
  C1153    1.0000 0.24429  0.05790  0.06969  Biso   1.000  C
  H955     1.0000 0.33940  0.97669  0.08019  Biso   1.000  H
  H956     1.0000 0.30080  0.96788  0.12671  Biso   1.000  H
  C1154    1.0000 0.33801  0.87700  0.10800  Biso   1.000  C
  C1155    1.0000 0.98536  0.70970  0.93251  Biso   1.000  C
  C1156    1.0000 0.98535  0.70970  0.93248  Biso   1.000  C
  C1157    1.0000 0.88792  0.94301  0.16570  Biso   1.000  C
  H957     1.0000 0.93500  0.98792  0.21912  Biso   1.000  H
  H958     1.0000 0.94332  0.90051  0.21222  Biso   1.000  H
  H959     1.0000 0.93500  0.98792  0.21908  Biso   1.000  H
  H960     1.0000 0.94332  0.90051  0.21218  Biso   1.000  H
  C1158    1.0000 0.99261  0.12662  0.14971  Biso   1.000  C
  C1159    1.0000 0.37274  0.83592  0.28970  Biso   1.000  C
  H961     1.0000 0.33511  0.81840  0.22231  Biso   1.000  H
  H962     1.0000 0.33510  0.81840  0.22228  Biso   1.000  H
  C1160    1.0000 0.31553  0.85429  0.34981  Biso   1.000  C
  H963     1.0000 0.23362  0.85102  0.32880  Biso   1.000  H
  C1161    1.0000 0.11431  0.15628  0.16200  Biso   1.000  C
  C1162    1.0000 0.15511  0.13820  0.24349  Biso   1.000  C
  H964     1.0000 0.07501  0.15190  0.22629  Biso   1.000  H
  C1163    1.0000 0.19469  0.05709  0.98109  Biso   1.000  C
  C1164    1.0000 0.22172  0.11681  0.05111  Biso   1.000  C
  H965     1.0000 0.26359  0.05830  0.10401  Biso   1.000  H
  C1165    1.0000 0.22171  0.11681  0.05108  Biso   1.000  C
  H966     1.0000 0.26359  0.05830  0.10398  Biso   1.000  H
  H967     1.0000 0.34552  0.85148  0.07659  Biso   1.000  H
  H968     1.0000 0.31199  0.84699  0.12660  Biso   1.000  H
  C1166    1.0000 0.38903  0.88732  0.13862  Biso   1.000  C
  C1167    1.0000 0.38902  0.88732  0.13858  Biso   1.000  C
  O180     1.0000 0.96768  0.77621  0.93660  Biso   1.000  O
  H969     1.0000 0.95656  0.67360  0.94140  Biso   1.000  H
  H970     1.0000 0.99579  0.69978  0.89811  Biso   1.000  H
  H971     1.0000 0.99575  0.69978  0.89808  Biso   1.000  H
  C1168    1.0000 0.85090  0.94019  0.13821  Biso   1.000  C
  H972     1.0000 0.95191  0.13971  0.14432  Biso   1.000  H
  H973     1.0000 0.95190  0.13971  0.14428  Biso   1.000  H
  H974     1.0000 0.00351  0.09672  0.12121  Biso   1.000  H
  O181     1.0000 0.02151  0.18452  0.15139  Biso   1.000  O
  H975     1.0000 0.00350  0.09672  0.12118  Biso   1.000  H
  C1169    1.0000 0.36561  0.84881  0.33570  Biso   1.000  C
  H976     1.0000 0.41154  0.83169  0.27881  Biso   1.000  H
  H977     1.0000 0.41153  0.83169  0.27878  Biso   1.000  H
  H978     1.0000 0.31002  0.86431  0.38530  Biso   1.000  H
  C1170    1.0000 0.16261  0.15769  0.14401  Biso   1.000  C
  C1171    1.0000 0.07040  0.18110  0.13621  Biso   1.000  C
  C1172    1.0000 0.16261  0.15769  0.14397  Biso   1.000  C
  C1173    1.0000 0.07040  0.18110  0.13618  Biso   1.000  C
  C1174    1.0000 0.14313  0.12179  0.29261  Biso   1.000  C
  H979     1.0000 0.18612  0.10588  0.23391  Biso   1.000  H
  H980     1.0000 0.16732  0.19011  0.24191  Biso   1.000  H
  C1175    1.0000 0.14313  0.12179  0.29258  Biso   1.000  C
  H981     1.0000 0.18612  0.10588  0.23388  Biso   1.000  H
  H982     1.0000 0.16732  0.19011  0.24188  Biso   1.000  H
  O182     1.0000 0.16376  0.05302  0.94020  Biso   1.000  O
  C1176    1.0000 0.19682  0.11630  0.00680  Biso   1.000  C
  C1177    1.0000 0.19678  0.11630  0.00680  Biso   1.000  C
  C1178    1.0000 0.21921  0.18050  0.07779  Biso   1.000  C
  C1179    1.0000 0.41612  0.82791  0.15149  Biso   1.000  C
  C1180    1.0000 0.41141  0.94940  0.15211  Biso   1.000  C
  C1181    1.0000 0.41140  0.94940  0.15207  Biso   1.000  C
  C1182    1.0000 0.92527  0.79262  0.90749  Biso   1.000  C
  C1183    1.0000 0.81003  0.93868  0.09941  Biso   1.000  C
  C1184    1.0000 0.81002  0.93868  0.09938  Biso   1.000  C
  H983     1.0000 0.39902  0.85460  0.36041  Biso   1.000  H
  H984     1.0000 0.39902  0.85460  0.36038  Biso   1.000  H
  C1185    1.0000 0.16709  0.18402  0.10031  Biso   1.000  C
  H985     1.0000 0.19660  0.13851  0.16399  Biso   1.000  H
  C1186    1.0000 0.16709  0.18402  0.10027  Biso   1.000  C
  C1187    1.0000 0.07480  0.20738  0.09251  Biso   1.000  C
  C1188    1.0000 0.07480  0.20738  0.09248  Biso   1.000  C
  C1189    1.0000 0.19363  0.12829  0.32509  Biso   1.000  C
  H986     1.0000 0.12872  0.07079  0.29399  Biso   1.000  H
  H987     1.0000 0.11401  0.15618  0.30329  Biso   1.000  H
  C1190    1.0000 0.19005  0.06132  0.90059  Biso   1.000  C
  O183     1.0000 0.17668  0.17400  0.98448  Biso   1.000  O
  H988     1.0000 0.22029  0.22238  0.05431  Biso   1.000  H
  C1191    1.0000 0.26753  0.18900  0.11490  Biso   1.000  C
  H989     1.0000 0.22028  0.22238  0.05427  Biso   1.000  H
  C1192    1.0000 0.26749  0.18900  0.11490  Biso   1.000  C
  C1193    1.0000 0.46370  0.83048  0.17799  Biso   1.000  C
  H990     1.0000 0.39942  0.77978  0.14099  Biso   1.000  H
  H991     1.0000 0.39111  0.99542  0.14208  Biso   1.000  H
  C1194    1.0000 0.45903  0.95202  0.17861  Biso   1.000  C
  C1195    1.0000 0.45903  0.95202  0.17858  Biso   1.000  C
  C1196    1.0000 0.92968  0.81890  0.86379  Biso   1.000  C
  C1197    1.0000 0.87686  0.79121  0.92551  Biso   1.000  C
  C1198    1.0000 0.87686  0.79121  0.92547  Biso   1.000  C
  O184     1.0000 0.83631  0.94698  0.05980  Biso   1.000  O
  H992     1.0000 0.78127  0.97790  0.10281  Biso   1.000  H
  H993     1.0000 0.79092  0.89019  0.09838  Biso   1.000  H
  H994     1.0000 0.78127  0.97790  0.10278  Biso   1.000  H
  C1199    1.0000 0.12322  0.20879  0.07449  Biso   1.000  C
  O185     1.0000 0.03239  0.22379  0.06340  Biso   1.000  O
  C1200    1.0000 0.22973  0.07592  0.32979  Biso   1.000  C
  C1201    1.0000 0.20283  0.18790  0.34970  Biso   1.000  C
  C1202    1.0000 0.14917  0.05981  0.86179  Biso   1.000  C
  H995     1.0000 0.21880  0.02210  0.89719  Biso   1.000  H
  H996     1.0000 0.20916  0.10981  0.90162  Biso   1.000  H
  H997     1.0000 0.20915  0.10981  0.90158  Biso   1.000  H
  C1203    1.0000 0.12576  0.19182  0.99561  Biso   1.000  C
  H998     1.0000 0.26182  0.23391  0.13460  Biso   1.000  H
  H999     1.0000 0.27012  0.14581  0.13742  Biso   1.000  H
  C1204    1.0000 0.31881  0.19510  0.09210  Biso   1.000  C
  H1000    1.0000 0.27012  0.14581  0.13738  Biso   1.000  H
  C1205    1.0000 0.48523  0.89261  0.19152  Biso   1.000  C
  H1001    1.0000 0.48392  0.78451  0.18802  Biso   1.000  H
  C1206    1.0000 0.48523  0.89261  0.19148  Biso   1.000  C
  H1002    1.0000 0.48392  0.78451  0.18798  Biso   1.000  H
  H1003    1.0000 0.47561  0.00010  0.18911  Biso   1.000  H
  H1004    1.0000 0.47561  0.00010  0.18908  Biso   1.000  H
  C1207    1.0000 0.88577  0.84372  0.83800  Biso   1.000  C
  O186     1.0000 0.97857  0.81548  0.84861  Biso   1.000  O
  O187     1.0000 0.97856  0.81548  0.84858  Biso   1.000  O
  C1208    1.0000 0.83299  0.81598  0.89969  Biso   1.000  C
  O188     1.0000 0.87347  0.76150  0.96890  Biso   1.000  O
  C1209    1.0000 0.83295  0.81598  0.89969  Biso   1.000  C
  C1210    1.0000 0.80539  0.94291  0.01891  Biso   1.000  C
  C1211    1.0000 0.80539  0.94291  0.01888  Biso   1.000  C
  O189     1.0000 0.12660  0.23850  0.03110  Biso   1.000  O
  C1212    1.0000 0.01472  0.29030  0.06749  Biso   1.000  C
  C1213    1.0000 0.01468  0.29030  0.06749  Biso   1.000  C
  C1214    1.0000 0.27513  0.08312  0.35901  Biso   1.000  C
  H1005    1.0000 0.22262  0.02970  0.31071  Biso   1.000  H
  C1215    1.0000 0.24823  0.19510  0.37892  Biso   1.000  C
  H1006    1.0000 0.17494  0.22848  0.34610  Biso   1.000  H
  C1216    1.0000 0.24823  0.19510  0.37888  Biso   1.000  C
  C1217    1.0000 0.11216  0.05699  0.83430  Biso   1.000  C
  H1007    1.0000 0.10508  0.21332  0.96540  Biso   1.000  H
  H1008    1.0000 0.10591  0.14691  0.00549  Biso   1.000  H
  H1009    1.0000 0.32269  0.15270  0.06958  Biso   1.000  H
  H1010    1.0000 0.31799  0.24111  0.07230  Biso   1.000  H
  C1218    1.0000 0.36441  0.19600  0.12650  Biso   1.000  C
  H1011    1.0000 0.52210  0.89472  0.21201  Biso   1.000  H
  H1012    1.0000 0.52210  0.89472  0.21198  Biso   1.000  H
  C1219    1.0000 0.89425  0.87302  0.79001  Biso   1.000  C
  C1220    1.0000 0.83747  0.84231  0.85599  Biso   1.000  C
  C1221    1.0000 0.89425  0.87302  0.78998  Biso   1.000  C
  C1222    1.0000 0.00747  0.87338  0.85029  Biso   1.000  C
  C1223    1.0000 0.78086  0.81950  0.92221  Biso   1.000  C
  C1224    1.0000 0.78086  0.81950  0.92218  Biso   1.000  C
  C1225    1.0000 0.87432  0.80818  0.00439  Biso   1.000  C
  C1226    1.0000 0.80326  0.88370  0.99320  Biso   1.000  C
  C1227    1.0000 0.78282  0.00171  0.00031  Biso   1.000  C
  C1228    1.0000 0.78278  0.00171  0.00027  Biso   1.000  C
  C1229    1.0000 0.96719  0.29252  0.03320  Biso   1.000  C
  H1013    1.0000 0.04352  0.32640  0.05860  Biso   1.000  H
  H1014    1.0000 0.00429  0.30022  0.10189  Biso   1.000  H
  C1230    1.0000 0.28433  0.14279  0.38362  Biso   1.000  C
  H1015    1.0000 0.30302  0.04259  0.36261  Biso   1.000  H
  C1231    1.0000 0.28433  0.14279  0.38358  Biso   1.000  C
  H1016    1.0000 0.30302  0.04259  0.36258  Biso   1.000  H
  H1017    1.0000 0.25545  0.24132  0.39790  Biso   1.000  H
  C1232    1.0000 0.06436  0.05241  0.80560  Biso   1.000  C
  C1233    1.0000 0.39111  0.13649  0.13810  Biso   1.000  C
  C1234    1.0000 0.38011  0.25622  0.14809  Biso   1.000  C
  C1235    1.0000 0.84497  0.86180  0.75651  Biso   1.000  C
  H1018    1.0000 0.92507  0.84810  0.77371  Biso   1.000  H
  C1236    1.0000 0.90867  0.94588  0.79829  Biso   1.000  C
  C1237    1.0000 0.84497  0.86180  0.75648  Biso   1.000  C
  H1019    1.0000 0.92507  0.84810  0.77367  Biso   1.000  H
  H1020    1.0000 0.80348  0.86149  0.83601  Biso   1.000  H
  H1021    1.0000 0.80347  0.86149  0.83598  Biso   1.000  H
  O190     1.0000 0.99977  0.91350  0.80979  Biso   1.000  O
  H1022    1.0000 0.99657  0.90328  0.87879  Biso   1.000  H
  H1023    1.0000 0.04817  0.86029  0.85568  Biso   1.000  H
  C1238    1.0000 0.77836  0.88319  0.94889  Biso   1.000  C
  H1024    1.0000 0.77979  0.77762  0.94569  Biso   1.000  H
  C1239    1.0000 0.73255  0.81100  0.88510  Biso   1.000  C
  H1025    1.0000 0.77975  0.77762  0.94569  Biso   1.000  H
  O191     1.0000 0.82340  0.82600  0.01552  Biso   1.000  O
  O192     1.0000 0.82340  0.82600  0.01548  Biso   1.000  O
  H1026    1.0000 0.89417  0.85309  0.99451  Biso   1.000  H
  H1027    1.0000 0.89417  0.85309  0.99447  Biso   1.000  H
  H1028    1.0000 0.89500  0.78668  0.03460  Biso   1.000  H
  C1240    1.0000 0.75796  0.00131  0.95599  Biso   1.000  C
  O193     1.0000 0.78140  0.05750  0.02860  Biso   1.000  O
  C1241    1.0000 0.93008  0.28698  0.00639  Biso   1.000  C
  H1029    1.0000 0.31943  0.14842  0.40621  Biso   1.000  H
  O194     1.0000 0.02657  0.04098  0.83790  Biso   1.000  O
  H1030    1.0000 0.06508  0.01208  0.78088  Biso   1.000  H
  H1031    1.0000 0.05676  0.09949  0.78778  Biso   1.000  H
  H1032    1.0000 0.06504  0.01208  0.78088  Biso   1.000  H
  C1242    1.0000 0.43341  0.13710  0.17120  Biso   1.000  C
  H1033    1.0000 0.37900  0.08992  0.12138  Biso   1.000  H
  C1243    1.0000 0.42240  0.25692  0.18118  Biso   1.000  C
  H1034    1.0000 0.35952  0.30239  0.13910  Biso   1.000  H
  C1244    1.0000 0.85695  0.87821  0.70739  Biso   1.000  C
  H1035    1.0000 0.81396  0.89412  0.76609  Biso   1.000  H
  H1036    1.0000 0.83276  0.80989  0.75809  Biso   1.000  H
  C1245    1.0000 0.96106  0.96058  0.80931  Biso   1.000  C
  C1246    1.0000 0.96106  0.96058  0.80927  Biso   1.000  C
  C1247    1.0000 0.87166  0.99738  0.79650  Biso   1.000  C
  C1248    1.0000 0.75579  0.94210  0.93031  Biso   1.000  C
  C1249    1.0000 0.75575  0.94210  0.93028  Biso   1.000  C
  H1037    1.0000 0.73826  0.76609  0.86540  Biso   1.000  H
  H1038    1.0000 0.72995  0.85419  0.86258  Biso   1.000  H
  C1250    1.0000 0.68127  0.80490  0.90790  Biso   1.000  C
  C1251    1.0000 0.73577  0.06842  0.93649  Biso   1.000  C
  C1252    1.0000 0.81810  0.10528  0.02310  Biso   1.000  C
  C1253    1.0000 0.88608  0.27590  0.97089  Biso   1.000  C
  C1254    1.0000 0.97666  0.02689  0.81851  Biso   1.000  C
  C1255    1.0000 0.97666  0.02689  0.81847  Biso   1.000  C
  C1256    1.0000 0.44902  0.19731  0.19279  Biso   1.000  C
  H1039    1.0000 0.45403  0.09098  0.18019  Biso   1.000  H
  H1040    1.0000 0.43451  0.30349  0.19790  Biso   1.000  H
  C1257    1.0000 0.80645  0.87171  0.67491  Biso   1.000  C
  H1041    1.0000 0.87136  0.92921  0.70601  Biso   1.000  H
  H1042    1.0000 0.88607  0.84382  0.69671  Biso   1.000  H
  C1258    1.0000 0.80645  0.87171  0.67488  Biso   1.000  C
  H1043    1.0000 0.87135  0.92921  0.70598  Biso   1.000  H
  H1044    1.0000 0.88603  0.84382  0.69668  Biso   1.000  H
  C1259    1.0000 0.88727  0.06359  0.80580  Biso   1.000  C
  H1045    1.0000 0.83107  0.98600  0.78799  Biso   1.000  H
  H1046    1.0000 0.73649  0.94170  0.89599  Biso   1.000  H
  H1047    1.0000 0.73645  0.94170  0.89599  Biso   1.000  H
  H1048    1.0000 0.67739  0.84730  0.93042  Biso   1.000  H
  H1049    1.0000 0.68208  0.75889  0.92770  Biso   1.000  H
  C1260    1.0000 0.63566  0.80400  0.87350  Biso   1.000  C
  H1050    1.0000 0.67738  0.84730  0.93038  Biso   1.000  H
  H1051    1.0000 0.72237  0.09908  0.96361  Biso   1.000  H
  C1261    1.0000 0.68768  0.05568  0.90409  Biso   1.000  C
  C1262    1.0000 0.77968  0.10689  0.91569  Biso   1.000  C
  H1052    1.0000 0.72237  0.09908  0.96358  Biso   1.000  H
  O195     1.0000 0.80289  0.15638  0.99138  Biso   1.000  O
  H1053    1.0000 0.82850  0.12839  0.05609  Biso   1.000  H
  H1054    1.0000 0.85181  0.08061  0.01140  Biso   1.000  H
  O196     1.0000 0.89498  0.20522  0.96080  Biso   1.000  O
  H1055    1.0000 0.84856  0.28401  0.98380  Biso   1.000  H
  H1056    1.0000 0.88957  0.30742  0.94120  Biso   1.000  H
  C1263    1.0000 0.93977  0.07839  0.81679  Biso   1.000  C
  H1057    1.0000 0.48183  0.19781  0.21850  Biso   1.000  H
  C1264    1.0000 0.77035  0.92408  0.67021  Biso   1.000  C
  C1265    1.0000 0.79725  0.81210  0.65030  Biso   1.000  C
  C1266    1.0000 0.77035  0.92408  0.67017  Biso   1.000  C
  C1267    1.0000 0.84836  0.12109  0.80409  Biso   1.000  C
  C1268    1.0000 0.60897  0.86351  0.86190  Biso   1.000  C
  C1269    1.0000 0.61997  0.74378  0.85191  Biso   1.000  C
  C1270    1.0000 0.61997  0.74378  0.85187  Biso   1.000  C
  H1058    1.0000 0.66068  0.02331  0.91981  Biso   1.000  H
  H1059    1.0000 0.69928  0.03212  0.87329  Biso   1.000  H
  C1271    1.0000 0.66206  0.12300  0.89200  Biso   1.000  C
  H1060    1.0000 0.66068  0.02331  0.91977  Biso   1.000  H
  C1272    1.0000 0.81248  0.14560  0.94569  Biso   1.000  C
  C1273    1.0000 0.79016  0.10019  0.86990  Biso   1.000  C
  C1274    1.0000 0.85569  0.17752  0.92990  Biso   1.000  C
  O197     1.0000 0.95775  0.14399  0.82300  Biso   1.000  O
  C1275    1.0000 0.72494  0.91688  0.64099  Biso   1.000  C
  H1061    1.0000 0.77746  0.97030  0.68929  Biso   1.000  H
  C1276    1.0000 0.75184  0.80490  0.62108  Biso   1.000  C
  H1062    1.0000 0.82514  0.77152  0.65390  Biso   1.000  H
  C1277    1.0000 0.83337  0.13211  0.85410  Biso   1.000  C
  H1063    1.0000 0.86597  0.16589  0.79149  Biso   1.000  H
  C1278    1.0000 0.80065  0.11021  0.76880  Biso   1.000  C
  C1279    1.0000 0.56667  0.86290  0.82880  Biso   1.000  C
  H1064    1.0000 0.62108  0.91008  0.87862  Biso   1.000  H
  H1065    1.0000 0.62108  0.91008  0.87858  Biso   1.000  H
  C1280    1.0000 0.57768  0.74308  0.81882  Biso   1.000  C
  H1066    1.0000 0.64055  0.69761  0.86090  Biso   1.000  H
  C1281    1.0000 0.57767  0.74308  0.81878  Biso   1.000  C
  H1067    1.0000 0.65456  0.14852  0.92341  Biso   1.000  H
  H1068    1.0000 0.68808  0.15301  0.87340  Biso   1.000  H
  C1282    1.0000 0.61105  0.11268  0.86138  Biso   1.000  C
  H1069    1.0000 0.65455  0.14852  0.92338  Biso   1.000  H
  H1070    1.0000 0.76477  0.07018  0.84669  Biso   1.000  H
  C1283    1.0000 0.86606  0.17078  0.88421  Biso   1.000  C
  C1284    1.0000 0.86606  0.17078  0.88418  Biso   1.000  C
  C1285    1.0000 0.95255  0.17189  0.86770  Biso   1.000  C
  C1286    1.0000 0.71574  0.85721  0.61638  Biso   1.000  C
  H1071    1.0000 0.69706  0.95741  0.63739  Biso   1.000  H
  H1072    1.0000 0.74463  0.75868  0.60210  Biso   1.000  H
  H1073    1.0000 0.81377  0.09370  0.73650  Biso   1.000  H
  H1074    1.0000 0.77577  0.07220  0.78171  Biso   1.000  H
  C1287    1.0000 0.76895  0.17712  0.76149  Biso   1.000  C
  H1075    1.0000 0.77577  0.07220  0.78167  Biso   1.000  H
  C1288    1.0000 0.55106  0.80269  0.80721  Biso   1.000  C
  H1076    1.0000 0.54605  0.90902  0.81981  Biso   1.000  H
  C1289    1.0000 0.55106  0.80269  0.80718  Biso   1.000  C
  H1077    1.0000 0.54605  0.90902  0.81978  Biso   1.000  H
  H1078    1.0000 0.56557  0.69651  0.80210  Biso   1.000  H
  C1290    1.0000 0.58396  0.17209  0.84851  Biso   1.000  C
  C1291    1.0000 0.58867  0.05060  0.84789  Biso   1.000  C
  C1292    1.0000 0.58396  0.17209  0.84847  Biso   1.000  C
  O198     1.0000 0.90655  0.20778  0.86959  Biso   1.000  O
  H1079    1.0000 0.98497  0.20532  0.87638  Biso   1.000  H
  H1080    1.0000 0.95356  0.13110  0.89221  Biso   1.000  H
  H1081    1.0000 0.95356  0.13110  0.89217  Biso   1.000  H
  H1082    1.0000 0.68064  0.85158  0.59379  Biso   1.000  H
  H1083    1.0000 0.79336  0.21458  0.74752  Biso   1.000  H
  H1084    1.0000 0.75697  0.19459  0.79400  Biso   1.000  H
  C1293    1.0000 0.72057  0.16610  0.72809  Biso   1.000  C
  H1085    1.0000 0.79336  0.21458  0.74748  Biso   1.000  H
  H1086    1.0000 0.51825  0.80219  0.78150  Biso   1.000  H
  C1294    1.0000 0.53638  0.16952  0.82201  Biso   1.000  C
  H1087    1.0000 0.60066  0.22022  0.85901  Biso   1.000  H
  C1295    1.0000 0.53637  0.16952  0.82197  Biso   1.000  C
  H1088    1.0000 0.60065  0.22022  0.85898  Biso   1.000  H
  C1296    1.0000 0.54105  0.04798  0.82139  Biso   1.000  C
  H1089    1.0000 0.60897  0.00458  0.85792  Biso   1.000  H
  H1090    1.0000 0.60896  0.00458  0.85788  Biso   1.000  H
  C1297    1.0000 0.67044  0.17158  0.74209  Biso   1.000  C
  C1298    1.0000 0.72765  0.15321  0.68209  Biso   1.000  C
  C1299    1.0000 0.51485  0.10739  0.80848  Biso   1.000  C
  H1091    1.0000 0.51616  0.21549  0.81198  Biso   1.000  H
  H1092    1.0000 0.52447  0.99990  0.81089  Biso   1.000  H
  C1300    1.0000 0.62734  0.16408  0.71030  Biso   1.000  C
  H1093    1.0000 0.66497  0.18160  0.77769  Biso   1.000  H
  C1301    1.0000 0.68454  0.14571  0.65019  Biso   1.000  C
  H1094    1.0000 0.76645  0.14898  0.67120  Biso   1.000  H
  H1095    1.0000 0.47797  0.10528  0.78799  Biso   1.000  H
  C1302    1.0000 0.63447  0.15119  0.66430  Biso   1.000  C
  H1096    1.0000 0.58854  0.16831  0.72119  Biso   1.000  H
  H1097    1.0000 0.69006  0.13569  0.61470  Biso   1.000  H
  H1098    1.0000 0.60106  0.14540  0.63959  Biso   1.000  H
  O199     1.0000 0.09353  0.79222  0.13041  Biso   1.000  O
  C1303    1.0000 0.13402  0.82922  0.11579  Biso   1.000  C
  C1304    1.0000 0.04752  0.82811  0.13230  Biso   1.000  C
  C1305    1.0000 0.16671  0.86789  0.14590  Biso   1.000  C
  C1306    1.0000 0.14439  0.82248  0.07010  Biso   1.000  C
  O200     1.0000 0.09352  0.79222  0.13038  Biso   1.000  O
  O201     1.0000 0.04233  0.85601  0.17700  Biso   1.000  O
  H1099    1.0000 0.04652  0.86890  0.10779  Biso   1.000  H
  H1100    1.0000 0.01511  0.79468  0.12362  Biso   1.000  H
  H1101    1.0000 0.01510  0.79468  0.12358  Biso   1.000  H
  C1307    1.0000 0.15172  0.87891  0.19591  Biso   1.000  C
  C1308    1.0000 0.15172  0.87891  0.19588  Biso   1.000  C
  C1309    1.0000 0.20992  0.89981  0.13010  Biso   1.000  C
  C1310    1.0000 0.18759  0.85440  0.05431  Biso   1.000  C
  C1311    1.0000 0.18759  0.85440  0.05427  Biso   1.000  C
  O202     1.0000 0.10510  0.79478  0.03920  Biso   1.000  O
  C1312    1.0000 0.06031  0.92161  0.18321  Biso   1.000  C
  C1313    1.0000 0.06031  0.92161  0.18318  Biso   1.000  C
  C1314    1.0000 0.19943  0.88979  0.23120  Biso   1.000  C
  C1315    1.0000 0.11281  0.93641  0.19420  Biso   1.000  C
  H1102    1.0000 0.13411  0.83411  0.20851  Biso   1.000  H
  H1103    1.0000 0.13411  0.83411  0.20848  Biso   1.000  H
  H1104    1.0000 0.23531  0.92982  0.15331  Biso   1.000  H
  C1316    1.0000 0.22040  0.89311  0.08431  Biso   1.000  C
  H1105    1.0000 0.23530  0.92982  0.15328  Biso   1.000  H
  C1317    1.0000 0.22039  0.89311  0.08428  Biso   1.000  C
  O203     1.0000 0.19719  0.84362  0.00862  Biso   1.000  O
  O204     1.0000 0.19719  0.84362  0.00858  Biso   1.000  O
  C1318    1.0000 0.11400  0.72410  0.02911  Biso   1.000  C
  C1319    1.0000 0.11400  0.72410  0.02908  Biso   1.000  C
  C1320    1.0000 0.02342  0.97311  0.18149  Biso   1.000  C
  C1321    1.0000 0.23113  0.82288  0.23851  Biso   1.000  C
  C1322    1.0000 0.23113  0.82288  0.23848  Biso   1.000  C
  H1106    1.0000 0.18631  0.90630  0.26350  Biso   1.000  H
  H1107    1.0000 0.22430  0.92780  0.21829  Biso   1.000  H
  C1323    1.0000 0.12842  0.00262  0.20350  Biso   1.000  C
  C1324    1.0000 0.26431  0.93158  0.06351  Biso   1.000  C
  C1325    1.0000 0.26431  0.93158  0.06347  Biso   1.000  C
  C1326    1.0000 0.18198  0.89472  0.97690  Biso   1.000  C
  H1108    1.0000 0.15151  0.71599  0.01620  Biso   1.000  H
  H1109    1.0000 0.11051  0.69258  0.05880  Biso   1.000  H
  C1327    1.0000 0.06999  0.71302  0.99361  Biso   1.000  C
  C1328    1.0000 0.06999  0.71302  0.99358  Biso   1.000  C
  O205     1.0000 0.97350  0.95902  0.16210  Biso   1.000  O
  C1329    1.0000 0.03902  0.03942  0.19069  Biso   1.000  C
  C1330    1.0000 0.27951  0.83390  0.27191  Biso   1.000  C
  C1331    1.0000 0.27951  0.83390  0.27188  Biso   1.000  C
  H1110    1.0000 0.20671  0.78542  0.25248  Biso   1.000  H
  H1111    1.0000 0.24311  0.80541  0.20600  Biso   1.000  H
  H1112    1.0000 0.16901  0.01400  0.21201  Biso   1.000  H
  C1332    1.0000 0.09140  0.05412  0.20171  Biso   1.000  C
  H1113    1.0000 0.16900  0.01400  0.21198  Biso   1.000  H
  C1333    1.0000 0.09140  0.05412  0.20168  Biso   1.000  C
  H1114    1.0000 0.27771  0.90092  0.03639  Biso   1.000  H
  C1334    1.0000 0.24212  0.99869  0.04401  Biso   1.000  C
  C1335    1.0000 0.31240  0.94432  0.09591  Biso   1.000  C
  C1336    1.0000 0.24211  0.99869  0.04397  Biso   1.000  C
  C1337    1.0000 0.31239  0.94432  0.09588  Biso   1.000  C
  O206     1.0000 0.21867  0.94250  0.97140  Biso   1.000  O
  H1115    1.0000 0.17157  0.87161  0.94391  Biso   1.000  H
  H1116    1.0000 0.14827  0.91939  0.98860  Biso   1.000  H
  H1117    1.0000 0.17157  0.87161  0.94387  Biso   1.000  H
  C1338    1.0000 0.03289  0.70748  0.96680  Biso   1.000  C
  C1339    1.0000 0.93572  0.94759  0.19440  Biso   1.000  C
  O207     1.0000 0.00031  0.08650  0.19021  Biso   1.000  O
  O208     1.0000 0.00030  0.08650  0.19018  Biso   1.000  O
  C1340    1.0000 0.32964  0.82842  0.25791  Biso   1.000  C
  C1341    1.0000 0.32963  0.82842  0.25787  Biso   1.000  C
  C1342    1.0000 0.27242  0.84679  0.31791  Biso   1.000  C
  C1343    1.0000 0.27242  0.84679  0.31788  Biso   1.000  C
  C1344    1.0000 0.10583  0.12698  0.20999  Biso   1.000  C
  C1345    1.0000 0.21726  0.99829  0.99969  Biso   1.000  C
  C1346    1.0000 0.24429  0.05790  0.06969  Biso   1.000  C
  H1118    1.0000 0.33940  0.97669  0.08019  Biso   1.000  H
  H1119    1.0000 0.30080  0.96788  0.12671  Biso   1.000  H
  C1347    1.0000 0.33801  0.87700  0.10800  Biso   1.000  C
  C1348    1.0000 0.98536  0.70970  0.93251  Biso   1.000  C
  C1349    1.0000 0.98535  0.70970  0.93248  Biso   1.000  C
  C1350    1.0000 0.88792  0.94301  0.16570  Biso   1.000  C
  H1120    1.0000 0.93500  0.98792  0.21912  Biso   1.000  H
  H1121    1.0000 0.94332  0.90051  0.21222  Biso   1.000  H
  H1122    1.0000 0.93500  0.98792  0.21908  Biso   1.000  H
  H1123    1.0000 0.94332  0.90051  0.21218  Biso   1.000  H
  C1351    1.0000 0.99261  0.12662  0.14971  Biso   1.000  C
  C1352    1.0000 0.37274  0.83592  0.28970  Biso   1.000  C
  H1124    1.0000 0.33511  0.81840  0.22231  Biso   1.000  H
  H1125    1.0000 0.33510  0.81840  0.22228  Biso   1.000  H
  C1353    1.0000 0.31553  0.85429  0.34981  Biso   1.000  C
  H1126    1.0000 0.23362  0.85102  0.32880  Biso   1.000  H
  C1354    1.0000 0.11431  0.15628  0.16200  Biso   1.000  C
  C1355    1.0000 0.15511  0.13820  0.24349  Biso   1.000  C
  H1127    1.0000 0.07501  0.15190  0.22629  Biso   1.000  H
  C1356    1.0000 0.19469  0.05709  0.98109  Biso   1.000  C
  C1357    1.0000 0.22172  0.11681  0.05111  Biso   1.000  C
  H1128    1.0000 0.26359  0.05830  0.10401  Biso   1.000  H
  C1358    1.0000 0.22171  0.11681  0.05108  Biso   1.000  C
  H1129    1.0000 0.26359  0.05830  0.10398  Biso   1.000  H
  H1130    1.0000 0.34552  0.85148  0.07659  Biso   1.000  H
  H1131    1.0000 0.31199  0.84699  0.12660  Biso   1.000  H
  C1359    1.0000 0.38903  0.88732  0.13862  Biso   1.000  C
  C1360    1.0000 0.38902  0.88732  0.13858  Biso   1.000  C
  O209     1.0000 0.96768  0.77621  0.93660  Biso   1.000  O
  H1132    1.0000 0.95656  0.67360  0.94140  Biso   1.000  H
  H1133    1.0000 0.99579  0.69978  0.89811  Biso   1.000  H
  H1134    1.0000 0.99575  0.69978  0.89808  Biso   1.000  H
  C1361    1.0000 0.85090  0.94019  0.13821  Biso   1.000  C
  H1135    1.0000 0.95191  0.13971  0.14432  Biso   1.000  H
  H1136    1.0000 0.95190  0.13971  0.14428  Biso   1.000  H
  H1137    1.0000 0.00351  0.09672  0.12121  Biso   1.000  H
  O210     1.0000 0.02151  0.18452  0.15139  Biso   1.000  O
  H1138    1.0000 0.00350  0.09672  0.12118  Biso   1.000  H
  C1362    1.0000 0.36561  0.84881  0.33570  Biso   1.000  C
  H1139    1.0000 0.41154  0.83169  0.27881  Biso   1.000  H
  H1140    1.0000 0.41153  0.83169  0.27878  Biso   1.000  H
  H1141    1.0000 0.31002  0.86431  0.38530  Biso   1.000  H
  C1363    1.0000 0.16261  0.15769  0.14401  Biso   1.000  C
  C1364    1.0000 0.07040  0.18110  0.13621  Biso   1.000  C
  C1365    1.0000 0.16261  0.15769  0.14397  Biso   1.000  C
  C1366    1.0000 0.07040  0.18110  0.13618  Biso   1.000  C
  C1367    1.0000 0.14313  0.12179  0.29261  Biso   1.000  C
  H1142    1.0000 0.18612  0.10588  0.23391  Biso   1.000  H
  H1143    1.0000 0.16732  0.19011  0.24191  Biso   1.000  H
  C1368    1.0000 0.14313  0.12179  0.29258  Biso   1.000  C
  H1144    1.0000 0.18612  0.10588  0.23388  Biso   1.000  H
  H1145    1.0000 0.16732  0.19011  0.24188  Biso   1.000  H
  O211     1.0000 0.16376  0.05302  0.94020  Biso   1.000  O
  C1369    1.0000 0.19682  0.11630  0.00680  Biso   1.000  C
  C1370    1.0000 0.19678  0.11630  0.00680  Biso   1.000  C
  C1371    1.0000 0.21921  0.18050  0.07779  Biso   1.000  C
  C1372    1.0000 0.41612  0.82791  0.15149  Biso   1.000  C
  C1373    1.0000 0.41141  0.94940  0.15211  Biso   1.000  C
  C1374    1.0000 0.41140  0.94940  0.15207  Biso   1.000  C
  C1375    1.0000 0.92527  0.79262  0.90749  Biso   1.000  C
  C1376    1.0000 0.81003  0.93868  0.09941  Biso   1.000  C
  C1377    1.0000 0.81002  0.93868  0.09938  Biso   1.000  C
  H1146    1.0000 0.39902  0.85460  0.36041  Biso   1.000  H
  H1147    1.0000 0.39902  0.85460  0.36038  Biso   1.000  H
  C1378    1.0000 0.16709  0.18402  0.10031  Biso   1.000  C
  H1148    1.0000 0.19660  0.13851  0.16399  Biso   1.000  H
  C1379    1.0000 0.16709  0.18402  0.10027  Biso   1.000  C
  C1380    1.0000 0.07480  0.20738  0.09251  Biso   1.000  C
  C1381    1.0000 0.07480  0.20738  0.09248  Biso   1.000  C
  C1382    1.0000 0.19363  0.12829  0.32509  Biso   1.000  C
  H1149    1.0000 0.12872  0.07079  0.29399  Biso   1.000  H
  H1150    1.0000 0.11401  0.15618  0.30329  Biso   1.000  H
  C1383    1.0000 0.19005  0.06132  0.90059  Biso   1.000  C
  O212     1.0000 0.17668  0.17400  0.98448  Biso   1.000  O
  H1151    1.0000 0.22029  0.22238  0.05431  Biso   1.000  H
  C1384    1.0000 0.26753  0.18900  0.11490  Biso   1.000  C
  H1152    1.0000 0.22028  0.22238  0.05427  Biso   1.000  H
  C1385    1.0000 0.26749  0.18900  0.11490  Biso   1.000  C
  C1386    1.0000 0.46370  0.83048  0.17799  Biso   1.000  C
  H1153    1.0000 0.39942  0.77978  0.14099  Biso   1.000  H
  H1154    1.0000 0.39111  0.99542  0.14208  Biso   1.000  H
  C1387    1.0000 0.45903  0.95202  0.17861  Biso   1.000  C
  C1388    1.0000 0.45903  0.95202  0.17858  Biso   1.000  C
  C1389    1.0000 0.92968  0.81890  0.86379  Biso   1.000  C
  C1390    1.0000 0.87686  0.79121  0.92551  Biso   1.000  C
  C1391    1.0000 0.87686  0.79121  0.92547  Biso   1.000  C
  O213     1.0000 0.83631  0.94698  0.05980  Biso   1.000  O
  H1155    1.0000 0.78127  0.97790  0.10281  Biso   1.000  H
  H1156    1.0000 0.79092  0.89019  0.09838  Biso   1.000  H
  H1157    1.0000 0.78127  0.97790  0.10278  Biso   1.000  H
  C1392    1.0000 0.12322  0.20879  0.07449  Biso   1.000  C
  O214     1.0000 0.03239  0.22379  0.06340  Biso   1.000  O
  C1393    1.0000 0.22973  0.07592  0.32979  Biso   1.000  C
  C1394    1.0000 0.20283  0.18790  0.34970  Biso   1.000  C
  C1395    1.0000 0.14917  0.05981  0.86179  Biso   1.000  C
  H1158    1.0000 0.21880  0.02210  0.89719  Biso   1.000  H
  H1159    1.0000 0.20916  0.10981  0.90162  Biso   1.000  H
  H1160    1.0000 0.20915  0.10981  0.90158  Biso   1.000  H
  C1396    1.0000 0.12576  0.19182  0.99561  Biso   1.000  C
  H1161    1.0000 0.26182  0.23391  0.13460  Biso   1.000  H
  H1162    1.0000 0.27012  0.14581  0.13742  Biso   1.000  H
  C1397    1.0000 0.31881  0.19510  0.09210  Biso   1.000  C
  H1163    1.0000 0.27012  0.14581  0.13738  Biso   1.000  H
  C1398    1.0000 0.48523  0.89261  0.19152  Biso   1.000  C
  H1164    1.0000 0.48392  0.78451  0.18802  Biso   1.000  H
  C1399    1.0000 0.48523  0.89261  0.19148  Biso   1.000  C
  H1165    1.0000 0.48392  0.78451  0.18798  Biso   1.000  H
  H1166    1.0000 0.47561  0.00010  0.18911  Biso   1.000  H
  H1167    1.0000 0.47561  0.00010  0.18908  Biso   1.000  H
  C1400    1.0000 0.88577  0.84372  0.83800  Biso   1.000  C
  O215     1.0000 0.97857  0.81548  0.84861  Biso   1.000  O
  O216     1.0000 0.97856  0.81548  0.84858  Biso   1.000  O
  C1401    1.0000 0.83299  0.81598  0.89969  Biso   1.000  C
  O217     1.0000 0.87347  0.76150  0.96890  Biso   1.000  O
  C1402    1.0000 0.83295  0.81598  0.89969  Biso   1.000  C
  C1403    1.0000 0.80539  0.94291  0.01891  Biso   1.000  C
  C1404    1.0000 0.80539  0.94291  0.01888  Biso   1.000  C
  O218     1.0000 0.12660  0.23850  0.03110  Biso   1.000  O
  C1405    1.0000 0.01472  0.29030  0.06749  Biso   1.000  C
  C1406    1.0000 0.01468  0.29030  0.06749  Biso   1.000  C
  C1407    1.0000 0.27513  0.08312  0.35901  Biso   1.000  C
  H1168    1.0000 0.22262  0.02970  0.31071  Biso   1.000  H
  C1408    1.0000 0.24823  0.19510  0.37892  Biso   1.000  C
  H1169    1.0000 0.17494  0.22848  0.34610  Biso   1.000  H
  C1409    1.0000 0.24823  0.19510  0.37888  Biso   1.000  C
  C1410    1.0000 0.11216  0.05699  0.83430  Biso   1.000  C
  H1170    1.0000 0.10508  0.21332  0.96540  Biso   1.000  H
  H1171    1.0000 0.10591  0.14691  0.00549  Biso   1.000  H
  H1172    1.0000 0.32269  0.15270  0.06958  Biso   1.000  H
  H1173    1.0000 0.31799  0.24111  0.07230  Biso   1.000  H
  C1411    1.0000 0.36441  0.19600  0.12650  Biso   1.000  C
  H1174    1.0000 0.52210  0.89472  0.21201  Biso   1.000  H
  H1175    1.0000 0.52210  0.89472  0.21198  Biso   1.000  H
  C1412    1.0000 0.89425  0.87302  0.79001  Biso   1.000  C
  C1413    1.0000 0.83747  0.84231  0.85599  Biso   1.000  C
  C1414    1.0000 0.89425  0.87302  0.78998  Biso   1.000  C
  C1415    1.0000 0.00747  0.87338  0.85029  Biso   1.000  C
  C1416    1.0000 0.78086  0.81950  0.92221  Biso   1.000  C
  C1417    1.0000 0.78086  0.81950  0.92218  Biso   1.000  C
  C1418    1.0000 0.87432  0.80818  0.00439  Biso   1.000  C
  C1419    1.0000 0.80326  0.88370  0.99320  Biso   1.000  C
  C1420    1.0000 0.78282  0.00171  0.00031  Biso   1.000  C
  C1421    1.0000 0.78278  0.00171  0.00027  Biso   1.000  C
  C1422    1.0000 0.96719  0.29252  0.03320  Biso   1.000  C
  H1176    1.0000 0.04352  0.32640  0.05860  Biso   1.000  H
  H1177    1.0000 0.00429  0.30022  0.10189  Biso   1.000  H
  C1423    1.0000 0.28433  0.14279  0.38362  Biso   1.000  C
  H1178    1.0000 0.30302  0.04259  0.36261  Biso   1.000  H
  C1424    1.0000 0.28433  0.14279  0.38358  Biso   1.000  C
  H1179    1.0000 0.30302  0.04259  0.36258  Biso   1.000  H
  H1180    1.0000 0.25545  0.24132  0.39790  Biso   1.000  H
  C1425    1.0000 0.06436  0.05241  0.80560  Biso   1.000  C
  C1426    1.0000 0.39111  0.13649  0.13810  Biso   1.000  C
  C1427    1.0000 0.38011  0.25622  0.14809  Biso   1.000  C
  C1428    1.0000 0.84497  0.86180  0.75651  Biso   1.000  C
  H1181    1.0000 0.92507  0.84810  0.77371  Biso   1.000  H
  C1429    1.0000 0.90867  0.94588  0.79829  Biso   1.000  C
  C1430    1.0000 0.84497  0.86180  0.75648  Biso   1.000  C
  H1182    1.0000 0.92507  0.84810  0.77367  Biso   1.000  H
  H1183    1.0000 0.80348  0.86149  0.83601  Biso   1.000  H
  H1184    1.0000 0.80347  0.86149  0.83598  Biso   1.000  H
  O219     1.0000 0.99977  0.91350  0.80979  Biso   1.000  O
  H1185    1.0000 0.99657  0.90328  0.87879  Biso   1.000  H
  H1186    1.0000 0.04817  0.86029  0.85568  Biso   1.000  H
  C1431    1.0000 0.77836  0.88319  0.94889  Biso   1.000  C
  H1187    1.0000 0.77979  0.77762  0.94569  Biso   1.000  H
  C1432    1.0000 0.73255  0.81100  0.88510  Biso   1.000  C
  H1188    1.0000 0.77975  0.77762  0.94569  Biso   1.000  H
  O220     1.0000 0.82340  0.82600  0.01552  Biso   1.000  O
  O221     1.0000 0.82340  0.82600  0.01548  Biso   1.000  O
  H1189    1.0000 0.89417  0.85309  0.99451  Biso   1.000  H
  H1190    1.0000 0.89417  0.85309  0.99447  Biso   1.000  H
  H1191    1.0000 0.89500  0.78668  0.03460  Biso   1.000  H
  C1433    1.0000 0.75796  0.00131  0.95599  Biso   1.000  C
  O222     1.0000 0.78140  0.05750  0.02860  Biso   1.000  O
  C1434    1.0000 0.93008  0.28698  0.00639  Biso   1.000  C
  H1192    1.0000 0.31943  0.14842  0.40621  Biso   1.000  H
  O223     1.0000 0.02657  0.04098  0.83790  Biso   1.000  O
  H1193    1.0000 0.06508  0.01208  0.78088  Biso   1.000  H
  H1194    1.0000 0.05676  0.09949  0.78778  Biso   1.000  H
  H1195    1.0000 0.06504  0.01208  0.78088  Biso   1.000  H
  C1435    1.0000 0.43341  0.13710  0.17120  Biso   1.000  C
  H1196    1.0000 0.37900  0.08992  0.12138  Biso   1.000  H
  C1436    1.0000 0.42240  0.25692  0.18118  Biso   1.000  C
  H1197    1.0000 0.35952  0.30239  0.13910  Biso   1.000  H
  C1437    1.0000 0.85695  0.87821  0.70739  Biso   1.000  C
  H1198    1.0000 0.81396  0.89412  0.76609  Biso   1.000  H
  H1199    1.0000 0.83276  0.80989  0.75809  Biso   1.000  H
  C1438    1.0000 0.96106  0.96058  0.80931  Biso   1.000  C
  C1439    1.0000 0.96106  0.96058  0.80927  Biso   1.000  C
  C1440    1.0000 0.87166  0.99738  0.79650  Biso   1.000  C
  C1441    1.0000 0.75579  0.94210  0.93031  Biso   1.000  C
  C1442    1.0000 0.75575  0.94210  0.93028  Biso   1.000  C
  H1200    1.0000 0.73826  0.76609  0.86540  Biso   1.000  H
  H1201    1.0000 0.72995  0.85419  0.86258  Biso   1.000  H
  C1443    1.0000 0.68127  0.80490  0.90790  Biso   1.000  C
  C1444    1.0000 0.73577  0.06842  0.93649  Biso   1.000  C
  C1445    1.0000 0.81810  0.10528  0.02310  Biso   1.000  C
  C1446    1.0000 0.88608  0.27590  0.97089  Biso   1.000  C
  C1447    1.0000 0.97666  0.02689  0.81851  Biso   1.000  C
  C1448    1.0000 0.97666  0.02689  0.81847  Biso   1.000  C
  C1449    1.0000 0.44902  0.19731  0.19279  Biso   1.000  C
  H1202    1.0000 0.45403  0.09098  0.18019  Biso   1.000  H
  H1203    1.0000 0.43451  0.30349  0.19790  Biso   1.000  H
  C1450    1.0000 0.80645  0.87171  0.67491  Biso   1.000  C
  H1204    1.0000 0.87136  0.92921  0.70601  Biso   1.000  H
  H1205    1.0000 0.88607  0.84382  0.69671  Biso   1.000  H
  C1451    1.0000 0.80645  0.87171  0.67488  Biso   1.000  C
  H1206    1.0000 0.87135  0.92921  0.70598  Biso   1.000  H
  H1207    1.0000 0.88603  0.84382  0.69668  Biso   1.000  H
  C1452    1.0000 0.88727  0.06359  0.80580  Biso   1.000  C
  H1208    1.0000 0.83107  0.98600  0.78799  Biso   1.000  H
  H1209    1.0000 0.73649  0.94170  0.89599  Biso   1.000  H
  H1210    1.0000 0.73645  0.94170  0.89599  Biso   1.000  H
  H1211    1.0000 0.67739  0.84730  0.93042  Biso   1.000  H
  H1212    1.0000 0.68208  0.75889  0.92770  Biso   1.000  H
  C1453    1.0000 0.63566  0.80400  0.87350  Biso   1.000  C
  H1213    1.0000 0.67738  0.84730  0.93038  Biso   1.000  H
  H1214    1.0000 0.72237  0.09908  0.96361  Biso   1.000  H
  C1454    1.0000 0.68768  0.05568  0.90409  Biso   1.000  C
  C1455    1.0000 0.77968  0.10689  0.91569  Biso   1.000  C
  H1215    1.0000 0.72237  0.09908  0.96358  Biso   1.000  H
  O224     1.0000 0.80289  0.15638  0.99138  Biso   1.000  O
  H1216    1.0000 0.82850  0.12839  0.05609  Biso   1.000  H
  H1217    1.0000 0.85181  0.08061  0.01140  Biso   1.000  H
  O225     1.0000 0.89498  0.20522  0.96080  Biso   1.000  O
  H1218    1.0000 0.84856  0.28401  0.98380  Biso   1.000  H
  H1219    1.0000 0.88957  0.30742  0.94120  Biso   1.000  H
  C1456    1.0000 0.93977  0.07839  0.81679  Biso   1.000  C
  H1220    1.0000 0.48183  0.19781  0.21850  Biso   1.000  H
  C1457    1.0000 0.77035  0.92408  0.67021  Biso   1.000  C
  C1458    1.0000 0.79725  0.81210  0.65030  Biso   1.000  C
  C1459    1.0000 0.77035  0.92408  0.67017  Biso   1.000  C
  C1460    1.0000 0.84836  0.12109  0.80409  Biso   1.000  C
  C1461    1.0000 0.60897  0.86351  0.86190  Biso   1.000  C
  C1462    1.0000 0.61997  0.74378  0.85191  Biso   1.000  C
  C1463    1.0000 0.61997  0.74378  0.85187  Biso   1.000  C
  H1221    1.0000 0.66068  0.02331  0.91981  Biso   1.000  H
  H1222    1.0000 0.69928  0.03212  0.87329  Biso   1.000  H
  C1464    1.0000 0.66206  0.12300  0.89200  Biso   1.000  C
  H1223    1.0000 0.66068  0.02331  0.91977  Biso   1.000  H
  C1465    1.0000 0.81248  0.14560  0.94569  Biso   1.000  C
  C1466    1.0000 0.79016  0.10019  0.86990  Biso   1.000  C
  C1467    1.0000 0.85569  0.17752  0.92990  Biso   1.000  C
  O226     1.0000 0.95775  0.14399  0.82300  Biso   1.000  O
  C1468    1.0000 0.72494  0.91688  0.64099  Biso   1.000  C
  H1224    1.0000 0.77746  0.97030  0.68929  Biso   1.000  H
  C1469    1.0000 0.75184  0.80490  0.62108  Biso   1.000  C
  H1225    1.0000 0.82514  0.77152  0.65390  Biso   1.000  H
  C1470    1.0000 0.83337  0.13211  0.85410  Biso   1.000  C
  H1226    1.0000 0.86597  0.16589  0.79149  Biso   1.000  H
  C1471    1.0000 0.80065  0.11021  0.76880  Biso   1.000  C
  C1472    1.0000 0.56667  0.86290  0.82880  Biso   1.000  C
  H1227    1.0000 0.62108  0.91008  0.87862  Biso   1.000  H
  H1228    1.0000 0.62108  0.91008  0.87858  Biso   1.000  H
  C1473    1.0000 0.57768  0.74308  0.81882  Biso   1.000  C
  H1229    1.0000 0.64055  0.69761  0.86090  Biso   1.000  H
  C1474    1.0000 0.57767  0.74308  0.81878  Biso   1.000  C
  H1230    1.0000 0.65456  0.14852  0.92341  Biso   1.000  H
  H1231    1.0000 0.68808  0.15301  0.87340  Biso   1.000  H
  C1475    1.0000 0.61105  0.11268  0.86138  Biso   1.000  C
  H1232    1.0000 0.65455  0.14852  0.92338  Biso   1.000  H
  H1233    1.0000 0.76477  0.07018  0.84669  Biso   1.000  H
  C1476    1.0000 0.86606  0.17078  0.88421  Biso   1.000  C
  C1477    1.0000 0.86606  0.17078  0.88418  Biso   1.000  C
  C1478    1.0000 0.95255  0.17189  0.86770  Biso   1.000  C
  C1479    1.0000 0.71574  0.85721  0.61638  Biso   1.000  C
  H1234    1.0000 0.69706  0.95741  0.63739  Biso   1.000  H
  H1235    1.0000 0.74463  0.75868  0.60210  Biso   1.000  H
  H1236    1.0000 0.81377  0.09370  0.73650  Biso   1.000  H
  H1237    1.0000 0.77577  0.07220  0.78171  Biso   1.000  H
  C1480    1.0000 0.76895  0.17712  0.76149  Biso   1.000  C
  H1238    1.0000 0.77577  0.07220  0.78167  Biso   1.000  H
  C1481    1.0000 0.55106  0.80269  0.80721  Biso   1.000  C
  H1239    1.0000 0.54605  0.90902  0.81981  Biso   1.000  H
  C1482    1.0000 0.55106  0.80269  0.80718  Biso   1.000  C
  H1240    1.0000 0.54605  0.90902  0.81978  Biso   1.000  H
  H1241    1.0000 0.56557  0.69651  0.80210  Biso   1.000  H
  C1483    1.0000 0.58396  0.17209  0.84851  Biso   1.000  C
  C1484    1.0000 0.58867  0.05060  0.84789  Biso   1.000  C
  C1485    1.0000 0.58396  0.17209  0.84847  Biso   1.000  C
  O227     1.0000 0.90655  0.20778  0.86959  Biso   1.000  O
  H1242    1.0000 0.98497  0.20532  0.87638  Biso   1.000  H
  H1243    1.0000 0.95356  0.13110  0.89221  Biso   1.000  H
  H1244    1.0000 0.95356  0.13110  0.89217  Biso   1.000  H
  H1245    1.0000 0.68064  0.85158  0.59379  Biso   1.000  H
  H1246    1.0000 0.79336  0.21458  0.74752  Biso   1.000  H
  H1247    1.0000 0.75697  0.19459  0.79400  Biso   1.000  H
  C1486    1.0000 0.72057  0.16610  0.72809  Biso   1.000  C
  H1248    1.0000 0.79336  0.21458  0.74748  Biso   1.000  H
  H1249    1.0000 0.51825  0.80219  0.78150  Biso   1.000  H
  C1487    1.0000 0.53638  0.16952  0.82201  Biso   1.000  C
  H1250    1.0000 0.60066  0.22022  0.85901  Biso   1.000  H
  C1488    1.0000 0.53637  0.16952  0.82197  Biso   1.000  C
  H1251    1.0000 0.60065  0.22022  0.85898  Biso   1.000  H
  C1489    1.0000 0.54105  0.04798  0.82139  Biso   1.000  C
  H1252    1.0000 0.60897  0.00458  0.85792  Biso   1.000  H
  H1253    1.0000 0.60896  0.00458  0.85788  Biso   1.000  H
  C1490    1.0000 0.67044  0.17158  0.74209  Biso   1.000  C
  C1491    1.0000 0.72765  0.15321  0.68209  Biso   1.000  C
  C1492    1.0000 0.51485  0.10739  0.80848  Biso   1.000  C
  H1254    1.0000 0.51616  0.21549  0.81198  Biso   1.000  H
  H1255    1.0000 0.52447  0.99990  0.81089  Biso   1.000  H
  C1493    1.0000 0.62734  0.16408  0.71030  Biso   1.000  C
  H1256    1.0000 0.66497  0.18160  0.77769  Biso   1.000  H
  C1494    1.0000 0.68454  0.14571  0.65019  Biso   1.000  C
  H1257    1.0000 0.76645  0.14898  0.67120  Biso   1.000  H
  H1258    1.0000 0.47797  0.10528  0.78799  Biso   1.000  H
  C1495    1.0000 0.63447  0.15119  0.66430  Biso   1.000  C
  H1259    1.0000 0.58854  0.16831  0.72119  Biso   1.000  H
  H1260    1.0000 0.69006  0.13569  0.61470  Biso   1.000  H
  H1261    1.0000 0.60106  0.14540  0.63959  Biso   1.000  H
  O228     1.0000 0.09353  0.79222  0.13041  Biso   1.000  O
  C1496    1.0000 0.13402  0.82922  0.11579  Biso   1.000  C
  C1497    1.0000 0.04752  0.82811  0.13230  Biso   1.000  C
  C1498    1.0000 0.16671  0.86789  0.14590  Biso   1.000  C
  C1499    1.0000 0.14439  0.82248  0.07010  Biso   1.000  C
  O229     1.0000 0.09352  0.79222  0.13038  Biso   1.000  O
  O230     1.0000 0.04233  0.85601  0.17700  Biso   1.000  O
  H1262    1.0000 0.04652  0.86890  0.10779  Biso   1.000  H
  H1263    1.0000 0.01511  0.79468  0.12362  Biso   1.000  H
  H1264    1.0000 0.01510  0.79468  0.12358  Biso   1.000  H
  C1500    1.0000 0.15172  0.87891  0.19591  Biso   1.000  C
  C1501    1.0000 0.15172  0.87891  0.19588  Biso   1.000  C
  C1502    1.0000 0.20992  0.89981  0.13010  Biso   1.000  C
  C1503    1.0000 0.18759  0.85440  0.05431  Biso   1.000  C
  C1504    1.0000 0.18759  0.85440  0.05427  Biso   1.000  C
  O231     1.0000 0.10510  0.79478  0.03920  Biso   1.000  O
  C1505    1.0000 0.06031  0.92161  0.18321  Biso   1.000  C
  C1506    1.0000 0.06031  0.92161  0.18318  Biso   1.000  C
  C1507    1.0000 0.19943  0.88979  0.23120  Biso   1.000  C
  C1508    1.0000 0.11281  0.93641  0.19420  Biso   1.000  C
  H1265    1.0000 0.13411  0.83411  0.20851  Biso   1.000  H
  H1266    1.0000 0.13411  0.83411  0.20848  Biso   1.000  H
  H1267    1.0000 0.23531  0.92982  0.15331  Biso   1.000  H
  C1509    1.0000 0.22040  0.89311  0.08431  Biso   1.000  C
  H1268    1.0000 0.23530  0.92982  0.15328  Biso   1.000  H
  C1510    1.0000 0.22039  0.89311  0.08428  Biso   1.000  C
  O232     1.0000 0.19719  0.84362  0.00862  Biso   1.000  O
  O233     1.0000 0.19719  0.84362  0.00858  Biso   1.000  O
  C1511    1.0000 0.11400  0.72410  0.02911  Biso   1.000  C
  C1512    1.0000 0.11400  0.72410  0.02908  Biso   1.000  C
  C1513    1.0000 0.02342  0.97311  0.18149  Biso   1.000  C
  C1514    1.0000 0.23113  0.82288  0.23851  Biso   1.000  C
  C1515    1.0000 0.23113  0.82288  0.23848  Biso   1.000  C
  H1269    1.0000 0.18631  0.90630  0.26350  Biso   1.000  H
  H1270    1.0000 0.22430  0.92780  0.21829  Biso   1.000  H
  C1516    1.0000 0.12842  0.00262  0.20350  Biso   1.000  C
  C1517    1.0000 0.26431  0.93158  0.06351  Biso   1.000  C
  C1518    1.0000 0.26431  0.93158  0.06347  Biso   1.000  C
  C1519    1.0000 0.18198  0.89472  0.97690  Biso   1.000  C
  H1271    1.0000 0.15151  0.71599  0.01620  Biso   1.000  H
  H1272    1.0000 0.11051  0.69258  0.05880  Biso   1.000  H
  C1520    1.0000 0.06999  0.71302  0.99361  Biso   1.000  C
  C1521    1.0000 0.06999  0.71302  0.99358  Biso   1.000  C
  O234     1.0000 0.97350  0.95902  0.16210  Biso   1.000  O
  C1522    1.0000 0.03902  0.03942  0.19069  Biso   1.000  C
  C1523    1.0000 0.27951  0.83390  0.27191  Biso   1.000  C
  C1524    1.0000 0.27951  0.83390  0.27188  Biso   1.000  C
  H1273    1.0000 0.20671  0.78542  0.25248  Biso   1.000  H
  H1274    1.0000 0.24311  0.80541  0.20600  Biso   1.000  H
  H1275    1.0000 0.16901  0.01400  0.21201  Biso   1.000  H
  C1525    1.0000 0.09140  0.05412  0.20171  Biso   1.000  C
  H1276    1.0000 0.16900  0.01400  0.21198  Biso   1.000  H
  C1526    1.0000 0.09140  0.05412  0.20168  Biso   1.000  C
  H1277    1.0000 0.27771  0.90092  0.03639  Biso   1.000  H
  C1527    1.0000 0.24212  0.99869  0.04401  Biso   1.000  C
  C1528    1.0000 0.31240  0.94432  0.09591  Biso   1.000  C
  C1529    1.0000 0.24211  0.99869  0.04397  Biso   1.000  C
  C1530    1.0000 0.31239  0.94432  0.09588  Biso   1.000  C
  O235     1.0000 0.21867  0.94250  0.97140  Biso   1.000  O
  H1278    1.0000 0.17157  0.87161  0.94391  Biso   1.000  H
  H1279    1.0000 0.14827  0.91939  0.98860  Biso   1.000  H
  H1280    1.0000 0.17157  0.87161  0.94387  Biso   1.000  H
  C1531    1.0000 0.03289  0.70748  0.96680  Biso   1.000  C
  C1532    1.0000 0.93572  0.94759  0.19440  Biso   1.000  C
  O236     1.0000 0.00031  0.08650  0.19021  Biso   1.000  O
  O237     1.0000 0.00030  0.08650  0.19018  Biso   1.000  O
  C1533    1.0000 0.32964  0.82842  0.25791  Biso   1.000  C
  C1534    1.0000 0.32963  0.82842  0.25787  Biso   1.000  C
  C1535    1.0000 0.27242  0.84679  0.31791  Biso   1.000  C
  C1536    1.0000 0.27242  0.84679  0.31788  Biso   1.000  C
  C1537    1.0000 0.10583  0.12698  0.20999  Biso   1.000  C
  C1538    1.0000 0.21726  0.99829  0.99969  Biso   1.000  C
  C1539    1.0000 0.24429  0.05790  0.06969  Biso   1.000  C
  H1281    1.0000 0.33940  0.97669  0.08019  Biso   1.000  H
  H1282    1.0000 0.30080  0.96788  0.12671  Biso   1.000  H
  C1540    1.0000 0.33801  0.87700  0.10800  Biso   1.000  C
  C1541    1.0000 0.98536  0.70970  0.93251  Biso   1.000  C
  C1542    1.0000 0.98535  0.70970  0.93248  Biso   1.000  C
  C1543    1.0000 0.88792  0.94301  0.16570  Biso   1.000  C
  H1283    1.0000 0.93500  0.98792  0.21912  Biso   1.000  H
  H1284    1.0000 0.94332  0.90051  0.21222  Biso   1.000  H
  H1285    1.0000 0.93500  0.98792  0.21908  Biso   1.000  H
  H1286    1.0000 0.94332  0.90051  0.21218  Biso   1.000  H
  C1544    1.0000 0.99261  0.12662  0.14971  Biso   1.000  C
  C1545    1.0000 0.37274  0.83592  0.28970  Biso   1.000  C
  H1287    1.0000 0.33511  0.81840  0.22231  Biso   1.000  H
  H1288    1.0000 0.33510  0.81840  0.22228  Biso   1.000  H
  C1546    1.0000 0.31553  0.85429  0.34981  Biso   1.000  C
  H1289    1.0000 0.23362  0.85102  0.32880  Biso   1.000  H
  C1547    1.0000 0.11431  0.15628  0.16200  Biso   1.000  C
  C1548    1.0000 0.15511  0.13820  0.24349  Biso   1.000  C
  H1290    1.0000 0.07501  0.15190  0.22629  Biso   1.000  H
  C1549    1.0000 0.19469  0.05709  0.98109  Biso   1.000  C
  C1550    1.0000 0.22172  0.11681  0.05111  Biso   1.000  C
  H1291    1.0000 0.26359  0.05830  0.10401  Biso   1.000  H
  C1551    1.0000 0.22171  0.11681  0.05108  Biso   1.000  C
  H1292    1.0000 0.26359  0.05830  0.10398  Biso   1.000  H
  H1293    1.0000 0.34552  0.85148  0.07659  Biso   1.000  H
  H1294    1.0000 0.31199  0.84699  0.12660  Biso   1.000  H
  C1552    1.0000 0.38903  0.88732  0.13862  Biso   1.000  C
  C1553    1.0000 0.38902  0.88732  0.13858  Biso   1.000  C
  O238     1.0000 0.96768  0.77621  0.93660  Biso   1.000  O
  H1295    1.0000 0.95656  0.67360  0.94140  Biso   1.000  H
  H1296    1.0000 0.99579  0.69978  0.89811  Biso   1.000  H
  H1297    1.0000 0.99575  0.69978  0.89808  Biso   1.000  H
  C1554    1.0000 0.85090  0.94019  0.13821  Biso   1.000  C
  H1298    1.0000 0.95191  0.13971  0.14432  Biso   1.000  H
  H1299    1.0000 0.95190  0.13971  0.14428  Biso   1.000  H
  H1300    1.0000 0.00351  0.09672  0.12121  Biso   1.000  H
  O239     1.0000 0.02151  0.18452  0.15139  Biso   1.000  O
  H1301    1.0000 0.00350  0.09672  0.12118  Biso   1.000  H
  C1555    1.0000 0.36561  0.84881  0.33570  Biso   1.000  C
  H1302    1.0000 0.41154  0.83169  0.27881  Biso   1.000  H
  H1303    1.0000 0.41153  0.83169  0.27878  Biso   1.000  H
  H1304    1.0000 0.31002  0.86431  0.38530  Biso   1.000  H
  C1556    1.0000 0.16261  0.15769  0.14401  Biso   1.000  C
  C1557    1.0000 0.07040  0.18110  0.13621  Biso   1.000  C
  C1558    1.0000 0.16261  0.15769  0.14397  Biso   1.000  C
  C1559    1.0000 0.07040  0.18110  0.13618  Biso   1.000  C
  C1560    1.0000 0.14313  0.12179  0.29261  Biso   1.000  C
  H1305    1.0000 0.18612  0.10588  0.23391  Biso   1.000  H
  H1306    1.0000 0.16732  0.19011  0.24191  Biso   1.000  H
  C1561    1.0000 0.14313  0.12179  0.29258  Biso   1.000  C
  H1307    1.0000 0.18612  0.10588  0.23388  Biso   1.000  H
  H1308    1.0000 0.16732  0.19011  0.24188  Biso   1.000  H
  O240     1.0000 0.16376  0.05302  0.94020  Biso   1.000  O
  C1562    1.0000 0.19682  0.11630  0.00680  Biso   1.000  C
  C1563    1.0000 0.19678  0.11630  0.00680  Biso   1.000  C
  C1564    1.0000 0.21921  0.18050  0.07779  Biso   1.000  C
  C1565    1.0000 0.41612  0.82791  0.15149  Biso   1.000  C
  C1566    1.0000 0.41141  0.94940  0.15211  Biso   1.000  C
  C1567    1.0000 0.41140  0.94940  0.15207  Biso   1.000  C
  C1568    1.0000 0.92527  0.79262  0.90749  Biso   1.000  C
  C1569    1.0000 0.81003  0.93868  0.09941  Biso   1.000  C
  C1570    1.0000 0.81002  0.93868  0.09938  Biso   1.000  C
  H1309    1.0000 0.39902  0.85460  0.36041  Biso   1.000  H
  H1310    1.0000 0.39902  0.85460  0.36038  Biso   1.000  H
  C1571    1.0000 0.16709  0.18402  0.10031  Biso   1.000  C
  H1311    1.0000 0.19660  0.13851  0.16399  Biso   1.000  H
  C1572    1.0000 0.16709  0.18402  0.10027  Biso   1.000  C
  C1573    1.0000 0.07480  0.20738  0.09251  Biso   1.000  C
  C1574    1.0000 0.07480  0.20738  0.09248  Biso   1.000  C
  C1575    1.0000 0.19363  0.12829  0.32509  Biso   1.000  C
  H1312    1.0000 0.12872  0.07079  0.29399  Biso   1.000  H
  H1313    1.0000 0.11401  0.15618  0.30329  Biso   1.000  H
  C1576    1.0000 0.19005  0.06132  0.90059  Biso   1.000  C
  O241     1.0000 0.17668  0.17400  0.98448  Biso   1.000  O
  H1314    1.0000 0.22029  0.22238  0.05431  Biso   1.000  H
  C1577    1.0000 0.26753  0.18900  0.11490  Biso   1.000  C
  H1315    1.0000 0.22028  0.22238  0.05427  Biso   1.000  H
  C1578    1.0000 0.26749  0.18900  0.11490  Biso   1.000  C
  C1579    1.0000 0.46370  0.83048  0.17799  Biso   1.000  C
  H1316    1.0000 0.39942  0.77978  0.14099  Biso   1.000  H
  H1317    1.0000 0.39111  0.99542  0.14208  Biso   1.000  H
  C1580    1.0000 0.45903  0.95202  0.17861  Biso   1.000  C
  C1581    1.0000 0.45903  0.95202  0.17858  Biso   1.000  C
  C1582    1.0000 0.92968  0.81890  0.86379  Biso   1.000  C
  C1583    1.0000 0.87686  0.79121  0.92551  Biso   1.000  C
  C1584    1.0000 0.87686  0.79121  0.92547  Biso   1.000  C
  O242     1.0000 0.83631  0.94698  0.05980  Biso   1.000  O
  H1318    1.0000 0.78127  0.97790  0.10281  Biso   1.000  H
  H1319    1.0000 0.79092  0.89019  0.09838  Biso   1.000  H
  H1320    1.0000 0.78127  0.97790  0.10278  Biso   1.000  H
  C1585    1.0000 0.12322  0.20879  0.07449  Biso   1.000  C
  O243     1.0000 0.03239  0.22379  0.06340  Biso   1.000  O
  C1586    1.0000 0.22973  0.07592  0.32979  Biso   1.000  C
  C1587    1.0000 0.20283  0.18790  0.34970  Biso   1.000  C
  C1588    1.0000 0.14917  0.05981  0.86179  Biso   1.000  C
  H1321    1.0000 0.21880  0.02210  0.89719  Biso   1.000  H
  H1322    1.0000 0.20916  0.10981  0.90162  Biso   1.000  H
  H1323    1.0000 0.20915  0.10981  0.90158  Biso   1.000  H
  C1589    1.0000 0.12576  0.19182  0.99561  Biso   1.000  C
  H1324    1.0000 0.26182  0.23391  0.13460  Biso   1.000  H
  H1325    1.0000 0.27012  0.14581  0.13742  Biso   1.000  H
  C1590    1.0000 0.31881  0.19510  0.09210  Biso   1.000  C
  H1326    1.0000 0.27012  0.14581  0.13738  Biso   1.000  H
  C1591    1.0000 0.48523  0.89261  0.19152  Biso   1.000  C
  H1327    1.0000 0.48392  0.78451  0.18802  Biso   1.000  H
  C1592    1.0000 0.48523  0.89261  0.19148  Biso   1.000  C
  H1328    1.0000 0.48392  0.78451  0.18798  Biso   1.000  H
  H1329    1.0000 0.47561  0.00010  0.18911  Biso   1.000  H
  H1330    1.0000 0.47561  0.00010  0.18908  Biso   1.000  H
  C1593    1.0000 0.88577  0.84372  0.83800  Biso   1.000  C
  O244     1.0000 0.97857  0.81548  0.84861  Biso   1.000  O
  O245     1.0000 0.97856  0.81548  0.84858  Biso   1.000  O
  C1594    1.0000 0.83299  0.81598  0.89969  Biso   1.000  C
  O246     1.0000 0.87347  0.76150  0.96890  Biso   1.000  O
  C1595    1.0000 0.83295  0.81598  0.89969  Biso   1.000  C
  C1596    1.0000 0.80539  0.94291  0.01891  Biso   1.000  C
  C1597    1.0000 0.80539  0.94291  0.01888  Biso   1.000  C
  O247     1.0000 0.12660  0.23850  0.03110  Biso   1.000  O
  C1598    1.0000 0.01472  0.29030  0.06749  Biso   1.000  C
  C1599    1.0000 0.01468  0.29030  0.06749  Biso   1.000  C
  C1600    1.0000 0.27513  0.08312  0.35901  Biso   1.000  C
  H1331    1.0000 0.22262  0.02970  0.31071  Biso   1.000  H
  C1601    1.0000 0.24823  0.19510  0.37892  Biso   1.000  C
  H1332    1.0000 0.17494  0.22848  0.34610  Biso   1.000  H
  C1602    1.0000 0.24823  0.19510  0.37888  Biso   1.000  C
  C1603    1.0000 0.11216  0.05699  0.83430  Biso   1.000  C
  H1333    1.0000 0.10508  0.21332  0.96540  Biso   1.000  H
  H1334    1.0000 0.10591  0.14691  0.00549  Biso   1.000  H
  H1335    1.0000 0.32269  0.15270  0.06958  Biso   1.000  H
  H1336    1.0000 0.31799  0.24111  0.07230  Biso   1.000  H
  C1604    1.0000 0.36441  0.19600  0.12650  Biso   1.000  C
  H1337    1.0000 0.52210  0.89472  0.21201  Biso   1.000  H
  H1338    1.0000 0.52210  0.89472  0.21198  Biso   1.000  H
  C1605    1.0000 0.89425  0.87302  0.79001  Biso   1.000  C
  C1606    1.0000 0.83747  0.84231  0.85599  Biso   1.000  C
  C1607    1.0000 0.89425  0.87302  0.78998  Biso   1.000  C
  C1608    1.0000 0.00747  0.87338  0.85029  Biso   1.000  C
  C1609    1.0000 0.78086  0.81950  0.92221  Biso   1.000  C
  C1610    1.0000 0.78086  0.81950  0.92218  Biso   1.000  C
  C1611    1.0000 0.87432  0.80818  0.00439  Biso   1.000  C
  C1612    1.0000 0.80326  0.88370  0.99320  Biso   1.000  C
  C1613    1.0000 0.78282  0.00171  0.00031  Biso   1.000  C
  C1614    1.0000 0.78278  0.00171  0.00027  Biso   1.000  C
  C1615    1.0000 0.96719  0.29252  0.03320  Biso   1.000  C
  H1339    1.0000 0.04352  0.32640  0.05860  Biso   1.000  H
  H1340    1.0000 0.00429  0.30022  0.10189  Biso   1.000  H
  C1616    1.0000 0.28433  0.14279  0.38362  Biso   1.000  C
  H1341    1.0000 0.30302  0.04259  0.36261  Biso   1.000  H
  C1617    1.0000 0.28433  0.14279  0.38358  Biso   1.000  C
  H1342    1.0000 0.30302  0.04259  0.36258  Biso   1.000  H
  H1343    1.0000 0.25545  0.24132  0.39790  Biso   1.000  H
  C1618    1.0000 0.06436  0.05241  0.80560  Biso   1.000  C
  C1619    1.0000 0.39111  0.13649  0.13810  Biso   1.000  C
  C1620    1.0000 0.38011  0.25622  0.14809  Biso   1.000  C
  C1621    1.0000 0.84497  0.86180  0.75651  Biso   1.000  C
  H1344    1.0000 0.92507  0.84810  0.77371  Biso   1.000  H
  C1622    1.0000 0.90867  0.94588  0.79829  Biso   1.000  C
  C1623    1.0000 0.84497  0.86180  0.75648  Biso   1.000  C
  H1345    1.0000 0.92507  0.84810  0.77367  Biso   1.000  H
  H1346    1.0000 0.80348  0.86149  0.83601  Biso   1.000  H
  H1347    1.0000 0.80347  0.86149  0.83598  Biso   1.000  H
  O248     1.0000 0.99977  0.91350  0.80979  Biso   1.000  O
  H1348    1.0000 0.99657  0.90328  0.87879  Biso   1.000  H
  H1349    1.0000 0.04817  0.86029  0.85568  Biso   1.000  H
  C1624    1.0000 0.77836  0.88319  0.94889  Biso   1.000  C
  H1350    1.0000 0.77979  0.77762  0.94569  Biso   1.000  H
  C1625    1.0000 0.73255  0.81100  0.88510  Biso   1.000  C
  H1351    1.0000 0.77975  0.77762  0.94569  Biso   1.000  H
  O249     1.0000 0.82340  0.82600  0.01552  Biso   1.000  O
  O250     1.0000 0.82340  0.82600  0.01548  Biso   1.000  O
  H1352    1.0000 0.89417  0.85309  0.99451  Biso   1.000  H
  H1353    1.0000 0.89417  0.85309  0.99447  Biso   1.000  H
  H1354    1.0000 0.89500  0.78668  0.03460  Biso   1.000  H
  C1626    1.0000 0.75796  0.00131  0.95599  Biso   1.000  C
  O251     1.0000 0.78140  0.05750  0.02860  Biso   1.000  O
  C1627    1.0000 0.93008  0.28698  0.00639  Biso   1.000  C
  H1355    1.0000 0.31943  0.14842  0.40621  Biso   1.000  H
  O252     1.0000 0.02657  0.04098  0.83790  Biso   1.000  O
  H1356    1.0000 0.06508  0.01208  0.78088  Biso   1.000  H
  H1357    1.0000 0.05676  0.09949  0.78778  Biso   1.000  H
  H1358    1.0000 0.06504  0.01208  0.78088  Biso   1.000  H
  C1628    1.0000 0.43341  0.13710  0.17120  Biso   1.000  C
  H1359    1.0000 0.37900  0.08992  0.12138  Biso   1.000  H
  C1629    1.0000 0.42240  0.25692  0.18118  Biso   1.000  C
  H1360    1.0000 0.35952  0.30239  0.13910  Biso   1.000  H
  C1630    1.0000 0.85695  0.87821  0.70739  Biso   1.000  C
  H1361    1.0000 0.81396  0.89412  0.76609  Biso   1.000  H
  H1362    1.0000 0.83276  0.80989  0.75809  Biso   1.000  H
  C1631    1.0000 0.96106  0.96058  0.80931  Biso   1.000  C
  C1632    1.0000 0.96106  0.96058  0.80927  Biso   1.000  C
  C1633    1.0000 0.87166  0.99738  0.79650  Biso   1.000  C
  C1634    1.0000 0.75579  0.94210  0.93031  Biso   1.000  C
  C1635    1.0000 0.75575  0.94210  0.93028  Biso   1.000  C
  H1363    1.0000 0.73826  0.76609  0.86540  Biso   1.000  H
  H1364    1.0000 0.72995  0.85419  0.86258  Biso   1.000  H
  C1636    1.0000 0.68127  0.80490  0.90790  Biso   1.000  C
  C1637    1.0000 0.73577  0.06842  0.93649  Biso   1.000  C
  C1638    1.0000 0.81810  0.10528  0.02310  Biso   1.000  C
  C1639    1.0000 0.88608  0.27590  0.97089  Biso   1.000  C
  C1640    1.0000 0.97666  0.02689  0.81851  Biso   1.000  C
  C1641    1.0000 0.97666  0.02689  0.81847  Biso   1.000  C
  C1642    1.0000 0.44902  0.19731  0.19279  Biso   1.000  C
  H1365    1.0000 0.45403  0.09098  0.18019  Biso   1.000  H
  H1366    1.0000 0.43451  0.30349  0.19790  Biso   1.000  H
  C1643    1.0000 0.80645  0.87171  0.67491  Biso   1.000  C
  H1367    1.0000 0.87136  0.92921  0.70601  Biso   1.000  H
  H1368    1.0000 0.88607  0.84382  0.69671  Biso   1.000  H
  C1644    1.0000 0.80645  0.87171  0.67488  Biso   1.000  C
  H1369    1.0000 0.87135  0.92921  0.70598  Biso   1.000  H
  H1370    1.0000 0.88603  0.84382  0.69668  Biso   1.000  H
  C1645    1.0000 0.88727  0.06359  0.80580  Biso   1.000  C
  H1371    1.0000 0.83107  0.98600  0.78799  Biso   1.000  H
  H1372    1.0000 0.73649  0.94170  0.89599  Biso   1.000  H
  H1373    1.0000 0.73645  0.94170  0.89599  Biso   1.000  H
  H1374    1.0000 0.67739  0.84730  0.93042  Biso   1.000  H
  H1375    1.0000 0.68208  0.75889  0.92770  Biso   1.000  H
  C1646    1.0000 0.63566  0.80400  0.87350  Biso   1.000  C
  H1376    1.0000 0.67738  0.84730  0.93038  Biso   1.000  H
  H1377    1.0000 0.72237  0.09908  0.96361  Biso   1.000  H
  C1647    1.0000 0.68768  0.05568  0.90409  Biso   1.000  C
  C1648    1.0000 0.77968  0.10689  0.91569  Biso   1.000  C
  H1378    1.0000 0.72237  0.09908  0.96358  Biso   1.000  H
  O253     1.0000 0.80289  0.15638  0.99138  Biso   1.000  O
  H1379    1.0000 0.82850  0.12839  0.05609  Biso   1.000  H
  H1380    1.0000 0.85181  0.08061  0.01140  Biso   1.000  H
  O254     1.0000 0.89498  0.20522  0.96080  Biso   1.000  O
  H1381    1.0000 0.84856  0.28401  0.98380  Biso   1.000  H
  H1382    1.0000 0.88957  0.30742  0.94120  Biso   1.000  H
  C1649    1.0000 0.93977  0.07839  0.81679  Biso   1.000  C
  H1383    1.0000 0.48183  0.19781  0.21850  Biso   1.000  H
  C1650    1.0000 0.77035  0.92408  0.67021  Biso   1.000  C
  C1651    1.0000 0.79725  0.81210  0.65030  Biso   1.000  C
  C1652    1.0000 0.77035  0.92408  0.67017  Biso   1.000  C
  C1653    1.0000 0.84836  0.12109  0.80409  Biso   1.000  C
  C1654    1.0000 0.60897  0.86351  0.86190  Biso   1.000  C
  C1655    1.0000 0.61997  0.74378  0.85191  Biso   1.000  C
  C1656    1.0000 0.61997  0.74378  0.85187  Biso   1.000  C
  H1384    1.0000 0.66068  0.02331  0.91981  Biso   1.000  H
  H1385    1.0000 0.69928  0.03212  0.87329  Biso   1.000  H
  C1657    1.0000 0.66206  0.12300  0.89200  Biso   1.000  C
  H1386    1.0000 0.66068  0.02331  0.91977  Biso   1.000  H
  C1658    1.0000 0.81248  0.14560  0.94569  Biso   1.000  C
  C1659    1.0000 0.79016  0.10019  0.86990  Biso   1.000  C
  C1660    1.0000 0.85569  0.17752  0.92990  Biso   1.000  C
  O255     1.0000 0.95775  0.14399  0.82300  Biso   1.000  O
  C1661    1.0000 0.72494  0.91688  0.64099  Biso   1.000  C
  H1387    1.0000 0.77746  0.97030  0.68929  Biso   1.000  H
  C1662    1.0000 0.75184  0.80490  0.62108  Biso   1.000  C
  H1388    1.0000 0.82514  0.77152  0.65390  Biso   1.000  H
  C1663    1.0000 0.83337  0.13211  0.85410  Biso   1.000  C
  H1389    1.0000 0.86597  0.16589  0.79149  Biso   1.000  H
  C1664    1.0000 0.80065  0.11021  0.76880  Biso   1.000  C
  C1665    1.0000 0.56667  0.86290  0.82880  Biso   1.000  C
  H1390    1.0000 0.62108  0.91008  0.87862  Biso   1.000  H
  H1391    1.0000 0.62108  0.91008  0.87858  Biso   1.000  H
  C1666    1.0000 0.57768  0.74308  0.81882  Biso   1.000  C
  H1392    1.0000 0.64055  0.69761  0.86090  Biso   1.000  H
  C1667    1.0000 0.57767  0.74308  0.81878  Biso   1.000  C
  H1393    1.0000 0.65456  0.14852  0.92341  Biso   1.000  H
  H1394    1.0000 0.68808  0.15301  0.87340  Biso   1.000  H
  C1668    1.0000 0.61105  0.11268  0.86138  Biso   1.000  C
  H1395    1.0000 0.65455  0.14852  0.92338  Biso   1.000  H
  H1396    1.0000 0.76477  0.07018  0.84669  Biso   1.000  H
  C1669    1.0000 0.86606  0.17078  0.88421  Biso   1.000  C
  C1670    1.0000 0.86606  0.17078  0.88418  Biso   1.000  C
  C1671    1.0000 0.95255  0.17189  0.86770  Biso   1.000  C
  C1672    1.0000 0.71574  0.85721  0.61638  Biso   1.000  C
  H1397    1.0000 0.69706  0.95741  0.63739  Biso   1.000  H
  H1398    1.0000 0.74463  0.75868  0.60210  Biso   1.000  H
  H1399    1.0000 0.81377  0.09370  0.73650  Biso   1.000  H
  H1400    1.0000 0.77577  0.07220  0.78171  Biso   1.000  H
  C1673    1.0000 0.76895  0.17712  0.76149  Biso   1.000  C
  H1401    1.0000 0.77577  0.07220  0.78167  Biso   1.000  H
  C1674    1.0000 0.55106  0.80269  0.80721  Biso   1.000  C
  H1402    1.0000 0.54605  0.90902  0.81981  Biso   1.000  H
  C1675    1.0000 0.55106  0.80269  0.80718  Biso   1.000  C
  H1403    1.0000 0.54605  0.90902  0.81978  Biso   1.000  H
  H1404    1.0000 0.56557  0.69651  0.80210  Biso   1.000  H
  C1676    1.0000 0.58396  0.17209  0.84851  Biso   1.000  C
  C1677    1.0000 0.58867  0.05060  0.84789  Biso   1.000  C
  C1678    1.0000 0.58396  0.17209  0.84847  Biso   1.000  C
  O256     1.0000 0.90655  0.20778  0.86959  Biso   1.000  O
  H1405    1.0000 0.98497  0.20532  0.87638  Biso   1.000  H
  H1406    1.0000 0.95356  0.13110  0.89221  Biso   1.000  H
  H1407    1.0000 0.95356  0.13110  0.89217  Biso   1.000  H
  H1408    1.0000 0.68064  0.85158  0.59379  Biso   1.000  H
  H1409    1.0000 0.79336  0.21458  0.74752  Biso   1.000  H
  H1410    1.0000 0.75697  0.19459  0.79400  Biso   1.000  H
  C1679    1.0000 0.72057  0.16610  0.72809  Biso   1.000  C
  H1411    1.0000 0.79336  0.21458  0.74748  Biso   1.000  H
  H1412    1.0000 0.51825  0.80219  0.78150  Biso   1.000  H
  C1680    1.0000 0.53638  0.16952  0.82201  Biso   1.000  C
  H1413    1.0000 0.60066  0.22022  0.85901  Biso   1.000  H
  C1681    1.0000 0.53637  0.16952  0.82197  Biso   1.000  C
  H1414    1.0000 0.60065  0.22022  0.85898  Biso   1.000  H
  C1682    1.0000 0.54105  0.04798  0.82139  Biso   1.000  C
  H1415    1.0000 0.60897  0.00458  0.85792  Biso   1.000  H
  H1416    1.0000 0.60896  0.00458  0.85788  Biso   1.000  H
  C1683    1.0000 0.67044  0.17158  0.74209  Biso   1.000  C
  C1684    1.0000 0.72765  0.15321  0.68209  Biso   1.000  C
  C1685    1.0000 0.51485  0.10739  0.80848  Biso   1.000  C
  H1417    1.0000 0.51616  0.21549  0.81198  Biso   1.000  H
  H1418    1.0000 0.52447  0.99990  0.81089  Biso   1.000  H
  C1686    1.0000 0.62734  0.16408  0.71030  Biso   1.000  C
  H1419    1.0000 0.66497  0.18160  0.77769  Biso   1.000  H
  C1687    1.0000 0.68454  0.14571  0.65019  Biso   1.000  C
  H1420    1.0000 0.76645  0.14898  0.67120  Biso   1.000  H
  H1421    1.0000 0.47797  0.10528  0.78799  Biso   1.000  H
  C1688    1.0000 0.63447  0.15119  0.66430  Biso   1.000  C
  H1422    1.0000 0.58854  0.16831  0.72119  Biso   1.000  H
  H1423    1.0000 0.69006  0.13569  0.61470  Biso   1.000  H
  H1424    1.0000 0.60106  0.14540  0.63959  Biso   1.000  H
  O257     1.0000 0.28140  0.55750  0.02860  Biso   1.000  O
  C1689    1.0000 0.28282  0.50171  0.00031  Biso   1.000  C
  C1690    1.0000 0.28278  0.50171  0.00027  Biso   1.000  C
  C1691    1.0000 0.31810  0.60528  0.02310  Biso   1.000  C
  C1692    1.0000 0.30539  0.44291  0.01891  Biso   1.000  C
  C1693    1.0000 0.30539  0.44291  0.01888  Biso   1.000  C
  C1694    1.0000 0.25796  0.50131  0.95599  Biso   1.000  C
  H1425    1.0000 0.32850  0.62839  0.05609  Biso   1.000  H
  H1426    1.0000 0.35181  0.58061  0.01140  Biso   1.000  H
  O258     1.0000 0.30289  0.65638  0.99138  Biso   1.000  O
  O259     1.0000 0.33631  0.44698  0.05980  Biso   1.000  O
  C1695    1.0000 0.30326  0.38370  0.99320  Biso   1.000  C
  C1696    1.0000 0.25579  0.44210  0.93031  Biso   1.000  C
  C1697    1.0000 0.23577  0.56842  0.93649  Biso   1.000  C
  C1698    1.0000 0.25575  0.44210  0.93028  Biso   1.000  C
  C1699    1.0000 0.31248  0.64560  0.94569  Biso   1.000  C
  C1700    1.0000 0.31003  0.43868  0.09941  Biso   1.000  C
  C1701    1.0000 0.31002  0.43868  0.09938  Biso   1.000  C
  O260     1.0000 0.32340  0.32600  0.01552  Biso   1.000  O
  O261     1.0000 0.32340  0.32600  0.01548  Biso   1.000  O
  C1702    1.0000 0.27836  0.38319  0.94889  Biso   1.000  C
  H1427    1.0000 0.23649  0.44170  0.89599  Biso   1.000  H
  H1428    1.0000 0.23645  0.44170  0.89599  Biso   1.000  H
  H1429    1.0000 0.22237  0.59908  0.96361  Biso   1.000  H
  C1703    1.0000 0.18768  0.55568  0.90409  Biso   1.000  C
  C1704    1.0000 0.27968  0.60689  0.91569  Biso   1.000  C
  H1430    1.0000 0.22237  0.59908  0.96358  Biso   1.000  H
  C1705    1.0000 0.35569  0.67752  0.92990  Biso   1.000  C
  C1706    1.0000 0.35090  0.44019  0.13821  Biso   1.000  C
  H1431    1.0000 0.28127  0.47790  0.10281  Biso   1.000  H
  H1432    1.0000 0.29092  0.39019  0.09838  Biso   1.000  H
  H1433    1.0000 0.28127  0.47790  0.10278  Biso   1.000  H
  C1707    1.0000 0.37432  0.30818  0.00439  Biso   1.000  C
  C1708    1.0000 0.28086  0.31950  0.92221  Biso   1.000  C
  C1709    1.0000 0.28086  0.31950  0.92218  Biso   1.000  C
  H1434    1.0000 0.16068  0.52331  0.91981  Biso   1.000  H
  H1435    1.0000 0.19928  0.53212  0.87329  Biso   1.000  H
  C1710    1.0000 0.16206  0.62300  0.89200  Biso   1.000  C
  H1436    1.0000 0.16068  0.52331  0.91977  Biso   1.000  H
  C1711    1.0000 0.29016  0.60019  0.86990  Biso   1.000  C
  C1712    1.0000 0.36606  0.67078  0.88421  Biso   1.000  C
  O262     1.0000 0.39498  0.70522  0.96080  Biso   1.000  O
  C1713    1.0000 0.36606  0.67078  0.88418  Biso   1.000  C
  C1714    1.0000 0.38792  0.44301  0.16570  Biso   1.000  C
  H1437    1.0000 0.39500  0.28668  0.03460  Biso   1.000  H
  O263     1.0000 0.37347  0.26150  0.96890  Biso   1.000  O
  H1438    1.0000 0.39417  0.35309  0.99451  Biso   1.000  H
  H1439    1.0000 0.39417  0.35309  0.99447  Biso   1.000  H
  C1715    1.0000 0.33299  0.31598  0.89969  Biso   1.000  C
  H1440    1.0000 0.27979  0.27762  0.94569  Biso   1.000  H
  C1716    1.0000 0.23255  0.31100  0.88510  Biso   1.000  C
  C1717    1.0000 0.33295  0.31598  0.89969  Biso   1.000  C
  H1441    1.0000 0.27975  0.27762  0.94569  Biso   1.000  H
  H1442    1.0000 0.15456  0.64852  0.92341  Biso   1.000  H
  H1443    1.0000 0.18808  0.65301  0.87340  Biso   1.000  H
  C1718    1.0000 0.11105  0.61268  0.86138  Biso   1.000  C
  H1444    1.0000 0.15455  0.64852  0.92338  Biso   1.000  H
  C1719    1.0000 0.33337  0.63211  0.85410  Biso   1.000  C
  H1445    1.0000 0.26477  0.57018  0.84669  Biso   1.000  H
  O264     1.0000 0.40655  0.70778  0.86959  Biso   1.000  O
  C1720    1.0000 0.38608  0.77590  0.97089  Biso   1.000  C
  C1721    1.0000 0.43572  0.44759  0.19440  Biso   1.000  C
  C1722    1.0000 0.37686  0.29121  0.92551  Biso   1.000  C
  C1723    1.0000 0.37686  0.29121  0.92547  Biso   1.000  C
  C1724    1.0000 0.33747  0.34231  0.85599  Biso   1.000  C
  H1446    1.0000 0.23826  0.26609  0.86540  Biso   1.000  H
  H1447    1.0000 0.22995  0.35419  0.86258  Biso   1.000  H
  C1725    1.0000 0.18127  0.30490  0.90790  Biso   1.000  C
  C1726    1.0000 0.08396  0.67209  0.84851  Biso   1.000  C
  C1727    1.0000 0.08867  0.55060  0.84789  Biso   1.000  C
  C1728    1.0000 0.08396  0.67209  0.84847  Biso   1.000  C
  C1729    1.0000 0.34836  0.62109  0.80409  Biso   1.000  C
  C1730    1.0000 0.45255  0.67189  0.86770  Biso   1.000  C
  C1731    1.0000 0.43008  0.78698  0.00639  Biso   1.000  C
  H1448    1.0000 0.34856  0.78401  0.98380  Biso   1.000  H
  H1449    1.0000 0.38957  0.80742  0.94120  Biso   1.000  H
  H1450    1.0000 0.43500  0.48792  0.21912  Biso   1.000  H
  H1451    1.0000 0.44332  0.40051  0.21222  Biso   1.000  H
  O265     1.0000 0.47350  0.45902  0.16210  Biso   1.000  O
  H1452    1.0000 0.43500  0.48792  0.21908  Biso   1.000  H
  H1453    1.0000 0.44332  0.40051  0.21218  Biso   1.000  H
  C1732    1.0000 0.42527  0.29262  0.90749  Biso   1.000  C
  C1733    1.0000 0.38577  0.34372  0.83800  Biso   1.000  C
  H1454    1.0000 0.30348  0.36149  0.83601  Biso   1.000  H
  H1455    1.0000 0.30347  0.36149  0.83598  Biso   1.000  H
  H1456    1.0000 0.17739  0.34730  0.93042  Biso   1.000  H
  H1457    1.0000 0.18208  0.25889  0.92770  Biso   1.000  H
  C1734    1.0000 0.13566  0.30400  0.87350  Biso   1.000  C
  H1458    1.0000 0.17738  0.34730  0.93038  Biso   1.000  H
  C1735    1.0000 0.03638  0.66952  0.82201  Biso   1.000  C
  H1459    1.0000 0.10066  0.72022  0.85901  Biso   1.000  H
  C1736    1.0000 0.03637  0.66952  0.82197  Biso   1.000  C
  H1460    1.0000 0.10065  0.72022  0.85898  Biso   1.000  H
  C1737    1.0000 0.04105  0.54798  0.82139  Biso   1.000  C
  H1461    1.0000 0.10897  0.50458  0.85792  Biso   1.000  H
  H1462    1.0000 0.10896  0.50458  0.85788  Biso   1.000  H
  C1738    1.0000 0.38727  0.56359  0.80580  Biso   1.000  C
  H1463    1.0000 0.36597  0.66589  0.79149  Biso   1.000  H
  C1739    1.0000 0.30065  0.61021  0.76880  Biso   1.000  C
  H1464    1.0000 0.48497  0.70532  0.87638  Biso   1.000  H
  H1465    1.0000 0.45356  0.63110  0.89221  Biso   1.000  H
  O266     1.0000 0.45775  0.64399  0.82300  Biso   1.000  O
  H1466    1.0000 0.45356  0.63110  0.89217  Biso   1.000  H
  C1740    1.0000 0.46719  0.79252  0.03320  Biso   1.000  C
  C1741    1.0000 0.52342  0.47311  0.18149  Biso   1.000  C
  C1742    1.0000 0.42968  0.31890  0.86379  Biso   1.000  C
  O267     1.0000 0.46768  0.27621  0.93660  Biso   1.000  O
  C1743    1.0000 0.39425  0.37302  0.79001  Biso   1.000  C
  C1744    1.0000 0.39425  0.37302  0.78998  Biso   1.000  C
  C1745    1.0000 0.10897  0.36351  0.86190  Biso   1.000  C
  C1746    1.0000 0.11997  0.24378  0.85191  Biso   1.000  C
  C1747    1.0000 0.11997  0.24378  0.85187  Biso   1.000  C
  C1748    1.0000 0.01485  0.60739  0.80848  Biso   1.000  C
  H1467    1.0000 0.01616  0.71549  0.81198  Biso   1.000  H
  H1468    1.0000 0.02447  0.49990  0.81089  Biso   1.000  H
  C1749    1.0000 0.43977  0.57839  0.81679  Biso   1.000  C
  C1750    1.0000 0.37166  0.49738  0.79650  Biso   1.000  C
  H1469    1.0000 0.31377  0.59370  0.73650  Biso   1.000  H
  H1470    1.0000 0.27577  0.57220  0.78171  Biso   1.000  H
  C1751    1.0000 0.26895  0.67712  0.76149  Biso   1.000  C
  H1471    1.0000 0.27577  0.57220  0.78167  Biso   1.000  H
  C1752    1.0000 0.51472  0.79030  0.06749  Biso   1.000  C
  C1753    1.0000 0.51468  0.79030  0.06749  Biso   1.000  C
  C1754    1.0000 0.56031  0.42161  0.18321  Biso   1.000  C
  C1755    1.0000 0.53902  0.53942  0.19069  Biso   1.000  C
  C1756    1.0000 0.56031  0.42161  0.18318  Biso   1.000  C
  O268     1.0000 0.47857  0.31548  0.84861  Biso   1.000  O
  O269     1.0000 0.47856  0.31548  0.84858  Biso   1.000  O
  C1757    1.0000 0.48536  0.20970  0.93251  Biso   1.000  C
  C1758    1.0000 0.48535  0.20970  0.93248  Biso   1.000  C
  C1759    1.0000 0.34497  0.36180  0.75651  Biso   1.000  C
  H1472    1.0000 0.42507  0.34810  0.77371  Biso   1.000  H
  C1760    1.0000 0.40867  0.44588  0.79829  Biso   1.000  C
  C1761    1.0000 0.34497  0.36180  0.75648  Biso   1.000  C
  H1473    1.0000 0.42507  0.34810  0.77367  Biso   1.000  H
  C1762    1.0000 0.06667  0.36290  0.82880  Biso   1.000  C
  H1474    1.0000 0.12108  0.41008  0.87862  Biso   1.000  H
  H1475    1.0000 0.12108  0.41008  0.87858  Biso   1.000  H
  C1763    1.0000 0.07768  0.24308  0.81882  Biso   1.000  C
  H1476    1.0000 0.14055  0.19761  0.86090  Biso   1.000  H
  C1764    1.0000 0.07767  0.24308  0.81878  Biso   1.000  C
  H1477    1.0000 0.97797  0.60528  0.78799  Biso   1.000  H
  C1765    1.0000 0.47666  0.52689  0.81851  Biso   1.000  C
  C1766    1.0000 0.47666  0.52689  0.81847  Biso   1.000  C
  H1478    1.0000 0.33107  0.48600  0.78799  Biso   1.000  H
  H1479    1.0000 0.29336  0.71458  0.74752  Biso   1.000  H
  H1480    1.0000 0.25697  0.69459  0.79400  Biso   1.000  H
  C1767    1.0000 0.22057  0.66610  0.72809  Biso   1.000  C
  H1481    1.0000 0.29336  0.71458  0.74748  Biso   1.000  H
  O270     1.0000 0.53239  0.72379  0.06340  Biso   1.000  O
  H1482    1.0000 0.54352  0.82640  0.05860  Biso   1.000  H
  H1483    1.0000 0.50429  0.80022  0.10189  Biso   1.000  H
  O271     1.0000 0.54233  0.35601  0.17700  Biso   1.000  O
  C1768    1.0000 0.61281  0.43641  0.19420  Biso   1.000  C
  O272     1.0000 0.50031  0.58650  0.19021  Biso   1.000  O
  C1769    1.0000 0.59140  0.55412  0.20171  Biso   1.000  C
  O273     1.0000 0.50030  0.58650  0.19018  Biso   1.000  O
  C1770    1.0000 0.59140  0.55412  0.20168  Biso   1.000  C
  C1771    1.0000 0.50747  0.37338  0.85029  Biso   1.000  C
  H1484    1.0000 0.45656  0.17360  0.94140  Biso   1.000  H
  H1485    1.0000 0.49579  0.19978  0.89811  Biso   1.000  H
  C1772    1.0000 0.53289  0.20748  0.96680  Biso   1.000  C
  H1486    1.0000 0.49575  0.19978  0.89808  Biso   1.000  H
  C1773    1.0000 0.35695  0.37821  0.70739  Biso   1.000  C
  H1487    1.0000 0.31396  0.39412  0.76609  Biso   1.000  H
  H1488    1.0000 0.33276  0.30989  0.75809  Biso   1.000  H
  C1774    1.0000 0.46106  0.46058  0.80931  Biso   1.000  C
  C1775    1.0000 0.46106  0.46058  0.80927  Biso   1.000  C
  C1776    1.0000 0.05106  0.30269  0.80721  Biso   1.000  C
  H1489    1.0000 0.04605  0.40902  0.81981  Biso   1.000  H
  C1777    1.0000 0.05106  0.30269  0.80718  Biso   1.000  C
  H1490    1.0000 0.04605  0.40902  0.81978  Biso   1.000  H
  H1491    1.0000 0.06557  0.19651  0.80210  Biso   1.000  H
  O274     1.0000 0.52657  0.54098  0.83790  Biso   1.000  O
  C1778    1.0000 0.17044  0.67158  0.74209  Biso   1.000  C
  C1779    1.0000 0.22765  0.65321  0.68209  Biso   1.000  C
  C1780    1.0000 0.57480  0.70738  0.09251  Biso   1.000  C
  C1781    1.0000 0.57480  0.70738  0.09248  Biso   1.000  C
  C1782    1.0000 0.54752  0.32811  0.13230  Biso   1.000  C
  C1783    1.0000 0.65172  0.37891  0.19591  Biso   1.000  C
  C1784    1.0000 0.62842  0.50262  0.20350  Biso   1.000  C
  C1785    1.0000 0.65172  0.37891  0.19588  Biso   1.000  C
  C1786    1.0000 0.49261  0.62662  0.14971  Biso   1.000  C
  C1787    1.0000 0.60583  0.62698  0.20999  Biso   1.000  C
  O275     1.0000 0.49977  0.41350  0.80979  Biso   1.000  O
  H1492    1.0000 0.49657  0.40328  0.87879  Biso   1.000  H
  H1493    1.0000 0.54817  0.36029  0.85568  Biso   1.000  H
  C1788    1.0000 0.56999  0.21302  0.99361  Biso   1.000  C
  C1789    1.0000 0.56999  0.21302  0.99358  Biso   1.000  C
  C1790    1.0000 0.30645  0.37171  0.67491  Biso   1.000  C
  H1494    1.0000 0.37136  0.42921  0.70601  Biso   1.000  H
  H1495    1.0000 0.38607  0.34382  0.69671  Biso   1.000  H
  C1791    1.0000 0.30645  0.37171  0.67488  Biso   1.000  C
  H1496    1.0000 0.37135  0.42921  0.70598  Biso   1.000  H
  H1497    1.0000 0.38603  0.34382  0.69668  Biso   1.000  H
  H1498    1.0000 0.01825  0.30219  0.78150  Biso   1.000  H
  C1792    1.0000 0.56436  0.55241  0.80560  Biso   1.000  C
  C1793    1.0000 0.12734  0.66408  0.71030  Biso   1.000  C
  H1499    1.0000 0.16497  0.68160  0.77769  Biso   1.000  H
  C1794    1.0000 0.18454  0.64571  0.65019  Biso   1.000  C
  H1500    1.0000 0.26645  0.64898  0.67120  Biso   1.000  H
  C1795    1.0000 0.57040  0.68110  0.13621  Biso   1.000  C
  C1796    1.0000 0.57040  0.68110  0.13618  Biso   1.000  C
  C1797    1.0000 0.62322  0.70879  0.07449  Biso   1.000  C
  O276     1.0000 0.59353  0.29222  0.13041  Biso   1.000  O
  H1501    1.0000 0.51511  0.29468  0.12362  Biso   1.000  H
  H1502    1.0000 0.54652  0.36890  0.10779  Biso   1.000  H
  O277     1.0000 0.59352  0.29222  0.13038  Biso   1.000  O
  H1503    1.0000 0.51510  0.29468  0.12358  Biso   1.000  H
  C1798    1.0000 0.66671  0.36789  0.14590  Biso   1.000  C
  H1504    1.0000 0.63411  0.33411  0.20851  Biso   1.000  H
  C1799    1.0000 0.69943  0.38979  0.23120  Biso   1.000  C
  H1505    1.0000 0.63411  0.33411  0.20848  Biso   1.000  H
  H1506    1.0000 0.66901  0.51400  0.21201  Biso   1.000  H
  H1507    1.0000 0.66900  0.51400  0.21198  Biso   1.000  H
  H1508    1.0000 0.50351  0.59672  0.12121  Biso   1.000  H
  H1509    1.0000 0.45191  0.63971  0.14432  Biso   1.000  H
  O278     1.0000 0.52151  0.68452  0.15139  Biso   1.000  O
  H1510    1.0000 0.50350  0.59672  0.12118  Biso   1.000  H
  H1511    1.0000 0.45190  0.63971  0.14428  Biso   1.000  H
  C1800    1.0000 0.61431  0.65628  0.16200  Biso   1.000  C
  C1801    1.0000 0.65511  0.63820  0.24349  Biso   1.000  C
  H1512    1.0000 0.57501  0.65190  0.22629  Biso   1.000  H
  C1802    1.0000 0.61400  0.22410  0.02911  Biso   1.000  C
  C1803    1.0000 0.61400  0.22410  0.02908  Biso   1.000  C
  C1804    1.0000 0.27035  0.42408  0.67021  Biso   1.000  C
  C1805    1.0000 0.29725  0.31210  0.65030  Biso   1.000  C
  C1806    1.0000 0.27035  0.42408  0.67017  Biso   1.000  C
  C1807    1.0000 0.61216  0.55699  0.83430  Biso   1.000  C
  H1513    1.0000 0.56508  0.51208  0.78088  Biso   1.000  H
  H1514    1.0000 0.55676  0.59949  0.78778  Biso   1.000  H
  H1515    1.0000 0.56504  0.51208  0.78088  Biso   1.000  H
  C1808    1.0000 0.13447  0.65119  0.66430  Biso   1.000  C
  H1516    1.0000 0.08854  0.66831  0.72119  Biso   1.000  H
  H1517    1.0000 0.19006  0.63569  0.61470  Biso   1.000  H
  C1809    1.0000 0.66709  0.68402  0.10031  Biso   1.000  C
  C1810    1.0000 0.66709  0.68402  0.10027  Biso   1.000  C
  O279     1.0000 0.62660  0.73850  0.03110  Biso   1.000  O
  C1811    1.0000 0.63402  0.32922  0.11579  Biso   1.000  C
  C1812    1.0000 0.70992  0.39981  0.13010  Biso   1.000  C
  H1518    1.0000 0.68631  0.40630  0.26350  Biso   1.000  H
  H1519    1.0000 0.72430  0.42780  0.21829  Biso   1.000  H
  C1813    1.0000 0.73113  0.32288  0.23851  Biso   1.000  C
  C1814    1.0000 0.73113  0.32288  0.23848  Biso   1.000  C
  C1815    1.0000 0.66261  0.65769  0.14401  Biso   1.000  C
  C1816    1.0000 0.66261  0.65769  0.14397  Biso   1.000  C
  C1817    1.0000 0.64313  0.62179  0.29261  Biso   1.000  C
  H1520    1.0000 0.68612  0.60588  0.23391  Biso   1.000  H
  H1521    1.0000 0.66732  0.69011  0.24191  Biso   1.000  H
  C1818    1.0000 0.64313  0.62179  0.29258  Biso   1.000  C
  H1522    1.0000 0.68612  0.60588  0.23388  Biso   1.000  H
  H1523    1.0000 0.66732  0.69011  0.24188  Biso   1.000  H
  O280     1.0000 0.60510  0.29478  0.03920  Biso   1.000  O
  H1524    1.0000 0.65151  0.21599  0.01620  Biso   1.000  H
  H1525    1.0000 0.61051  0.19258  0.05880  Biso   1.000  H
  C1819    1.0000 0.22494  0.41688  0.64099  Biso   1.000  C
  H1526    1.0000 0.27746  0.47030  0.68929  Biso   1.000  H
  C1820    1.0000 0.25184  0.30490  0.62108  Biso   1.000  C
  H1527    1.0000 0.32514  0.27152  0.65390  Biso   1.000  H
  C1821    1.0000 0.64917  0.55981  0.86179  Biso   1.000  C
  H1528    1.0000 0.10106  0.64540  0.63959  Biso   1.000  H
  C1822    1.0000 0.71921  0.68050  0.07779  Biso   1.000  C
  C1823    1.0000 0.62576  0.69182  0.99561  Biso   1.000  C
  C1824    1.0000 0.64439  0.32248  0.07010  Biso   1.000  C
  H1529    1.0000 0.73531  0.42982  0.15331  Biso   1.000  H
  C1825    1.0000 0.72040  0.39311  0.08431  Biso   1.000  C
  H1530    1.0000 0.73530  0.42982  0.15328  Biso   1.000  H
  C1826    1.0000 0.72039  0.39311  0.08428  Biso   1.000  C
  H1531    1.0000 0.70671  0.28542  0.25248  Biso   1.000  H
  H1532    1.0000 0.74311  0.30541  0.20600  Biso   1.000  H
  C1827    1.0000 0.77951  0.33390  0.27191  Biso   1.000  C
  C1828    1.0000 0.77951  0.33390  0.27188  Biso   1.000  C
  H1533    1.0000 0.69660  0.63851  0.16399  Biso   1.000  H
  C1829    1.0000 0.69363  0.62829  0.32509  Biso   1.000  C
  H1534    1.0000 0.62872  0.57079  0.29399  Biso   1.000  H
  H1535    1.0000 0.61401  0.65618  0.30329  Biso   1.000  H
  C1830    1.0000 0.21574  0.35721  0.61638  Biso   1.000  C
  H1536    1.0000 0.19706  0.45741  0.63739  Biso   1.000  H
  H1537    1.0000 0.24463  0.25868  0.60210  Biso   1.000  H
  C1831    1.0000 0.69005  0.56132  0.90059  Biso   1.000  C
  C1832    1.0000 0.72172  0.61681  0.05111  Biso   1.000  C
  H1538    1.0000 0.72029  0.72238  0.05431  Biso   1.000  H
  C1833    1.0000 0.76753  0.68900  0.11490  Biso   1.000  C
  C1834    1.0000 0.72171  0.61681  0.05108  Biso   1.000  C
  H1539    1.0000 0.72028  0.72238  0.05427  Biso   1.000  H
  C1835    1.0000 0.76749  0.68900  0.11490  Biso   1.000  C
  H1540    1.0000 0.60591  0.64691  0.00549  Biso   1.000  H
  H1541    1.0000 0.60508  0.71332  0.96540  Biso   1.000  H
  O281     1.0000 0.67668  0.67400  0.98448  Biso   1.000  O
  C1836    1.0000 0.68759  0.35440  0.05431  Biso   1.000  C
  C1837    1.0000 0.68759  0.35440  0.05427  Biso   1.000  C
  C1838    1.0000 0.76431  0.43158  0.06351  Biso   1.000  C
  C1839    1.0000 0.76431  0.43158  0.06347  Biso   1.000  C
  C1840    1.0000 0.82964  0.32842  0.25791  Biso   1.000  C
  C1841    1.0000 0.77242  0.34679  0.31791  Biso   1.000  C
  C1842    1.0000 0.82963  0.32842  0.25787  Biso   1.000  C
  C1843    1.0000 0.77242  0.34679  0.31788  Biso   1.000  C
  C1844    1.0000 0.72973  0.57592  0.32979  Biso   1.000  C
  C1845    1.0000 0.70283  0.68790  0.34970  Biso   1.000  C
  H1542    1.0000 0.18064  0.35158  0.59379  Biso   1.000  H
  O282     1.0000 0.66376  0.55302  0.94020  Biso   1.000  O
  H1543    1.0000 0.71880  0.52210  0.89719  Biso   1.000  H
  H1544    1.0000 0.70916  0.60981  0.90162  Biso   1.000  H
  H1545    1.0000 0.70915  0.60981  0.90158  Biso   1.000  H
  C1846    1.0000 0.74429  0.55790  0.06969  Biso   1.000  C
  C1847    1.0000 0.69682  0.61630  0.00680  Biso   1.000  C
  C1848    1.0000 0.69678  0.61630  0.00680  Biso   1.000  C
  H1546    1.0000 0.76182  0.73391  0.13460  Biso   1.000  H
  H1547    1.0000 0.77012  0.64581  0.13742  Biso   1.000  H
  C1849    1.0000 0.81881  0.69510  0.09210  Biso   1.000  C
  H1548    1.0000 0.77012  0.64581  0.13738  Biso   1.000  H
  O283     1.0000 0.69719  0.34362  0.00862  Biso   1.000  O
  O284     1.0000 0.69719  0.34362  0.00858  Biso   1.000  O
  C1850    1.0000 0.74212  0.49869  0.04401  Biso   1.000  C
  H1549    1.0000 0.77771  0.40092  0.03639  Biso   1.000  H
  C1851    1.0000 0.81240  0.44432  0.09591  Biso   1.000  C
  C1852    1.0000 0.74211  0.49869  0.04397  Biso   1.000  C
  C1853    1.0000 0.81239  0.44432  0.09588  Biso   1.000  C
  C1854    1.0000 0.87274  0.33592  0.28970  Biso   1.000  C
  H1550    1.0000 0.83511  0.31840  0.22231  Biso   1.000  H
  H1551    1.0000 0.83510  0.31840  0.22228  Biso   1.000  H
  C1855    1.0000 0.81553  0.35429  0.34981  Biso   1.000  C
  H1552    1.0000 0.73362  0.35102  0.32880  Biso   1.000  H
  C1856    1.0000 0.77513  0.58312  0.35901  Biso   1.000  C
  H1553    1.0000 0.72262  0.52970  0.31071  Biso   1.000  H
  C1857    1.0000 0.74823  0.69510  0.37892  Biso   1.000  C
  H1554    1.0000 0.67494  0.72848  0.34610  Biso   1.000  H
  C1858    1.0000 0.74823  0.69510  0.37888  Biso   1.000  C
  C1859    1.0000 0.69469  0.55709  0.98109  Biso   1.000  C
  H1555    1.0000 0.76359  0.55830  0.10401  Biso   1.000  H
  H1556    1.0000 0.76359  0.55830  0.10398  Biso   1.000  H
  H1557    1.0000 0.82269  0.65270  0.06958  Biso   1.000  H
  H1558    1.0000 0.81799  0.74111  0.07230  Biso   1.000  H
  C1860    1.0000 0.86441  0.69600  0.12650  Biso   1.000  C
  C1861    1.0000 0.68198  0.39472  0.97690  Biso   1.000  C
  C1862    1.0000 0.71726  0.49829  0.99969  Biso   1.000  C
  H1559    1.0000 0.83940  0.47669  0.08019  Biso   1.000  H
  H1560    1.0000 0.80080  0.46788  0.12671  Biso   1.000  H
  C1863    1.0000 0.83801  0.37700  0.10800  Biso   1.000  C
  C1864    1.0000 0.86561  0.34881  0.33570  Biso   1.000  C
  H1561    1.0000 0.91154  0.33169  0.27881  Biso   1.000  H
  H1562    1.0000 0.91153  0.33169  0.27878  Biso   1.000  H
  H1563    1.0000 0.81002  0.36431  0.38530  Biso   1.000  H
  C1865    1.0000 0.78433  0.64279  0.38362  Biso   1.000  C
  H1564    1.0000 0.80302  0.54259  0.36261  Biso   1.000  H
  C1866    1.0000 0.78433  0.64279  0.38358  Biso   1.000  C
  H1565    1.0000 0.80302  0.54259  0.36258  Biso   1.000  H
  H1566    1.0000 0.75545  0.74132  0.39790  Biso   1.000  H
  C1867    1.0000 0.89111  0.63649  0.13810  Biso   1.000  C
  C1868    1.0000 0.88011  0.75622  0.14809  Biso   1.000  C
  O285     1.0000 0.71867  0.44250  0.97140  Biso   1.000  O
  H1567    1.0000 0.67157  0.37161  0.94391  Biso   1.000  H
  H1568    1.0000 0.64827  0.41939  0.98860  Biso   1.000  H
  H1569    1.0000 0.67157  0.37161  0.94387  Biso   1.000  H
  H1570    1.0000 0.84552  0.35148  0.07659  Biso   1.000  H
  H1571    1.0000 0.81199  0.34699  0.12660  Biso   1.000  H
  C1869    1.0000 0.88903  0.38732  0.13862  Biso   1.000  C
  C1870    1.0000 0.88902  0.38732  0.13858  Biso   1.000  C
  H1572    1.0000 0.89902  0.35460  0.36041  Biso   1.000  H
  H1573    1.0000 0.89902  0.35460  0.36038  Biso   1.000  H
  H1574    1.0000 0.81943  0.64842  0.40621  Biso   1.000  H
  C1871    1.0000 0.93341  0.63710  0.17120  Biso   1.000  C
  H1575    1.0000 0.87900  0.58992  0.12138  Biso   1.000  H
  C1872    1.0000 0.92240  0.75692  0.18118  Biso   1.000  C
  H1576    1.0000 0.85952  0.80239  0.13910  Biso   1.000  H
  C1873    1.0000 0.91612  0.32791  0.15149  Biso   1.000  C
  C1874    1.0000 0.91141  0.44940  0.15211  Biso   1.000  C
  C1875    1.0000 0.91140  0.44940  0.15207  Biso   1.000  C
  C1876    1.0000 0.94902  0.69731  0.19279  Biso   1.000  C
  H1577    1.0000 0.95403  0.59098  0.18019  Biso   1.000  H
  H1578    1.0000 0.93451  0.80349  0.19790  Biso   1.000  H
  C1877    1.0000 0.96370  0.33048  0.17799  Biso   1.000  C
  H1579    1.0000 0.89942  0.27978  0.14099  Biso   1.000  H
  C1878    1.0000 0.95903  0.45202  0.17861  Biso   1.000  C
  H1580    1.0000 0.89111  0.49542  0.14208  Biso   1.000  H
  C1879    1.0000 0.95903  0.45202  0.17858  Biso   1.000  C
  H1581    1.0000 0.98183  0.69781  0.21850  Biso   1.000  H
  C1880    1.0000 0.98523  0.39261  0.19152  Biso   1.000  C
  H1582    1.0000 0.98392  0.28451  0.18802  Biso   1.000  H
  C1881    1.0000 0.98523  0.39261  0.19148  Biso   1.000  C
  H1583    1.0000 0.98392  0.28451  0.18798  Biso   1.000  H
  H1584    1.0000 0.97561  0.50010  0.18911  Biso   1.000  H
  H1585    1.0000 0.97561  0.50010  0.18908  Biso   1.000  H
  H1586    1.0000 0.02210  0.39472  0.21201  Biso   1.000  H
  H1587    1.0000 0.02210  0.39472  0.21198  Biso   1.000  H
  O286     1.0000 0.28140  0.55750  0.02860  Biso   1.000  O
  C1882    1.0000 0.28282  0.50171  0.00031  Biso   1.000  C
  C1883    1.0000 0.28278  0.50171  0.00027  Biso   1.000  C
  C1884    1.0000 0.31810  0.60528  0.02310  Biso   1.000  C
  C1885    1.0000 0.30539  0.44291  0.01891  Biso   1.000  C
  C1886    1.0000 0.30539  0.44291  0.01888  Biso   1.000  C
  C1887    1.0000 0.25796  0.50131  0.95599  Biso   1.000  C
  H1588    1.0000 0.32850  0.62839  0.05609  Biso   1.000  H
  H1589    1.0000 0.35181  0.58061  0.01140  Biso   1.000  H
  O287     1.0000 0.30289  0.65638  0.99138  Biso   1.000  O
  O288     1.0000 0.33631  0.44698  0.05980  Biso   1.000  O
  C1888    1.0000 0.30326  0.38370  0.99320  Biso   1.000  C
  C1889    1.0000 0.25579  0.44210  0.93031  Biso   1.000  C
  C1890    1.0000 0.25575  0.44210  0.93028  Biso   1.000  C
  C1891    1.0000 0.23577  0.56842  0.93649  Biso   1.000  C
  C1892    1.0000 0.31248  0.64560  0.94569  Biso   1.000  C
  C1893    1.0000 0.31003  0.43868  0.09941  Biso   1.000  C
  C1894    1.0000 0.31002  0.43868  0.09938  Biso   1.000  C
  C1895    1.0000 0.27836  0.38319  0.94889  Biso   1.000  C
  O289     1.0000 0.32340  0.32600  0.01552  Biso   1.000  O
  O290     1.0000 0.32340  0.32600  0.01548  Biso   1.000  O
  H1590    1.0000 0.23649  0.44170  0.89599  Biso   1.000  H
  H1591    1.0000 0.23645  0.44170  0.89599  Biso   1.000  H
  H1592    1.0000 0.22237  0.59908  0.96361  Biso   1.000  H
  C1896    1.0000 0.18768  0.55568  0.90409  Biso   1.000  C
  C1897    1.0000 0.27968  0.60689  0.91569  Biso   1.000  C
  H1593    1.0000 0.22237  0.59908  0.96358  Biso   1.000  H
  C1898    1.0000 0.35569  0.67752  0.92990  Biso   1.000  C
  C1899    1.0000 0.35090  0.44019  0.13821  Biso   1.000  C
  H1594    1.0000 0.29092  0.39019  0.09838  Biso   1.000  H
  H1595    1.0000 0.28127  0.47790  0.10281  Biso   1.000  H
  H1596    1.0000 0.28127  0.47790  0.10278  Biso   1.000  H
  C1900    1.0000 0.28086  0.31950  0.92221  Biso   1.000  C
  C1901    1.0000 0.28086  0.31950  0.92218  Biso   1.000  C
  C1902    1.0000 0.37432  0.30818  0.00439  Biso   1.000  C
  H1597    1.0000 0.16068  0.52331  0.91981  Biso   1.000  H
  H1598    1.0000 0.19928  0.53212  0.87329  Biso   1.000  H
  C1903    1.0000 0.16206  0.62300  0.89200  Biso   1.000  C
  H1599    1.0000 0.16068  0.52331  0.91977  Biso   1.000  H
  C1904    1.0000 0.29016  0.60019  0.86990  Biso   1.000  C
  C1905    1.0000 0.36606  0.67078  0.88421  Biso   1.000  C
  O291     1.0000 0.39498  0.70522  0.96080  Biso   1.000  O
  C1906    1.0000 0.36606  0.67078  0.88418  Biso   1.000  C
  C1907    1.0000 0.38792  0.44301  0.16570  Biso   1.000  C
  C1908    1.0000 0.33299  0.31598  0.89969  Biso   1.000  C
  H1600    1.0000 0.27979  0.27762  0.94569  Biso   1.000  H
  C1909    1.0000 0.23255  0.31100  0.88510  Biso   1.000  C
  C1910    1.0000 0.33295  0.31598  0.89969  Biso   1.000  C
  H1601    1.0000 0.27975  0.27762  0.94569  Biso   1.000  H
  H1602    1.0000 0.39500  0.28668  0.03460  Biso   1.000  H
  O292     1.0000 0.37347  0.26150  0.96890  Biso   1.000  O
  H1603    1.0000 0.39417  0.35309  0.99451  Biso   1.000  H
  H1604    1.0000 0.39417  0.35309  0.99447  Biso   1.000  H
  H1605    1.0000 0.15456  0.64852  0.92341  Biso   1.000  H
  H1606    1.0000 0.18808  0.65301  0.87340  Biso   1.000  H
  C1911    1.0000 0.11105  0.61268  0.86138  Biso   1.000  C
  H1607    1.0000 0.15455  0.64852  0.92338  Biso   1.000  H
  C1912    1.0000 0.33337  0.63211  0.85410  Biso   1.000  C
  H1608    1.0000 0.26477  0.57018  0.84669  Biso   1.000  H
  O293     1.0000 0.40655  0.70778  0.86959  Biso   1.000  O
  C1913    1.0000 0.38608  0.77590  0.97089  Biso   1.000  C
  C1914    1.0000 0.43572  0.44759  0.19440  Biso   1.000  C
  C1915    1.0000 0.33747  0.34231  0.85599  Biso   1.000  C
  C1916    1.0000 0.37686  0.29121  0.92551  Biso   1.000  C
  C1917    1.0000 0.37686  0.29121  0.92547  Biso   1.000  C
  H1609    1.0000 0.23826  0.26609  0.86540  Biso   1.000  H
  H1610    1.0000 0.22995  0.35419  0.86258  Biso   1.000  H
  C1918    1.0000 0.18127  0.30490  0.90790  Biso   1.000  C
  C1919    1.0000 0.08396  0.67209  0.84851  Biso   1.000  C
  C1920    1.0000 0.08867  0.55060  0.84789  Biso   1.000  C
  C1921    1.0000 0.08396  0.67209  0.84847  Biso   1.000  C
  C1922    1.0000 0.34836  0.62109  0.80409  Biso   1.000  C
  C1923    1.0000 0.45255  0.67189  0.86770  Biso   1.000  C
  C1924    1.0000 0.43008  0.78698  0.00639  Biso   1.000  C
  H1611    1.0000 0.34856  0.78401  0.98380  Biso   1.000  H
  H1612    1.0000 0.38957  0.80742  0.94120  Biso   1.000  H
  O294     1.0000 0.47350  0.45902  0.16210  Biso   1.000  O
  H1613    1.0000 0.43500  0.48792  0.21912  Biso   1.000  H
  H1614    1.0000 0.44332  0.40051  0.21222  Biso   1.000  H
  H1615    1.0000 0.43500  0.48792  0.21908  Biso   1.000  H
  H1616    1.0000 0.44332  0.40051  0.21218  Biso   1.000  H
  C1925    1.0000 0.38577  0.34372  0.83800  Biso   1.000  C
  H1617    1.0000 0.30348  0.36149  0.83601  Biso   1.000  H
  H1618    1.0000 0.30347  0.36149  0.83598  Biso   1.000  H
  C1926    1.0000 0.42527  0.29262  0.90749  Biso   1.000  C
  H1619    1.0000 0.17739  0.34730  0.93042  Biso   1.000  H
  H1620    1.0000 0.18208  0.25889  0.92770  Biso   1.000  H
  C1927    1.0000 0.13566  0.30400  0.87350  Biso   1.000  C
  H1621    1.0000 0.17738  0.34730  0.93038  Biso   1.000  H
  C1928    1.0000 0.03638  0.66952  0.82201  Biso   1.000  C
  H1622    1.0000 0.10066  0.72022  0.85901  Biso   1.000  H
  C1929    1.0000 0.03637  0.66952  0.82197  Biso   1.000  C
  H1623    1.0000 0.10065  0.72022  0.85898  Biso   1.000  H
  C1930    1.0000 0.04105  0.54798  0.82139  Biso   1.000  C
  H1624    1.0000 0.10897  0.50458  0.85792  Biso   1.000  H
  H1625    1.0000 0.10896  0.50458  0.85788  Biso   1.000  H
  C1931    1.0000 0.38727  0.56359  0.80580  Biso   1.000  C
  H1626    1.0000 0.36597  0.66589  0.79149  Biso   1.000  H
  C1932    1.0000 0.30065  0.61021  0.76880  Biso   1.000  C
  H1627    1.0000 0.48497  0.70532  0.87638  Biso   1.000  H
  H1628    1.0000 0.45356  0.63110  0.89221  Biso   1.000  H
  O295     1.0000 0.45775  0.64399  0.82300  Biso   1.000  O
  H1629    1.0000 0.45356  0.63110  0.89217  Biso   1.000  H
  C1933    1.0000 0.46719  0.79252  0.03320  Biso   1.000  C
  C1934    1.0000 0.52342  0.47311  0.18149  Biso   1.000  C
  C1935    1.0000 0.39425  0.37302  0.79001  Biso   1.000  C
  C1936    1.0000 0.42968  0.31890  0.86379  Biso   1.000  C
  C1937    1.0000 0.39425  0.37302  0.78998  Biso   1.000  C
  O296     1.0000 0.46768  0.27621  0.93660  Biso   1.000  O
  C1938    1.0000 0.10897  0.36351  0.86190  Biso   1.000  C
  C1939    1.0000 0.11997  0.24378  0.85191  Biso   1.000  C
  C1940    1.0000 0.11997  0.24378  0.85187  Biso   1.000  C
  C1941    1.0000 0.01485  0.60739  0.80848  Biso   1.000  C
  H1630    1.0000 0.01616  0.71549  0.81198  Biso   1.000  H
  H1631    1.0000 0.02447  0.49990  0.81089  Biso   1.000  H
  C1942    1.0000 0.37166  0.49738  0.79650  Biso   1.000  C
  C1943    1.0000 0.43977  0.57839  0.81679  Biso   1.000  C
  H1632    1.0000 0.31377  0.59370  0.73650  Biso   1.000  H
  H1633    1.0000 0.27577  0.57220  0.78171  Biso   1.000  H
  C1944    1.0000 0.26895  0.67712  0.76149  Biso   1.000  C
  H1634    1.0000 0.27577  0.57220  0.78167  Biso   1.000  H
  C1945    1.0000 0.51472  0.79030  0.06749  Biso   1.000  C
  C1946    1.0000 0.51468  0.79030  0.06749  Biso   1.000  C
  C1947    1.0000 0.53902  0.53942  0.19069  Biso   1.000  C
  C1948    1.0000 0.56031  0.42161  0.18321  Biso   1.000  C
  C1949    1.0000 0.56031  0.42161  0.18318  Biso   1.000  C
  C1950    1.0000 0.34497  0.36180  0.75651  Biso   1.000  C
  H1635    1.0000 0.42507  0.34810  0.77371  Biso   1.000  H
  C1951    1.0000 0.40867  0.44588  0.79829  Biso   1.000  C
  C1952    1.0000 0.34497  0.36180  0.75648  Biso   1.000  C
  H1636    1.0000 0.42507  0.34810  0.77367  Biso   1.000  H
  O297     1.0000 0.47857  0.31548  0.84861  Biso   1.000  O
  O298     1.0000 0.47856  0.31548  0.84858  Biso   1.000  O
  C1953    1.0000 0.48536  0.20970  0.93251  Biso   1.000  C
  C1954    1.0000 0.48535  0.20970  0.93248  Biso   1.000  C
  C1955    1.0000 0.06667  0.36290  0.82880  Biso   1.000  C
  H1637    1.0000 0.12108  0.41008  0.87862  Biso   1.000  H
  H1638    1.0000 0.12108  0.41008  0.87858  Biso   1.000  H
  C1956    1.0000 0.07768  0.24308  0.81882  Biso   1.000  C
  H1639    1.0000 0.14055  0.19761  0.86090  Biso   1.000  H
  C1957    1.0000 0.07767  0.24308  0.81878  Biso   1.000  C
  H1640    1.0000 0.97797  0.60528  0.78799  Biso   1.000  H
  H1641    1.0000 0.33107  0.48600  0.78799  Biso   1.000  H
  C1958    1.0000 0.47666  0.52689  0.81851  Biso   1.000  C
  C1959    1.0000 0.47666  0.52689  0.81847  Biso   1.000  C
  H1642    1.0000 0.29336  0.71458  0.74752  Biso   1.000  H
  H1643    1.0000 0.25697  0.69459  0.79400  Biso   1.000  H
  C1960    1.0000 0.22057  0.66610  0.72809  Biso   1.000  C
  H1644    1.0000 0.29336  0.71458  0.74748  Biso   1.000  H
  O299     1.0000 0.53239  0.72379  0.06340  Biso   1.000  O
  H1645    1.0000 0.54352  0.82640  0.05860  Biso   1.000  H
  H1646    1.0000 0.50429  0.80022  0.10189  Biso   1.000  H
  O300     1.0000 0.50031  0.58650  0.19021  Biso   1.000  O
  C1961    1.0000 0.59140  0.55412  0.20171  Biso   1.000  C
  O301     1.0000 0.50030  0.58650  0.19018  Biso   1.000  O
  C1962    1.0000 0.59140  0.55412  0.20168  Biso   1.000  C
  O302     1.0000 0.54233  0.35601  0.17700  Biso   1.000  O
  C1963    1.0000 0.61281  0.43641  0.19420  Biso   1.000  C
  C1964    1.0000 0.35695  0.37821  0.70739  Biso   1.000  C
  H1647    1.0000 0.31396  0.39412  0.76609  Biso   1.000  H
  H1648    1.0000 0.33276  0.30989  0.75809  Biso   1.000  H
  C1965    1.0000 0.46106  0.46058  0.80931  Biso   1.000  C
  C1966    1.0000 0.46106  0.46058  0.80927  Biso   1.000  C
  C1967    1.0000 0.50747  0.37338  0.85029  Biso   1.000  C
  H1649    1.0000 0.45656  0.17360  0.94140  Biso   1.000  H
  H1650    1.0000 0.49579  0.19978  0.89811  Biso   1.000  H
  C1968    1.0000 0.53289  0.20748  0.96680  Biso   1.000  C
  H1651    1.0000 0.49575  0.19978  0.89808  Biso   1.000  H
  C1969    1.0000 0.05106  0.30269  0.80721  Biso   1.000  C
  H1652    1.0000 0.04605  0.40902  0.81981  Biso   1.000  H
  C1970    1.0000 0.05106  0.30269  0.80718  Biso   1.000  C
  H1653    1.0000 0.04605  0.40902  0.81978  Biso   1.000  H
  H1654    1.0000 0.06557  0.19651  0.80210  Biso   1.000  H
  O303     1.0000 0.52657  0.54098  0.83790  Biso   1.000  O
  C1971    1.0000 0.17044  0.67158  0.74209  Biso   1.000  C
  C1972    1.0000 0.22765  0.65321  0.68209  Biso   1.000  C
  C1973    1.0000 0.57480  0.70738  0.09251  Biso   1.000  C
  C1974    1.0000 0.57480  0.70738  0.09248  Biso   1.000  C
  C1975    1.0000 0.49261  0.62662  0.14971  Biso   1.000  C
  C1976    1.0000 0.62842  0.50262  0.20350  Biso   1.000  C
  C1977    1.0000 0.60583  0.62698  0.20999  Biso   1.000  C
  C1978    1.0000 0.54752  0.32811  0.13230  Biso   1.000  C
  C1979    1.0000 0.65172  0.37891  0.19591  Biso   1.000  C
  C1980    1.0000 0.65172  0.37891  0.19588  Biso   1.000  C
  C1981    1.0000 0.30645  0.37171  0.67491  Biso   1.000  C
  H1655    1.0000 0.37136  0.42921  0.70601  Biso   1.000  H
  H1656    1.0000 0.38607  0.34382  0.69671  Biso   1.000  H
  C1982    1.0000 0.30645  0.37171  0.67488  Biso   1.000  C
  H1657    1.0000 0.37135  0.42921  0.70598  Biso   1.000  H
  H1658    1.0000 0.38603  0.34382  0.69668  Biso   1.000  H
  O304     1.0000 0.49977  0.41350  0.80979  Biso   1.000  O
  H1659    1.0000 0.49657  0.40328  0.87879  Biso   1.000  H
  H1660    1.0000 0.54817  0.36029  0.85568  Biso   1.000  H
  C1983    1.0000 0.56999  0.21302  0.99361  Biso   1.000  C
  C1984    1.0000 0.56999  0.21302  0.99358  Biso   1.000  C
  H1661    1.0000 0.01825  0.30219  0.78150  Biso   1.000  H
  C1985    1.0000 0.56436  0.55241  0.80560  Biso   1.000  C
  C1986    1.0000 0.12734  0.66408  0.71030  Biso   1.000  C
  H1662    1.0000 0.16497  0.68160  0.77769  Biso   1.000  H
  C1987    1.0000 0.18454  0.64571  0.65019  Biso   1.000  C
  H1663    1.0000 0.26645  0.64898  0.67120  Biso   1.000  H
  C1988    1.0000 0.57040  0.68110  0.13621  Biso   1.000  C
  C1989    1.0000 0.57040  0.68110  0.13618  Biso   1.000  C
  C1990    1.0000 0.62322  0.70879  0.07449  Biso   1.000  C
  O305     1.0000 0.52151  0.68452  0.15139  Biso   1.000  O
  H1664    1.0000 0.50351  0.59672  0.12121  Biso   1.000  H
  H1665    1.0000 0.45191  0.63971  0.14432  Biso   1.000  H
  H1666    1.0000 0.50350  0.59672  0.12118  Biso   1.000  H
  H1667    1.0000 0.45190  0.63971  0.14428  Biso   1.000  H
  H1668    1.0000 0.66901  0.51400  0.21201  Biso   1.000  H
  H1669    1.0000 0.66900  0.51400  0.21198  Biso   1.000  H
  C1991    1.0000 0.61431  0.65628  0.16200  Biso   1.000  C
  C1992    1.0000 0.65511  0.63820  0.24349  Biso   1.000  C
  H1670    1.0000 0.57501  0.65190  0.22629  Biso   1.000  H
  H1671    1.0000 0.54652  0.36890  0.10779  Biso   1.000  H
  O306     1.0000 0.59353  0.29222  0.13041  Biso   1.000  O
  H1672    1.0000 0.51511  0.29468  0.12362  Biso   1.000  H
  O307     1.0000 0.59352  0.29222  0.13038  Biso   1.000  O
  H1673    1.0000 0.51510  0.29468  0.12358  Biso   1.000  H
  C1993    1.0000 0.66671  0.36789  0.14590  Biso   1.000  C
  C1994    1.0000 0.69943  0.38979  0.23120  Biso   1.000  C
  H1674    1.0000 0.63411  0.33411  0.20851  Biso   1.000  H
  H1675    1.0000 0.63411  0.33411  0.20848  Biso   1.000  H
  C1995    1.0000 0.27035  0.42408  0.67021  Biso   1.000  C
  C1996    1.0000 0.29725  0.31210  0.65030  Biso   1.000  C
  C1997    1.0000 0.27035  0.42408  0.67017  Biso   1.000  C
  C1998    1.0000 0.61400  0.22410  0.02911  Biso   1.000  C
  C1999    1.0000 0.61400  0.22410  0.02908  Biso   1.000  C
  C2000    1.0000 0.61216  0.55699  0.83430  Biso   1.000  C
  H1676    1.0000 0.56508  0.51208  0.78088  Biso   1.000  H
  H1677    1.0000 0.55676  0.59949  0.78778  Biso   1.000  H
  H1678    1.0000 0.56504  0.51208  0.78088  Biso   1.000  H
  C2001    1.0000 0.13447  0.65119  0.66430  Biso   1.000  C
  H1679    1.0000 0.08854  0.66831  0.72119  Biso   1.000  H
  H1680    1.0000 0.19006  0.63569  0.61470  Biso   1.000  H
  C2002    1.0000 0.66709  0.68402  0.10031  Biso   1.000  C
  C2003    1.0000 0.66709  0.68402  0.10027  Biso   1.000  C
  O308     1.0000 0.62660  0.73850  0.03110  Biso   1.000  O
  C2004    1.0000 0.66261  0.65769  0.14401  Biso   1.000  C
  C2005    1.0000 0.66261  0.65769  0.14397  Biso   1.000  C
  C2006    1.0000 0.64313  0.62179  0.29261  Biso   1.000  C
  H1681    1.0000 0.68612  0.60588  0.23391  Biso   1.000  H
  H1682    1.0000 0.66732  0.69011  0.24191  Biso   1.000  H
  C2007    1.0000 0.64313  0.62179  0.29258  Biso   1.000  C
  H1683    1.0000 0.68612  0.60588  0.23388  Biso   1.000  H
  H1684    1.0000 0.66732  0.69011  0.24188  Biso   1.000  H
  C2008    1.0000 0.63402  0.32922  0.11579  Biso   1.000  C
  C2009    1.0000 0.70992  0.39981  0.13010  Biso   1.000  C
  H1685    1.0000 0.68631  0.40630  0.26350  Biso   1.000  H
  H1686    1.0000 0.72430  0.42780  0.21829  Biso   1.000  H
  C2010    1.0000 0.73113  0.32288  0.23851  Biso   1.000  C
  C2011    1.0000 0.73113  0.32288  0.23848  Biso   1.000  C
  C2012    1.0000 0.22494  0.41688  0.64099  Biso   1.000  C
  H1687    1.0000 0.27746  0.47030  0.68929  Biso   1.000  H
  C2013    1.0000 0.25184  0.30490  0.62108  Biso   1.000  C
  H1688    1.0000 0.32514  0.27152  0.65390  Biso   1.000  H
  O309     1.0000 0.60510  0.29478  0.03920  Biso   1.000  O
  H1689    1.0000 0.65151  0.21599  0.01620  Biso   1.000  H
  H1690    1.0000 0.61051  0.19258  0.05880  Biso   1.000  H
  C2014    1.0000 0.64917  0.55981  0.86179  Biso   1.000  C
  H1691    1.0000 0.10106  0.64540  0.63959  Biso   1.000  H
  C2015    1.0000 0.71921  0.68050  0.07779  Biso   1.000  C
  C2016    1.0000 0.62576  0.69182  0.99561  Biso   1.000  C
  H1692    1.0000 0.69660  0.63851  0.16399  Biso   1.000  H
  C2017    1.0000 0.69363  0.62829  0.32509  Biso   1.000  C
  H1693    1.0000 0.62872  0.57079  0.29399  Biso   1.000  H
  H1694    1.0000 0.61401  0.65618  0.30329  Biso   1.000  H
  C2018    1.0000 0.64439  0.32248  0.07010  Biso   1.000  C
  H1695    1.0000 0.73531  0.42982  0.15331  Biso   1.000  H
  C2019    1.0000 0.72040  0.39311  0.08431  Biso   1.000  C
  H1696    1.0000 0.73530  0.42982  0.15328  Biso   1.000  H
  C2020    1.0000 0.72039  0.39311  0.08428  Biso   1.000  C
  H1697    1.0000 0.70671  0.28542  0.25248  Biso   1.000  H
  H1698    1.0000 0.74311  0.30541  0.20600  Biso   1.000  H
  C2021    1.0000 0.77951  0.33390  0.27191  Biso   1.000  C
  C2022    1.0000 0.77951  0.33390  0.27188  Biso   1.000  C
  C2023    1.0000 0.21574  0.35721  0.61638  Biso   1.000  C
  H1699    1.0000 0.19706  0.45741  0.63739  Biso   1.000  H
  H1700    1.0000 0.24463  0.25868  0.60210  Biso   1.000  H
  C2024    1.0000 0.69005  0.56132  0.90059  Biso   1.000  C
  C2025    1.0000 0.72172  0.61681  0.05111  Biso   1.000  C
  H1701    1.0000 0.72029  0.72238  0.05431  Biso   1.000  H
  C2026    1.0000 0.76753  0.68900  0.11490  Biso   1.000  C
  C2027    1.0000 0.72171  0.61681  0.05108  Biso   1.000  C
  H1702    1.0000 0.72028  0.72238  0.05427  Biso   1.000  H
  C2028    1.0000 0.76749  0.68900  0.11490  Biso   1.000  C
  H1703    1.0000 0.60591  0.64691  0.00549  Biso   1.000  H
  H1704    1.0000 0.60508  0.71332  0.96540  Biso   1.000  H
  O310     1.0000 0.67668  0.67400  0.98448  Biso   1.000  O
  C2029    1.0000 0.72973  0.57592  0.32979  Biso   1.000  C
  C2030    1.0000 0.70283  0.68790  0.34970  Biso   1.000  C
  C2031    1.0000 0.68759  0.35440  0.05431  Biso   1.000  C
  C2032    1.0000 0.68759  0.35440  0.05427  Biso   1.000  C
  C2033    1.0000 0.76431  0.43158  0.06351  Biso   1.000  C
  C2034    1.0000 0.76431  0.43158  0.06347  Biso   1.000  C
  C2035    1.0000 0.82964  0.32842  0.25791  Biso   1.000  C
  C2036    1.0000 0.77242  0.34679  0.31791  Biso   1.000  C
  C2037    1.0000 0.82963  0.32842  0.25787  Biso   1.000  C
  C2038    1.0000 0.77242  0.34679  0.31788  Biso   1.000  C
  H1705    1.0000 0.18064  0.35158  0.59379  Biso   1.000  H
  O311     1.0000 0.66376  0.55302  0.94020  Biso   1.000  O
  H1706    1.0000 0.71880  0.52210  0.89719  Biso   1.000  H
  H1707    1.0000 0.70916  0.60981  0.90162  Biso   1.000  H
  H1708    1.0000 0.70915  0.60981  0.90158  Biso   1.000  H
  C2039    1.0000 0.74429  0.55790  0.06969  Biso   1.000  C
  C2040    1.0000 0.69682  0.61630  0.00680  Biso   1.000  C
  C2041    1.0000 0.69678  0.61630  0.00680  Biso   1.000  C
  H1709    1.0000 0.76182  0.73391  0.13460  Biso   1.000  H
  C2042    1.0000 0.81881  0.69510  0.09210  Biso   1.000  C
  H1710    1.0000 0.77012  0.64581  0.13742  Biso   1.000  H
  H1711    1.0000 0.77012  0.64581  0.13738  Biso   1.000  H
  C2043    1.0000 0.77513  0.58312  0.35901  Biso   1.000  C
  H1712    1.0000 0.72262  0.52970  0.31071  Biso   1.000  H
  H1713    1.0000 0.67494  0.72848  0.34610  Biso   1.000  H
  C2044    1.0000 0.74823  0.69510  0.37892  Biso   1.000  C
  C2045    1.0000 0.74823  0.69510  0.37888  Biso   1.000  C
  O312     1.0000 0.69719  0.34362  0.00862  Biso   1.000  O
  O313     1.0000 0.69719  0.34362  0.00858  Biso   1.000  O
  H1714    1.0000 0.77771  0.40092  0.03639  Biso   1.000  H
  C2046    1.0000 0.74212  0.49869  0.04401  Biso   1.000  C
  C2047    1.0000 0.81240  0.44432  0.09591  Biso   1.000  C
  C2048    1.0000 0.74211  0.49869  0.04397  Biso   1.000  C
  C2049    1.0000 0.81239  0.44432  0.09588  Biso   1.000  C
  C2050    1.0000 0.87274  0.33592  0.28970  Biso   1.000  C
  H1715    1.0000 0.83511  0.31840  0.22231  Biso   1.000  H
  H1716    1.0000 0.83510  0.31840  0.22228  Biso   1.000  H
  C2051    1.0000 0.81553  0.35429  0.34981  Biso   1.000  C
  H1717    1.0000 0.73362  0.35102  0.32880  Biso   1.000  H
  C2052    1.0000 0.69469  0.55709  0.98109  Biso   1.000  C
  H1718    1.0000 0.76359  0.55830  0.10401  Biso   1.000  H
  H1719    1.0000 0.76359  0.55830  0.10398  Biso   1.000  H
  H1720    1.0000 0.82269  0.65270  0.06958  Biso   1.000  H
  H1721    1.0000 0.81799  0.74111  0.07230  Biso   1.000  H
  C2053    1.0000 0.86441  0.69600  0.12650  Biso   1.000  C
  C2054    1.0000 0.78433  0.64279  0.38362  Biso   1.000  C
  H1722    1.0000 0.80302  0.54259  0.36261  Biso   1.000  H
  C2055    1.0000 0.78433  0.64279  0.38358  Biso   1.000  C
  H1723    1.0000 0.80302  0.54259  0.36258  Biso   1.000  H
  H1724    1.0000 0.75545  0.74132  0.39790  Biso   1.000  H
  C2056    1.0000 0.68198  0.39472  0.97690  Biso   1.000  C
  C2057    1.0000 0.71726  0.49829  0.99969  Biso   1.000  C
  H1725    1.0000 0.83940  0.47669  0.08019  Biso   1.000  H
  H1726    1.0000 0.80080  0.46788  0.12671  Biso   1.000  H
  C2058    1.0000 0.83801  0.37700  0.10800  Biso   1.000  C
  C2059    1.0000 0.86561  0.34881  0.33570  Biso   1.000  C
  H1727    1.0000 0.91154  0.33169  0.27881  Biso   1.000  H
  H1728    1.0000 0.91153  0.33169  0.27878  Biso   1.000  H
  H1729    1.0000 0.81002  0.36431  0.38530  Biso   1.000  H
  C2060    1.0000 0.89111  0.63649  0.13810  Biso   1.000  C
  C2061    1.0000 0.88011  0.75622  0.14809  Biso   1.000  C
  H1730    1.0000 0.81943  0.64842  0.40621  Biso   1.000  H
  O314     1.0000 0.71867  0.44250  0.97140  Biso   1.000  O
  H1731    1.0000 0.67157  0.37161  0.94391  Biso   1.000  H
  H1732    1.0000 0.64827  0.41939  0.98860  Biso   1.000  H
  H1733    1.0000 0.67157  0.37161  0.94387  Biso   1.000  H
  H1734    1.0000 0.84552  0.35148  0.07659  Biso   1.000  H
  H1735    1.0000 0.81199  0.34699  0.12660  Biso   1.000  H
  C2062    1.0000 0.88903  0.38732  0.13862  Biso   1.000  C
  C2063    1.0000 0.88902  0.38732  0.13858  Biso   1.000  C
  H1736    1.0000 0.89902  0.35460  0.36041  Biso   1.000  H
  H1737    1.0000 0.89902  0.35460  0.36038  Biso   1.000  H
  C2064    1.0000 0.93341  0.63710  0.17120  Biso   1.000  C
  H1738    1.0000 0.87900  0.58992  0.12138  Biso   1.000  H
  C2065    1.0000 0.92240  0.75692  0.18118  Biso   1.000  C
  H1739    1.0000 0.85952  0.80239  0.13910  Biso   1.000  H
  C2066    1.0000 0.91612  0.32791  0.15149  Biso   1.000  C
  C2067    1.0000 0.91141  0.44940  0.15211  Biso   1.000  C
  C2068    1.0000 0.91140  0.44940  0.15207  Biso   1.000  C
  C2069    1.0000 0.94902  0.69731  0.19279  Biso   1.000  C
  H1740    1.0000 0.95403  0.59098  0.18019  Biso   1.000  H
  H1741    1.0000 0.93451  0.80349  0.19790  Biso   1.000  H
  C2070    1.0000 0.96370  0.33048  0.17799  Biso   1.000  C
  H1742    1.0000 0.89942  0.27978  0.14099  Biso   1.000  H
  H1743    1.0000 0.89111  0.49542  0.14208  Biso   1.000  H
  C2071    1.0000 0.95903  0.45202  0.17861  Biso   1.000  C
  C2072    1.0000 0.95903  0.45202  0.17858  Biso   1.000  C
  H1744    1.0000 0.98183  0.69781  0.21850  Biso   1.000  H
  C2073    1.0000 0.98523  0.39261  0.19152  Biso   1.000  C
  H1745    1.0000 0.98392  0.28451  0.18802  Biso   1.000  H
  C2074    1.0000 0.98523  0.39261  0.19148  Biso   1.000  C
  H1746    1.0000 0.98392  0.28451  0.18798  Biso   1.000  H
  H1747    1.0000 0.97561  0.50010  0.18911  Biso   1.000  H
  H1748    1.0000 0.97561  0.50010  0.18908  Biso   1.000  H
  H1749    1.0000 0.02210  0.39472  0.21201  Biso   1.000  H
  H1750    1.0000 0.02210  0.39472  0.21198  Biso   1.000  H
  C2075    1.0000 0.98532  0.29030  0.43250  Biso   1.000  C
  C2076    1.0000 0.03285  0.29252  0.46680  Biso   1.000  C
  O315     1.0000 0.96765  0.22379  0.43659  Biso   1.000  O
  H1751    1.0000 0.95652  0.32640  0.44139  Biso   1.000  H
  H1752    1.0000 0.99571  0.30022  0.39811  Biso   1.000  H
  C2077    1.0000 0.06996  0.28698  0.49361  Biso   1.000  C
  C2078    1.0000 0.92524  0.20738  0.40751  Biso   1.000  C
  C2079    1.0000 0.11404  0.27590  0.52910  Biso   1.000  C
  C2080    1.0000 0.92964  0.18110  0.36381  Biso   1.000  C
  C2081    1.0000 0.87682  0.20879  0.42550  Biso   1.000  C
  O316     1.0000 0.10514  0.20522  0.53919  Biso   1.000  O
  H1753    1.0000 0.15155  0.28401  0.51619  Biso   1.000  H
  H1754    1.0000 0.11055  0.30742  0.55880  Biso   1.000  H
  C2082    1.0000 0.88573  0.15628  0.33800  Biso   1.000  C
  O317     1.0000 0.97853  0.18452  0.34860  Biso   1.000  O
  C2083    1.0000 0.83291  0.18402  0.39972  Biso   1.000  C
  O318     1.0000 0.87344  0.23850  0.46889  Biso   1.000  O
  C2084    1.0000 0.14443  0.17752  0.57009  Biso   1.000  C
  C2085    1.0000 0.89421  0.12698  0.29001  Biso   1.000  C
  C2086    1.0000 0.83743  0.15769  0.35602  Biso   1.000  C
  C2087    1.0000 0.00743  0.12662  0.35029  Biso   1.000  C
  C2088    1.0000 0.78083  0.18050  0.42220  Biso   1.000  C
  C2089    1.0000 0.87436  0.19182  0.50442  Biso   1.000  C
  C2090    1.0000 0.18763  0.14560  0.55430  Biso   1.000  C
  C2091    1.0000 0.13406  0.17078  0.61581  Biso   1.000  C
  C2092    1.0000 0.90864  0.05412  0.29831  Biso   1.000  C
  C2093    1.0000 0.84493  0.13820  0.25650  Biso   1.000  C
  H1755    1.0000 0.92503  0.15190  0.27370  Biso   1.000  H
  H1756    1.0000 0.80344  0.13851  0.33601  Biso   1.000  H
  O319     1.0000 0.99974  0.08650  0.30981  Biso   1.000  O
  H1757    1.0000 0.04814  0.13971  0.35571  Biso   1.000  H
  H1758    1.0000 0.99654  0.09672  0.37881  Biso   1.000  H
  C2094    1.0000 0.77833  0.11681  0.44891  Biso   1.000  C
  H1759    1.0000 0.77972  0.22238  0.44572  Biso   1.000  H
  C2095    1.0000 0.73251  0.18900  0.38509  Biso   1.000  C
  H1760    1.0000 0.89504  0.21332  0.53459  Biso   1.000  H
  H1761    1.0000 0.89413  0.14691  0.49450  Biso   1.000  H
  O320     1.0000 0.82344  0.17400  0.51551  Biso   1.000  O
  O321     1.0000 0.19723  0.15638  0.50861  Biso   1.000  O
  C2096    1.0000 0.22044  0.10689  0.58430  Biso   1.000  C
  C2097    1.0000 0.16676  0.13211  0.64592  Biso   1.000  C
  O322     1.0000 0.09357  0.20778  0.63040  Biso   1.000  O
  C2098    1.0000 0.96102  0.03942  0.30930  Biso   1.000  C
  C2099    1.0000 0.87162  0.00262  0.29649  Biso   1.000  C
  C2100    1.0000 0.85691  0.12179  0.20741  Biso   1.000  C
  H1762    1.0000 0.81392  0.10588  0.26611  Biso   1.000  H
  H1763    1.0000 0.83272  0.19011  0.25811  Biso   1.000  H
  C2101    1.0000 0.75575  0.05790  0.43030  Biso   1.000  C
  C2102    1.0000 0.80322  0.11630  0.49319  Biso   1.000  C
  H1764    1.0000 0.73822  0.23391  0.36539  Biso   1.000  H
  H1765    1.0000 0.72992  0.14581  0.36261  Biso   1.000  H
  C2103    1.0000 0.68123  0.19510  0.40789  Biso   1.000  C
  C2104    1.0000 0.18194  0.10528  0.47689  Biso   1.000  C
  C2105    1.0000 0.26435  0.06842  0.56350  Biso   1.000  C
  C2106    1.0000 0.20996  0.10019  0.63010  Biso   1.000  C
  C2107    1.0000 0.15176  0.12109  0.69590  Biso   1.000  C
  C2108    1.0000 0.04756  0.17189  0.63229  Biso   1.000  C
  C2109    1.0000 0.97662  0.97311  0.31850  Biso   1.000  C
  C2110    1.0000 0.88723  0.93641  0.30580  Biso   1.000  C
  H1766    1.0000 0.83104  0.01400  0.28801  Biso   1.000  H
  C2111    1.0000 0.80641  0.12829  0.17490  Biso   1.000  C
  H1767    1.0000 0.87132  0.07079  0.20600  Biso   1.000  H
  H1768    1.0000 0.88603  0.15618  0.19670  Biso   1.000  H
  C2112    1.0000 0.75793  0.99869  0.45602  Biso   1.000  C
  H1769    1.0000 0.73641  0.05830  0.39601  Biso   1.000  H
  C2113    1.0000 0.80543  0.05709  0.51891  Biso   1.000  C
  H1770    1.0000 0.67735  0.15270  0.43041  Biso   1.000  H
  H1771    1.0000 0.68205  0.24111  0.42770  Biso   1.000  H
  C2114    1.0000 0.63562  0.19600  0.37349  Biso   1.000  C
  O323     1.0000 0.21864  0.05750  0.47140  Biso   1.000  O
  H1772    1.0000 0.17154  0.12839  0.44390  Biso   1.000  H
  H1773    1.0000 0.14823  0.08061  0.48859  Biso   1.000  H
  C2115    1.0000 0.24216  0.00131  0.54400  Biso   1.000  C
  H1774    1.0000 0.27775  0.09908  0.53641  Biso   1.000  H
  C2116    1.0000 0.31244  0.05568  0.59590  Biso   1.000  C
  H1775    1.0000 0.23535  0.07018  0.65330  Biso   1.000  H
  C2117    1.0000 0.11285  0.06359  0.69422  Biso   1.000  C
  H1776    1.0000 0.13415  0.16589  0.70850  Biso   1.000  H
  C2118    1.0000 0.19947  0.11021  0.73119  Biso   1.000  C
  H1777    1.0000 0.01515  0.20532  0.62361  Biso   1.000  H
  H1778    1.0000 0.04656  0.13110  0.60782  Biso   1.000  H
  O324     1.0000 0.04237  0.14399  0.67699  Biso   1.000  O
  O325     1.0000 0.02653  0.95902  0.33789  Biso   1.000  O
  C2119    1.0000 0.93973  0.92161  0.31682  Biso   1.000  C
  C2120    1.0000 0.84832  0.87891  0.30411  Biso   1.000  C
  C2121    1.0000 0.77031  0.07592  0.17020  Biso   1.000  C
  C2122    1.0000 0.79721  0.18790  0.15029  Biso   1.000  C
  C2123    1.0000 0.73573  0.93158  0.43652  Biso   1.000  C
  C2124    1.0000 0.78282  0.99829  0.50030  Biso   1.000  C
  O326     1.0000 0.83635  0.05302  0.55979  Biso   1.000  O
  C2125    1.0000 0.60893  0.13649  0.36189  Biso   1.000  C
  C2126    1.0000 0.61993  0.25622  0.35190  Biso   1.000  C
  C2127    1.0000 0.21722  0.00171  0.49972  Biso   1.000  C
  C2128    1.0000 0.24433  0.94210  0.56971  Biso   1.000  C
  H1779    1.0000 0.33944  0.02331  0.58022  Biso   1.000  H
  H1780    1.0000 0.30084  0.03212  0.62670  Biso   1.000  H
  C2129    1.0000 0.33805  0.12300  0.60799  Biso   1.000  C
  C2130    1.0000 0.06035  0.07839  0.68320  Biso   1.000  C
  C2131    1.0000 0.12846  0.99738  0.70349  Biso   1.000  C
  H1781    1.0000 0.18635  0.09370  0.76350  Biso   1.000  H
  H1782    1.0000 0.22435  0.07220  0.71832  Biso   1.000  H
  C2132    1.0000 0.23117  0.17712  0.73850  Biso   1.000  C
  C2133    1.0000 0.06432  0.94759  0.30559  Biso   1.000  C
  O327     1.0000 0.95771  0.85601  0.32299  Biso   1.000  O
  C2134    1.0000 0.83333  0.86789  0.35410  Biso   1.000  C
  H1783    1.0000 0.86593  0.83411  0.29152  Biso   1.000  H
  C2135    1.0000 0.80061  0.88979  0.26879  Biso   1.000  C
  C2136    1.0000 0.72491  0.08312  0.14099  Biso   1.000  C
  H1784    1.0000 0.77742  0.02970  0.18929  Biso   1.000  H
  C2137    1.0000 0.75181  0.19510  0.12111  Biso   1.000  C
  H1785    1.0000 0.82510  0.22848  0.15389  Biso   1.000  H
  C2138    1.0000 0.77965  0.89311  0.41572  Biso   1.000  C
  H1786    1.0000 0.72233  0.90092  0.46360  Biso   1.000  H
  C2139    1.0000 0.68765  0.94432  0.40411  Biso   1.000  C
  O328     1.0000 0.78144  0.94250  0.52859  Biso   1.000  O
  C2140    1.0000 0.81007  0.06132  0.59941  Biso   1.000  C
  C2141    1.0000 0.56663  0.13710  0.32880  Biso   1.000  C
  H1787    1.0000 0.62104  0.08992  0.37861  Biso   1.000  H
  C2142    1.0000 0.57764  0.25692  0.31881  Biso   1.000  C
  H1788    1.0000 0.64052  0.30239  0.36089  Biso   1.000  H
  C2143    1.0000 0.19465  0.94291  0.48111  Biso   1.000  C
  C2144    1.0000 0.22176  0.88319  0.55111  Biso   1.000  C
  H1789    1.0000 0.26363  0.94170  0.60401  Biso   1.000  H
  H1790    1.0000 0.34556  0.14852  0.57661  Biso   1.000  H
  H1791    1.0000 0.31203  0.15301  0.62659  Biso   1.000  H
  C2145    1.0000 0.38907  0.11268  0.63861  Biso   1.000  C
  C2146    1.0000 0.02346  0.02689  0.68152  Biso   1.000  C
  C2147    1.0000 0.09144  0.94588  0.70170  Biso   1.000  C
  H1792    1.0000 0.16905  0.98600  0.71200  Biso   1.000  H
  H1793    1.0000 0.20676  0.21458  0.75251  Biso   1.000  H
  H1794    1.0000 0.24315  0.19459  0.70600  Biso   1.000  H
  C2148    1.0000 0.27955  0.16610  0.77191  Biso   1.000  C
  C2149    1.0000 0.11212  0.94301  0.33429  Biso   1.000  C
  H1795    1.0000 0.06504  0.98792  0.28091  Biso   1.000  H
  H1796    1.0000 0.05672  0.90051  0.28781  Biso   1.000  H
  C2150    1.0000 0.95252  0.82811  0.36769  Biso   1.000  C
  C2151    1.0000 0.86602  0.82922  0.38420  Biso   1.000  C
  C2152    1.0000 0.79012  0.89981  0.36989  Biso   1.000  C
  H1797    1.0000 0.81373  0.90630  0.23649  Biso   1.000  H
  H1798    1.0000 0.77574  0.92780  0.28170  Biso   1.000  H
  C2153    1.0000 0.76891  0.82288  0.26151  Biso   1.000  C
  C2154    1.0000 0.71571  0.14279  0.11641  Biso   1.000  C
  H1799    1.0000 0.69702  0.04259  0.13742  Biso   1.000  H
  H1800    1.0000 0.74459  0.24132  0.10209  Biso   1.000  H
  C2155    1.0000 0.81245  0.85440  0.44572  Biso   1.000  C
  H1801    1.0000 0.66064  0.97669  0.41980  Biso   1.000  H
  H1802    1.0000 0.69924  0.96788  0.37329  Biso   1.000  H
  C2156    1.0000 0.66203  0.87700  0.39199  Biso   1.000  C
  C2157    1.0000 0.81814  0.89472  0.52309  Biso   1.000  C
  C2158    1.0000 0.85094  0.05981  0.63820  Biso   1.000  C
  H1803    1.0000 0.78131  0.02210  0.60280  Biso   1.000  H
  H1804    1.0000 0.79097  0.10981  0.59841  Biso   1.000  H
  C2159    1.0000 0.55102  0.19731  0.30720  Biso   1.000  C
  H1805    1.0000 0.54601  0.09098  0.31980  Biso   1.000  H
  H1806    1.0000 0.56553  0.30349  0.30209  Biso   1.000  H
  C2160    1.0000 0.19682  0.88370  0.50679  Biso   1.000  C
  O329     1.0000 0.16373  0.94698  0.44019  Biso   1.000  O
  C2161    1.0000 0.21926  0.81950  0.57781  Biso   1.000  C
  C2162    1.0000 0.41616  0.17209  0.65152  Biso   1.000  C
  C2163    1.0000 0.41145  0.05060  0.65210  Biso   1.000  C
  O330     1.0000 0.97354  0.04098  0.66209  Biso   1.000  O
  C2164    1.0000 0.03906  0.96058  0.69072  Biso   1.000  C
  C2165    1.0000 0.10587  0.87302  0.71001  Biso   1.000  C
  C2166    1.0000 0.32968  0.17158  0.75790  Biso   1.000  C
  C2167    1.0000 0.27246  0.15321  0.81791  Biso   1.000  C
  C2168    1.0000 0.14914  0.94019  0.36179  Biso   1.000  C
  O331     1.0000 0.90652  0.79222  0.36961  Biso   1.000  O
  H1807    1.0000 0.98494  0.79468  0.37641  Biso   1.000  H
  H1808    1.0000 0.95352  0.86890  0.39220  Biso   1.000  H
  C2169    1.0000 0.85565  0.82248  0.42989  Biso   1.000  C
  H1809    1.0000 0.76474  0.92982  0.34672  Biso   1.000  H
  H1810    1.0000 0.79333  0.78542  0.24751  Biso   1.000  H
  H1811    1.0000 0.75693  0.80541  0.29399  Biso   1.000  H
  C2170    1.0000 0.72053  0.83390  0.22811  Biso   1.000  C
  H1812    1.0000 0.68061  0.14842  0.09378  Biso   1.000  H
  O332     1.0000 0.80285  0.84362  0.49141  Biso   1.000  O
  H1813    1.0000 0.65452  0.85148  0.42340  Biso   1.000  H
  H1814    1.0000 0.68805  0.84699  0.37339  Biso   1.000  H
  C2171    1.0000 0.61102  0.88732  0.36141  Biso   1.000  C
  H1815    1.0000 0.82855  0.87161  0.55612  Biso   1.000  H
  H1816    1.0000 0.85185  0.91939  0.51139  Biso   1.000  H
  C2172    1.0000 0.88796  0.05699  0.66569  Biso   1.000  C
  H1817    1.0000 0.51821  0.19781  0.28149  Biso   1.000  H
  O333     1.0000 0.17664  0.82600  0.48451  Biso   1.000  O
  C2173    1.0000 0.19002  0.93868  0.40061  Biso   1.000  C
  C2174    1.0000 0.16713  0.81598  0.60030  Biso   1.000  C
  H1818    1.0000 0.22033  0.77762  0.55430  Biso   1.000  H
  C2175    1.0000 0.26753  0.81100  0.61489  Biso   1.000  C
  C2176    1.0000 0.46374  0.16952  0.67802  Biso   1.000  C
  H1819    1.0000 0.39946  0.22022  0.64101  Biso   1.000  H
  C2177    1.0000 0.45907  0.04798  0.67860  Biso   1.000  C
  H1820    1.0000 0.39115  0.00458  0.64211  Biso   1.000  H
  C2178    1.0000 0.93576  0.05241  0.69439  Biso   1.000  C
  O334     1.0000 0.00035  0.91350  0.69020  Biso   1.000  O
  C2179    1.0000 0.11435  0.84372  0.66202  Biso   1.000  C
  C2180    1.0000 0.15515  0.86180  0.74352  Biso   1.000  C
  H1821    1.0000 0.07505  0.84810  0.72632  Biso   1.000  H
  C2181    1.0000 0.37278  0.16408  0.78969  Biso   1.000  C
  H1822    1.0000 0.33514  0.18160  0.72230  Biso   1.000  H
  C2182    1.0000 0.31557  0.14571  0.84980  Biso   1.000  C
  H1823    1.0000 0.23367  0.14898  0.82882  Biso   1.000  H
  O335     1.0000 0.89494  0.79478  0.46079  Biso   1.000  O
  C2183    1.0000 0.67041  0.82842  0.24212  Biso   1.000  C
  C2184    1.0000 0.72762  0.84679  0.18211  Biso   1.000  C
  C2185    1.0000 0.58392  0.82791  0.34850  Biso   1.000  C
  C2186    1.0000 0.58864  0.94940  0.34792  Biso   1.000  C
  C2187    1.0000 0.12572  0.80818  0.49560  Biso   1.000  C
  H1824    1.0000 0.21877  0.97790  0.39721  Biso   1.000  H
  H1825    1.0000 0.20912  0.89019  0.40161  Biso   1.000  H
  C2188    1.0000 0.16265  0.84231  0.64400  Biso   1.000  C
  C2189    1.0000 0.12326  0.79121  0.57452  Biso   1.000  C
  H1826    1.0000 0.26186  0.76609  0.63459  Biso   1.000  H
  H1827    1.0000 0.27016  0.85419  0.63741  Biso   1.000  H
  C2190    1.0000 0.31885  0.80490  0.59209  Biso   1.000  C
  C2191    1.0000 0.48527  0.10739  0.69151  Biso   1.000  C
  H1828    1.0000 0.48396  0.21549  0.68801  Biso   1.000  H
  H1829    1.0000 0.47565  0.99990  0.68911  Biso   1.000  H
  H1830    1.0000 0.93504  0.01208  0.71911  Biso   1.000  H
  H1831    1.0000 0.94336  0.09949  0.71221  Biso   1.000  H
  C2192    1.0000 0.99265  0.87338  0.64970  Biso   1.000  C
  C2193    1.0000 0.07044  0.81890  0.63621  Biso   1.000  C
  C2194    1.0000 0.14317  0.87821  0.79261  Biso   1.000  C
  H1832    1.0000 0.18616  0.89412  0.73390  Biso   1.000  H
  H1833    1.0000 0.16736  0.80989  0.74190  Biso   1.000  H
  C2195    1.0000 0.36566  0.15119  0.83572  Biso   1.000  C
  H1834    1.0000 0.41158  0.16831  0.77881  Biso   1.000  H
  H1835    1.0000 0.31006  0.13569  0.88529  Biso   1.000  H
  C2196    1.0000 0.88604  0.72410  0.47092  Biso   1.000  C
  C2197    1.0000 0.62730  0.83592  0.21030  Biso   1.000  C
  H1836    1.0000 0.66494  0.81840  0.27772  Biso   1.000  H
  C2198    1.0000 0.68451  0.85429  0.15019  Biso   1.000  C
  H1837    1.0000 0.76642  0.85102  0.17120  Biso   1.000  H
  C2199    1.0000 0.53634  0.83048  0.32200  Biso   1.000  C
  H1838    1.0000 0.60062  0.77978  0.35901  Biso   1.000  H
  C2200    1.0000 0.54101  0.95202  0.32142  Biso   1.000  C
  H1839    1.0000 0.60893  0.99542  0.35791  Biso   1.000  H
  O336     1.0000 0.12664  0.76150  0.53109  Biso   1.000  O
  H1840    1.0000 0.10504  0.78668  0.46539  Biso   1.000  H
  H1841    1.0000 0.10595  0.85309  0.50552  Biso   1.000  H
  H1842    1.0000 0.19664  0.86149  0.66401  Biso   1.000  H
  C2201    1.0000 0.07484  0.79262  0.59251  Biso   1.000  C
  H1843    1.0000 0.32273  0.84730  0.56961  Biso   1.000  H
  H1844    1.0000 0.31803  0.75889  0.57229  Biso   1.000  H
  C2202    1.0000 0.36445  0.80400  0.62649  Biso   1.000  C
  H1845    1.0000 0.52214  0.10528  0.71200  Biso   1.000  H
  O337     1.0000 0.02156  0.81548  0.65141  Biso   1.000  O
  H1846    1.0000 0.95195  0.86029  0.64431  Biso   1.000  H
  H1847    1.0000 0.00355  0.90328  0.62120  Biso   1.000  H
  C2203    1.0000 0.19367  0.87171  0.82511  Biso   1.000  C
  H1848    1.0000 0.12877  0.92921  0.79401  Biso   1.000  H
  H1849    1.0000 0.11405  0.84382  0.80332  Biso   1.000  H
  H1850    1.0000 0.39906  0.14540  0.86040  Biso   1.000  H
  C2204    1.0000 0.93013  0.71302  0.50641  Biso   1.000  C
  H1851    1.0000 0.84852  0.71599  0.48379  Biso   1.000  H
  H1852    1.0000 0.88953  0.69258  0.44119  Biso   1.000  H
  C2205    1.0000 0.63443  0.84881  0.16430  Biso   1.000  C
  H1853    1.0000 0.58851  0.83169  0.22121  Biso   1.000  H
  H1854    1.0000 0.69002  0.86431  0.11469  Biso   1.000  H
  C2206    1.0000 0.51481  0.89261  0.30851  Biso   1.000  C
  H1855    1.0000 0.51612  0.78451  0.31201  Biso   1.000  H
  H1856    1.0000 0.52443  0.00010  0.31091  Biso   1.000  H
  O338     1.0000 0.03243  0.77621  0.56340  Biso   1.000  O
  C2207    1.0000 0.39115  0.86351  0.63809  Biso   1.000  C
  C2208    1.0000 0.38015  0.74378  0.64812  Biso   1.000  C
  C2209    1.0000 0.22977  0.92408  0.82982  Biso   1.000  C
  C2210    1.0000 0.20287  0.81210  0.84969  Biso   1.000  C
  C2211    1.0000 0.96723  0.70748  0.53319  Biso   1.000  C
  H1857    1.0000 0.60102  0.85460  0.13961  Biso   1.000  H
  H1858    1.0000 0.47794  0.89472  0.28801  Biso   1.000  H
  C2212    1.0000 0.01477  0.70970  0.56752  Biso   1.000  C
  C2213    1.0000 0.43345  0.86290  0.67122  Biso   1.000  C
  H1859    1.0000 0.37904  0.91008  0.62141  Biso   1.000  H
  C2214    1.0000 0.42244  0.74308  0.68121  Biso   1.000  C
  H1860    1.0000 0.35956  0.69761  0.63909  Biso   1.000  H
  C2215    1.0000 0.27517  0.91688  0.85900  Biso   1.000  C
  H1861    1.0000 0.22266  0.97030  0.81070  Biso   1.000  H
  C2216    1.0000 0.24827  0.80490  0.87891  Biso   1.000  C
  H1862    1.0000 0.17498  0.77152  0.84609  Biso   1.000  H
  H1863    1.0000 0.04356  0.67360  0.55859  Biso   1.000  H
  H1864    1.0000 0.00433  0.69978  0.60191  Biso   1.000  H
  C2217    1.0000 0.44906  0.80269  0.69281  Biso   1.000  C
  H1865    1.0000 0.45407  0.90902  0.68021  Biso   1.000  H
  H1866    1.0000 0.43455  0.69651  0.69789  Biso   1.000  H
  C2218    1.0000 0.28437  0.85721  0.88361  Biso   1.000  C
  H1867    1.0000 0.30306  0.95741  0.86260  Biso   1.000  H
  H1868    1.0000 0.25549  0.75868  0.89789  Biso   1.000  H
  H1869    1.0000 0.48187  0.80219  0.71849  Biso   1.000  H
  H1870    1.0000 0.31947  0.85158  0.90620  Biso   1.000  H
  C2219    1.0000 0.98532  0.29030  0.43250  Biso   1.000  C
  C2220    1.0000 0.03285  0.29252  0.46680  Biso   1.000  C
  O339     1.0000 0.96765  0.22379  0.43659  Biso   1.000  O
  H1871    1.0000 0.95652  0.32640  0.44139  Biso   1.000  H
  H1872    1.0000 0.99571  0.30022  0.39811  Biso   1.000  H
  C2221    1.0000 0.06996  0.28698  0.49361  Biso   1.000  C
  C2222    1.0000 0.92524  0.20738  0.40751  Biso   1.000  C
  C2223    1.0000 0.11404  0.27590  0.52910  Biso   1.000  C
  C2224    1.0000 0.92964  0.18110  0.36381  Biso   1.000  C
  C2225    1.0000 0.87682  0.20879  0.42550  Biso   1.000  C
  O340     1.0000 0.10514  0.20522  0.53919  Biso   1.000  O
  H1873    1.0000 0.15155  0.28401  0.51619  Biso   1.000  H
  H1874    1.0000 0.11055  0.30742  0.55880  Biso   1.000  H
  C2226    1.0000 0.88573  0.15628  0.33800  Biso   1.000  C
  O341     1.0000 0.97853  0.18452  0.34860  Biso   1.000  O
  C2227    1.0000 0.83291  0.18402  0.39972  Biso   1.000  C
  O342     1.0000 0.87344  0.23850  0.46889  Biso   1.000  O
  C2228    1.0000 0.14443  0.17752  0.57009  Biso   1.000  C
  C2229    1.0000 0.89421  0.12698  0.29001  Biso   1.000  C
  C2230    1.0000 0.83743  0.15769  0.35602  Biso   1.000  C
  C2231    1.0000 0.00743  0.12662  0.35029  Biso   1.000  C
  C2232    1.0000 0.78083  0.18050  0.42220  Biso   1.000  C
  C2233    1.0000 0.87436  0.19182  0.50442  Biso   1.000  C
  C2234    1.0000 0.18763  0.14560  0.55430  Biso   1.000  C
  C2235    1.0000 0.13406  0.17078  0.61581  Biso   1.000  C
  C2236    1.0000 0.90864  0.05412  0.29831  Biso   1.000  C
  C2237    1.0000 0.84493  0.13820  0.25650  Biso   1.000  C
  H1875    1.0000 0.92503  0.15190  0.27370  Biso   1.000  H
  H1876    1.0000 0.80344  0.13851  0.33601  Biso   1.000  H
  O343     1.0000 0.99974  0.08650  0.30981  Biso   1.000  O
  H1877    1.0000 0.04814  0.13971  0.35571  Biso   1.000  H
  H1878    1.0000 0.99654  0.09672  0.37881  Biso   1.000  H
  C2238    1.0000 0.77833  0.11681  0.44891  Biso   1.000  C
  H1879    1.0000 0.77972  0.22238  0.44572  Biso   1.000  H
  C2239    1.0000 0.73251  0.18900  0.38509  Biso   1.000  C
  H1880    1.0000 0.89504  0.21332  0.53459  Biso   1.000  H
  H1881    1.0000 0.89413  0.14691  0.49450  Biso   1.000  H
  O344     1.0000 0.82344  0.17400  0.51551  Biso   1.000  O
  O345     1.0000 0.19723  0.15638  0.50861  Biso   1.000  O
  C2240    1.0000 0.22044  0.10689  0.58430  Biso   1.000  C
  C2241    1.0000 0.16676  0.13211  0.64592  Biso   1.000  C
  O346     1.0000 0.09357  0.20778  0.63040  Biso   1.000  O
  C2242    1.0000 0.96102  0.03942  0.30930  Biso   1.000  C
  C2243    1.0000 0.87162  0.00262  0.29649  Biso   1.000  C
  C2244    1.0000 0.85691  0.12179  0.20741  Biso   1.000  C
  H1882    1.0000 0.81392  0.10588  0.26611  Biso   1.000  H
  H1883    1.0000 0.83272  0.19011  0.25811  Biso   1.000  H
  C2245    1.0000 0.75575  0.05790  0.43030  Biso   1.000  C
  C2246    1.0000 0.80322  0.11630  0.49319  Biso   1.000  C
  H1884    1.0000 0.73822  0.23391  0.36539  Biso   1.000  H
  H1885    1.0000 0.72992  0.14581  0.36261  Biso   1.000  H
  C2247    1.0000 0.68123  0.19510  0.40789  Biso   1.000  C
  C2248    1.0000 0.18194  0.10528  0.47689  Biso   1.000  C
  C2249    1.0000 0.26435  0.06842  0.56350  Biso   1.000  C
  C2250    1.0000 0.20996  0.10019  0.63010  Biso   1.000  C
  C2251    1.0000 0.15176  0.12109  0.69590  Biso   1.000  C
  C2252    1.0000 0.04756  0.17189  0.63229  Biso   1.000  C
  C2253    1.0000 0.97662  0.97311  0.31850  Biso   1.000  C
  C2254    1.0000 0.88723  0.93641  0.30580  Biso   1.000  C
  H1886    1.0000 0.83104  0.01400  0.28801  Biso   1.000  H
  C2255    1.0000 0.80641  0.12829  0.17490  Biso   1.000  C
  H1887    1.0000 0.87132  0.07079  0.20600  Biso   1.000  H
  H1888    1.0000 0.88603  0.15618  0.19670  Biso   1.000  H
  C2256    1.0000 0.75793  0.99869  0.45602  Biso   1.000  C
  H1889    1.0000 0.73641  0.05830  0.39601  Biso   1.000  H
  C2257    1.0000 0.80543  0.05709  0.51891  Biso   1.000  C
  H1890    1.0000 0.67735  0.15270  0.43041  Biso   1.000  H
  H1891    1.0000 0.68205  0.24111  0.42770  Biso   1.000  H
  C2258    1.0000 0.63562  0.19600  0.37349  Biso   1.000  C
  O347     1.0000 0.21864  0.05750  0.47140  Biso   1.000  O
  H1892    1.0000 0.17154  0.12839  0.44390  Biso   1.000  H
  H1893    1.0000 0.14823  0.08061  0.48859  Biso   1.000  H
  C2259    1.0000 0.24216  0.00131  0.54400  Biso   1.000  C
  H1894    1.0000 0.27775  0.09908  0.53641  Biso   1.000  H
  C2260    1.0000 0.31244  0.05568  0.59590  Biso   1.000  C
  H1895    1.0000 0.23535  0.07018  0.65330  Biso   1.000  H
  C2261    1.0000 0.11285  0.06359  0.69422  Biso   1.000  C
  H1896    1.0000 0.13415  0.16589  0.70850  Biso   1.000  H
  C2262    1.0000 0.19947  0.11021  0.73119  Biso   1.000  C
  H1897    1.0000 0.01515  0.20532  0.62361  Biso   1.000  H
  H1898    1.0000 0.04656  0.13110  0.60782  Biso   1.000  H
  O348     1.0000 0.04237  0.14399  0.67699  Biso   1.000  O
  O349     1.0000 0.02653  0.95902  0.33789  Biso   1.000  O
  C2263    1.0000 0.93973  0.92161  0.31682  Biso   1.000  C
  C2264    1.0000 0.84832  0.87891  0.30411  Biso   1.000  C
  C2265    1.0000 0.77031  0.07592  0.17020  Biso   1.000  C
  C2266    1.0000 0.79721  0.18790  0.15029  Biso   1.000  C
  C2267    1.0000 0.73573  0.93158  0.43652  Biso   1.000  C
  C2268    1.0000 0.78282  0.99829  0.50030  Biso   1.000  C
  O350     1.0000 0.83635  0.05302  0.55979  Biso   1.000  O
  C2269    1.0000 0.60893  0.13649  0.36189  Biso   1.000  C
  C2270    1.0000 0.61993  0.25622  0.35190  Biso   1.000  C
  C2271    1.0000 0.21722  0.00171  0.49972  Biso   1.000  C
  C2272    1.0000 0.24433  0.94210  0.56971  Biso   1.000  C
  H1899    1.0000 0.33944  0.02331  0.58022  Biso   1.000  H
  H1900    1.0000 0.30084  0.03212  0.62670  Biso   1.000  H
  C2273    1.0000 0.33805  0.12300  0.60799  Biso   1.000  C
  C2274    1.0000 0.06035  0.07839  0.68320  Biso   1.000  C
  C2275    1.0000 0.12846  0.99738  0.70349  Biso   1.000  C
  H1901    1.0000 0.18635  0.09370  0.76350  Biso   1.000  H
  H1902    1.0000 0.22435  0.07220  0.71832  Biso   1.000  H
  C2276    1.0000 0.23117  0.17712  0.73850  Biso   1.000  C
  C2277    1.0000 0.06432  0.94759  0.30559  Biso   1.000  C
  O351     1.0000 0.95771  0.85601  0.32299  Biso   1.000  O
  C2278    1.0000 0.83333  0.86789  0.35410  Biso   1.000  C
  H1903    1.0000 0.86593  0.83411  0.29152  Biso   1.000  H
  C2279    1.0000 0.80061  0.88979  0.26879  Biso   1.000  C
  C2280    1.0000 0.72491  0.08312  0.14099  Biso   1.000  C
  H1904    1.0000 0.77742  0.02970  0.18929  Biso   1.000  H
  C2281    1.0000 0.75181  0.19510  0.12111  Biso   1.000  C
  H1905    1.0000 0.82510  0.22848  0.15389  Biso   1.000  H
  C2282    1.0000 0.77965  0.89311  0.41572  Biso   1.000  C
  H1906    1.0000 0.72233  0.90092  0.46360  Biso   1.000  H
  C2283    1.0000 0.68765  0.94432  0.40411  Biso   1.000  C
  O352     1.0000 0.78144  0.94250  0.52859  Biso   1.000  O
  C2284    1.0000 0.81007  0.06132  0.59941  Biso   1.000  C
  C2285    1.0000 0.56663  0.13710  0.32880  Biso   1.000  C
  H1907    1.0000 0.62104  0.08992  0.37861  Biso   1.000  H
  C2286    1.0000 0.57764  0.25692  0.31881  Biso   1.000  C
  H1908    1.0000 0.64052  0.30239  0.36089  Biso   1.000  H
  C2287    1.0000 0.19465  0.94291  0.48111  Biso   1.000  C
  C2288    1.0000 0.22176  0.88319  0.55111  Biso   1.000  C
  H1909    1.0000 0.26363  0.94170  0.60401  Biso   1.000  H
  H1910    1.0000 0.34556  0.14852  0.57661  Biso   1.000  H
  H1911    1.0000 0.31203  0.15301  0.62659  Biso   1.000  H
  C2289    1.0000 0.38907  0.11268  0.63861  Biso   1.000  C
  C2290    1.0000 0.02346  0.02689  0.68152  Biso   1.000  C
  C2291    1.0000 0.09144  0.94588  0.70170  Biso   1.000  C
  H1912    1.0000 0.16905  0.98600  0.71200  Biso   1.000  H
  H1913    1.0000 0.20676  0.21458  0.75251  Biso   1.000  H
  H1914    1.0000 0.24315  0.19459  0.70600  Biso   1.000  H
  C2292    1.0000 0.27955  0.16610  0.77191  Biso   1.000  C
  C2293    1.0000 0.11212  0.94301  0.33429  Biso   1.000  C
  H1915    1.0000 0.06504  0.98792  0.28091  Biso   1.000  H
  H1916    1.0000 0.05672  0.90051  0.28781  Biso   1.000  H
  C2294    1.0000 0.95252  0.82811  0.36769  Biso   1.000  C
  C2295    1.0000 0.86602  0.82922  0.38420  Biso   1.000  C
  C2296    1.0000 0.79012  0.89981  0.36989  Biso   1.000  C
  H1917    1.0000 0.81373  0.90630  0.23649  Biso   1.000  H
  H1918    1.0000 0.77574  0.92780  0.28170  Biso   1.000  H
  C2297    1.0000 0.76891  0.82288  0.26151  Biso   1.000  C
  C2298    1.0000 0.71571  0.14279  0.11641  Biso   1.000  C
  H1919    1.0000 0.69702  0.04259  0.13742  Biso   1.000  H
  H1920    1.0000 0.74459  0.24132  0.10209  Biso   1.000  H
  C2299    1.0000 0.81245  0.85440  0.44572  Biso   1.000  C
  H1921    1.0000 0.66064  0.97669  0.41980  Biso   1.000  H
  H1922    1.0000 0.69924  0.96788  0.37329  Biso   1.000  H
  C2300    1.0000 0.66203  0.87700  0.39199  Biso   1.000  C
  C2301    1.0000 0.81814  0.89472  0.52309  Biso   1.000  C
  C2302    1.0000 0.85094  0.05981  0.63820  Biso   1.000  C
  H1923    1.0000 0.78131  0.02210  0.60280  Biso   1.000  H
  H1924    1.0000 0.79097  0.10981  0.59841  Biso   1.000  H
  C2303    1.0000 0.55102  0.19731  0.30720  Biso   1.000  C
  H1925    1.0000 0.54601  0.09098  0.31980  Biso   1.000  H
  H1926    1.0000 0.56553  0.30349  0.30209  Biso   1.000  H
  C2304    1.0000 0.19682  0.88370  0.50679  Biso   1.000  C
  O353     1.0000 0.16373  0.94698  0.44019  Biso   1.000  O
  C2305    1.0000 0.21926  0.81950  0.57781  Biso   1.000  C
  C2306    1.0000 0.41616  0.17209  0.65152  Biso   1.000  C
  C2307    1.0000 0.41145  0.05060  0.65210  Biso   1.000  C
  O354     1.0000 0.97354  0.04098  0.66209  Biso   1.000  O
  C2308    1.0000 0.03906  0.96058  0.69072  Biso   1.000  C
  C2309    1.0000 0.10587  0.87302  0.71001  Biso   1.000  C
  C2310    1.0000 0.32968  0.17158  0.75790  Biso   1.000  C
  C2311    1.0000 0.27246  0.15321  0.81791  Biso   1.000  C
  C2312    1.0000 0.14914  0.94019  0.36179  Biso   1.000  C
  O355     1.0000 0.90652  0.79222  0.36961  Biso   1.000  O
  H1927    1.0000 0.98494  0.79468  0.37641  Biso   1.000  H
  H1928    1.0000 0.95352  0.86890  0.39220  Biso   1.000  H
  C2313    1.0000 0.85565  0.82248  0.42989  Biso   1.000  C
  H1929    1.0000 0.76474  0.92982  0.34672  Biso   1.000  H
  H1930    1.0000 0.79333  0.78542  0.24751  Biso   1.000  H
  H1931    1.0000 0.75693  0.80541  0.29399  Biso   1.000  H
  C2314    1.0000 0.72053  0.83390  0.22811  Biso   1.000  C
  H1932    1.0000 0.68061  0.14842  0.09378  Biso   1.000  H
  O356     1.0000 0.80285  0.84362  0.49141  Biso   1.000  O
  H1933    1.0000 0.65452  0.85148  0.42340  Biso   1.000  H
  H1934    1.0000 0.68805  0.84699  0.37339  Biso   1.000  H
  C2315    1.0000 0.61102  0.88732  0.36141  Biso   1.000  C
  H1935    1.0000 0.82855  0.87161  0.55612  Biso   1.000  H
  H1936    1.0000 0.85185  0.91939  0.51139  Biso   1.000  H
  C2316    1.0000 0.88796  0.05699  0.66569  Biso   1.000  C
  H1937    1.0000 0.51821  0.19781  0.28149  Biso   1.000  H
  O357     1.0000 0.17664  0.82600  0.48451  Biso   1.000  O
  C2317    1.0000 0.19002  0.93868  0.40061  Biso   1.000  C
  C2318    1.0000 0.16713  0.81598  0.60030  Biso   1.000  C
  H1938    1.0000 0.22033  0.77762  0.55430  Biso   1.000  H
  C2319    1.0000 0.26753  0.81100  0.61489  Biso   1.000  C
  C2320    1.0000 0.46374  0.16952  0.67802  Biso   1.000  C
  H1939    1.0000 0.39946  0.22022  0.64101  Biso   1.000  H
  C2321    1.0000 0.45907  0.04798  0.67860  Biso   1.000  C
  H1940    1.0000 0.39115  0.00458  0.64211  Biso   1.000  H
  C2322    1.0000 0.93576  0.05241  0.69439  Biso   1.000  C
  O358     1.0000 0.00035  0.91350  0.69020  Biso   1.000  O
  C2323    1.0000 0.11435  0.84372  0.66202  Biso   1.000  C
  C2324    1.0000 0.15515  0.86180  0.74352  Biso   1.000  C
  H1941    1.0000 0.07505  0.84810  0.72632  Biso   1.000  H
  C2325    1.0000 0.37278  0.16408  0.78969  Biso   1.000  C
  H1942    1.0000 0.33514  0.18160  0.72230  Biso   1.000  H
  C2326    1.0000 0.31557  0.14571  0.84980  Biso   1.000  C
  H1943    1.0000 0.23367  0.14898  0.82882  Biso   1.000  H
  O359     1.0000 0.89494  0.79478  0.46079  Biso   1.000  O
  C2327    1.0000 0.67041  0.82842  0.24212  Biso   1.000  C
  C2328    1.0000 0.72762  0.84679  0.18211  Biso   1.000  C
  C2329    1.0000 0.58392  0.82791  0.34850  Biso   1.000  C
  C2330    1.0000 0.58864  0.94940  0.34792  Biso   1.000  C
  C2331    1.0000 0.12572  0.80818  0.49560  Biso   1.000  C
  H1944    1.0000 0.21877  0.97790  0.39721  Biso   1.000  H
  H1945    1.0000 0.20912  0.89019  0.40161  Biso   1.000  H
  C2332    1.0000 0.16265  0.84231  0.64400  Biso   1.000  C
  C2333    1.0000 0.12326  0.79121  0.57452  Biso   1.000  C
  H1946    1.0000 0.26186  0.76609  0.63459  Biso   1.000  H
  H1947    1.0000 0.27016  0.85419  0.63741  Biso   1.000  H
  C2334    1.0000 0.31885  0.80490  0.59209  Biso   1.000  C
  C2335    1.0000 0.48527  0.10739  0.69151  Biso   1.000  C
  H1948    1.0000 0.48396  0.21549  0.68801  Biso   1.000  H
  H1949    1.0000 0.47565  0.99990  0.68911  Biso   1.000  H
  H1950    1.0000 0.93504  0.01208  0.71911  Biso   1.000  H
  H1951    1.0000 0.94336  0.09949  0.71221  Biso   1.000  H
  C2336    1.0000 0.99265  0.87338  0.64970  Biso   1.000  C
  C2337    1.0000 0.07044  0.81890  0.63621  Biso   1.000  C
  C2338    1.0000 0.14317  0.87821  0.79261  Biso   1.000  C
  H1952    1.0000 0.18616  0.89412  0.73390  Biso   1.000  H
  H1953    1.0000 0.16736  0.80989  0.74190  Biso   1.000  H
  C2339    1.0000 0.36566  0.15119  0.83572  Biso   1.000  C
  H1954    1.0000 0.41158  0.16831  0.77881  Biso   1.000  H
  H1955    1.0000 0.31006  0.13569  0.88529  Biso   1.000  H
  C2340    1.0000 0.88604  0.72410  0.47092  Biso   1.000  C
  C2341    1.0000 0.62730  0.83592  0.21030  Biso   1.000  C
  H1956    1.0000 0.66494  0.81840  0.27772  Biso   1.000  H
  C2342    1.0000 0.68451  0.85429  0.15019  Biso   1.000  C
  H1957    1.0000 0.76642  0.85102  0.17120  Biso   1.000  H
  C2343    1.0000 0.53634  0.83048  0.32200  Biso   1.000  C
  H1958    1.0000 0.60062  0.77978  0.35901  Biso   1.000  H
  C2344    1.0000 0.54101  0.95202  0.32142  Biso   1.000  C
  H1959    1.0000 0.60893  0.99542  0.35791  Biso   1.000  H
  O360     1.0000 0.12664  0.76150  0.53109  Biso   1.000  O
  H1960    1.0000 0.10504  0.78668  0.46539  Biso   1.000  H
  H1961    1.0000 0.10595  0.85309  0.50552  Biso   1.000  H
  H1962    1.0000 0.19664  0.86149  0.66401  Biso   1.000  H
  C2345    1.0000 0.07484  0.79262  0.59251  Biso   1.000  C
  H1963    1.0000 0.32273  0.84730  0.56961  Biso   1.000  H
  H1964    1.0000 0.31803  0.75889  0.57229  Biso   1.000  H
  C2346    1.0000 0.36445  0.80400  0.62649  Biso   1.000  C
  H1965    1.0000 0.52214  0.10528  0.71200  Biso   1.000  H
  O361     1.0000 0.02156  0.81548  0.65141  Biso   1.000  O
  H1966    1.0000 0.95195  0.86029  0.64431  Biso   1.000  H
  H1967    1.0000 0.00355  0.90328  0.62120  Biso   1.000  H
  C2347    1.0000 0.19367  0.87171  0.82511  Biso   1.000  C
  H1968    1.0000 0.12877  0.92921  0.79401  Biso   1.000  H
  H1969    1.0000 0.11405  0.84382  0.80332  Biso   1.000  H
  H1970    1.0000 0.39906  0.14540  0.86040  Biso   1.000  H
  C2348    1.0000 0.93013  0.71302  0.50641  Biso   1.000  C
  H1971    1.0000 0.84852  0.71599  0.48379  Biso   1.000  H
  H1972    1.0000 0.88953  0.69258  0.44119  Biso   1.000  H
  C2349    1.0000 0.63443  0.84881  0.16430  Biso   1.000  C
  H1973    1.0000 0.58851  0.83169  0.22121  Biso   1.000  H
  H1974    1.0000 0.69002  0.86431  0.11469  Biso   1.000  H
  C2350    1.0000 0.51481  0.89261  0.30851  Biso   1.000  C
  H1975    1.0000 0.51612  0.78451  0.31201  Biso   1.000  H
  H1976    1.0000 0.52443  0.00010  0.31091  Biso   1.000  H
  O362     1.0000 0.03243  0.77621  0.56340  Biso   1.000  O
  C2351    1.0000 0.39115  0.86351  0.63809  Biso   1.000  C
  C2352    1.0000 0.38015  0.74378  0.64812  Biso   1.000  C
  C2353    1.0000 0.22977  0.92408  0.82982  Biso   1.000  C
  C2354    1.0000 0.20287  0.81210  0.84969  Biso   1.000  C
  C2355    1.0000 0.96723  0.70748  0.53319  Biso   1.000  C
  H1977    1.0000 0.60102  0.85460  0.13961  Biso   1.000  H
  H1978    1.0000 0.47794  0.89472  0.28801  Biso   1.000  H
  C2356    1.0000 0.01477  0.70970  0.56752  Biso   1.000  C
  C2357    1.0000 0.43345  0.86290  0.67122  Biso   1.000  C
  H1979    1.0000 0.37904  0.91008  0.62141  Biso   1.000  H
  C2358    1.0000 0.42244  0.74308  0.68121  Biso   1.000  C
  H1980    1.0000 0.35956  0.69761  0.63909  Biso   1.000  H
  C2359    1.0000 0.27517  0.91688  0.85900  Biso   1.000  C
  H1981    1.0000 0.22266  0.97030  0.81070  Biso   1.000  H
  C2360    1.0000 0.24827  0.80490  0.87891  Biso   1.000  C
  H1982    1.0000 0.17498  0.77152  0.84609  Biso   1.000  H
  H1983    1.0000 0.04356  0.67360  0.55859  Biso   1.000  H
  H1984    1.0000 0.00433  0.69978  0.60191  Biso   1.000  H
  C2361    1.0000 0.44906  0.80269  0.69281  Biso   1.000  C
  H1985    1.0000 0.45407  0.90902  0.68021  Biso   1.000  H
  H1986    1.0000 0.43455  0.69651  0.69789  Biso   1.000  H
  C2362    1.0000 0.28437  0.85721  0.88361  Biso   1.000  C
  H1987    1.0000 0.30306  0.95741  0.86260  Biso   1.000  H
  H1988    1.0000 0.25549  0.75868  0.89789  Biso   1.000  H
  H1989    1.0000 0.48187  0.80219  0.71849  Biso   1.000  H
  H1990    1.0000 0.31947  0.85158  0.90620  Biso   1.000  H
  C2363    1.0000 0.98532  0.29030  0.43250  Biso   1.000  C
  C2364    1.0000 0.03285  0.29252  0.46680  Biso   1.000  C
  O363     1.0000 0.96765  0.22379  0.43659  Biso   1.000  O
  H1991    1.0000 0.95652  0.32640  0.44139  Biso   1.000  H
  H1992    1.0000 0.99571  0.30022  0.39811  Biso   1.000  H
  C2365    1.0000 0.06996  0.28698  0.49361  Biso   1.000  C
  C2366    1.0000 0.92524  0.20738  0.40751  Biso   1.000  C
  C2367    1.0000 0.11404  0.27590  0.52910  Biso   1.000  C
  C2368    1.0000 0.92964  0.18110  0.36381  Biso   1.000  C
  C2369    1.0000 0.87682  0.20879  0.42550  Biso   1.000  C
  O364     1.0000 0.10514  0.20522  0.53919  Biso   1.000  O
  H1993    1.0000 0.15155  0.28401  0.51619  Biso   1.000  H
  H1994    1.0000 0.11055  0.30742  0.55880  Biso   1.000  H
  C2370    1.0000 0.88573  0.15628  0.33800  Biso   1.000  C
  O365     1.0000 0.97853  0.18452  0.34860  Biso   1.000  O
  C2371    1.0000 0.83291  0.18402  0.39972  Biso   1.000  C
  O366     1.0000 0.87344  0.23850  0.46889  Biso   1.000  O
  C2372    1.0000 0.14443  0.17752  0.57009  Biso   1.000  C
  C2373    1.0000 0.89421  0.12698  0.29001  Biso   1.000  C
  C2374    1.0000 0.83743  0.15769  0.35602  Biso   1.000  C
  C2375    1.0000 0.00743  0.12662  0.35029  Biso   1.000  C
  C2376    1.0000 0.78083  0.18050  0.42220  Biso   1.000  C
  C2377    1.0000 0.87436  0.19182  0.50442  Biso   1.000  C
  C2378    1.0000 0.18763  0.14560  0.55430  Biso   1.000  C
  C2379    1.0000 0.13406  0.17078  0.61581  Biso   1.000  C
  C2380    1.0000 0.90864  0.05412  0.29831  Biso   1.000  C
  C2381    1.0000 0.84493  0.13820  0.25650  Biso   1.000  C
  H1995    1.0000 0.92503  0.15190  0.27370  Biso   1.000  H
  H1996    1.0000 0.80344  0.13851  0.33601  Biso   1.000  H
  O367     1.0000 0.99974  0.08650  0.30981  Biso   1.000  O
  H1997    1.0000 0.04814  0.13971  0.35571  Biso   1.000  H
  H1998    1.0000 0.99654  0.09672  0.37881  Biso   1.000  H
  C2382    1.0000 0.77833  0.11681  0.44891  Biso   1.000  C
  H1999    1.0000 0.77972  0.22238  0.44572  Biso   1.000  H
  C2383    1.0000 0.73251  0.18900  0.38509  Biso   1.000  C
  H2000    1.0000 0.89504  0.21332  0.53459  Biso   1.000  H
  H2001    1.0000 0.89413  0.14691  0.49450  Biso   1.000  H
  O368     1.0000 0.82344  0.17400  0.51551  Biso   1.000  O
  O369     1.0000 0.19723  0.15638  0.50861  Biso   1.000  O
  C2384    1.0000 0.22044  0.10689  0.58430  Biso   1.000  C
  C2385    1.0000 0.16676  0.13211  0.64592  Biso   1.000  C
  O370     1.0000 0.09357  0.20778  0.63040  Biso   1.000  O
  C2386    1.0000 0.96102  0.03942  0.30930  Biso   1.000  C
  C2387    1.0000 0.87162  0.00262  0.29649  Biso   1.000  C
  C2388    1.0000 0.85691  0.12179  0.20741  Biso   1.000  C
  H2002    1.0000 0.81392  0.10588  0.26611  Biso   1.000  H
  H2003    1.0000 0.83272  0.19011  0.25811  Biso   1.000  H
  C2389    1.0000 0.75575  0.05790  0.43030  Biso   1.000  C
  C2390    1.0000 0.80322  0.11630  0.49319  Biso   1.000  C
  H2004    1.0000 0.73822  0.23391  0.36539  Biso   1.000  H
  H2005    1.0000 0.72992  0.14581  0.36261  Biso   1.000  H
  C2391    1.0000 0.68123  0.19510  0.40789  Biso   1.000  C
  C2392    1.0000 0.18194  0.10528  0.47689  Biso   1.000  C
  C2393    1.0000 0.26435  0.06842  0.56350  Biso   1.000  C
  C2394    1.0000 0.20996  0.10019  0.63010  Biso   1.000  C
  C2395    1.0000 0.15176  0.12109  0.69590  Biso   1.000  C
  C2396    1.0000 0.04756  0.17189  0.63229  Biso   1.000  C
  C2397    1.0000 0.97662  0.97311  0.31850  Biso   1.000  C
  C2398    1.0000 0.88723  0.93641  0.30580  Biso   1.000  C
  H2006    1.0000 0.83104  0.01400  0.28801  Biso   1.000  H
  C2399    1.0000 0.80641  0.12829  0.17490  Biso   1.000  C
  H2007    1.0000 0.87132  0.07079  0.20600  Biso   1.000  H
  H2008    1.0000 0.88603  0.15618  0.19670  Biso   1.000  H
  C2400    1.0000 0.75793  0.99869  0.45602  Biso   1.000  C
  H2009    1.0000 0.73641  0.05830  0.39601  Biso   1.000  H
  C2401    1.0000 0.80543  0.05709  0.51891  Biso   1.000  C
  H2010    1.0000 0.67735  0.15270  0.43041  Biso   1.000  H
  H2011    1.0000 0.68205  0.24111  0.42770  Biso   1.000  H
  C2402    1.0000 0.63562  0.19600  0.37349  Biso   1.000  C
  O371     1.0000 0.21864  0.05750  0.47140  Biso   1.000  O
  H2012    1.0000 0.17154  0.12839  0.44390  Biso   1.000  H
  H2013    1.0000 0.14823  0.08061  0.48859  Biso   1.000  H
  C2403    1.0000 0.24216  0.00131  0.54400  Biso   1.000  C
  H2014    1.0000 0.27775  0.09908  0.53641  Biso   1.000  H
  C2404    1.0000 0.31244  0.05568  0.59590  Biso   1.000  C
  H2015    1.0000 0.23535  0.07018  0.65330  Biso   1.000  H
  C2405    1.0000 0.11285  0.06359  0.69422  Biso   1.000  C
  H2016    1.0000 0.13415  0.16589  0.70850  Biso   1.000  H
  C2406    1.0000 0.19947  0.11021  0.73119  Biso   1.000  C
  H2017    1.0000 0.01515  0.20532  0.62361  Biso   1.000  H
  H2018    1.0000 0.04656  0.13110  0.60782  Biso   1.000  H
  O372     1.0000 0.04237  0.14399  0.67699  Biso   1.000  O
  O373     1.0000 0.02653  0.95902  0.33789  Biso   1.000  O
  C2407    1.0000 0.93973  0.92161  0.31682  Biso   1.000  C
  C2408    1.0000 0.84832  0.87891  0.30411  Biso   1.000  C
  C2409    1.0000 0.77031  0.07592  0.17020  Biso   1.000  C
  C2410    1.0000 0.79721  0.18790  0.15029  Biso   1.000  C
  C2411    1.0000 0.73573  0.93158  0.43652  Biso   1.000  C
  C2412    1.0000 0.78282  0.99829  0.50030  Biso   1.000  C
  O374     1.0000 0.83635  0.05302  0.55979  Biso   1.000  O
  C2413    1.0000 0.60893  0.13649  0.36189  Biso   1.000  C
  C2414    1.0000 0.61993  0.25622  0.35190  Biso   1.000  C
  C2415    1.0000 0.21722  0.00171  0.49972  Biso   1.000  C
  C2416    1.0000 0.24433  0.94210  0.56971  Biso   1.000  C
  H2019    1.0000 0.33944  0.02331  0.58022  Biso   1.000  H
  H2020    1.0000 0.30084  0.03212  0.62670  Biso   1.000  H
  C2417    1.0000 0.33805  0.12300  0.60799  Biso   1.000  C
  C2418    1.0000 0.06035  0.07839  0.68320  Biso   1.000  C
  C2419    1.0000 0.12846  0.99738  0.70349  Biso   1.000  C
  H2021    1.0000 0.18635  0.09370  0.76350  Biso   1.000  H
  H2022    1.0000 0.22435  0.07220  0.71832  Biso   1.000  H
  C2420    1.0000 0.23117  0.17712  0.73850  Biso   1.000  C
  C2421    1.0000 0.06432  0.94759  0.30559  Biso   1.000  C
  O375     1.0000 0.95771  0.85601  0.32299  Biso   1.000  O
  C2422    1.0000 0.83333  0.86789  0.35410  Biso   1.000  C
  H2023    1.0000 0.86593  0.83411  0.29152  Biso   1.000  H
  C2423    1.0000 0.80061  0.88979  0.26879  Biso   1.000  C
  C2424    1.0000 0.72491  0.08312  0.14099  Biso   1.000  C
  H2024    1.0000 0.77742  0.02970  0.18929  Biso   1.000  H
  C2425    1.0000 0.75181  0.19510  0.12111  Biso   1.000  C
  H2025    1.0000 0.82510  0.22848  0.15389  Biso   1.000  H
  C2426    1.0000 0.77965  0.89311  0.41572  Biso   1.000  C
  H2026    1.0000 0.72233  0.90092  0.46360  Biso   1.000  H
  C2427    1.0000 0.68765  0.94432  0.40411  Biso   1.000  C
  O376     1.0000 0.78144  0.94250  0.52859  Biso   1.000  O
  C2428    1.0000 0.81007  0.06132  0.59941  Biso   1.000  C
  C2429    1.0000 0.56663  0.13710  0.32880  Biso   1.000  C
  H2027    1.0000 0.62104  0.08992  0.37861  Biso   1.000  H
  C2430    1.0000 0.57764  0.25692  0.31881  Biso   1.000  C
  H2028    1.0000 0.64052  0.30239  0.36089  Biso   1.000  H
  C2431    1.0000 0.19465  0.94291  0.48111  Biso   1.000  C
  C2432    1.0000 0.22176  0.88319  0.55111  Biso   1.000  C
  H2029    1.0000 0.26363  0.94170  0.60401  Biso   1.000  H
  H2030    1.0000 0.34556  0.14852  0.57661  Biso   1.000  H
  H2031    1.0000 0.31203  0.15301  0.62659  Biso   1.000  H
  C2433    1.0000 0.38907  0.11268  0.63861  Biso   1.000  C
  C2434    1.0000 0.02346  0.02689  0.68152  Biso   1.000  C
  C2435    1.0000 0.09144  0.94588  0.70170  Biso   1.000  C
  H2032    1.0000 0.16905  0.98600  0.71200  Biso   1.000  H
  H2033    1.0000 0.20676  0.21458  0.75251  Biso   1.000  H
  H2034    1.0000 0.24315  0.19459  0.70600  Biso   1.000  H
  C2436    1.0000 0.27955  0.16610  0.77191  Biso   1.000  C
  C2437    1.0000 0.11212  0.94301  0.33429  Biso   1.000  C
  H2035    1.0000 0.06504  0.98792  0.28091  Biso   1.000  H
  H2036    1.0000 0.05672  0.90051  0.28781  Biso   1.000  H
  C2438    1.0000 0.95252  0.82811  0.36769  Biso   1.000  C
  C2439    1.0000 0.86602  0.82922  0.38420  Biso   1.000  C
  C2440    1.0000 0.79012  0.89981  0.36989  Biso   1.000  C
  H2037    1.0000 0.81373  0.90630  0.23649  Biso   1.000  H
  H2038    1.0000 0.77574  0.92780  0.28170  Biso   1.000  H
  C2441    1.0000 0.76891  0.82288  0.26151  Biso   1.000  C
  C2442    1.0000 0.71571  0.14279  0.11641  Biso   1.000  C
  H2039    1.0000 0.69702  0.04259  0.13742  Biso   1.000  H
  H2040    1.0000 0.74459  0.24132  0.10209  Biso   1.000  H
  C2443    1.0000 0.81245  0.85440  0.44572  Biso   1.000  C
  H2041    1.0000 0.66064  0.97669  0.41980  Biso   1.000  H
  H2042    1.0000 0.69924  0.96788  0.37329  Biso   1.000  H
  C2444    1.0000 0.66203  0.87700  0.39199  Biso   1.000  C
  C2445    1.0000 0.81814  0.89472  0.52309  Biso   1.000  C
  C2446    1.0000 0.85094  0.05981  0.63820  Biso   1.000  C
  H2043    1.0000 0.78131  0.02210  0.60280  Biso   1.000  H
  H2044    1.0000 0.79097  0.10981  0.59841  Biso   1.000  H
  C2447    1.0000 0.55102  0.19731  0.30720  Biso   1.000  C
  H2045    1.0000 0.54601  0.09098  0.31980  Biso   1.000  H
  H2046    1.0000 0.56553  0.30349  0.30209  Biso   1.000  H
  C2448    1.0000 0.19682  0.88370  0.50679  Biso   1.000  C
  O377     1.0000 0.16373  0.94698  0.44019  Biso   1.000  O
  C2449    1.0000 0.21926  0.81950  0.57781  Biso   1.000  C
  C2450    1.0000 0.41616  0.17209  0.65152  Biso   1.000  C
  C2451    1.0000 0.41145  0.05060  0.65210  Biso   1.000  C
  O378     1.0000 0.97354  0.04098  0.66209  Biso   1.000  O
  C2452    1.0000 0.03906  0.96058  0.69072  Biso   1.000  C
  C2453    1.0000 0.10587  0.87302  0.71001  Biso   1.000  C
  C2454    1.0000 0.32968  0.17158  0.75790  Biso   1.000  C
  C2455    1.0000 0.27246  0.15321  0.81791  Biso   1.000  C
  C2456    1.0000 0.14914  0.94019  0.36179  Biso   1.000  C
  O379     1.0000 0.90652  0.79222  0.36961  Biso   1.000  O
  H2047    1.0000 0.98494  0.79468  0.37641  Biso   1.000  H
  H2048    1.0000 0.95352  0.86890  0.39220  Biso   1.000  H
  C2457    1.0000 0.85565  0.82248  0.42989  Biso   1.000  C
  H2049    1.0000 0.76474  0.92982  0.34672  Biso   1.000  H
  H2050    1.0000 0.79333  0.78542  0.24751  Biso   1.000  H
  H2051    1.0000 0.75693  0.80541  0.29399  Biso   1.000  H
  C2458    1.0000 0.72053  0.83390  0.22811  Biso   1.000  C
  H2052    1.0000 0.68061  0.14842  0.09378  Biso   1.000  H
  O380     1.0000 0.80285  0.84362  0.49141  Biso   1.000  O
  H2053    1.0000 0.65452  0.85148  0.42340  Biso   1.000  H
  H2054    1.0000 0.68805  0.84699  0.37339  Biso   1.000  H
  C2459    1.0000 0.61102  0.88732  0.36141  Biso   1.000  C
  H2055    1.0000 0.82855  0.87161  0.55612  Biso   1.000  H
  H2056    1.0000 0.85185  0.91939  0.51139  Biso   1.000  H
  C2460    1.0000 0.88796  0.05699  0.66569  Biso   1.000  C
  H2057    1.0000 0.51821  0.19781  0.28149  Biso   1.000  H
  O381     1.0000 0.17664  0.82600  0.48451  Biso   1.000  O
  C2461    1.0000 0.19002  0.93868  0.40061  Biso   1.000  C
  C2462    1.0000 0.16713  0.81598  0.60030  Biso   1.000  C
  H2058    1.0000 0.22033  0.77762  0.55430  Biso   1.000  H
  C2463    1.0000 0.26753  0.81100  0.61489  Biso   1.000  C
  C2464    1.0000 0.46374  0.16952  0.67802  Biso   1.000  C
  H2059    1.0000 0.39946  0.22022  0.64101  Biso   1.000  H
  C2465    1.0000 0.45907  0.04798  0.67860  Biso   1.000  C
  H2060    1.0000 0.39115  0.00458  0.64211  Biso   1.000  H
  C2466    1.0000 0.93576  0.05241  0.69439  Biso   1.000  C
  O382     1.0000 0.00035  0.91350  0.69020  Biso   1.000  O
  C2467    1.0000 0.11435  0.84372  0.66202  Biso   1.000  C
  C2468    1.0000 0.15515  0.86180  0.74352  Biso   1.000  C
  H2061    1.0000 0.07505  0.84810  0.72632  Biso   1.000  H
  C2469    1.0000 0.37278  0.16408  0.78969  Biso   1.000  C
  H2062    1.0000 0.33514  0.18160  0.72230  Biso   1.000  H
  C2470    1.0000 0.31557  0.14571  0.84980  Biso   1.000  C
  H2063    1.0000 0.23367  0.14898  0.82882  Biso   1.000  H
  O383     1.0000 0.89494  0.79478  0.46079  Biso   1.000  O
  C2471    1.0000 0.67041  0.82842  0.24212  Biso   1.000  C
  C2472    1.0000 0.72762  0.84679  0.18211  Biso   1.000  C
  C2473    1.0000 0.58392  0.82791  0.34850  Biso   1.000  C
  C2474    1.0000 0.58864  0.94940  0.34792  Biso   1.000  C
  C2475    1.0000 0.12572  0.80818  0.49560  Biso   1.000  C
  H2064    1.0000 0.21877  0.97790  0.39721  Biso   1.000  H
  H2065    1.0000 0.20912  0.89019  0.40161  Biso   1.000  H
  C2476    1.0000 0.16265  0.84231  0.64400  Biso   1.000  C
  C2477    1.0000 0.12326  0.79121  0.57452  Biso   1.000  C
  H2066    1.0000 0.26186  0.76609  0.63459  Biso   1.000  H
  H2067    1.0000 0.27016  0.85419  0.63741  Biso   1.000  H
  C2478    1.0000 0.31885  0.80490  0.59209  Biso   1.000  C
  C2479    1.0000 0.48527  0.10739  0.69151  Biso   1.000  C
  H2068    1.0000 0.48396  0.21549  0.68801  Biso   1.000  H
  H2069    1.0000 0.47565  0.99990  0.68911  Biso   1.000  H
  H2070    1.0000 0.93504  0.01208  0.71911  Biso   1.000  H
  H2071    1.0000 0.94336  0.09949  0.71221  Biso   1.000  H
  C2480    1.0000 0.99265  0.87338  0.64970  Biso   1.000  C
  C2481    1.0000 0.07044  0.81890  0.63621  Biso   1.000  C
  C2482    1.0000 0.14317  0.87821  0.79261  Biso   1.000  C
  H2072    1.0000 0.18616  0.89412  0.73390  Biso   1.000  H
  H2073    1.0000 0.16736  0.80989  0.74190  Biso   1.000  H
  C2483    1.0000 0.36566  0.15119  0.83572  Biso   1.000  C
  H2074    1.0000 0.41158  0.16831  0.77881  Biso   1.000  H
  H2075    1.0000 0.31006  0.13569  0.88529  Biso   1.000  H
  C2484    1.0000 0.88604  0.72410  0.47092  Biso   1.000  C
  C2485    1.0000 0.62730  0.83592  0.21030  Biso   1.000  C
  H2076    1.0000 0.66494  0.81840  0.27772  Biso   1.000  H
  C2486    1.0000 0.68451  0.85429  0.15019  Biso   1.000  C
  H2077    1.0000 0.76642  0.85102  0.17120  Biso   1.000  H
  C2487    1.0000 0.53634  0.83048  0.32200  Biso   1.000  C
  H2078    1.0000 0.60062  0.77978  0.35901  Biso   1.000  H
  C2488    1.0000 0.54101  0.95202  0.32142  Biso   1.000  C
  H2079    1.0000 0.60893  0.99542  0.35791  Biso   1.000  H
  O384     1.0000 0.12664  0.76150  0.53109  Biso   1.000  O
  H2080    1.0000 0.10504  0.78668  0.46539  Biso   1.000  H
  H2081    1.0000 0.10595  0.85309  0.50552  Biso   1.000  H
  H2082    1.0000 0.19664  0.86149  0.66401  Biso   1.000  H
  C2489    1.0000 0.07484  0.79262  0.59251  Biso   1.000  C
  H2083    1.0000 0.32273  0.84730  0.56961  Biso   1.000  H
  H2084    1.0000 0.31803  0.75889  0.57229  Biso   1.000  H
  C2490    1.0000 0.36445  0.80400  0.62649  Biso   1.000  C
  H2085    1.0000 0.52214  0.10528  0.71200  Biso   1.000  H
  O385     1.0000 0.02156  0.81548  0.65141  Biso   1.000  O
  H2086    1.0000 0.95195  0.86029  0.64431  Biso   1.000  H
  H2087    1.0000 0.00355  0.90328  0.62120  Biso   1.000  H
  C2491    1.0000 0.19367  0.87171  0.82511  Biso   1.000  C
  H2088    1.0000 0.12877  0.92921  0.79401  Biso   1.000  H
  H2089    1.0000 0.11405  0.84382  0.80332  Biso   1.000  H
  H2090    1.0000 0.39906  0.14540  0.86040  Biso   1.000  H
  C2492    1.0000 0.93013  0.71302  0.50641  Biso   1.000  C
  H2091    1.0000 0.84852  0.71599  0.48379  Biso   1.000  H
  H2092    1.0000 0.88953  0.69258  0.44119  Biso   1.000  H
  C2493    1.0000 0.63443  0.84881  0.16430  Biso   1.000  C
  H2093    1.0000 0.58851  0.83169  0.22121  Biso   1.000  H
  H2094    1.0000 0.69002  0.86431  0.11469  Biso   1.000  H
  C2494    1.0000 0.51481  0.89261  0.30851  Biso   1.000  C
  H2095    1.0000 0.51612  0.78451  0.31201  Biso   1.000  H
  H2096    1.0000 0.52443  0.00010  0.31091  Biso   1.000  H
  O386     1.0000 0.03243  0.77621  0.56340  Biso   1.000  O
  C2495    1.0000 0.39115  0.86351  0.63809  Biso   1.000  C
  C2496    1.0000 0.38015  0.74378  0.64812  Biso   1.000  C
  C2497    1.0000 0.22977  0.92408  0.82982  Biso   1.000  C
  C2498    1.0000 0.20287  0.81210  0.84969  Biso   1.000  C
  C2499    1.0000 0.96723  0.70748  0.53319  Biso   1.000  C
  H2097    1.0000 0.60102  0.85460  0.13961  Biso   1.000  H
  H2098    1.0000 0.47794  0.89472  0.28801  Biso   1.000  H
  C2500    1.0000 0.01477  0.70970  0.56752  Biso   1.000  C
  C2501    1.0000 0.43345  0.86290  0.67122  Biso   1.000  C
  H2099    1.0000 0.37904  0.91008  0.62141  Biso   1.000  H
  C2502    1.0000 0.42244  0.74308  0.68121  Biso   1.000  C
  H2100    1.0000 0.35956  0.69761  0.63909  Biso   1.000  H
  C2503    1.0000 0.27517  0.91688  0.85900  Biso   1.000  C
  H2101    1.0000 0.22266  0.97030  0.81070  Biso   1.000  H
  C2504    1.0000 0.24827  0.80490  0.87891  Biso   1.000  C
  H2102    1.0000 0.17498  0.77152  0.84609  Biso   1.000  H
  H2103    1.0000 0.04356  0.67360  0.55859  Biso   1.000  H
  H2104    1.0000 0.00433  0.69978  0.60191  Biso   1.000  H
  C2505    1.0000 0.44906  0.80269  0.69281  Biso   1.000  C
  H2105    1.0000 0.45407  0.90902  0.68021  Biso   1.000  H
  H2106    1.0000 0.43455  0.69651  0.69789  Biso   1.000  H
  C2506    1.0000 0.28437  0.85721  0.88361  Biso   1.000  C
  H2107    1.0000 0.30306  0.95741  0.86260  Biso   1.000  H
  H2108    1.0000 0.25549  0.75868  0.89789  Biso   1.000  H
  H2109    1.0000 0.48187  0.80219  0.71849  Biso   1.000  H
  H2110    1.0000 0.31947  0.85158  0.90620  Biso   1.000  H
  C2507    1.0000 0.98532  0.29030  0.43250  Biso   1.000  C
  C2508    1.0000 0.03285  0.29252  0.46680  Biso   1.000  C
  O387     1.0000 0.96765  0.22379  0.43659  Biso   1.000  O
  H2111    1.0000 0.95652  0.32640  0.44139  Biso   1.000  H
  H2112    1.0000 0.99571  0.30022  0.39811  Biso   1.000  H
  C2509    1.0000 0.06996  0.28698  0.49361  Biso   1.000  C
  C2510    1.0000 0.92524  0.20738  0.40751  Biso   1.000  C
  C2511    1.0000 0.11404  0.27590  0.52910  Biso   1.000  C
  C2512    1.0000 0.92964  0.18110  0.36381  Biso   1.000  C
  C2513    1.0000 0.87682  0.20879  0.42550  Biso   1.000  C
  O388     1.0000 0.10514  0.20522  0.53919  Biso   1.000  O
  H2113    1.0000 0.15155  0.28401  0.51619  Biso   1.000  H
  H2114    1.0000 0.11055  0.30742  0.55880  Biso   1.000  H
  C2514    1.0000 0.88573  0.15628  0.33800  Biso   1.000  C
  O389     1.0000 0.97853  0.18452  0.34860  Biso   1.000  O
  C2515    1.0000 0.83291  0.18402  0.39972  Biso   1.000  C
  O390     1.0000 0.87344  0.23850  0.46889  Biso   1.000  O
  C2516    1.0000 0.14443  0.17752  0.57009  Biso   1.000  C
  C2517    1.0000 0.89421  0.12698  0.29001  Biso   1.000  C
  C2518    1.0000 0.83743  0.15769  0.35602  Biso   1.000  C
  C2519    1.0000 0.00743  0.12662  0.35029  Biso   1.000  C
  C2520    1.0000 0.78083  0.18050  0.42220  Biso   1.000  C
  C2521    1.0000 0.87436  0.19182  0.50442  Biso   1.000  C
  C2522    1.0000 0.18763  0.14560  0.55430  Biso   1.000  C
  C2523    1.0000 0.13406  0.17078  0.61581  Biso   1.000  C
  C2524    1.0000 0.90864  0.05412  0.29831  Biso   1.000  C
  C2525    1.0000 0.84493  0.13820  0.25650  Biso   1.000  C
  H2115    1.0000 0.92503  0.15190  0.27370  Biso   1.000  H
  H2116    1.0000 0.80344  0.13851  0.33601  Biso   1.000  H
  O391     1.0000 0.99974  0.08650  0.30981  Biso   1.000  O
  H2117    1.0000 0.04814  0.13971  0.35571  Biso   1.000  H
  H2118    1.0000 0.99654  0.09672  0.37881  Biso   1.000  H
  C2526    1.0000 0.77833  0.11681  0.44891  Biso   1.000  C
  H2119    1.0000 0.77972  0.22238  0.44572  Biso   1.000  H
  C2527    1.0000 0.73251  0.18900  0.38509  Biso   1.000  C
  H2120    1.0000 0.89504  0.21332  0.53459  Biso   1.000  H
  H2121    1.0000 0.89413  0.14691  0.49450  Biso   1.000  H
  O392     1.0000 0.82344  0.17400  0.51551  Biso   1.000  O
  O393     1.0000 0.19723  0.15638  0.50861  Biso   1.000  O
  C2528    1.0000 0.22044  0.10689  0.58430  Biso   1.000  C
  C2529    1.0000 0.16676  0.13211  0.64592  Biso   1.000  C
  O394     1.0000 0.09357  0.20778  0.63040  Biso   1.000  O
  C2530    1.0000 0.96102  0.03942  0.30930  Biso   1.000  C
  C2531    1.0000 0.87162  0.00262  0.29649  Biso   1.000  C
  C2532    1.0000 0.85691  0.12179  0.20741  Biso   1.000  C
  H2122    1.0000 0.81392  0.10588  0.26611  Biso   1.000  H
  H2123    1.0000 0.83272  0.19011  0.25811  Biso   1.000  H
  C2533    1.0000 0.75575  0.05790  0.43030  Biso   1.000  C
  C2534    1.0000 0.80322  0.11630  0.49319  Biso   1.000  C
  H2124    1.0000 0.73822  0.23391  0.36539  Biso   1.000  H
  H2125    1.0000 0.72992  0.14581  0.36261  Biso   1.000  H
  C2535    1.0000 0.68123  0.19510  0.40789  Biso   1.000  C
  C2536    1.0000 0.18194  0.10528  0.47689  Biso   1.000  C
  C2537    1.0000 0.26435  0.06842  0.56350  Biso   1.000  C
  C2538    1.0000 0.20996  0.10019  0.63010  Biso   1.000  C
  C2539    1.0000 0.15176  0.12109  0.69590  Biso   1.000  C
  C2540    1.0000 0.04756  0.17189  0.63229  Biso   1.000  C
  C2541    1.0000 0.97662  0.97311  0.31850  Biso   1.000  C
  C2542    1.0000 0.88723  0.93641  0.30580  Biso   1.000  C
  H2126    1.0000 0.83104  0.01400  0.28801  Biso   1.000  H
  C2543    1.0000 0.80641  0.12829  0.17490  Biso   1.000  C
  H2127    1.0000 0.87132  0.07079  0.20600  Biso   1.000  H
  H2128    1.0000 0.88603  0.15618  0.19670  Biso   1.000  H
  C2544    1.0000 0.75793  0.99869  0.45602  Biso   1.000  C
  H2129    1.0000 0.73641  0.05830  0.39601  Biso   1.000  H
  C2545    1.0000 0.80543  0.05709  0.51891  Biso   1.000  C
  H2130    1.0000 0.67735  0.15270  0.43041  Biso   1.000  H
  H2131    1.0000 0.68205  0.24111  0.42770  Biso   1.000  H
  C2546    1.0000 0.63562  0.19600  0.37349  Biso   1.000  C
  O395     1.0000 0.21864  0.05750  0.47140  Biso   1.000  O
  H2132    1.0000 0.17154  0.12839  0.44390  Biso   1.000  H
  H2133    1.0000 0.14823  0.08061  0.48859  Biso   1.000  H
  C2547    1.0000 0.24216  0.00131  0.54400  Biso   1.000  C
  H2134    1.0000 0.27775  0.09908  0.53641  Biso   1.000  H
  C2548    1.0000 0.31244  0.05568  0.59590  Biso   1.000  C
  H2135    1.0000 0.23535  0.07018  0.65330  Biso   1.000  H
  C2549    1.0000 0.11285  0.06359  0.69422  Biso   1.000  C
  H2136    1.0000 0.13415  0.16589  0.70850  Biso   1.000  H
  C2550    1.0000 0.19947  0.11021  0.73119  Biso   1.000  C
  H2137    1.0000 0.01515  0.20532  0.62361  Biso   1.000  H
  H2138    1.0000 0.04656  0.13110  0.60782  Biso   1.000  H
  O396     1.0000 0.04237  0.14399  0.67699  Biso   1.000  O
  O397     1.0000 0.02653  0.95902  0.33789  Biso   1.000  O
  C2551    1.0000 0.93973  0.92161  0.31682  Biso   1.000  C
  C2552    1.0000 0.84832  0.87891  0.30411  Biso   1.000  C
  C2553    1.0000 0.77031  0.07592  0.17020  Biso   1.000  C
  C2554    1.0000 0.79721  0.18790  0.15029  Biso   1.000  C
  C2555    1.0000 0.73573  0.93158  0.43652  Biso   1.000  C
  C2556    1.0000 0.78282  0.99829  0.50030  Biso   1.000  C
  O398     1.0000 0.83635  0.05302  0.55979  Biso   1.000  O
  C2557    1.0000 0.60893  0.13649  0.36189  Biso   1.000  C
  C2558    1.0000 0.61993  0.25622  0.35190  Biso   1.000  C
  C2559    1.0000 0.21722  0.00171  0.49972  Biso   1.000  C
  C2560    1.0000 0.24433  0.94210  0.56971  Biso   1.000  C
  H2139    1.0000 0.33944  0.02331  0.58022  Biso   1.000  H
  H2140    1.0000 0.30084  0.03212  0.62670  Biso   1.000  H
  C2561    1.0000 0.33805  0.12300  0.60799  Biso   1.000  C
  C2562    1.0000 0.06035  0.07839  0.68320  Biso   1.000  C
  C2563    1.0000 0.12846  0.99738  0.70349  Biso   1.000  C
  H2141    1.0000 0.18635  0.09370  0.76350  Biso   1.000  H
  H2142    1.0000 0.22435  0.07220  0.71832  Biso   1.000  H
  C2564    1.0000 0.23117  0.17712  0.73850  Biso   1.000  C
  C2565    1.0000 0.06432  0.94759  0.30559  Biso   1.000  C
  O399     1.0000 0.95771  0.85601  0.32299  Biso   1.000  O
  C2566    1.0000 0.83333  0.86789  0.35410  Biso   1.000  C
  H2143    1.0000 0.86593  0.83411  0.29152  Biso   1.000  H
  C2567    1.0000 0.80061  0.88979  0.26879  Biso   1.000  C
  C2568    1.0000 0.72491  0.08312  0.14099  Biso   1.000  C
  H2144    1.0000 0.77742  0.02970  0.18929  Biso   1.000  H
  C2569    1.0000 0.75181  0.19510  0.12111  Biso   1.000  C
  H2145    1.0000 0.82510  0.22848  0.15389  Biso   1.000  H
  C2570    1.0000 0.77965  0.89311  0.41572  Biso   1.000  C
  H2146    1.0000 0.72233  0.90092  0.46360  Biso   1.000  H
  C2571    1.0000 0.68765  0.94432  0.40411  Biso   1.000  C
  O400     1.0000 0.78144  0.94250  0.52859  Biso   1.000  O
  C2572    1.0000 0.81007  0.06132  0.59941  Biso   1.000  C
  C2573    1.0000 0.56663  0.13710  0.32880  Biso   1.000  C
  H2147    1.0000 0.62104  0.08992  0.37861  Biso   1.000  H
  C2574    1.0000 0.57764  0.25692  0.31881  Biso   1.000  C
  H2148    1.0000 0.64052  0.30239  0.36089  Biso   1.000  H
  C2575    1.0000 0.19465  0.94291  0.48111  Biso   1.000  C
  C2576    1.0000 0.22176  0.88319  0.55111  Biso   1.000  C
  H2149    1.0000 0.26363  0.94170  0.60401  Biso   1.000  H
  H2150    1.0000 0.34556  0.14852  0.57661  Biso   1.000  H
  H2151    1.0000 0.31203  0.15301  0.62659  Biso   1.000  H
  C2577    1.0000 0.38907  0.11268  0.63861  Biso   1.000  C
  C2578    1.0000 0.02346  0.02689  0.68152  Biso   1.000  C
  C2579    1.0000 0.09144  0.94588  0.70170  Biso   1.000  C
  H2152    1.0000 0.16905  0.98600  0.71200  Biso   1.000  H
  H2153    1.0000 0.20676  0.21458  0.75251  Biso   1.000  H
  H2154    1.0000 0.24315  0.19459  0.70600  Biso   1.000  H
  C2580    1.0000 0.27955  0.16610  0.77191  Biso   1.000  C
  C2581    1.0000 0.11212  0.94301  0.33429  Biso   1.000  C
  H2155    1.0000 0.06504  0.98792  0.28091  Biso   1.000  H
  H2156    1.0000 0.05672  0.90051  0.28781  Biso   1.000  H
  C2582    1.0000 0.95252  0.82811  0.36769  Biso   1.000  C
  C2583    1.0000 0.86602  0.82922  0.38420  Biso   1.000  C
  C2584    1.0000 0.79012  0.89981  0.36989  Biso   1.000  C
  H2157    1.0000 0.81373  0.90630  0.23649  Biso   1.000  H
  H2158    1.0000 0.77574  0.92780  0.28170  Biso   1.000  H
  C2585    1.0000 0.76891  0.82288  0.26151  Biso   1.000  C
  C2586    1.0000 0.71571  0.14279  0.11641  Biso   1.000  C
  H2159    1.0000 0.69702  0.04259  0.13742  Biso   1.000  H
  H2160    1.0000 0.74459  0.24132  0.10209  Biso   1.000  H
  C2587    1.0000 0.81245  0.85440  0.44572  Biso   1.000  C
  H2161    1.0000 0.66064  0.97669  0.41980  Biso   1.000  H
  H2162    1.0000 0.69924  0.96788  0.37329  Biso   1.000  H
  C2588    1.0000 0.66203  0.87700  0.39199  Biso   1.000  C
  C2589    1.0000 0.81814  0.89472  0.52309  Biso   1.000  C
  C2590    1.0000 0.85094  0.05981  0.63820  Biso   1.000  C
  H2163    1.0000 0.78131  0.02210  0.60280  Biso   1.000  H
  H2164    1.0000 0.79097  0.10981  0.59841  Biso   1.000  H
  C2591    1.0000 0.55102  0.19731  0.30720  Biso   1.000  C
  H2165    1.0000 0.54601  0.09098  0.31980  Biso   1.000  H
  H2166    1.0000 0.56553  0.30349  0.30209  Biso   1.000  H
  C2592    1.0000 0.19682  0.88370  0.50679  Biso   1.000  C
  O401     1.0000 0.16373  0.94698  0.44019  Biso   1.000  O
  C2593    1.0000 0.21926  0.81950  0.57781  Biso   1.000  C
  C2594    1.0000 0.41616  0.17209  0.65152  Biso   1.000  C
  C2595    1.0000 0.41145  0.05060  0.65210  Biso   1.000  C
  O402     1.0000 0.97354  0.04098  0.66209  Biso   1.000  O
  C2596    1.0000 0.03906  0.96058  0.69072  Biso   1.000  C
  C2597    1.0000 0.10587  0.87302  0.71001  Biso   1.000  C
  C2598    1.0000 0.32968  0.17158  0.75790  Biso   1.000  C
  C2599    1.0000 0.27246  0.15321  0.81791  Biso   1.000  C
  C2600    1.0000 0.14914  0.94019  0.36179  Biso   1.000  C
  O403     1.0000 0.90652  0.79222  0.36961  Biso   1.000  O
  H2167    1.0000 0.98494  0.79468  0.37641  Biso   1.000  H
  H2168    1.0000 0.95352  0.86890  0.39220  Biso   1.000  H
  C2601    1.0000 0.85565  0.82248  0.42989  Biso   1.000  C
  H2169    1.0000 0.76474  0.92982  0.34672  Biso   1.000  H
  H2170    1.0000 0.79333  0.78542  0.24751  Biso   1.000  H
  H2171    1.0000 0.75693  0.80541  0.29399  Biso   1.000  H
  C2602    1.0000 0.72053  0.83390  0.22811  Biso   1.000  C
  H2172    1.0000 0.68061  0.14842  0.09378  Biso   1.000  H
  O404     1.0000 0.80285  0.84362  0.49141  Biso   1.000  O
  H2173    1.0000 0.65452  0.85148  0.42340  Biso   1.000  H
  H2174    1.0000 0.68805  0.84699  0.37339  Biso   1.000  H
  C2603    1.0000 0.61102  0.88732  0.36141  Biso   1.000  C
  H2175    1.0000 0.82855  0.87161  0.55612  Biso   1.000  H
  H2176    1.0000 0.85185  0.91939  0.51139  Biso   1.000  H
  C2604    1.0000 0.88796  0.05699  0.66569  Biso   1.000  C
  H2177    1.0000 0.51821  0.19781  0.28149  Biso   1.000  H
  O405     1.0000 0.17664  0.82600  0.48451  Biso   1.000  O
  C2605    1.0000 0.19002  0.93868  0.40061  Biso   1.000  C
  C2606    1.0000 0.16713  0.81598  0.60030  Biso   1.000  C
  H2178    1.0000 0.22033  0.77762  0.55430  Biso   1.000  H
  C2607    1.0000 0.26753  0.81100  0.61489  Biso   1.000  C
  C2608    1.0000 0.46374  0.16952  0.67802  Biso   1.000  C
  H2179    1.0000 0.39946  0.22022  0.64101  Biso   1.000  H
  C2609    1.0000 0.45907  0.04798  0.67860  Biso   1.000  C
  H2180    1.0000 0.39115  0.00458  0.64211  Biso   1.000  H
  C2610    1.0000 0.93576  0.05241  0.69439  Biso   1.000  C
  O406     1.0000 0.00035  0.91350  0.69020  Biso   1.000  O
  C2611    1.0000 0.11435  0.84372  0.66202  Biso   1.000  C
  C2612    1.0000 0.15515  0.86180  0.74352  Biso   1.000  C
  H2181    1.0000 0.07505  0.84810  0.72632  Biso   1.000  H
  C2613    1.0000 0.37278  0.16408  0.78969  Biso   1.000  C
  H2182    1.0000 0.33514  0.18160  0.72230  Biso   1.000  H
  C2614    1.0000 0.31557  0.14571  0.84980  Biso   1.000  C
  H2183    1.0000 0.23367  0.14898  0.82882  Biso   1.000  H
  O407     1.0000 0.89494  0.79478  0.46079  Biso   1.000  O
  C2615    1.0000 0.67041  0.82842  0.24212  Biso   1.000  C
  C2616    1.0000 0.72762  0.84679  0.18211  Biso   1.000  C
  C2617    1.0000 0.58392  0.82791  0.34850  Biso   1.000  C
  C2618    1.0000 0.58864  0.94940  0.34792  Biso   1.000  C
  C2619    1.0000 0.12572  0.80818  0.49560  Biso   1.000  C
  H2184    1.0000 0.21877  0.97790  0.39721  Biso   1.000  H
  H2185    1.0000 0.20912  0.89019  0.40161  Biso   1.000  H
  C2620    1.0000 0.16265  0.84231  0.64400  Biso   1.000  C
  C2621    1.0000 0.12326  0.79121  0.57452  Biso   1.000  C
  H2186    1.0000 0.26186  0.76609  0.63459  Biso   1.000  H
  H2187    1.0000 0.27016  0.85419  0.63741  Biso   1.000  H
  C2622    1.0000 0.31885  0.80490  0.59209  Biso   1.000  C
  C2623    1.0000 0.48527  0.10739  0.69151  Biso   1.000  C
  H2188    1.0000 0.48396  0.21549  0.68801  Biso   1.000  H
  H2189    1.0000 0.47565  0.99990  0.68911  Biso   1.000  H
  H2190    1.0000 0.93504  0.01208  0.71911  Biso   1.000  H
  H2191    1.0000 0.94336  0.09949  0.71221  Biso   1.000  H
  C2624    1.0000 0.99265  0.87338  0.64970  Biso   1.000  C
  C2625    1.0000 0.07044  0.81890  0.63621  Biso   1.000  C
  C2626    1.0000 0.14317  0.87821  0.79261  Biso   1.000  C
  H2192    1.0000 0.18616  0.89412  0.73390  Biso   1.000  H
  H2193    1.0000 0.16736  0.80989  0.74190  Biso   1.000  H
  C2627    1.0000 0.36566  0.15119  0.83572  Biso   1.000  C
  H2194    1.0000 0.41158  0.16831  0.77881  Biso   1.000  H
  H2195    1.0000 0.31006  0.13569  0.88529  Biso   1.000  H
  C2628    1.0000 0.88604  0.72410  0.47092  Biso   1.000  C
  C2629    1.0000 0.62730  0.83592  0.21030  Biso   1.000  C
  H2196    1.0000 0.66494  0.81840  0.27772  Biso   1.000  H
  C2630    1.0000 0.68451  0.85429  0.15019  Biso   1.000  C
  H2197    1.0000 0.76642  0.85102  0.17120  Biso   1.000  H
  C2631    1.0000 0.53634  0.83048  0.32200  Biso   1.000  C
  H2198    1.0000 0.60062  0.77978  0.35901  Biso   1.000  H
  C2632    1.0000 0.54101  0.95202  0.32142  Biso   1.000  C
  H2199    1.0000 0.60893  0.99542  0.35791  Biso   1.000  H
  O408     1.0000 0.12664  0.76150  0.53109  Biso   1.000  O
  H2200    1.0000 0.10504  0.78668  0.46539  Biso   1.000  H
  H2201    1.0000 0.10595  0.85309  0.50552  Biso   1.000  H
  H2202    1.0000 0.19664  0.86149  0.66401  Biso   1.000  H
  C2633    1.0000 0.07484  0.79262  0.59251  Biso   1.000  C
  H2203    1.0000 0.32273  0.84730  0.56961  Biso   1.000  H
  H2204    1.0000 0.31803  0.75889  0.57229  Biso   1.000  H
  C2634    1.0000 0.36445  0.80400  0.62649  Biso   1.000  C
  H2205    1.0000 0.52214  0.10528  0.71200  Biso   1.000  H
  O409     1.0000 0.02156  0.81548  0.65141  Biso   1.000  O
  H2206    1.0000 0.95195  0.86029  0.64431  Biso   1.000  H
  H2207    1.0000 0.00355  0.90328  0.62120  Biso   1.000  H
  C2635    1.0000 0.19367  0.87171  0.82511  Biso   1.000  C
  H2208    1.0000 0.12877  0.92921  0.79401  Biso   1.000  H
  H2209    1.0000 0.11405  0.84382  0.80332  Biso   1.000  H
  H2210    1.0000 0.39906  0.14540  0.86040  Biso   1.000  H
  C2636    1.0000 0.93013  0.71302  0.50641  Biso   1.000  C
  H2211    1.0000 0.84852  0.71599  0.48379  Biso   1.000  H
  H2212    1.0000 0.88953  0.69258  0.44119  Biso   1.000  H
  C2637    1.0000 0.63443  0.84881  0.16430  Biso   1.000  C
  H2213    1.0000 0.58851  0.83169  0.22121  Biso   1.000  H
  H2214    1.0000 0.69002  0.86431  0.11469  Biso   1.000  H
  C2638    1.0000 0.51481  0.89261  0.30851  Biso   1.000  C
  H2215    1.0000 0.51612  0.78451  0.31201  Biso   1.000  H
  H2216    1.0000 0.52443  0.00010  0.31091  Biso   1.000  H
  O410     1.0000 0.03243  0.77621  0.56340  Biso   1.000  O
  C2639    1.0000 0.39115  0.86351  0.63809  Biso   1.000  C
  C2640    1.0000 0.38015  0.74378  0.64812  Biso   1.000  C
  C2641    1.0000 0.22977  0.92408  0.82982  Biso   1.000  C
  C2642    1.0000 0.20287  0.81210  0.84969  Biso   1.000  C
  C2643    1.0000 0.96723  0.70748  0.53319  Biso   1.000  C
  H2217    1.0000 0.60102  0.85460  0.13961  Biso   1.000  H
  H2218    1.0000 0.47794  0.89472  0.28801  Biso   1.000  H
  C2644    1.0000 0.01477  0.70970  0.56752  Biso   1.000  C
  C2645    1.0000 0.43345  0.86290  0.67122  Biso   1.000  C
  H2219    1.0000 0.37904  0.91008  0.62141  Biso   1.000  H
  C2646    1.0000 0.42244  0.74308  0.68121  Biso   1.000  C
  H2220    1.0000 0.35956  0.69761  0.63909  Biso   1.000  H
  C2647    1.0000 0.27517  0.91688  0.85900  Biso   1.000  C
  H2221    1.0000 0.22266  0.97030  0.81070  Biso   1.000  H
  C2648    1.0000 0.24827  0.80490  0.87891  Biso   1.000  C
  H2222    1.0000 0.17498  0.77152  0.84609  Biso   1.000  H
  H2223    1.0000 0.04356  0.67360  0.55859  Biso   1.000  H
  H2224    1.0000 0.00433  0.69978  0.60191  Biso   1.000  H
  C2649    1.0000 0.44906  0.80269  0.69281  Biso   1.000  C
  H2225    1.0000 0.45407  0.90902  0.68021  Biso   1.000  H
  H2226    1.0000 0.43455  0.69651  0.69789  Biso   1.000  H
  C2650    1.0000 0.28437  0.85721  0.88361  Biso   1.000  C
  H2227    1.0000 0.30306  0.95741  0.86260  Biso   1.000  H
  H2228    1.0000 0.25549  0.75868  0.89789  Biso   1.000  H
  H2229    1.0000 0.48187  0.80219  0.71849  Biso   1.000  H
  H2230    1.0000 0.31947  0.85158  0.90620  Biso   1.000  H
