data_image0
_cell_length_a       21.521
_cell_length_b       19.08
_cell_length_c       22.322
_cell_angle_alpha    90
_cell_angle_beta     114.52
_cell_angle_gamma    90

_symmetry_space_group_name_H-M    "P 1"
_symmetry_int_tables_number       1

loop_
  _symmetry_equiv_pos_as_xyz
  'x, y, z'

loop_
  _atom_site_label
  _atom_site_occupancy
  _atom_site_fract_x
  _atom_site_fract_y
  _atom_site_fract_z
  _atom_site_thermal_displace_type
  _atom_site_B_iso_or_equiv
  _atom_site_type_symbol
  O1       1.0000 0.50361  0.59397  0.48718  Biso   1.000  O
  C1       1.0000 0.49750  0.61190  0.42203  Biso   1.000  C
  C2       1.0000 0.56673  0.58071  0.52987  Biso   1.000  C
  H1       1.0000 0.52232  0.65430  0.42410  Biso   1.000  H
  H2       1.0000 0.51591  0.57458  0.40554  Biso   1.000  H
  H3       1.0000 0.45024  0.61861  0.39332  Biso   1.000  H
  O2       1.0000 0.61557  0.58312  0.51682  Biso   1.000  O
  C3       1.0000 0.57427  0.56420  0.59865  Biso   1.000  C
  O3       1.0000 0.51021  0.56342  0.60161  Biso   1.000  O
  H4       1.0000 0.60324  0.59916  0.62903  Biso   1.000  H
  H5       1.0000 0.59602  0.51887  0.61205  Biso   1.000  H
  C4       1.0000 0.50909  0.55377  0.66281  Biso   1.000  C
  C5       1.0000 0.44466  0.54927  0.66252  Biso   1.000  C
  C6       1.0000 0.56770  0.54942  0.72136  Biso   1.000  C
  C7       1.0000 0.37999  0.55608  0.59993  Biso   1.000  C
  C8       1.0000 0.44043  0.54004  0.72264  Biso   1.000  C
  H6       1.0000 0.61042  0.55199  0.72042  Biso   1.000  H
  C9       1.0000 0.56290  0.54119  0.78143  Biso   1.000  C
  C10      1.0000 0.35751  0.63208  0.58669  Biso   1.000  C
  H7       1.0000 0.38792  0.53779  0.56310  Biso   1.000  H
  H8       1.0000 0.34393  0.52856  0.60382  Biso   1.000  H
  C11      1.0000 0.49822  0.53664  0.78123  Biso   1.000  C
  H9       1.0000 0.39765  0.53611  0.72333  Biso   1.000  H
  C12      1.0000 0.62656  0.54083  0.84524  Biso   1.000  C
  C13      1.0000 0.38035  0.67390  0.54917  Biso   1.000  C
  C14      1.0000 0.31522  0.66211  0.61323  Biso   1.000  C
  O4       1.0000 0.49605  0.52746  0.84204  Biso   1.000  O
  H10      1.0000 0.61897  0.51158  0.87705  Biso   1.000  H
  H11      1.0000 0.66394  0.52060  0.83751  Biso   1.000  H
  C15      1.0000 0.64626  0.61389  0.87331  Biso   1.000  C
  C16      1.0000 0.36180  0.74450  0.53814  Biso   1.000  C
  H12      1.0000 0.40844  0.65466  0.53110  Biso   1.000  H
  O5       1.0000 0.29421  0.61845  0.65045  Biso   1.000  O
  C17      1.0000 0.29552  0.73197  0.60082  Biso   1.000  C
  C18      1.0000 0.43083  0.53496  0.84347  Biso   1.000  C
  C19      1.0000 0.69046  0.65514  0.85691  Biso   1.000  C
  C20      1.0000 0.61928  0.64240  0.91447  Biso   1.000  C
  O6       1.0000 0.38496  0.78873  0.50269  Biso   1.000  O
  C21      1.0000 0.31849  0.77416  0.56286  Biso   1.000  C
  C22      1.0000 0.25367  0.64759  0.68074  Biso   1.000  C
  H13      1.0000 0.26663  0.75100  0.61800  Biso   1.000  H
  H14      1.0000 0.41236  0.58097  0.82712  Biso   1.000  H
  H15      1.0000 0.39975  0.50010  0.81511  Biso   1.000  H
  C23      1.0000 0.43689  0.52615  0.91260  Biso   1.000  C
  O7       1.0000 0.71417  0.62505  0.81442  Biso   1.000  O
  C24      1.0000 0.70701  0.72301  0.88198  Biso   1.000  C
  C25      1.0000 0.63476  0.71059  0.93845  Biso   1.000  C
  H16      1.0000 0.59014  0.61541  0.92634  Biso   1.000  H
  C26      1.0000 0.42164  0.75828  0.46979  Biso   1.000  C
  C27      1.0000 0.29674  0.85010  0.55064  Biso   1.000  C
  H17      1.0000 0.27714  0.68669  0.70870  Biso   1.000  H
  H18      1.0000 0.21044  0.66420  0.64755  Biso   1.000  H
  C28      1.0000 0.24175  0.58999  0.72116  Biso   1.000  C
  H19      1.0000 0.45458  0.47977  0.92866  Biso   1.000  H
  H20      1.0000 0.46886  0.56038  0.94111  Biso   1.000  H
  C29      1.0000 0.36815  0.53553  0.91507  Biso   1.000  C
  C30      1.0000 0.76274  0.66195  0.80009  Biso   1.000  C
  H21      1.0000 0.73746  0.74937  0.87154  Biso   1.000  H
  C31      1.0000 0.67881  0.75194  0.92225  Biso   1.000  C
  O8       1.0000 0.60834  0.74161  0.97898  Biso   1.000  O
  H22      1.0000 0.46000  0.73171  0.50052  Biso   1.000  H
  H23      1.0000 0.39243  0.72678  0.43562  Biso   1.000  H
  C32      1.0000 0.44642  0.81651  0.44025  Biso   1.000  C
  C33      1.0000 0.34583  0.89675  0.60402  Biso   1.000  C
  H24      1.0000 0.25133  0.85508  0.54932  Biso   1.000  H
  H25      1.0000 0.29491  0.86457  0.50830  Biso   1.000  H
  H26      1.0000 0.21064  0.55597  0.69152  Biso   1.000  H
  H27      1.0000 0.28476  0.56640  0.74583  Biso   1.000  H
  C34      1.0000 0.21254  0.61515  0.76902  Biso   1.000  C
  H28      1.0000 0.33737  0.50021  0.88705  Biso   1.000  H
  H29      1.0000 0.35007  0.58087  0.89616  Biso   1.000  H
  C35      1.0000 0.36684  0.53129  0.98100  Biso   1.000  C
  H30      1.0000 0.74915  0.71059  0.79054  Biso   1.000  H
  H31      1.0000 0.80682  0.66048  0.83751  Biso   1.000  H
  C36      1.0000 0.76748  0.62799  0.74125  Biso   1.000  C
  C37      1.0000 0.69456  0.82678  0.94653  Biso   1.000  C
  C38      1.0000 0.56786  0.70021  0.00163  Biso   1.000  C
  O9       1.0000 0.44767  0.87731  0.45340  Biso   1.000  O
  O10      1.0000 0.46640  0.79030  0.39589  Biso   1.000  O
  C39      1.0000 0.40430  0.92186  0.59964  Biso   1.000  C
  C40      1.0000 0.33562  0.91253  0.66030  Biso   1.000  C
  H32      1.0000 0.24382  0.64916  0.79852  Biso   1.000  H
  H33      1.0000 0.21075  0.57558  0.79551  Biso   1.000  H
  C41      1.0000 0.14673  0.64570  0.73972  Biso   1.000  C
  C42      1.0000 0.29680  0.53873  0.98031  Biso   1.000  C
  H34      1.0000 0.38578  0.48648  0.00069  Biso   1.000  H
  H35      1.0000 0.39602  0.56777  0.00872  Biso   1.000  H
  O11      1.0000 0.72912  0.58464  0.70698  Biso   1.000  O
  O12      1.0000 0.81958  0.65519  0.73180  Biso   1.000  O
  H36      1.0000 0.69382  0.83050  0.98952  Biso   1.000  H
  H37      1.0000 0.74004  0.83899  0.95116  Biso   1.000  H
  C43      1.0000 0.64339  0.87783  0.89956  Biso   1.000  C
  H38      1.0000 0.52797  0.68297  0.96465  Biso   1.000  H
  H39      1.0000 0.59400  0.66027  0.02620  Biso   1.000  H
  C44      1.0000 0.54643  0.74502  0.04511  Biso   1.000  C
  C45      1.0000 0.48990  0.84051  0.36132  Biso   1.000  C
  C46      1.0000 0.45192  0.96116  0.65035  Biso   1.000  C
  H40      1.0000 0.41175  0.91226  0.56231  Biso   1.000  H
  O13      1.0000 0.27657  0.88569  0.66237  Biso   1.000  O
  C47      1.0000 0.38278  0.95283  0.71048  Biso   1.000  C
  H41      1.0000 0.14862  0.68847  0.71702  Biso   1.000  H
  H42      1.0000 0.11544  0.61357  0.70762  Biso   1.000  H
  C48      1.0000 0.12055  0.66258  0.79453  Biso   1.000  C
  H43      1.0000 0.27873  0.58428  0.96381  Biso   1.000  H
  H44      1.0000 0.26715  0.50330  0.95244  Biso   1.000  H
  H45      1.0000 0.29989  0.53339  0.02418  Biso   1.000  H
  C49      1.0000 0.82653  0.63082  0.67335  Biso   1.000  C
  C50      1.0000 0.65281  0.90503  0.84588  Biso   1.000  C
  C51      1.0000 0.58579  0.89790  0.90857  Biso   1.000  C
  H46      1.0000 0.58679  0.76137  0.08218  Biso   1.000  H
  H47      1.0000 0.52217  0.78580  0.02049  Biso   1.000  H
  C52      1.0000 0.50101  0.70592  0.07032  Biso   1.000  C
  H48      1.0000 0.52959  0.86420  0.39209  Biso   1.000  H
  H49      1.0000 0.50113  0.81646  0.32931  Biso   1.000  H
  H50      1.0000 0.45440  0.87406  0.33941  Biso   1.000  H
  O14      1.0000 0.51228  0.98574  0.64981  Biso   1.000  O
  C53      1.0000 0.44175  0.97746  0.70639  Biso   1.000  C
  C54      1.0000 0.26586  0.89743  0.72027  Biso   1.000  C
  H51      1.0000 0.37475  0.96347  0.74731  Biso   1.000  H
  H52      1.0000 0.15464  0.68920  0.82914  Biso   1.000  H
  H53      1.0000 0.07914  0.68936  0.77562  Biso   1.000  H
  H54      1.0000 0.11195  0.61960  0.81211  Biso   1.000  H
  H55      1.0000 0.86542  0.65278  0.67064  Biso   1.000  H
  H56      1.0000 0.83271  0.58087  0.67561  Biso   1.000  H
  H57      1.0000 0.78612  0.64261  0.63494  Biso   1.000  H
  O15      1.0000 0.71102  0.88312  0.84012  Biso   1.000  O
  C55      1.0000 0.60542  0.95094  0.80260  Biso   1.000  C
  C56      1.0000 0.53797  0.94355  0.86504  Biso   1.000  C
  H58      1.0000 0.57906  0.88050  0.94431  Biso   1.000  H
  H59      1.0000 0.52640  0.66677  0.09691  Biso   1.000  H
  H60      1.0000 0.46241  0.68690  0.03299  Biso   1.000  H
  C57      1.0000 0.47429  0.74969  0.11079  Biso   1.000  C
  C58      1.0000 0.52687  0.96730  0.59594  Biso   1.000  C
  C59      1.0000 0.49471  0.01850  0.76228  Biso   1.000  C
  H61      1.0000 0.30243  0.87621  0.75784  Biso   1.000  H
  H62      1.0000 0.26557  0.94738  0.72835  Biso   1.000  H
  C60      1.0000 0.19858  0.86572  0.71112  Biso   1.000  C
  C61      1.0000 0.72423  0.91080  0.78813  Biso   1.000  C
  H63      1.0000 0.61246  0.96887  0.76715  Biso   1.000  H
  C62      1.0000 0.54739  0.97070  0.81147  Biso   1.000  C
  O16      1.0000 0.47976  0.96530  0.87134  Biso   1.000  O
  H64      1.0000 0.51263  0.76971  0.14782  Biso   1.000  H
  H65      1.0000 0.44747  0.78810  0.08401  Biso   1.000  H
  C63      1.0000 0.43038  0.70749  0.13669  Biso   1.000  C
  H66      1.0000 0.52290  0.91698  0.58910  Biso   1.000  H
  H67      1.0000 0.49513  0.99009  0.55621  Biso   1.000  H
  C64      1.0000 0.59858  0.99072  0.61185  Biso   1.000  C
  H68      1.0000 0.51737  0.05121  0.74465  Biso   1.000  H
  H69      1.0000 0.47223  0.04539  0.78443  Biso   1.000  H
  H70      1.0000 0.16242  0.88700  0.67310  Biso   1.000  H
  H71      1.0000 0.19925  0.81599  0.70230  Biso   1.000  H
  C65      1.0000 0.18294  0.87563  0.77084  Biso   1.000  C
  H72      1.0000 0.68583  0.90189  0.74632  Biso   1.000  H
  H73      1.0000 0.73126  0.96106  0.79344  Biso   1.000  H
  C66      1.0000 0.78680  0.87600  0.78970  Biso   1.000  C
  C67      1.0000 0.46481  0.93512  0.92221  Biso   1.000  C
  H74      1.0000 0.45610  0.66829  0.16180  Biso   1.000  H
  H75      1.0000 0.41699  0.73679  0.16432  Biso   1.000  H
  H76      1.0000 0.39041  0.69078  0.10030  Biso   1.000  H
  O17      1.0000 0.61459  0.97589  0.56138  Biso   1.000  O
  O18      1.0000 0.63718  0.01703  0.66266  Biso   1.000  O
  H77      1.0000 0.18832  0.92479  0.78291  Biso   1.000  H
  H78      1.0000 0.21607  0.84948  0.80733  Biso   1.000  H
  C68      1.0000 0.11211  0.85262  0.76055  Biso   1.000  C
  O19      1.0000 0.81978  0.83239  0.82747  Biso   1.000  O
  O20      1.0000 0.79965  0.89911  0.73859  Biso   1.000  O
  H79      1.0000 0.46104  0.88459  0.91723  Biso   1.000  H
  H80      1.0000 0.50096  0.94575  0.96495  Biso   1.000  H
  C69      1.0000 0.39817  0.96572  0.91689  Biso   1.000  C
  C70      1.0000 0.68185  0.99733  0.56965  Biso   1.000  C
  H81      1.0000 0.07902  0.88260  0.72761  Biso   1.000  H
  H82      1.0000 0.10473  0.80519  0.74342  Biso   1.000  H
  C71      1.0000 0.09894  0.85451  0.82225  Biso   1.000  C
  C72      1.0000 0.85624  0.86609  0.73145  Biso   1.000  C
  H83      1.0000 0.36237  0.95257  0.87474  Biso   1.000  H
  C73      1.0000 0.37819  0.94177  0.97130  Biso   1.000  C
  H84      1.0000 0.40163  0.01651  0.91802  Biso   1.000  H
  H85      1.0000 0.71550  0.97180  0.60540  Biso   1.000  H
  H86      1.0000 0.68742  0.98800  0.52991  Biso   1.000  H
  H87      1.0000 0.68741  0.04659  0.57901  Biso   1.000  H
  H88      1.0000 0.13117  0.82479  0.85524  Biso   1.000  H
  H89      1.0000 0.10386  0.90168  0.83855  Biso   1.000  H
  H90      1.0000 0.05345  0.83826  0.81201  Biso   1.000  H
  H91      1.0000 0.89762  0.87621  0.76942  Biso   1.000  H
  H92      1.0000 0.84911  0.81640  0.72741  Biso   1.000  H
  H93      1.0000 0.85984  0.88381  0.69275  Biso   1.000  H
  H94      1.0000 0.37785  0.89099  0.97204  Biso   1.000  H
  C74      1.0000 0.30876  0.96861  0.96371  Biso   1.000  C
  H95      1.0000 0.41249  0.95770  0.01320  Biso   1.000  H
  H96      1.0000 0.27419  0.95210  0.92216  Biso   1.000  H
  C75      1.0000 0.29007  0.94507  0.01896  Biso   1.000  C
  H97      1.0000 0.30885  0.01939  0.96243  Biso   1.000  H
  H98      1.0000 0.32469  0.96006  0.06042  Biso   1.000  H
  H99      1.0000 0.24699  0.96520  0.01290  Biso   1.000  H
  H100     1.0000 0.28671  0.89486  0.01862  Biso   1.000  H
  O21      1.0000 0.49644  0.40603  0.51283  Biso   1.000  O
  C76      1.0000 0.43333  0.41929  0.47019  Biso   1.000  C
  C77      1.0000 0.50254  0.38810  0.57797  Biso   1.000  C
  C78      1.0000 0.42577  0.43574  0.40135  Biso   1.000  C
  O22      1.0000 0.38449  0.41682  0.48324  Biso   1.000  O
  H101     1.0000 0.47772  0.34570  0.57590  Biso   1.000  H
  H102     1.0000 0.48411  0.42537  0.59452  Biso   1.000  H
  H103     1.0000 0.54982  0.38139  0.60673  Biso   1.000  H
  O23      1.0000 0.48985  0.43653  0.39845  Biso   1.000  O
  H104     1.0000 0.39683  0.40079  0.37102  Biso   1.000  H
  H105     1.0000 0.40400  0.48108  0.38801  Biso   1.000  H
  C79      1.0000 0.49092  0.44617  0.33724  Biso   1.000  C
  C80      1.0000 0.43236  0.45058  0.27870  Biso   1.000  C
  C81      1.0000 0.55541  0.45073  0.33754  Biso   1.000  C
  C82      1.0000 0.43715  0.45881  0.21857  Biso   1.000  C
  H106     1.0000 0.38964  0.44801  0.27963  Biso   1.000  H
  C83      1.0000 0.55964  0.45991  0.27742  Biso   1.000  C
  C84      1.0000 0.62008  0.44387  0.40012  Biso   1.000  C
  C85      1.0000 0.37346  0.45917  0.15481  Biso   1.000  C
  C86      1.0000 0.50184  0.46336  0.21882  Biso   1.000  C
  H107     1.0000 0.60241  0.46389  0.27673  Biso   1.000  H
  C87      1.0000 0.64255  0.36792  0.41337  Biso   1.000  C
  H108     1.0000 0.61212  0.46221  0.43690  Biso   1.000  H
  H109     1.0000 0.65613  0.47138  0.39623  Biso   1.000  H
  C88      1.0000 0.35378  0.38611  0.12669  Biso   1.000  C
  H110     1.0000 0.38109  0.48836  0.12300  Biso   1.000  H
  H111     1.0000 0.33610  0.47940  0.16249  Biso   1.000  H
  O24      1.0000 0.50401  0.47254  0.15801  Biso   1.000  O
  C89      1.0000 0.61970  0.32610  0.45084  Biso   1.000  C
  C90      1.0000 0.68484  0.33789  0.38683  Biso   1.000  C
  C91      1.0000 0.30956  0.34486  0.14314  Biso   1.000  C
  C92      1.0000 0.38078  0.35760  0.08558  Biso   1.000  C
  C93      1.0000 0.56924  0.46499  0.15658  Biso   1.000  C
  C94      1.0000 0.63827  0.25545  0.46192  Biso   1.000  C
  H112     1.0000 0.59160  0.34528  0.46891  Biso   1.000  H
  O25      1.0000 0.70583  0.38155  0.34955  Biso   1.000  O
  C95      1.0000 0.70452  0.26798  0.39918  Biso   1.000  C
  O26      1.0000 0.28587  0.37490  0.18558  Biso   1.000  O
  C96      1.0000 0.29306  0.27694  0.11808  Biso   1.000  C
  C97      1.0000 0.36528  0.28936  0.06155  Biso   1.000  C
  H113     1.0000 0.40992  0.38459  0.07371  Biso   1.000  H
  H114     1.0000 0.58770  0.41897  0.17293  Biso   1.000  H
  H115     1.0000 0.60029  0.49990  0.18489  Biso   1.000  H
  C98      1.0000 0.56318  0.47379  0.08745  Biso   1.000  C
  O27      1.0000 0.61510  0.21127  0.49737  Biso   1.000  O
  C99      1.0000 0.68157  0.22584  0.43720  Biso   1.000  C
  C100     1.0000 0.74639  0.35241  0.31932  Biso   1.000  C
  H116     1.0000 0.73341  0.24900  0.38200  Biso   1.000  H
  C101     1.0000 0.23725  0.33800  0.19991  Biso   1.000  C
  H117     1.0000 0.26261  0.25058  0.12851  Biso   1.000  H
  C102     1.0000 0.32123  0.24806  0.07775  Biso   1.000  C
  O28      1.0000 0.39165  0.25839  0.02103  Biso   1.000  O
  H118     1.0000 0.54549  0.52018  0.07140  Biso   1.000  H
  H119     1.0000 0.53118  0.43957  0.05889  Biso   1.000  H
  C103     1.0000 0.63191  0.46441  0.08499  Biso   1.000  C
  C104     1.0000 0.57840  0.24172  0.53021  Biso   1.000  C
  C105     1.0000 0.70333  0.14990  0.44941  Biso   1.000  C
  H120     1.0000 0.72290  0.31331  0.29130  Biso   1.000  H
  H121     1.0000 0.78963  0.33580  0.35251  Biso   1.000  H
  C106     1.0000 0.75831  0.40996  0.27889  Biso   1.000  C
  H122     1.0000 0.25091  0.28941  0.20951  Biso   1.000  H
  H123     1.0000 0.19322  0.33952  0.16249  Biso   1.000  H
  C107     1.0000 0.23259  0.37196  0.25880  Biso   1.000  C
  C108     1.0000 0.30549  0.17322  0.05347  Biso   1.000  C
  C109     1.0000 0.43218  0.29974  0.99838  Biso   1.000  C
  H124     1.0000 0.66270  0.49979  0.11300  Biso   1.000  H
  H125     1.0000 0.64999  0.41908  0.10390  Biso   1.000  H
  C110     1.0000 0.63320  0.46871  0.01901  Biso   1.000  C
  H126     1.0000 0.54001  0.26829  0.49953  Biso   1.000  H
  H127     1.0000 0.60763  0.27322  0.56443  Biso   1.000  H
  C111     1.0000 0.55364  0.18349  0.55980  Biso   1.000  C
  C112     1.0000 0.65424  0.10320  0.39603  Biso   1.000  C
  H128     1.0000 0.74874  0.14492  0.45074  Biso   1.000  H
  H129     1.0000 0.70513  0.13538  0.49171  Biso   1.000  H
  H130     1.0000 0.78943  0.44397  0.30853  Biso   1.000  H
  H131     1.0000 0.71531  0.43360  0.25422  Biso   1.000  H
  C113     1.0000 0.78752  0.38485  0.23103  Biso   1.000  C
  O29      1.0000 0.27090  0.41530  0.29307  Biso   1.000  O
  O30      1.0000 0.18048  0.34481  0.26826  Biso   1.000  O
  H132     1.0000 0.30617  0.16950  0.01049  Biso   1.000  H
  H133     1.0000 0.25998  0.16101  0.04889  Biso   1.000  H
  C114     1.0000 0.35665  0.12212  0.10045  Biso   1.000  C
  H134     1.0000 0.47210  0.31698  0.03540  Biso   1.000  H
  H135     1.0000 0.40606  0.33968  0.97385  Biso   1.000  H
  C115     1.0000 0.45363  0.25493  0.95495  Biso   1.000  C
  C116     1.0000 0.70326  0.46122  0.01975  Biso   1.000  C
  H136     1.0000 0.61427  0.51347  0.99931  Biso   1.000  H
  H137     1.0000 0.60405  0.43218  0.99133  Biso   1.000  H
  O31      1.0000 0.55240  0.12264  0.54666  Biso   1.000  O
  O32      1.0000 0.53362  0.20970  0.60417  Biso   1.000  O
  C117     1.0000 0.59576  0.07809  0.40042  Biso   1.000  C
  C118     1.0000 0.66444  0.08747  0.33975  Biso   1.000  C
  H138     1.0000 0.75622  0.35079  0.20149  Biso   1.000  H
  H139     1.0000 0.78929  0.42437  0.20449  Biso   1.000  H
  C119     1.0000 0.85334  0.35430  0.26033  Biso   1.000  C
  C120     1.0000 0.17353  0.36918  0.32670  Biso   1.000  C
  C121     1.0000 0.34725  0.09492  0.15417  Biso   1.000  C
  C122     1.0000 0.41427  0.10210  0.09149  Biso   1.000  C
  H140     1.0000 0.41326  0.23857  0.91782  Biso   1.000  H
  H141     1.0000 0.47787  0.21420  0.97952  Biso   1.000  H
  C123     1.0000 0.49905  0.29408  0.92974  Biso   1.000  C
  H142     1.0000 0.72131  0.41567  0.03619  Biso   1.000  H
  H143     1.0000 0.73292  0.49670  0.04761  Biso   1.000  H
  H144     1.0000 0.70015  0.46661  0.97582  Biso   1.000  H
  C124     1.0000 0.51016  0.15949  0.63873  Biso   1.000  C
  C125     1.0000 0.54814  0.03878  0.34970  Biso   1.000  C
  H145     1.0000 0.58832  0.08768  0.43774  Biso   1.000  H
  C126     1.0000 0.61729  0.04717  0.28958  Biso   1.000  C
  O33      1.0000 0.72349  0.11431  0.33768  Biso   1.000  O
  H146     1.0000 0.85140  0.31148  0.28303  Biso   1.000  H
  H147     1.0000 0.88463  0.38637  0.29243  Biso   1.000  H
  C127     1.0000 0.87951  0.33737  0.20553  Biso   1.000  C
  H148     1.0000 0.13460  0.34717  0.32941  Biso   1.000  H
  H149     1.0000 0.16733  0.41908  0.32439  Biso   1.000  H
  H150     1.0000 0.21390  0.35739  0.36511  Biso   1.000  H
  O34      1.0000 0.28900  0.11688  0.15993  Biso   1.000  O
  C128     1.0000 0.39460  0.04900  0.19745  Biso   1.000  C
  C129     1.0000 0.46207  0.05645  0.13497  Biso   1.000  C
  H151     1.0000 0.42098  0.11950  0.05569  Biso   1.000  H
  H152     1.0000 0.47367  0.33318  0.90315  Biso   1.000  H
  H153     1.0000 0.53763  0.31310  0.96701  Biso   1.000  H
  C130     1.0000 0.52575  0.25031  0.88921  Biso   1.000  C
  H154     1.0000 0.47041  0.13580  0.60791  Biso   1.000  H
  H155     1.0000 0.49894  0.18349  0.67074  Biso   1.000  H
  H156     1.0000 0.54566  0.12589  0.66065  Biso   1.000  H
  C131     1.0000 0.55831  0.02248  0.29366  Biso   1.000  C
  O35      1.0000 0.48778  0.01426  0.35024  Biso   1.000  O
  H157     1.0000 0.62529  0.03648  0.25270  Biso   1.000  H
  C132     1.0000 0.73421  0.10252  0.27978  Biso   1.000  C
  H158     1.0000 0.84542  0.31080  0.17091  Biso   1.000  H
  H159     1.0000 0.92090  0.31059  0.22438  Biso   1.000  H
  H160     1.0000 0.88809  0.38040  0.18790  Biso   1.000  H
  C133     1.0000 0.27584  0.08920  0.21193  Biso   1.000  C
  H161     1.0000 0.38760  0.03108  0.23290  Biso   1.000  H
  C134     1.0000 0.45268  0.02925  0.18859  Biso   1.000  C
  O36      1.0000 0.52028  0.03470  0.12866  Biso   1.000  O
  H162     1.0000 0.48744  0.23029  0.85223  Biso   1.000  H
  H163     1.0000 0.55254  0.21190  0.91605  Biso   1.000  H
  C135     1.0000 0.56966  0.29251  0.86331  Biso   1.000  C
  C136     1.0000 0.50535  0.98145  0.23778  Biso   1.000  C
  C137     1.0000 0.47315  0.03270  0.40411  Biso   1.000  C
  H164     1.0000 0.69759  0.12379  0.24221  Biso   1.000  H
  H165     1.0000 0.73449  0.05262  0.27170  Biso   1.000  H
  C138     1.0000 0.80148  0.13428  0.28894  Biso   1.000  C
  H166     1.0000 0.31423  0.09811  0.25373  Biso   1.000  H
  H167     1.0000 0.26881  0.03889  0.20661  Biso   1.000  H
  C139     1.0000 0.21326  0.12400  0.21035  Biso   1.000  C
  C140     1.0000 0.53523  0.06488  0.07780  Biso   1.000  C
  H168     1.0000 0.54396  0.33171  0.83825  Biso   1.000  H
  H169     1.0000 0.58307  0.26321  0.83574  Biso   1.000  H
  H170     1.0000 0.60965  0.30917  0.89975  Biso   1.000  H
  H171     1.0000 0.48269  0.94879  0.25540  Biso   1.000  H
  H172     1.0000 0.52783  0.95456  0.21562  Biso   1.000  H
  H173     1.0000 0.47709  0.08302  0.41090  Biso   1.000  H
  H174     1.0000 0.50491  0.00991  0.44380  Biso   1.000  H
  C141     1.0000 0.40146  0.00922  0.38815  Biso   1.000  C
  H175     1.0000 0.83762  0.11300  0.32690  Biso   1.000  H
  H176     1.0000 0.80079  0.18401  0.29770  Biso   1.000  H
  C142     1.0000 0.81713  0.12432  0.22921  Biso   1.000  C
  O37      1.0000 0.18026  0.16761  0.17253  Biso   1.000  O
  O38      1.0000 0.20039  0.10089  0.26141  Biso   1.000  O
  H177     1.0000 0.53902  0.11541  0.08282  Biso   1.000  H
  H178     1.0000 0.49910  0.05419  0.03511  Biso   1.000  H
  C143     1.0000 0.60190  0.03422  0.08317  Biso   1.000  C
  O39      1.0000 0.38548  0.02406  0.43867  Biso   1.000  O
  O40      1.0000 0.36286  0.98291  0.33734  Biso   1.000  O
  H179     1.0000 0.81168  0.07521  0.21710  Biso   1.000  H
  H180     1.0000 0.78400  0.15047  0.19272  Biso   1.000  H
  C144     1.0000 0.88796  0.14738  0.23950  Biso   1.000  C
  C145     1.0000 0.14383  0.13391  0.26860  Biso   1.000  C
  H181     1.0000 0.63770  0.04738  0.12531  Biso   1.000  H
  C146     1.0000 0.62188  0.05823  0.02876  Biso   1.000  C
  H182     1.0000 0.59837  0.98349  0.08198  Biso   1.000  H
  C147     1.0000 0.31821  0.00262  0.43040  Biso   1.000  C
  H183     1.0000 0.92098  0.11740  0.27239  Biso   1.000  H
  H184     1.0000 0.89531  0.19481  0.25659  Biso   1.000  H
  C148     1.0000 0.90108  0.14549  0.17780  Biso   1.000  C
  H185     1.0000 0.10242  0.12379  0.23059  Biso   1.000  H
  H186     1.0000 0.15089  0.18360  0.27259  Biso   1.000  H
  H187     1.0000 0.14023  0.11619  0.30730  Biso   1.000  H
  H188     1.0000 0.62221  0.10901  0.02802  Biso   1.000  H
  C149     1.0000 0.69129  0.03139  0.03629  Biso   1.000  C
  H189     1.0000 0.58758  0.04230  0.98685  Biso   1.000  H
  H190     1.0000 0.28454  0.02820  0.39460  Biso   1.000  H
  H191     1.0000 0.31264  0.01200  0.47014  Biso   1.000  H
  H192     1.0000 0.31263  0.95335  0.42100  Biso   1.000  H
  H193     1.0000 0.86890  0.17521  0.14481  Biso   1.000  H
  H194     1.0000 0.89620  0.09832  0.16151  Biso   1.000  H
  H195     1.0000 0.94659  0.16169  0.18800  Biso   1.000  H
  H196     1.0000 0.72588  0.04790  0.07790  Biso   1.000  H
  H197     1.0000 0.69121  0.98056  0.03762  Biso   1.000  H
  C150     1.0000 0.71000  0.05487  0.98109  Biso   1.000  C
  H198     1.0000 0.67538  0.03988  0.93963  Biso   1.000  H
  H199     1.0000 0.75308  0.03480  0.98715  Biso   1.000  H
  H200     1.0000 0.71335  0.10508  0.98144  Biso   1.000  H
  C151     1.0000 0.59890  0.64549  0.32222  Biso   1.000  C
  C152     1.0000 0.61203  0.64738  0.26053  Biso   1.000  C
  H201     1.0000 0.63113  0.67521  0.35521  Biso   1.000  H
  H202     1.0000 0.60383  0.59827  0.33852  Biso   1.000  H
  H203     1.0000 0.55344  0.66169  0.31203  Biso   1.000  H
  C153     1.0000 0.68291  0.62432  0.27082  Biso   1.000  C
  H204     1.0000 0.57898  0.61740  0.22758  Biso   1.000  H
  H205     1.0000 0.60470  0.69481  0.24339  Biso   1.000  H
  C154     1.0000 0.69855  0.63428  0.21109  Biso   1.000  C
  H206     1.0000 0.68831  0.57521  0.28293  Biso   1.000  H
  H207     1.0000 0.71599  0.65047  0.30730  Biso   1.000  H
  C155     1.0000 0.76578  0.60252  0.22025  Biso   1.000  C
  H208     1.0000 0.66241  0.61300  0.17313  Biso   1.000  H
  H209     1.0000 0.69919  0.68396  0.20232  Biso   1.000  H
  O41      1.0000 0.77654  0.61426  0.16234  Biso   1.000  O
  H210     1.0000 0.80240  0.62379  0.25782  Biso   1.000  H
  H211     1.0000 0.76549  0.55257  0.22832  Biso   1.000  H
  C156     1.0000 0.83559  0.58747  0.16027  Biso   1.000  C
  C157     1.0000 0.84580  0.60320  0.10399  Biso   1.000  C
  C158     1.0000 0.88275  0.54717  0.21045  Biso   1.000  C
  C159     1.0000 0.90427  0.57809  0.09961  Biso   1.000  C
  C160     1.0000 0.79666  0.64984  0.05062  Biso   1.000  C
  C161     1.0000 0.94172  0.52248  0.20636  Biso   1.000  C
  H212     1.0000 0.87474  0.53648  0.24733  Biso   1.000  H
  C162     1.0000 0.95189  0.53878  0.15033  Biso   1.000  C
  H213     1.0000 0.91167  0.58768  0.06229  Biso   1.000  H
  H214     1.0000 0.75129  0.64486  0.04929  Biso   1.000  H
  H215     1.0000 0.79490  0.63538  0.00832  Biso   1.000  H
  C163     1.0000 0.81846  0.72584  0.06283  Biso   1.000  C
  C164     1.0000 0.99468  0.48145  0.26225  Biso   1.000  C
  O42      1.0000 0.01225  0.51420  0.14979  Biso   1.000  O
  C165     1.0000 0.86177  0.75545  0.03811  Biso   1.000  C
  C166     1.0000 0.79549  0.76798  0.10079  Biso   1.000  C
  H216     1.0000 0.97220  0.45461  0.28441  Biso   1.000  H
  H217     1.0000 0.01734  0.44879  0.24462  Biso   1.000  H
  C167     1.0000 0.04736  0.52925  0.31144  Biso   1.000  C
  C168     1.0000 0.02684  0.53270  0.09592  Biso   1.000  C
  O43      1.0000 0.88493  0.71127  0.00266  Biso   1.000  O
  C169     1.0000 0.88034  0.82610  0.04919  Biso   1.000  C
  C170     1.0000 0.81519  0.83784  0.11320  Biso   1.000  C
  H218     1.0000 0.76662  0.74900  0.11803  Biso   1.000  H
  C171     1.0000 0.10539  0.54900  0.30258  Biso   1.000  C
  C172     1.0000 0.03796  0.55639  0.36506  Biso   1.000  C
  H219     1.0000 0.99510  0.50991  0.05618  Biso   1.000  H
  H220     1.0000 0.02289  0.58297  0.08912  Biso   1.000  H
  C173     1.0000 0.09855  0.50922  0.11182  Biso   1.000  C
  C174     1.0000 0.92168  0.74172  0.96982  Biso   1.000  C
  H221     1.0000 0.90838  0.84528  0.03112  Biso   1.000  H
  C175     1.0000 0.85748  0.86787  0.08666  Biso   1.000  C
  O44      1.0000 0.79420  0.88155  0.15048  Biso   1.000  O
  C176     1.0000 0.15278  0.59492  0.34586  Biso   1.000  C
  H222     1.0000 0.11243  0.53108  0.26712  Biso   1.000  H
  O45      1.0000 0.97973  0.53470  0.37131  Biso   1.000  O
  C177     1.0000 0.08576  0.60204  0.40854  Biso   1.000  C
  O46      1.0000 0.13717  0.48291  0.16269  Biso   1.000  O
  O47      1.0000 0.11456  0.52406  0.06135  Biso   1.000  O
  H223     1.0000 0.95997  0.76829  0.00049  Biso   1.000  H
  H224     1.0000 0.89247  0.77317  0.93564  Biso   1.000  H
  C178     1.0000 0.94644  0.68344  0.94022  Biso   1.000  C
  C179     1.0000 0.87996  0.94387  0.09991  Biso   1.000  C
  C180     1.0000 0.75364  0.85241  0.18071  Biso   1.000  C
  O48      1.0000 0.21099  0.61682  0.34010  Biso   1.000  O
  C181     1.0000 0.14338  0.62212  0.39958  Biso   1.000  C
  C182     1.0000 0.96480  0.56488  0.42223  Biso   1.000  C
  H225     1.0000 0.07905  0.61950  0.44434  Biso   1.000  H
  C183     1.0000 0.18182  0.50262  0.06962  Biso   1.000  C
  O49      1.0000 0.94770  0.62264  0.95342  Biso   1.000  O
  O50      1.0000 0.96644  0.70970  0.89591  Biso   1.000  O
  H226     1.0000 0.88791  0.96216  0.06312  Biso   1.000  H
  H227     1.0000 0.84390  0.97138  0.10380  Biso   1.000  H
  C184     1.0000 0.94463  0.95073  0.16249  Biso   1.000  C
  H228     1.0000 0.77713  0.81326  0.20873  Biso   1.000  H
  H229     1.0000 0.71040  0.83580  0.14752  Biso   1.000  H
  C185     1.0000 0.74172  0.90996  0.22113  Biso   1.000  C
  C186     1.0000 0.22420  0.58920  0.28810  Biso   1.000  C
  C187     1.0000 0.19452  0.67322  0.44650  Biso   1.000  C
  H230     1.0000 0.96101  0.61541  0.41721  Biso   1.000  H
  C188     1.0000 0.89813  0.53422  0.41686  Biso   1.000  C
  H231     1.0000 0.00093  0.55419  0.46492  Biso   1.000  H
  H232     1.0000 0.21549  0.52820  0.10542  Biso   1.000  H
  H233     1.0000 0.18739  0.51200  0.02989  Biso   1.000  H
  H234     1.0000 0.18738  0.45341  0.07898  Biso   1.000  H
  C189     1.0000 0.98994  0.65949  0.86134  Biso   1.000  C
  C190     1.0000 0.94040  0.95991  0.22261  Biso   1.000  C
  C191     1.0000 0.00906  0.94617  0.16279  Biso   1.000  C
  H235     1.0000 0.71061  0.94397  0.19149  Biso   1.000  H
  H236     1.0000 0.78473  0.93360  0.24580  Biso   1.000  H
  C192     1.0000 0.71251  0.88485  0.26900  Biso   1.000  C
  H237     1.0000 0.18580  0.59811  0.24630  Biso   1.000  H
  H238     1.0000 0.23122  0.53889  0.29342  Biso   1.000  H
  C193     1.0000 0.28677  0.62400  0.28968  Biso   1.000  C
  C194     1.0000 0.17878  0.74806  0.42223  Biso   1.000  C
  H239     1.0000 0.19386  0.66950  0.48954  Biso   1.000  H
  H240     1.0000 0.24001  0.66101  0.45113  Biso   1.000  H
  H241     1.0000 0.90160  0.48349  0.41799  Biso   1.000  H
  H242     1.0000 0.86233  0.54738  0.37471  Biso   1.000  H
  C195     1.0000 0.87816  0.55818  0.47127  Biso   1.000  C
  H243     1.0000 0.95444  0.62589  0.83943  Biso   1.000  H
  H244     1.0000 0.02967  0.63580  0.89212  Biso   1.000  H
  H245     1.0000 0.00116  0.68349  0.82934  Biso   1.000  H
  C196     1.0000 0.99819  0.96336  0.28121  Biso   1.000  C
  H246     1.0000 0.89762  0.96389  0.22330  Biso   1.000  H
  O51      1.0000 0.01018  0.93653  0.10158  Biso   1.000  O
  C197     1.0000 0.06767  0.95052  0.22133  Biso   1.000  C
  H247     1.0000 0.74379  0.85079  0.29849  Biso   1.000  H
  H248     1.0000 0.71074  0.92437  0.29554  Biso   1.000  H
  C198     1.0000 0.64670  0.85430  0.23970  Biso   1.000  C
  O52      1.0000 0.31975  0.66756  0.32744  Biso   1.000  O
  O53      1.0000 0.29962  0.60084  0.23857  Biso   1.000  O
  C199     1.0000 0.20698  0.77694  0.38195  Biso   1.000  C
  C200     1.0000 0.13473  0.78936  0.43843  Biso   1.000  C
  H249     1.0000 0.87782  0.60896  0.47201  Biso   1.000  H
  H250     1.0000 0.91252  0.54230  0.51322  Biso   1.000  H
  C201     1.0000 0.80872  0.53139  0.46369  Biso   1.000  C
  O54      1.0000 0.99602  0.97254  0.34202  Biso   1.000  O
  C202     1.0000 0.06286  0.95875  0.28140  Biso   1.000  C
  C203     1.0000 0.07424  0.93574  0.09863  Biso   1.000  C
  H251     1.0000 0.11039  0.94796  0.22040  Biso   1.000  H
  H252     1.0000 0.64859  0.81148  0.21700  Biso   1.000  H
  H253     1.0000 0.61540  0.88637  0.20759  Biso   1.000  H
  C204     1.0000 0.62052  0.83737  0.29450  Biso   1.000  C
  C205     1.0000 0.35621  0.63391  0.23143  Biso   1.000  C
  C206     1.0000 0.19043  0.84486  0.35689  Biso   1.000  C
  H254     1.0000 0.23743  0.75058  0.37151  Biso   1.000  H
  O55      1.0000 0.10838  0.75839  0.47900  Biso   1.000  O
  C207     1.0000 0.11925  0.85760  0.41445  Biso   1.000  C
  H255     1.0000 0.77411  0.54790  0.42213  Biso   1.000  H
  H256     1.0000 0.80882  0.48061  0.46241  Biso   1.000  H
  C208     1.0000 0.79010  0.55487  0.51898  Biso   1.000  C
  C209     1.0000 0.93079  0.96499  0.34345  Biso   1.000  C
  C210     1.0000 0.12658  0.95917  0.34522  Biso   1.000  C
  H257     1.0000 0.10321  0.90079  0.12901  Biso   1.000  H
  H258     1.0000 0.09603  0.98108  0.11202  Biso   1.000  H
  C211     1.0000 0.06670  0.91929  0.02984  Biso   1.000  C
  H259     1.0000 0.65461  0.81080  0.32912  Biso   1.000  H
  H260     1.0000 0.57911  0.81059  0.27559  Biso   1.000  H
  H261     1.0000 0.61194  0.88040  0.31213  Biso   1.000  H
  H262     1.0000 0.39759  0.62379  0.26939  Biso   1.000  H
  H263     1.0000 0.34912  0.68360  0.22739  Biso   1.000  H
  H264     1.0000 0.35980  0.61619  0.19272  Biso   1.000  H
  O56      1.0000 0.21414  0.87490  0.31439  Biso   1.000  O
  C212     1.0000 0.14625  0.88611  0.37333  Biso   1.000  C
  C213     1.0000 0.06790  0.79974  0.50165  Biso   1.000  C
  H265     1.0000 0.09011  0.88459  0.42632  Biso   1.000  H
  H266     1.0000 0.82472  0.53988  0.56044  Biso   1.000  H
  H267     1.0000 0.74702  0.53480  0.51293  Biso   1.000  H
  H268     1.0000 0.78675  0.60508  0.51864  Biso   1.000  H
  H269     1.0000 0.91233  0.91897  0.32710  Biso   1.000  H
  H270     1.0000 0.89974  0.99990  0.31513  Biso   1.000  H
  C214     1.0000 0.93686  0.97379  0.41258  Biso   1.000  C
  H271     1.0000 0.11894  0.98836  0.37703  Biso   1.000  H
  H272     1.0000 0.16393  0.97940  0.33754  Biso   1.000  H
  O57      1.0000 0.00364  0.90597  0.98720  Biso   1.000  O
  O58      1.0000 0.11554  0.91682  0.01679  Biso   1.000  O
  C215     1.0000 0.26278  0.83800  0.30011  Biso   1.000  C
  H273     1.0000 0.02794  0.81698  0.46462  Biso   1.000  H
  H274     1.0000 0.09404  0.83968  0.52622  Biso   1.000  H
  C216     1.0000 0.04645  0.75493  0.54508  Biso   1.000  C
  H275     1.0000 0.96880  0.93957  0.44114  Biso   1.000  H
  C217     1.0000 0.86812  0.96441  0.41504  Biso   1.000  C
  H276     1.0000 0.95455  0.02018  0.42863  Biso   1.000  H
  C218     1.0000 0.99753  0.88810  0.92205  Biso   1.000  C
  H277     1.0000 0.24912  0.78936  0.29051  Biso   1.000  H
  H278     1.0000 0.30681  0.83947  0.33754  Biso   1.000  H
  C219     1.0000 0.26744  0.87196  0.24122  Biso   1.000  C
  H279     1.0000 0.08682  0.73857  0.58221  Biso   1.000  H
  H280     1.0000 0.02221  0.71420  0.52051  Biso   1.000  H
  C220     1.0000 0.00105  0.79403  0.57034  Biso   1.000  C
  H281     1.0000 0.83734  0.99979  0.38702  Biso   1.000  H
  H282     1.0000 0.85004  0.91908  0.39613  Biso   1.000  H
  C221     1.0000 0.86677  0.96871  0.48097  Biso   1.000  C
  H283     1.0000 0.95023  0.88139  0.89335  Biso   1.000  H
  H284     1.0000 0.02235  0.84570  0.92412  Biso   1.000  H
  H285     1.0000 0.01597  0.92537  0.90551  Biso   1.000  H
  O59      1.0000 0.22913  0.91530  0.20695  Biso   1.000  O
  O60      1.0000 0.31955  0.84476  0.23177  Biso   1.000  O
  H286     1.0000 0.96240  0.81310  0.53302  Biso   1.000  H
  C222     1.0000 0.97433  0.75026  0.61082  Biso   1.000  C
  H287     1.0000 0.02643  0.83318  0.59693  Biso   1.000  H
  H288     1.0000 0.89605  0.93218  0.50874  Biso   1.000  H
  C223     1.0000 0.79677  0.96122  0.48028  Biso   1.000  C
  H289     1.0000 0.88581  0.01352  0.50072  Biso   1.000  H
  C224     1.0000 0.32650  0.86918  0.17332  Biso   1.000  C
  H290     1.0000 0.94751  0.71190  0.58403  Biso   1.000  H
  C225     1.0000 0.93041  0.79251  0.63672  Biso   1.000  C
  H291     1.0000 0.01266  0.73029  0.64784  Biso   1.000  H
  H292     1.0000 0.79992  0.96656  0.52420  Biso   1.000  H
  H293     1.0000 0.77872  0.91567  0.46384  Biso   1.000  H
  H294     1.0000 0.76712  0.99670  0.45241  Biso   1.000  H
  H295     1.0000 0.36539  0.84717  0.17061  Biso   1.000  H
  H296     1.0000 0.33268  0.91908  0.17559  Biso   1.000  H
  H297     1.0000 0.28613  0.85739  0.13492  Biso   1.000  H
  H298     1.0000 0.95614  0.83171  0.66183  Biso   1.000  H
  H299     1.0000 0.91703  0.76321  0.66434  Biso   1.000  H
  H300     1.0000 0.89045  0.80917  0.60033  Biso   1.000  H
  C226     1.0000 0.40116  0.35451  0.67783  Biso   1.000  C
  C227     1.0000 0.38799  0.35262  0.73953  Biso   1.000  C
  H301     1.0000 0.36893  0.32479  0.64484  Biso   1.000  H
  H302     1.0000 0.39623  0.40168  0.66153  Biso   1.000  H
  H303     1.0000 0.44662  0.33831  0.68802  Biso   1.000  H
  C228     1.0000 0.31716  0.37568  0.72924  Biso   1.000  C
  H304     1.0000 0.42106  0.38260  0.77242  Biso   1.000  H
  H305     1.0000 0.39534  0.30519  0.75661  Biso   1.000  H
  C229     1.0000 0.30151  0.36572  0.78896  Biso   1.000  C
  H306     1.0000 0.31176  0.42479  0.71712  Biso   1.000  H
  H307     1.0000 0.28403  0.34948  0.69275  Biso   1.000  H
  C230     1.0000 0.23424  0.39743  0.77981  Biso   1.000  C
  H308     1.0000 0.33765  0.38700  0.82693  Biso   1.000  H
  H309     1.0000 0.30082  0.31599  0.79773  Biso   1.000  H
  O61      1.0000 0.22352  0.38569  0.83771  Biso   1.000  O
  H310     1.0000 0.19767  0.37621  0.74224  Biso   1.000  H
  H311     1.0000 0.23452  0.44738  0.77173  Biso   1.000  H
  C231     1.0000 0.16445  0.41253  0.83973  Biso   1.000  C
  C232     1.0000 0.11732  0.45283  0.78960  Biso   1.000  C
  C233     1.0000 0.15427  0.39680  0.89606  Biso   1.000  C
  C234     1.0000 0.05832  0.47746  0.79364  Biso   1.000  C
  H312     1.0000 0.12533  0.46347  0.75272  Biso   1.000  H
  C235     1.0000 0.09577  0.42191  0.90039  Biso   1.000  C
  C236     1.0000 0.20334  0.35010  0.94939  Biso   1.000  C
  C237     1.0000 0.00539  0.51850  0.73780  Biso   1.000  C
  C238     1.0000 0.04817  0.46122  0.84973  Biso   1.000  C
  H313     1.0000 0.08833  0.41232  0.93772  Biso   1.000  H
  C239     1.0000 0.18158  0.27416  0.93717  Biso   1.000  C
  H314     1.0000 0.24875  0.35508  0.95072  Biso   1.000  H
  H315     1.0000 0.20516  0.36457  0.99173  Biso   1.000  H
  C240     1.0000 0.95271  0.47075  0.68861  Biso   1.000  C
  H316     1.0000 0.02786  0.54539  0.71565  Biso   1.000  H
  H317     1.0000 0.98272  0.55121  0.75543  Biso   1.000  H
  O62      1.0000 0.98781  0.48574  0.85027  Biso   1.000  O
  C241     1.0000 0.13828  0.24455  0.96189  Biso   1.000  C
  C242     1.0000 0.20455  0.23202  0.89921  Biso   1.000  C
  C243     1.0000 0.89463  0.45100  0.69748  Biso   1.000  C
  C244     1.0000 0.96211  0.44355  0.63499  Biso   1.000  C
  C245     1.0000 0.97316  0.46730  0.90409  Biso   1.000  C
  C246     1.0000 0.11973  0.17390  0.95086  Biso   1.000  C
  O63      1.0000 0.11513  0.28873  0.99739  Biso   1.000  O
  C247     1.0000 0.18487  0.16211  0.88685  Biso   1.000  C
  H318     1.0000 0.23345  0.25100  0.88203  Biso   1.000  H
  C248     1.0000 0.84728  0.40508  0.65420  Biso   1.000  C
  H319     1.0000 0.88763  0.46887  0.73293  Biso   1.000  H
  C249     1.0000 0.91430  0.39790  0.59151  Biso   1.000  C
  O64      1.0000 0.02031  0.46530  0.62869  Biso   1.000  O
  H320     1.0000 0.00495  0.49009  0.94382  Biso   1.000  H
  H321     1.0000 0.97713  0.41698  0.91093  Biso   1.000  H
  C250     1.0000 0.90149  0.49078  0.88818  Biso   1.000  C
  C251     1.0000 0.14256  0.13208  0.91334  Biso   1.000  C
  H322     1.0000 0.09164  0.15472  0.96893  Biso   1.000  H
  C252     1.0000 0.07837  0.25828  0.03019  Biso   1.000  C
  O65      1.0000 0.20586  0.11845  0.84958  Biso   1.000  O
  C253     1.0000 0.85669  0.37788  0.60047  Biso   1.000  C
  O66      1.0000 0.78903  0.38312  0.65996  Biso   1.000  O
  H323     1.0000 0.92101  0.38050  0.55572  Biso   1.000  H
  C254     1.0000 0.03526  0.43512  0.57782  Biso   1.000  C
  O67      1.0000 0.86289  0.51703  0.83737  Biso   1.000  O
  O68      1.0000 0.88549  0.47589  0.93865  Biso   1.000  O
  C255     1.0000 0.12011  0.05608  0.90015  Biso   1.000  C
  H324     1.0000 0.04009  0.23171  0.99956  Biso   1.000  H
  H325     1.0000 0.10759  0.22678  0.06441  Biso   1.000  H
  C256     1.0000 0.05361  0.31651  0.05978  Biso   1.000  C
  C257     1.0000 0.24642  0.14759  0.81934  Biso   1.000  C
  C258     1.0000 0.80552  0.32678  0.55350  Biso   1.000  C
  C259     1.0000 0.77585  0.41080  0.71190  Biso   1.000  C
  H326     1.0000 0.03903  0.38459  0.58280  Biso   1.000  H
  C260     1.0000 0.10193  0.46572  0.58319  Biso   1.000  C
  H327     1.0000 0.99914  0.44581  0.53513  Biso   1.000  H
  C261     1.0000 0.81824  0.49733  0.93043  Biso   1.000  C
  C262     1.0000 0.05544  0.04927  0.83756  Biso   1.000  C
  H328     1.0000 0.11215  0.03779  0.93693  Biso   1.000  H
  H329     1.0000 0.15616  0.02862  0.89626  Biso   1.000  H
  O69      1.0000 0.05236  0.37731  0.04663  Biso   1.000  O
  O70      1.0000 0.03363  0.29030  0.10415  Biso   1.000  O
  H330     1.0000 0.22293  0.18669  0.79133  Biso   1.000  H
  H331     1.0000 0.28966  0.16420  0.85253  Biso   1.000  H
  C263     1.0000 0.25834  0.08999  0.77892  Biso   1.000  C
  C264     1.0000 0.82126  0.25194  0.57778  Biso   1.000  C
  H332     1.0000 0.80621  0.33050  0.51051  Biso   1.000  H
  H333     1.0000 0.76001  0.33899  0.54892  Biso   1.000  H
  H334     1.0000 0.81424  0.40189  0.75371  Biso   1.000  H
  H335     1.0000 0.76884  0.46111  0.70664  Biso   1.000  H
  C265     1.0000 0.71330  0.37600  0.71038  Biso   1.000  C
  H336     1.0000 0.09845  0.51651  0.58201  Biso   1.000  H
  H337     1.0000 0.13773  0.45257  0.62534  Biso   1.000  H
  C266     1.0000 0.12191  0.44177  0.52878  Biso   1.000  C
  H338     1.0000 0.78452  0.47180  0.89463  Biso   1.000  H
  H339     1.0000 0.81265  0.48800  0.97012  Biso   1.000  H
  H340     1.0000 0.81266  0.54659  0.92102  Biso   1.000  H
  C267     1.0000 0.05967  0.04009  0.77744  Biso   1.000  C
  C268     1.0000 0.99093  0.05383  0.83722  Biso   1.000  C
  C269     1.0000 0.01012  0.34051  0.13871  Biso   1.000  C
  H341     1.0000 0.28944  0.05597  0.80851  Biso   1.000  H
  H342     1.0000 0.21534  0.06640  0.75425  Biso   1.000  H
  C270     1.0000 0.28753  0.11515  0.73101  Biso   1.000  C
  C271     1.0000 0.86531  0.21059  0.56158  Biso   1.000  C
  C272     1.0000 0.79309  0.22306  0.61810  Biso   1.000  C
  O71      1.0000 0.68029  0.33239  0.67256  Biso   1.000  O
  O72      1.0000 0.70043  0.39911  0.76144  Biso   1.000  O
  H343     1.0000 0.12224  0.39099  0.52804  Biso   1.000  H
  H344     1.0000 0.08754  0.45770  0.48683  Biso   1.000  H
  C273     1.0000 0.19132  0.46861  0.53632  Biso   1.000  C
  C274     1.0000 0.00187  0.03664  0.71885  Biso   1.000  C
  H345     1.0000 0.10245  0.03611  0.77675  Biso   1.000  H
  C275     1.0000 0.93239  0.04942  0.77872  Biso   1.000  C
  O73      1.0000 0.98989  0.06342  0.89847  Biso   1.000  O
  H346     1.0000 0.97037  0.36420  0.10789  Biso   1.000  H
  H347     1.0000 0.99890  0.31651  0.17072  Biso   1.000  H
  H348     1.0000 0.04562  0.37411  0.16062  Biso   1.000  H
  H349     1.0000 0.25625  0.14921  0.70151  Biso   1.000  H
  H350     1.0000 0.28933  0.07558  0.70452  Biso   1.000  H
  C276     1.0000 0.35335  0.14570  0.76031  Biso   1.000  C
  O74      1.0000 0.89169  0.24161  0.52105  Biso   1.000  O
  C277     1.0000 0.88081  0.14240  0.58560  Biso   1.000  C
  C278     1.0000 0.80959  0.15514  0.64317  Biso   1.000  C
  H351     1.0000 0.76264  0.24937  0.62854  Biso   1.000  H
  C279     1.0000 0.64386  0.36609  0.76863  Biso   1.000  C
  H352     1.0000 0.22591  0.45210  0.57792  Biso   1.000  H
  H353     1.0000 0.19122  0.51939  0.53760  Biso   1.000  H
  C280     1.0000 0.20996  0.44507  0.48107  Biso   1.000  C
  C281     1.0000 0.93718  0.04119  0.71860  Biso   1.000  C
  O75      1.0000 0.00404  0.02746  0.65804  Biso   1.000  O
  H354     1.0000 0.88965  0.05199  0.77961  Biso   1.000  H
  C282     1.0000 0.92580  0.06420  0.90138  Biso   1.000  C
  H355     1.0000 0.35146  0.18852  0.78301  Biso   1.000  H
  H356     1.0000 0.38464  0.11357  0.79241  Biso   1.000  H
  C283     1.0000 0.37952  0.16258  0.70550  Biso   1.000  C
  C284     1.0000 0.93217  0.20026  0.49840  Biso   1.000  C
  C285     1.0000 0.85381  0.11389  0.62672  Biso   1.000  C
  H357     1.0000 0.90995  0.11541  0.57374  Biso   1.000  H
  O76      1.0000 0.78590  0.12510  0.68561  Biso   1.000  O
  H358     1.0000 0.60245  0.37621  0.73061  Biso   1.000  H
  H359     1.0000 0.65092  0.31640  0.77262  Biso   1.000  H
  H360     1.0000 0.64026  0.38381  0.80733  Biso   1.000  H
  H361     1.0000 0.17534  0.46012  0.43961  Biso   1.000  H
  H362     1.0000 0.25304  0.46520  0.48713  Biso   1.000  H
  H363     1.0000 0.21332  0.39492  0.48141  Biso   1.000  H
  C286     1.0000 0.87349  0.04083  0.65484  Biso   1.000  C
  C287     1.0000 0.06927  0.03496  0.65661  Biso   1.000  C
  H364     1.0000 0.89686  0.09921  0.87105  Biso   1.000  H
  H365     1.0000 0.90403  0.01892  0.88803  Biso   1.000  H
  C288     1.0000 0.93336  0.08071  0.97021  Biso   1.000  C
  H366     1.0000 0.34545  0.18920  0.67094  Biso   1.000  H
  H367     1.0000 0.42093  0.18941  0.72441  Biso   1.000  H
  H368     1.0000 0.38813  0.11960  0.68792  Biso   1.000  H
  C289     1.0000 0.95360  0.24507  0.45492  Biso   1.000  C
  H369     1.0000 0.97213  0.18302  0.53543  Biso   1.000  H
  H370     1.0000 0.90602  0.16027  0.47383  Biso   1.000  H
  C290     1.0000 0.73729  0.16195  0.69994  Biso   1.000  C
  H371     1.0000 0.88112  0.01158  0.62303  Biso   1.000  H
  H372     1.0000 0.83614  0.02060  0.66252  Biso   1.000  H
  H373     1.0000 0.08772  0.08097  0.67291  Biso   1.000  H
  H374     1.0000 0.10032  0.00010  0.68492  Biso   1.000  H
  C291     1.0000 0.06321  0.02615  0.58748  Biso   1.000  C
  O77      1.0000 0.88452  0.08318  0.98326  Biso   1.000  O
  O78      1.0000 0.99640  0.09397  0.01281  Biso   1.000  O
  C292     1.0000 0.99902  0.20592  0.42971  Biso   1.000  C
  H375     1.0000 0.91322  0.26137  0.41780  Biso   1.000  H
  H376     1.0000 0.97779  0.28580  0.47949  Biso   1.000  H
  H377     1.0000 0.75095  0.21059  0.70954  Biso   1.000  H
  H378     1.0000 0.69325  0.16048  0.66252  Biso   1.000  H
  C293     1.0000 0.73262  0.12799  0.75883  Biso   1.000  C
  H379     1.0000 0.03121  0.06038  0.55892  Biso   1.000  H
  C294     1.0000 0.13194  0.03553  0.58501  Biso   1.000  C
  H380     1.0000 0.04552  0.97977  0.57142  Biso   1.000  H
  C295     1.0000 0.00251  0.11190  0.07795  Biso   1.000  C
  C296     1.0000 0.02574  0.24969  0.38924  Biso   1.000  C
  H381     1.0000 0.03762  0.18690  0.46704  Biso   1.000  H
  H382     1.0000 0.97363  0.16677  0.40312  Biso   1.000  H
  O79      1.0000 0.77093  0.08464  0.79310  Biso   1.000  O
  O80      1.0000 0.68051  0.15519  0.76828  Biso   1.000  O
  H383     1.0000 0.16273  0.00021  0.61303  Biso   1.000  H
  H384     1.0000 0.15002  0.08092  0.60392  Biso   1.000  H
  C297     1.0000 0.13323  0.03129  0.51903  Biso   1.000  C
  H385     1.0000 0.97771  0.15430  0.07593  Biso   1.000  H
  H386     1.0000 0.98407  0.07458  0.09449  Biso   1.000  H
  H387     1.0000 0.04978  0.11861  0.10671  Biso   1.000  H
  C298     1.0000 0.06965  0.20749  0.36334  Biso   1.000  C
  H388     1.0000 0.05251  0.28810  0.41602  Biso   1.000  H
  H389     1.0000 0.98740  0.26971  0.35221  Biso   1.000  H
  C299     1.0000 0.67356  0.13082  0.82673  Biso   1.000  C
  H390     1.0000 0.10401  0.06782  0.49131  Biso   1.000  H
  C300     1.0000 0.20329  0.03878  0.51977  Biso   1.000  C
  H391     1.0000 0.11425  0.98648  0.49934  Biso   1.000  H
  H392     1.0000 0.04392  0.16829  0.33823  Biso   1.000  H
  H393     1.0000 0.08304  0.23679  0.33571  Biso   1.000  H
  H394     1.0000 0.10961  0.19078  0.39973  Biso   1.000  H
  H395     1.0000 0.63463  0.15278  0.82944  Biso   1.000  H
  H396     1.0000 0.66731  0.08092  0.82442  Biso   1.000  H
  H397     1.0000 0.71393  0.14261  0.86514  Biso   1.000  H
  H398     1.0000 0.20012  0.03339  0.47580  Biso   1.000  H
  H399     1.0000 0.22134  0.08428  0.53622  Biso   1.000  H
  H400     1.0000 0.23295  0.00330  0.54764  Biso   1.000  H
  Ne1      1.0000 0.50961  0.23995  0.25534  Biso   1.000  Ne
  He1      1.0000 0.39694  0.23035  0.34785  Biso   1.000  He
  He2      1.0000 0.76056  0.25917  0.02628  Biso   1.000  He
  Ar1      1.0000 0.50529  0.23814  0.25366  Biso   1.000  Ar
  Ne2      1.0000 0.00963  0.26004  0.75535  Biso   1.000  Ne
  He3      1.0000 0.88582  0.27212  0.85825  Biso   1.000  He
  He4      1.0000 0.25975  0.24096  0.52673  Biso   1.000  He
  Ar2      1.0000 0.00533  0.26187  0.75370  Biso   1.000  Ar
  Ne3      1.0000 0.49044  0.76003  0.74470  Biso   1.000  Ne
  He5      1.0000 0.26086  0.74482  0.96200  Biso   1.000  He
  He6      1.0000 0.68260  0.78149  0.53531  Biso   1.000  He
  Ar3      1.0000 0.49473  0.76185  0.74636  Biso   1.000  Ar
  Ne4      1.0000 0.99042  0.73994  0.24468  Biso   1.000  Ne
  He7      1.0000 0.73935  0.75918  0.47383  Biso   1.000  He
  He8      1.0000 0.18247  0.71848  0.03565  Biso   1.000  He
  Ar4      1.0000 0.99471  0.73809  0.24631  Biso   1.000  Ar
