data_image0
_cell_length_a       11.524
_cell_length_b       12.903
_cell_length_c       22.507
_cell_angle_alpha    90
_cell_angle_beta     91.75
_cell_angle_gamma    90

_symmetry_space_group_name_H-M    "P 1"
_symmetry_int_tables_number       1

loop_
  _symmetry_equiv_pos_as_xyz
  'x, y, z'

loop_
  _atom_site_label
  _atom_site_occupancy
  _atom_site_fract_x
  _atom_site_fract_y
  _atom_site_fract_z
  _atom_site_thermal_displace_type
  _atom_site_B_iso_or_equiv
  _atom_site_type_symbol
  C1       1.0000 0.84794  0.22150  0.07806  Biso   1.000  C
  O1       1.0000 0.93492  0.23312  0.12366  Biso   1.000  O
  H1       1.0000 0.82209  0.28962  0.06361  Biso   1.000  H
  H2       1.0000 0.87866  0.18259  0.04458  Biso   1.000  H
  C2       1.0000 0.74815  0.16384  0.10424  Biso   1.000  C
  H3       1.0000 0.87866  0.18259  0.04463  Biso   1.000  H
  C3       1.0000 0.74815  0.16384  0.10428  Biso   1.000  C
  H4       1.0000 0.87874  0.18259  0.04458  Biso   1.000  H
  C4       1.0000 0.04057  0.27265  0.10837  Biso   1.000  C
  H5       1.0000 0.68742  0.15400  0.07401  Biso   1.000  H
  H6       1.0000 0.77478  0.09680  0.11869  Biso   1.000  H
  H7       1.0000 0.71791  0.20336  0.13700  Biso   1.000  H
  H8       1.0000 0.77478  0.09680  0.11873  Biso   1.000  H
  C5       1.0000 0.12949  0.26637  0.15167  Biso   1.000  C
  C6       1.0000 0.12941  0.26637  0.15171  Biso   1.000  C
  C7       1.0000 0.12949  0.26637  0.15171  Biso   1.000  C
  C8       1.0000 0.06084  0.31946  0.05401  Biso   1.000  C
  C9       1.0000 0.06075  0.31946  0.05401  Biso   1.000  C
  C10      1.0000 0.10747  0.22320  0.21306  Biso   1.000  C
  C11      1.0000 0.10755  0.22320  0.21306  Biso   1.000  C
  C12      1.0000 0.23742  0.30582  0.13820  Biso   1.000  C
  C13      1.0000 0.23742  0.30582  0.13824  Biso   1.000  C
  C14      1.0000 0.23750  0.30582  0.13820  Biso   1.000  C
  C15      1.0000 0.16836  0.36116  0.04098  Biso   1.000  C
  H9       1.0000 0.00003  0.32303  0.02520  Biso   1.000  H
  C16      1.0000 0.16845  0.36116  0.04098  Biso   1.000  C
  C17      1.0000 0.07408  0.10959  0.21634  Biso   1.000  C
  H10      1.0000 0.17785  0.23359  0.23790  Biso   1.000  H
  H11      1.0000 0.04559  0.26412  0.23048  Biso   1.000  H
  H12      1.0000 0.04560  0.26412  0.23052  Biso   1.000  H
  H13      1.0000 0.17793  0.23359  0.23790  Biso   1.000  H
  C18      1.0000 0.25803  0.35271  0.08366  Biso   1.000  C
  H14      1.0000 0.29856  0.30094  0.16669  Biso   1.000  H
  C19      1.0000 0.25803  0.35271  0.08370  Biso   1.000  C
  H15      1.0000 0.29856  0.30094  0.16674  Biso   1.000  H
  C20      1.0000 0.18540  0.41975  0.98333  Biso   1.000  C
  C21      1.0000 0.18540  0.41975  0.98338  Biso   1.000  C
  C22      1.0000 0.96338  0.08014  0.23137  Biso   1.000  C
  C23      1.0000 0.15620  0.03240  0.20670  Biso   1.000  C
  C24      1.0000 0.15620  0.03240  0.20674  Biso   1.000  C
  O2       1.0000 0.36294  0.39518  0.06917  Biso   1.000  O
  O3       1.0000 0.36294  0.39518  0.06921  Biso   1.000  O
  C25      1.0000 0.14070  0.36418  0.92794  Biso   1.000  C
  H16      1.0000 0.26855  0.43331  0.97937  Biso   1.000  H
  H17      1.0000 0.14615  0.48686  0.98586  Biso   1.000  H
  C26      1.0000 0.14062  0.36418  0.92799  Biso   1.000  C
  H18      1.0000 0.26847  0.43331  0.97937  Biso   1.000  H
  H19      1.0000 0.14607  0.48686  0.98586  Biso   1.000  H
  C27      1.0000 0.14071  0.36418  0.92799  Biso   1.000  C
  C28      1.0000 0.93280  0.97613  0.23657  Biso   1.000  C
  H20      1.0000 0.90748  0.13136  0.23830  Biso   1.000  H
  C29      1.0000 0.12600  0.92808  0.21248  Biso   1.000  C
  O4       1.0000 0.26469  0.06650  0.19252  Biso   1.000  O
  C30      1.0000 0.45888  0.38286  0.10931  Biso   1.000  C
  C31      1.0000 0.45897  0.38286  0.10931  Biso   1.000  C
  C32      1.0000 0.02984  0.38146  0.90519  Biso   1.000  C
  C33      1.0000 0.21131  0.29482  0.89843  Biso   1.000  C
  C34      1.0000 0.21123  0.29482  0.89847  Biso   1.000  C
  C35      1.0000 0.21132  0.29482  0.89847  Biso   1.000  C
  C36      1.0000 0.01467  0.89925  0.22710  Biso   1.000  C
  C37      1.0000 0.01468  0.89925  0.22715  Biso   1.000  C
  O5       1.0000 0.82440  0.94172  0.25079  Biso   1.000  O
  H21      1.0000 0.18221  0.87670  0.20630  Biso   1.000  H
  C38      1.0000 0.35299  0.99186  0.18452  Biso   1.000  C
  H22      1.0000 0.44276  0.41548  0.14749  Biso   1.000  H
  H23      1.0000 0.47439  0.30908  0.11620  Biso   1.000  H
  C39      1.0000 0.56190  0.43362  0.08192  Biso   1.000  C
  H24      1.0000 0.44276  0.41548  0.14753  Biso   1.000  H
  C40      1.0000 0.98782  0.33085  0.85407  Biso   1.000  C
  H25      1.0000 0.98144  0.42843  0.92457  Biso   1.000  H
  C41      1.0000 0.17124  0.24746  0.84629  Biso   1.000  C
  O6       1.0000 0.31934  0.27924  0.92439  Biso   1.000  O
  O7       1.0000 0.31942  0.27924  0.92439  Biso   1.000  O
  C42      1.0000 0.98306  0.78571  0.23395  Biso   1.000  C
  C43      1.0000 0.98306  0.78571  0.23399  Biso   1.000  C
  C44      1.0000 0.98315  0.78571  0.23395  Biso   1.000  C
  C45      1.0000 0.74120  0.01209  0.27146  Biso   1.000  C
  C46      1.0000 0.74120  0.01209  0.27151  Biso   1.000  C
  H26      1.0000 0.37040  0.95544  0.22190  Biso   1.000  H
  H27      1.0000 0.32803  0.94087  0.15451  Biso   1.000  H
  H28      1.0000 0.32794  0.94087  0.15451  Biso   1.000  H
  C47      1.0000 0.45879  0.04921  0.16447  Biso   1.000  C
  H29      1.0000 0.57478  0.40301  0.04330  Biso   1.000  H
  H30      1.0000 0.54721  0.50717  0.07721  Biso   1.000  H
  H31      1.0000 0.63024  0.42347  0.10748  Biso   1.000  H
  H32      1.0000 0.63016  0.42347  0.10753  Biso   1.000  H
  H33      1.0000 0.63024  0.42347  0.10753  Biso   1.000  H
  C48      1.0000 0.05968  0.26451  0.82357  Biso   1.000  C
  O8       1.0000 0.87926  0.34511  0.82917  Biso   1.000  O
  H34      1.0000 0.22096  0.20290  0.82597  Biso   1.000  H
  H35      1.0000 0.22088  0.20290  0.82597  Biso   1.000  H
  C49      1.0000 0.39159  0.20073  0.90198  Biso   1.000  C
  C50      1.0000 0.39159  0.20073  0.90203  Biso   1.000  C
  C51      1.0000 0.94023  0.73549  0.17638  Biso   1.000  C
  C52      1.0000 0.94015  0.73549  0.17638  Biso   1.000  C
  H36      1.0000 0.92260  0.77959  0.26342  Biso   1.000  H
  H37      1.0000 0.05148  0.74789  0.24919  Biso   1.000  H
  C53      1.0000 0.63936  0.94831  0.28947  Biso   1.000  C
  C54      1.0000 0.63927  0.94831  0.28951  Biso   1.000  C
  C55      1.0000 0.63936  0.94831  0.28951  Biso   1.000  C
  H38      1.0000 0.77299  0.05138  0.30551  Biso   1.000  H
  H39      1.0000 0.71789  0.06099  0.23999  Biso   1.000  H
  H40      1.0000 0.71789  0.06099  0.24004  Biso   1.000  H
  H41      1.0000 0.51972  0.99992  0.15611  Biso   1.000  H
  H42      1.0000 0.43922  0.08843  0.12882  Biso   1.000  H
  H43      1.0000 0.48563  0.09618  0.19559  Biso   1.000  H
  H44      1.0000 0.48555  0.09618  0.19563  Biso   1.000  H
  C56      1.0000 0.01685  0.21429  0.76601  Biso   1.000  C
  C57      1.0000 0.01676  0.21429  0.76601  Biso   1.000  C
  C58      1.0000 0.80036  0.41037  0.85500  Biso   1.000  C
  C59      1.0000 0.80027  0.41037  0.85500  Biso   1.000  C
  C60      1.0000 0.78599  0.37472  0.88318  Biso   1.000  C
  H45      1.0000 0.34816  0.13578  0.89696  Biso   1.000  H
  H46      1.0000 0.42139  0.22111  0.86336  Biso   1.000  H
  C61      1.0000 0.49095  0.18678  0.94724  Biso   1.000  C
  H47      1.0000 0.34807  0.13578  0.89696  Biso   1.000  H
  H48      1.0000 0.42148  0.22111  0.86336  Biso   1.000  H
  C62      1.0000 0.82867  0.75254  0.15367  Biso   1.000  C
  C63      1.0000 0.82868  0.75254  0.15371  Biso   1.000  C
  C64      1.0000 0.01209  0.66915  0.14589  Biso   1.000  C
  C65      1.0000 0.01209  0.66915  0.14593  Biso   1.000  C
  H49      1.0000 0.61176  0.90677  0.25600  Biso   1.000  H
  H50      1.0000 0.66265  0.90312  0.32209  Biso   1.000  H
  H51      1.0000 0.57754  0.99380  0.30200  Biso   1.000  H
  H52      1.0000 0.57763  0.99380  0.30200  Biso   1.000  H
  C66      1.0000 0.98524  0.10075  0.77285  Biso   1.000  C
  H53      1.0000 0.94843  0.25211  0.75076  Biso   1.000  H
  H54      1.0000 0.07731  0.22041  0.73654  Biso   1.000  H
  H55      1.0000 0.07731  0.22041  0.73658  Biso   1.000  H
  H56      1.0000 0.83933  0.47222  0.87114  Biso   1.000  H
  H57      1.0000 0.74056  0.43230  0.82575  Biso   1.000  H
  C67      1.0000 0.74739  0.34837  0.90385  Biso   1.000  C
  H58      1.0000 0.83933  0.47222  0.87118  Biso   1.000  H
  H59      1.0000 0.74048  0.43230  0.82580  Biso   1.000  H
  H60      1.0000 0.74056  0.43230  0.82580  Biso   1.000  H
  C68      1.0000 0.66290  0.36216  0.86078  Biso   1.000  C
  H61      1.0000 0.79882  0.44641  0.89616  Biso   1.000  H
  H62      1.0000 0.80704  0.33078  0.93355  Biso   1.000  H
  H63      1.0000 0.80704  0.33078  0.93359  Biso   1.000  H
  H64      1.0000 0.80044  0.32923  0.91745  Biso   1.000  H
  H65      1.0000 0.54333  0.13369  0.93355  Biso   1.000  H
  H66      1.0000 0.53271  0.25172  0.95195  Biso   1.000  H
  H67      1.0000 0.46023  0.16616  0.98506  Biso   1.000  H
  H68      1.0000 0.54333  0.13369  0.93359  Biso   1.000  H
  H69      1.0000 0.53271  0.25172  0.95199  Biso   1.000  H
  C69      1.0000 0.78860  0.70518  0.10153  Biso   1.000  C
  C70      1.0000 0.78868  0.70518  0.10153  Biso   1.000  C
  H70      1.0000 0.77895  0.79710  0.17398  Biso   1.000  H
  H71      1.0000 0.77895  0.79710  0.17403  Biso   1.000  H
  H72      1.0000 0.77903  0.79710  0.17398  Biso   1.000  H
  C71      1.0000 0.97007  0.61854  0.09477  Biso   1.000  C
  O9       1.0000 0.12065  0.65489  0.17078  Biso   1.000  O
  O10      1.0000 0.12065  0.65489  0.17083  Biso   1.000  O
  C72      1.0000 0.87391  0.07192  0.78748  Biso   1.000  C
  C73      1.0000 0.06711  0.02387  0.76339  Biso   1.000  C
  C74      1.0000 0.06711  0.02387  0.76343  Biso   1.000  C
  H73      1.0000 0.71378  0.28528  0.88745  Biso   1.000  H
  H74      1.0000 0.68739  0.38898  0.92217  Biso   1.000  H
  H75      1.0000 0.71379  0.28528  0.88749  Biso   1.000  H
  H76      1.0000 0.64898  0.40680  0.82660  Biso   1.000  H
  H77      1.0000 0.64955  0.29063  0.84935  Biso   1.000  H
  H78      1.0000 0.61053  0.38100  0.89198  Biso   1.000  H
  O11      1.0000 0.68049  0.72076  0.07561  Biso   1.000  O
  O12      1.0000 0.68057  0.72076  0.07557  Biso   1.000  O
  C75      1.0000 0.85921  0.63582  0.07201  Biso   1.000  C
  C76      1.0000 0.85929  0.63582  0.07201  Biso   1.000  C
  H79      1.0000 0.01847  0.57157  0.07539  Biso   1.000  H
  H80      1.0000 0.01847  0.57157  0.07543  Biso   1.000  H
  C77      1.0000 0.19955  0.58963  0.14496  Biso   1.000  C
  C78      1.0000 0.19964  0.58963  0.14496  Biso   1.000  C
  C79      1.0000 0.21393  0.62528  0.11682  Biso   1.000  C
  C80      1.0000 0.84371  0.96760  0.79326  Biso   1.000  C
  H81      1.0000 0.81770  0.12330  0.79366  Biso   1.000  H
  C81      1.0000 0.03653  0.91986  0.76859  Biso   1.000  C
  O13      1.0000 0.17551  0.05828  0.74916  Biso   1.000  O
  C82      1.0000 0.60833  0.79927  0.09797  Biso   1.000  C
  C83      1.0000 0.60824  0.79927  0.09797  Biso   1.000  C
  C84      1.0000 0.81451  0.58025  0.01662  Biso   1.000  C
  H82      1.0000 0.16058  0.52778  0.12882  Biso   1.000  H
  H83      1.0000 0.25935  0.56770  0.17420  Biso   1.000  H
  C85      1.0000 0.25252  0.65163  0.09610  Biso   1.000  C
  H84      1.0000 0.25944  0.56770  0.17420  Biso   1.000  H
  C86      1.0000 0.33701  0.63784  0.13918  Biso   1.000  C
  H85      1.0000 0.20109  0.55359  0.10379  Biso   1.000  H
  H86      1.0000 0.19287  0.66922  0.06641  Biso   1.000  H
  H87      1.0000 0.19947  0.67077  0.08250  Biso   1.000  H
  C87      1.0000 0.92583  0.89041  0.78361  Biso   1.000  C
  C88      1.0000 0.92583  0.89041  0.78366  Biso   1.000  C
  O14      1.0000 0.73522  0.93350  0.80744  Biso   1.000  O
  O15      1.0000 0.73522  0.93350  0.80748  Biso   1.000  O
  H88      1.0000 0.09243  0.86864  0.76165  Biso   1.000  H
  C89      1.0000 0.25871  0.98791  0.72849  Biso   1.000  C
  H89      1.0000 0.65175  0.86422  0.10299  Biso   1.000  H
  H90      1.0000 0.57852  0.77889  0.13660  Biso   1.000  H
  C90      1.0000 0.50896  0.81322  0.05272  Biso   1.000  C
  H91      1.0000 0.65175  0.86422  0.10304  Biso   1.000  H
  H92      1.0000 0.57844  0.77889  0.13660  Biso   1.000  H
  C91      1.0000 0.50896  0.81322  0.05276  Biso   1.000  C
  H93      1.0000 0.65184  0.86422  0.10299  Biso   1.000  H
  H94      1.0000 0.73136  0.56669  0.02058  Biso   1.000  H
  H95      1.0000 0.85376  0.51314  0.01409  Biso   1.000  H
  H96      1.0000 0.73136  0.56669  0.02063  Biso   1.000  H
  H97      1.0000 0.85376  0.51314  0.01414  Biso   1.000  H
  H98      1.0000 0.73144  0.56669  0.02058  Biso   1.000  H
  H99      1.0000 0.85384  0.51314  0.01409  Biso   1.000  H
  C92      1.0000 0.83155  0.63884  0.95897  Biso   1.000  C
  C93      1.0000 0.83147  0.63884  0.95902  Biso   1.000  C
  C94      1.0000 0.83155  0.63884  0.95902  Biso   1.000  C
  H100     1.0000 0.28613  0.71472  0.11251  Biso   1.000  H
  H101     1.0000 0.31252  0.61102  0.07779  Biso   1.000  H
  H102     1.0000 0.31252  0.61102  0.07783  Biso   1.000  H
  H103     1.0000 0.35085  0.59320  0.17340  Biso   1.000  H
  H104     1.0000 0.35036  0.70937  0.15060  Biso   1.000  H
  H105     1.0000 0.38938  0.61900  0.10802  Biso   1.000  H
  C95      1.0000 0.89244  0.77680  0.78690  Biso   1.000  C
  C96      1.0000 0.89236  0.77680  0.78694  Biso   1.000  C
  C97      1.0000 0.89245  0.77680  0.78694  Biso   1.000  C
  C98      1.0000 0.64692  0.00814  0.81544  Biso   1.000  C
  C99      1.0000 0.64693  0.00814  0.81548  Biso   1.000  C
  H106     1.0000 0.22692  0.94862  0.69444  Biso   1.000  H
  H107     1.0000 0.28202  0.93901  0.75996  Biso   1.000  H
  H108     1.0000 0.22692  0.94862  0.69449  Biso   1.000  H
  C100     1.0000 0.36055  0.05169  0.71049  Biso   1.000  C
  C101     1.0000 0.36064  0.05169  0.71049  Biso   1.000  C
  H109     1.0000 0.45658  0.86631  0.06641  Biso   1.000  H
  H110     1.0000 0.46720  0.74828  0.04801  Biso   1.000  H
  H111     1.0000 0.53968  0.83384  0.01489  Biso   1.000  H
  H112     1.0000 0.53968  0.83384  0.01494  Biso   1.000  H
  C102     1.0000 0.74188  0.64729  0.91630  Biso   1.000  C
  C103     1.0000 0.93907  0.68054  0.94595  Biso   1.000  C
  C104     1.0000 0.93916  0.68054  0.94595  Biso   1.000  C
  C105     1.0000 0.87042  0.73363  0.84829  Biso   1.000  C
  C106     1.0000 0.87051  0.73363  0.84829  Biso   1.000  C
  H113     1.0000 0.82206  0.76641  0.76205  Biso   1.000  H
  H114     1.0000 0.95432  0.73588  0.76948  Biso   1.000  H
  H115     1.0000 0.82198  0.76641  0.76205  Biso   1.000  H
  C107     1.0000 0.54112  0.95079  0.83549  Biso   1.000  C
  C108     1.0000 0.54113  0.95079  0.83553  Biso   1.000  C
  H116     1.0000 0.62951  0.04456  0.77805  Biso   1.000  H
  H117     1.0000 0.67188  0.05913  0.84544  Biso   1.000  H
  H118     1.0000 0.67188  0.05913  0.84549  Biso   1.000  H
  H119     1.0000 0.67197  0.05913  0.84544  Biso   1.000  H
  H120     1.0000 0.38815  0.09323  0.74396  Biso   1.000  H
  H121     1.0000 0.33726  0.09688  0.67786  Biso   1.000  H
  H122     1.0000 0.42237  0.00620  0.69795  Biso   1.000  H
  H123     1.0000 0.42228  0.00620  0.69795  Biso   1.000  H
  O16      1.0000 0.63697  0.60482  0.93079  Biso   1.000  O
  C109     1.0000 0.76249  0.69418  0.86176  Biso   1.000  C
  C110     1.0000 0.76241  0.69418  0.86176  Biso   1.000  C
  C111     1.0000 0.95934  0.72735  0.89158  Biso   1.000  C
  H124     1.0000 0.99988  0.67697  0.97475  Biso   1.000  H
  H125     1.0000 0.56069  0.91157  0.87114  Biso   1.000  H
  H126     1.0000 0.51428  0.90382  0.80437  Biso   1.000  H
  H127     1.0000 0.56070  0.91157  0.87118  Biso   1.000  H
  H128     1.0000 0.51436  0.90382  0.80437  Biso   1.000  H
  H129     1.0000 0.48019  0.00008  0.84384  Biso   1.000  H
  H130     1.0000 0.48019  0.00008  0.84389  Biso   1.000  H
  C112     1.0000 0.54103  0.61714  0.89065  Biso   1.000  C
  C113     1.0000 0.54095  0.61714  0.89069  Biso   1.000  C
  C114     1.0000 0.54103  0.61714  0.89069  Biso   1.000  C
  H131     1.0000 0.70135  0.69906  0.83326  Biso   1.000  H
  H132     1.0000 0.70127  0.69906  0.83326  Biso   1.000  H
  O17      1.0000 0.06499  0.76688  0.87629  Biso   1.000  O
  H133     1.0000 0.55715  0.58452  0.85247  Biso   1.000  H
  H134     1.0000 0.52552  0.69092  0.88376  Biso   1.000  H
  C115     1.0000 0.43801  0.56638  0.91803  Biso   1.000  C
  C116     1.0000 0.43802  0.56638  0.91808  Biso   1.000  C
  C117     1.0000 0.15197  0.77850  0.92190  Biso   1.000  C
  C118     1.0000 0.15197  0.77850  0.92194  Biso   1.000  C
  H135     1.0000 0.42513  0.59699  0.95666  Biso   1.000  H
  H136     1.0000 0.45270  0.49283  0.92274  Biso   1.000  H
  H137     1.0000 0.36967  0.57653  0.89247  Biso   1.000  H
  H138     1.0000 0.45270  0.49283  0.92279  Biso   1.000  H
  H139     1.0000 0.36976  0.57653  0.89247  Biso   1.000  H
  H140     1.0000 0.17782  0.71038  0.93635  Biso   1.000  H
  H141     1.0000 0.12125  0.81741  0.95537  Biso   1.000  H
  C119     1.0000 0.25176  0.83616  0.89572  Biso   1.000  C
  H142     1.0000 0.17783  0.71038  0.93639  Biso   1.000  H
  H143     1.0000 0.12117  0.81741  0.95537  Biso   1.000  H
  H144     1.0000 0.31249  0.84600  0.92594  Biso   1.000  H
  H145     1.0000 0.22513  0.90320  0.88127  Biso   1.000  H
  H146     1.0000 0.28200  0.79664  0.86296  Biso   1.000  H
  H147     1.0000 0.31249  0.84600  0.92599  Biso   1.000  H
  C120     1.0000 0.84794  0.22150  0.07806  Biso   1.000  C
  O18      1.0000 0.93492  0.23312  0.12366  Biso   1.000  O
  H148     1.0000 0.82209  0.28962  0.06361  Biso   1.000  H
  H149     1.0000 0.87866  0.18259  0.04458  Biso   1.000  H
  C121     1.0000 0.74815  0.16384  0.10424  Biso   1.000  C
  H150     1.0000 0.87866  0.18259  0.04463  Biso   1.000  H
  C122     1.0000 0.74815  0.16384  0.10428  Biso   1.000  C
  H151     1.0000 0.87874  0.18259  0.04458  Biso   1.000  H
  C123     1.0000 0.04057  0.27265  0.10837  Biso   1.000  C
  H152     1.0000 0.68742  0.15400  0.07401  Biso   1.000  H
  H153     1.0000 0.77478  0.09680  0.11869  Biso   1.000  H
  H154     1.0000 0.71791  0.20336  0.13700  Biso   1.000  H
  H155     1.0000 0.77478  0.09680  0.11873  Biso   1.000  H
  C124     1.0000 0.12949  0.26637  0.15167  Biso   1.000  C
  C125     1.0000 0.12941  0.26637  0.15171  Biso   1.000  C
  C126     1.0000 0.12949  0.26637  0.15171  Biso   1.000  C
  C127     1.0000 0.06084  0.31946  0.05401  Biso   1.000  C
  C128     1.0000 0.06075  0.31946  0.05401  Biso   1.000  C
  C129     1.0000 0.10747  0.22320  0.21306  Biso   1.000  C
  C130     1.0000 0.10755  0.22320  0.21306  Biso   1.000  C
  C131     1.0000 0.23742  0.30582  0.13820  Biso   1.000  C
  C132     1.0000 0.23742  0.30582  0.13824  Biso   1.000  C
  C133     1.0000 0.23750  0.30582  0.13820  Biso   1.000  C
  C134     1.0000 0.16836  0.36116  0.04098  Biso   1.000  C
  H156     1.0000 0.00003  0.32303  0.02520  Biso   1.000  H
  C135     1.0000 0.16845  0.36116  0.04098  Biso   1.000  C
  C136     1.0000 0.07408  0.10959  0.21634  Biso   1.000  C
  H157     1.0000 0.17785  0.23359  0.23790  Biso   1.000  H
  H158     1.0000 0.04559  0.26412  0.23048  Biso   1.000  H
  H159     1.0000 0.04560  0.26412  0.23052  Biso   1.000  H
  H160     1.0000 0.17793  0.23359  0.23790  Biso   1.000  H
  C137     1.0000 0.25803  0.35271  0.08366  Biso   1.000  C
  H161     1.0000 0.29856  0.30094  0.16669  Biso   1.000  H
  C138     1.0000 0.25803  0.35271  0.08370  Biso   1.000  C
  H162     1.0000 0.29856  0.30094  0.16674  Biso   1.000  H
  C139     1.0000 0.18540  0.41975  0.98333  Biso   1.000  C
  C140     1.0000 0.18540  0.41975  0.98338  Biso   1.000  C
  C141     1.0000 0.96338  0.08014  0.23137  Biso   1.000  C
  C142     1.0000 0.15620  0.03240  0.20670  Biso   1.000  C
  C143     1.0000 0.15620  0.03240  0.20674  Biso   1.000  C
  O19      1.0000 0.36294  0.39518  0.06917  Biso   1.000  O
  O20      1.0000 0.36294  0.39518  0.06921  Biso   1.000  O
  C144     1.0000 0.14070  0.36418  0.92794  Biso   1.000  C
  H163     1.0000 0.26855  0.43331  0.97937  Biso   1.000  H
  H164     1.0000 0.14615  0.48686  0.98586  Biso   1.000  H
  C145     1.0000 0.14062  0.36418  0.92799  Biso   1.000  C
  H165     1.0000 0.26847  0.43331  0.97937  Biso   1.000  H
  H166     1.0000 0.14607  0.48686  0.98586  Biso   1.000  H
  C146     1.0000 0.14071  0.36418  0.92799  Biso   1.000  C
  C147     1.0000 0.93280  0.97613  0.23657  Biso   1.000  C
  H167     1.0000 0.90748  0.13136  0.23830  Biso   1.000  H
  C148     1.0000 0.12600  0.92808  0.21248  Biso   1.000  C
  O21      1.0000 0.26469  0.06650  0.19252  Biso   1.000  O
  C149     1.0000 0.45888  0.38286  0.10931  Biso   1.000  C
  C150     1.0000 0.45897  0.38286  0.10931  Biso   1.000  C
  C151     1.0000 0.02984  0.38146  0.90519  Biso   1.000  C
  C152     1.0000 0.21131  0.29482  0.89843  Biso   1.000  C
  C153     1.0000 0.21123  0.29482  0.89847  Biso   1.000  C
  C154     1.0000 0.21132  0.29482  0.89847  Biso   1.000  C
  C155     1.0000 0.01467  0.89925  0.22710  Biso   1.000  C
  C156     1.0000 0.01468  0.89925  0.22715  Biso   1.000  C
  O22      1.0000 0.82440  0.94172  0.25079  Biso   1.000  O
  H168     1.0000 0.18221  0.87670  0.20630  Biso   1.000  H
  C157     1.0000 0.35299  0.99186  0.18452  Biso   1.000  C
  H169     1.0000 0.44276  0.41548  0.14749  Biso   1.000  H
  H170     1.0000 0.47439  0.30908  0.11620  Biso   1.000  H
  C158     1.0000 0.56190  0.43362  0.08192  Biso   1.000  C
  H171     1.0000 0.44276  0.41548  0.14753  Biso   1.000  H
  C159     1.0000 0.98782  0.33085  0.85407  Biso   1.000  C
  H172     1.0000 0.98144  0.42843  0.92457  Biso   1.000  H
  C160     1.0000 0.17124  0.24746  0.84629  Biso   1.000  C
  O23      1.0000 0.31934  0.27924  0.92439  Biso   1.000  O
  O24      1.0000 0.31942  0.27924  0.92439  Biso   1.000  O
  C161     1.0000 0.98306  0.78571  0.23395  Biso   1.000  C
  C162     1.0000 0.98306  0.78571  0.23399  Biso   1.000  C
  C163     1.0000 0.98315  0.78571  0.23395  Biso   1.000  C
  C164     1.0000 0.74120  0.01209  0.27146  Biso   1.000  C
  C165     1.0000 0.74120  0.01209  0.27151  Biso   1.000  C
  H173     1.0000 0.37040  0.95544  0.22190  Biso   1.000  H
  H174     1.0000 0.32803  0.94087  0.15451  Biso   1.000  H
  H175     1.0000 0.32794  0.94087  0.15451  Biso   1.000  H
  C166     1.0000 0.45879  0.04921  0.16447  Biso   1.000  C
  H176     1.0000 0.57478  0.40301  0.04330  Biso   1.000  H
  H177     1.0000 0.54721  0.50717  0.07721  Biso   1.000  H
  H178     1.0000 0.63024  0.42347  0.10748  Biso   1.000  H
  H179     1.0000 0.63016  0.42347  0.10753  Biso   1.000  H
  H180     1.0000 0.63024  0.42347  0.10753  Biso   1.000  H
  C167     1.0000 0.05968  0.26451  0.82357  Biso   1.000  C
  O25      1.0000 0.87926  0.34511  0.82917  Biso   1.000  O
  H181     1.0000 0.22096  0.20290  0.82597  Biso   1.000  H
  H182     1.0000 0.22088  0.20290  0.82597  Biso   1.000  H
  C168     1.0000 0.39159  0.20073  0.90198  Biso   1.000  C
  C169     1.0000 0.39159  0.20073  0.90203  Biso   1.000  C
  C170     1.0000 0.94023  0.73549  0.17638  Biso   1.000  C
  C171     1.0000 0.94015  0.73549  0.17638  Biso   1.000  C
  H183     1.0000 0.92260  0.77959  0.26342  Biso   1.000  H
  H184     1.0000 0.05148  0.74789  0.24919  Biso   1.000  H
  C172     1.0000 0.63936  0.94831  0.28947  Biso   1.000  C
  C173     1.0000 0.63927  0.94831  0.28951  Biso   1.000  C
  C174     1.0000 0.63936  0.94831  0.28951  Biso   1.000  C
  H185     1.0000 0.77299  0.05138  0.30551  Biso   1.000  H
  H186     1.0000 0.71789  0.06099  0.23999  Biso   1.000  H
  H187     1.0000 0.71789  0.06099  0.24004  Biso   1.000  H
  H188     1.0000 0.51972  0.99992  0.15611  Biso   1.000  H
  H189     1.0000 0.43922  0.08843  0.12882  Biso   1.000  H
  H190     1.0000 0.48563  0.09618  0.19559  Biso   1.000  H
  H191     1.0000 0.48555  0.09618  0.19563  Biso   1.000  H
  C175     1.0000 0.01685  0.21429  0.76601  Biso   1.000  C
  C176     1.0000 0.01676  0.21429  0.76601  Biso   1.000  C
  C177     1.0000 0.80036  0.41037  0.85500  Biso   1.000  C
  C178     1.0000 0.80027  0.41037  0.85500  Biso   1.000  C
  C179     1.0000 0.78599  0.37472  0.88318  Biso   1.000  C
  H192     1.0000 0.34816  0.13578  0.89696  Biso   1.000  H
  H193     1.0000 0.42139  0.22111  0.86336  Biso   1.000  H
  C180     1.0000 0.49095  0.18678  0.94724  Biso   1.000  C
  H194     1.0000 0.34807  0.13578  0.89696  Biso   1.000  H
  H195     1.0000 0.42148  0.22111  0.86336  Biso   1.000  H
  C181     1.0000 0.82867  0.75254  0.15367  Biso   1.000  C
  C182     1.0000 0.82868  0.75254  0.15371  Biso   1.000  C
  C183     1.0000 0.01209  0.66915  0.14589  Biso   1.000  C
  C184     1.0000 0.01209  0.66915  0.14593  Biso   1.000  C
  H196     1.0000 0.61176  0.90677  0.25600  Biso   1.000  H
  H197     1.0000 0.66265  0.90312  0.32209  Biso   1.000  H
  H198     1.0000 0.57754  0.99380  0.30200  Biso   1.000  H
  H199     1.0000 0.57763  0.99380  0.30200  Biso   1.000  H
  C185     1.0000 0.98524  0.10075  0.77285  Biso   1.000  C
  H200     1.0000 0.94843  0.25211  0.75076  Biso   1.000  H
  H201     1.0000 0.07731  0.22041  0.73654  Biso   1.000  H
  H202     1.0000 0.07731  0.22041  0.73658  Biso   1.000  H
  H203     1.0000 0.83933  0.47222  0.87114  Biso   1.000  H
  H204     1.0000 0.74056  0.43230  0.82575  Biso   1.000  H
  C186     1.0000 0.74739  0.34837  0.90385  Biso   1.000  C
  H205     1.0000 0.83933  0.47222  0.87118  Biso   1.000  H
  H206     1.0000 0.74048  0.43230  0.82580  Biso   1.000  H
  H207     1.0000 0.74056  0.43230  0.82580  Biso   1.000  H
  C187     1.0000 0.66290  0.36216  0.86078  Biso   1.000  C
  H208     1.0000 0.79882  0.44641  0.89616  Biso   1.000  H
  H209     1.0000 0.80704  0.33078  0.93355  Biso   1.000  H
  H210     1.0000 0.80704  0.33078  0.93359  Biso   1.000  H
  H211     1.0000 0.80044  0.32923  0.91745  Biso   1.000  H
  H212     1.0000 0.54333  0.13369  0.93355  Biso   1.000  H
  H213     1.0000 0.53271  0.25172  0.95195  Biso   1.000  H
  H214     1.0000 0.46023  0.16616  0.98506  Biso   1.000  H
  H215     1.0000 0.54333  0.13369  0.93359  Biso   1.000  H
  H216     1.0000 0.53271  0.25172  0.95199  Biso   1.000  H
  C188     1.0000 0.78860  0.70518  0.10153  Biso   1.000  C
  C189     1.0000 0.78868  0.70518  0.10153  Biso   1.000  C
  H217     1.0000 0.77895  0.79710  0.17398  Biso   1.000  H
  H218     1.0000 0.77895  0.79710  0.17403  Biso   1.000  H
  H219     1.0000 0.77903  0.79710  0.17398  Biso   1.000  H
  C190     1.0000 0.97007  0.61854  0.09477  Biso   1.000  C
  O26      1.0000 0.12065  0.65489  0.17078  Biso   1.000  O
  O27      1.0000 0.12065  0.65489  0.17083  Biso   1.000  O
  C191     1.0000 0.87391  0.07192  0.78748  Biso   1.000  C
  C192     1.0000 0.06711  0.02387  0.76339  Biso   1.000  C
  C193     1.0000 0.06711  0.02387  0.76343  Biso   1.000  C
  H220     1.0000 0.71378  0.28528  0.88745  Biso   1.000  H
  H221     1.0000 0.68739  0.38898  0.92217  Biso   1.000  H
  H222     1.0000 0.71379  0.28528  0.88749  Biso   1.000  H
  H223     1.0000 0.64898  0.40680  0.82660  Biso   1.000  H
  H224     1.0000 0.64955  0.29063  0.84935  Biso   1.000  H
  H225     1.0000 0.61053  0.38100  0.89198  Biso   1.000  H
  O28      1.0000 0.68049  0.72076  0.07561  Biso   1.000  O
  C194     1.0000 0.85921  0.63582  0.07201  Biso   1.000  C
  O29      1.0000 0.68057  0.72076  0.07557  Biso   1.000  O
  C195     1.0000 0.85929  0.63582  0.07201  Biso   1.000  C
  H226     1.0000 0.01847  0.57157  0.07539  Biso   1.000  H
  H227     1.0000 0.01847  0.57157  0.07543  Biso   1.000  H
  C196     1.0000 0.19955  0.58963  0.14496  Biso   1.000  C
  C197     1.0000 0.19964  0.58963  0.14496  Biso   1.000  C
  C198     1.0000 0.21393  0.62528  0.11682  Biso   1.000  C
  C199     1.0000 0.84371  0.96760  0.79326  Biso   1.000  C
  H228     1.0000 0.81770  0.12330  0.79366  Biso   1.000  H
  C200     1.0000 0.03653  0.91986  0.76859  Biso   1.000  C
  O30      1.0000 0.17551  0.05828  0.74916  Biso   1.000  O
  C201     1.0000 0.60833  0.79927  0.09797  Biso   1.000  C
  C202     1.0000 0.60824  0.79927  0.09797  Biso   1.000  C
  C203     1.0000 0.81451  0.58025  0.01662  Biso   1.000  C
  H229     1.0000 0.16058  0.52778  0.12882  Biso   1.000  H
  H230     1.0000 0.25935  0.56770  0.17420  Biso   1.000  H
  C204     1.0000 0.25252  0.65163  0.09610  Biso   1.000  C
  H231     1.0000 0.25944  0.56770  0.17420  Biso   1.000  H
  C205     1.0000 0.33701  0.63784  0.13918  Biso   1.000  C
  H232     1.0000 0.20109  0.55359  0.10379  Biso   1.000  H
  H233     1.0000 0.19287  0.66922  0.06641  Biso   1.000  H
  H234     1.0000 0.19947  0.67077  0.08250  Biso   1.000  H
  C206     1.0000 0.92583  0.89041  0.78361  Biso   1.000  C
  C207     1.0000 0.92583  0.89041  0.78366  Biso   1.000  C
  O31      1.0000 0.73522  0.93350  0.80744  Biso   1.000  O
  O32      1.0000 0.73522  0.93350  0.80748  Biso   1.000  O
  H235     1.0000 0.09243  0.86864  0.76165  Biso   1.000  H
  C208     1.0000 0.25871  0.98791  0.72849  Biso   1.000  C
  H236     1.0000 0.65175  0.86422  0.10299  Biso   1.000  H
  H237     1.0000 0.57852  0.77889  0.13660  Biso   1.000  H
  C209     1.0000 0.50896  0.81322  0.05272  Biso   1.000  C
  H238     1.0000 0.65175  0.86422  0.10304  Biso   1.000  H
  H239     1.0000 0.57844  0.77889  0.13660  Biso   1.000  H
  C210     1.0000 0.50896  0.81322  0.05276  Biso   1.000  C
  H240     1.0000 0.65184  0.86422  0.10299  Biso   1.000  H
  H241     1.0000 0.73136  0.56669  0.02058  Biso   1.000  H
  H242     1.0000 0.85376  0.51314  0.01409  Biso   1.000  H
  H243     1.0000 0.73136  0.56669  0.02063  Biso   1.000  H
  H244     1.0000 0.85376  0.51314  0.01414  Biso   1.000  H
  H245     1.0000 0.73144  0.56669  0.02058  Biso   1.000  H
  H246     1.0000 0.85384  0.51314  0.01409  Biso   1.000  H
  C211     1.0000 0.83155  0.63884  0.95897  Biso   1.000  C
  C212     1.0000 0.83147  0.63884  0.95902  Biso   1.000  C
  C213     1.0000 0.83155  0.63884  0.95902  Biso   1.000  C
  H247     1.0000 0.28613  0.71472  0.11251  Biso   1.000  H
  H248     1.0000 0.31252  0.61102  0.07779  Biso   1.000  H
  H249     1.0000 0.31252  0.61102  0.07783  Biso   1.000  H
  H250     1.0000 0.35085  0.59320  0.17340  Biso   1.000  H
  H251     1.0000 0.35036  0.70937  0.15060  Biso   1.000  H
  H252     1.0000 0.38938  0.61900  0.10802  Biso   1.000  H
  C214     1.0000 0.89244  0.77680  0.78690  Biso   1.000  C
  C215     1.0000 0.89236  0.77680  0.78694  Biso   1.000  C
  C216     1.0000 0.89245  0.77680  0.78694  Biso   1.000  C
  C217     1.0000 0.64692  0.00814  0.81544  Biso   1.000  C
  C218     1.0000 0.64693  0.00814  0.81548  Biso   1.000  C
  H253     1.0000 0.22692  0.94862  0.69444  Biso   1.000  H
  H254     1.0000 0.28202  0.93901  0.75996  Biso   1.000  H
  H255     1.0000 0.22692  0.94862  0.69449  Biso   1.000  H
  C219     1.0000 0.36055  0.05169  0.71049  Biso   1.000  C
  C220     1.0000 0.36064  0.05169  0.71049  Biso   1.000  C
  H256     1.0000 0.45658  0.86631  0.06641  Biso   1.000  H
  H257     1.0000 0.46720  0.74828  0.04801  Biso   1.000  H
  H258     1.0000 0.53968  0.83384  0.01489  Biso   1.000  H
  H259     1.0000 0.53968  0.83384  0.01494  Biso   1.000  H
  C221     1.0000 0.74188  0.64729  0.91630  Biso   1.000  C
  C222     1.0000 0.93907  0.68054  0.94595  Biso   1.000  C
  C223     1.0000 0.93916  0.68054  0.94595  Biso   1.000  C
  C224     1.0000 0.87042  0.73363  0.84829  Biso   1.000  C
  C225     1.0000 0.87051  0.73363  0.84829  Biso   1.000  C
  H260     1.0000 0.82206  0.76641  0.76205  Biso   1.000  H
  H261     1.0000 0.95432  0.73588  0.76948  Biso   1.000  H
  H262     1.0000 0.82198  0.76641  0.76205  Biso   1.000  H
  C226     1.0000 0.54112  0.95079  0.83549  Biso   1.000  C
  C227     1.0000 0.54113  0.95079  0.83553  Biso   1.000  C
  H263     1.0000 0.62951  0.04456  0.77805  Biso   1.000  H
  H264     1.0000 0.67188  0.05913  0.84544  Biso   1.000  H
  H265     1.0000 0.67188  0.05913  0.84549  Biso   1.000  H
  H266     1.0000 0.67197  0.05913  0.84544  Biso   1.000  H
  H267     1.0000 0.38815  0.09323  0.74396  Biso   1.000  H
  H268     1.0000 0.33726  0.09688  0.67786  Biso   1.000  H
  H269     1.0000 0.42237  0.00620  0.69795  Biso   1.000  H
  H270     1.0000 0.42228  0.00620  0.69795  Biso   1.000  H
  O33      1.0000 0.63697  0.60482  0.93079  Biso   1.000  O
  C228     1.0000 0.76249  0.69418  0.86176  Biso   1.000  C
  C229     1.0000 0.76241  0.69418  0.86176  Biso   1.000  C
  C230     1.0000 0.95934  0.72735  0.89158  Biso   1.000  C
  H271     1.0000 0.99988  0.67697  0.97475  Biso   1.000  H
  H272     1.0000 0.56069  0.91157  0.87114  Biso   1.000  H
  H273     1.0000 0.51428  0.90382  0.80437  Biso   1.000  H
  H274     1.0000 0.56070  0.91157  0.87118  Biso   1.000  H
  H275     1.0000 0.51436  0.90382  0.80437  Biso   1.000  H
  H276     1.0000 0.48019  0.00008  0.84384  Biso   1.000  H
  H277     1.0000 0.48019  0.00008  0.84389  Biso   1.000  H
  C231     1.0000 0.54103  0.61714  0.89065  Biso   1.000  C
  C232     1.0000 0.54095  0.61714  0.89069  Biso   1.000  C
  C233     1.0000 0.54103  0.61714  0.89069  Biso   1.000  C
  H278     1.0000 0.70135  0.69906  0.83326  Biso   1.000  H
  H279     1.0000 0.70127  0.69906  0.83326  Biso   1.000  H
  O34      1.0000 0.06499  0.76688  0.87629  Biso   1.000  O
  H280     1.0000 0.55715  0.58452  0.85247  Biso   1.000  H
  H281     1.0000 0.52552  0.69092  0.88376  Biso   1.000  H
  C234     1.0000 0.43801  0.56638  0.91803  Biso   1.000  C
  C235     1.0000 0.43802  0.56638  0.91808  Biso   1.000  C
  C236     1.0000 0.15197  0.77850  0.92190  Biso   1.000  C
  C237     1.0000 0.15197  0.77850  0.92194  Biso   1.000  C
  H282     1.0000 0.42513  0.59699  0.95666  Biso   1.000  H
  H283     1.0000 0.45270  0.49283  0.92274  Biso   1.000  H
  H284     1.0000 0.36967  0.57653  0.89247  Biso   1.000  H
  H285     1.0000 0.45270  0.49283  0.92279  Biso   1.000  H
  H286     1.0000 0.36976  0.57653  0.89247  Biso   1.000  H
  H287     1.0000 0.17782  0.71038  0.93635  Biso   1.000  H
  H288     1.0000 0.12125  0.81741  0.95537  Biso   1.000  H
  C238     1.0000 0.25176  0.83616  0.89572  Biso   1.000  C
  H289     1.0000 0.17783  0.71038  0.93639  Biso   1.000  H
  H290     1.0000 0.12117  0.81741  0.95537  Biso   1.000  H
  H291     1.0000 0.31249  0.84600  0.92594  Biso   1.000  H
  H292     1.0000 0.22513  0.90320  0.88127  Biso   1.000  H
  H293     1.0000 0.28200  0.79664  0.86296  Biso   1.000  H
  H294     1.0000 0.31249  0.84600  0.92599  Biso   1.000  H
  C239     1.0000 0.84794  0.22150  0.07806  Biso   1.000  C
  O35      1.0000 0.93492  0.23312  0.12366  Biso   1.000  O
  H295     1.0000 0.82209  0.28962  0.06361  Biso   1.000  H
  H296     1.0000 0.87866  0.18259  0.04458  Biso   1.000  H
  C240     1.0000 0.74815  0.16384  0.10424  Biso   1.000  C
  H297     1.0000 0.87866  0.18259  0.04463  Biso   1.000  H
  C241     1.0000 0.74815  0.16384  0.10428  Biso   1.000  C
  H298     1.0000 0.87874  0.18259  0.04458  Biso   1.000  H
  C242     1.0000 0.04057  0.27265  0.10837  Biso   1.000  C
  H299     1.0000 0.68742  0.15400  0.07401  Biso   1.000  H
  H300     1.0000 0.77478  0.09680  0.11869  Biso   1.000  H
  H301     1.0000 0.71791  0.20336  0.13700  Biso   1.000  H
  H302     1.0000 0.77478  0.09680  0.11873  Biso   1.000  H
  C243     1.0000 0.12949  0.26637  0.15167  Biso   1.000  C
  C244     1.0000 0.12941  0.26637  0.15171  Biso   1.000  C
  C245     1.0000 0.12949  0.26637  0.15171  Biso   1.000  C
  C246     1.0000 0.06084  0.31946  0.05401  Biso   1.000  C
  C247     1.0000 0.06075  0.31946  0.05401  Biso   1.000  C
  C248     1.0000 0.10747  0.22320  0.21306  Biso   1.000  C
  C249     1.0000 0.10755  0.22320  0.21306  Biso   1.000  C
  C250     1.0000 0.23742  0.30582  0.13820  Biso   1.000  C
  C251     1.0000 0.23742  0.30582  0.13824  Biso   1.000  C
  C252     1.0000 0.23750  0.30582  0.13820  Biso   1.000  C
  C253     1.0000 0.16836  0.36116  0.04098  Biso   1.000  C
  H303     1.0000 0.00003  0.32303  0.02520  Biso   1.000  H
  C254     1.0000 0.16845  0.36116  0.04098  Biso   1.000  C
  C255     1.0000 0.07408  0.10959  0.21634  Biso   1.000  C
  H304     1.0000 0.17785  0.23359  0.23790  Biso   1.000  H
  H305     1.0000 0.04559  0.26412  0.23048  Biso   1.000  H
  H306     1.0000 0.04560  0.26412  0.23052  Biso   1.000  H
  H307     1.0000 0.17793  0.23359  0.23790  Biso   1.000  H
  C256     1.0000 0.25803  0.35271  0.08366  Biso   1.000  C
  H308     1.0000 0.29856  0.30094  0.16669  Biso   1.000  H
  C257     1.0000 0.25803  0.35271  0.08370  Biso   1.000  C
  H309     1.0000 0.29856  0.30094  0.16674  Biso   1.000  H
  C258     1.0000 0.18540  0.41975  0.98333  Biso   1.000  C
  C259     1.0000 0.18540  0.41975  0.98338  Biso   1.000  C
  C260     1.0000 0.96338  0.08014  0.23137  Biso   1.000  C
  C261     1.0000 0.15620  0.03240  0.20670  Biso   1.000  C
  C262     1.0000 0.15620  0.03240  0.20674  Biso   1.000  C
  O36      1.0000 0.36294  0.39518  0.06917  Biso   1.000  O
  O37      1.0000 0.36294  0.39518  0.06921  Biso   1.000  O
  C263     1.0000 0.14070  0.36418  0.92794  Biso   1.000  C
  H310     1.0000 0.26855  0.43331  0.97937  Biso   1.000  H
  H311     1.0000 0.14615  0.48686  0.98586  Biso   1.000  H
  C264     1.0000 0.14062  0.36418  0.92799  Biso   1.000  C
  H312     1.0000 0.26847  0.43331  0.97937  Biso   1.000  H
  H313     1.0000 0.14607  0.48686  0.98586  Biso   1.000  H
  C265     1.0000 0.14071  0.36418  0.92799  Biso   1.000  C
  C266     1.0000 0.93280  0.97613  0.23657  Biso   1.000  C
  H314     1.0000 0.90748  0.13136  0.23830  Biso   1.000  H
  C267     1.0000 0.12600  0.92808  0.21248  Biso   1.000  C
  O38      1.0000 0.26469  0.06650  0.19252  Biso   1.000  O
  C268     1.0000 0.45888  0.38286  0.10931  Biso   1.000  C
  C269     1.0000 0.45897  0.38286  0.10931  Biso   1.000  C
  C270     1.0000 0.02984  0.38146  0.90519  Biso   1.000  C
  C271     1.0000 0.21131  0.29482  0.89843  Biso   1.000  C
  C272     1.0000 0.21123  0.29482  0.89847  Biso   1.000  C
  C273     1.0000 0.21132  0.29482  0.89847  Biso   1.000  C
  C274     1.0000 0.01467  0.89925  0.22710  Biso   1.000  C
  C275     1.0000 0.01468  0.89925  0.22715  Biso   1.000  C
  O39      1.0000 0.82440  0.94172  0.25079  Biso   1.000  O
  H315     1.0000 0.18221  0.87670  0.20630  Biso   1.000  H
  C276     1.0000 0.35299  0.99186  0.18452  Biso   1.000  C
  H316     1.0000 0.44276  0.41548  0.14749  Biso   1.000  H
  H317     1.0000 0.47439  0.30908  0.11620  Biso   1.000  H
  C277     1.0000 0.56190  0.43362  0.08192  Biso   1.000  C
  H318     1.0000 0.44276  0.41548  0.14753  Biso   1.000  H
  C278     1.0000 0.98782  0.33085  0.85407  Biso   1.000  C
  H319     1.0000 0.98144  0.42843  0.92457  Biso   1.000  H
  C279     1.0000 0.17124  0.24746  0.84629  Biso   1.000  C
  O40      1.0000 0.31934  0.27924  0.92439  Biso   1.000  O
  O41      1.0000 0.31942  0.27924  0.92439  Biso   1.000  O
  C280     1.0000 0.98306  0.78571  0.23399  Biso   1.000  C
  C281     1.0000 0.98306  0.78571  0.23395  Biso   1.000  C
  C282     1.0000 0.98315  0.78571  0.23395  Biso   1.000  C
  C283     1.0000 0.74120  0.01209  0.27146  Biso   1.000  C
  C284     1.0000 0.74120  0.01209  0.27151  Biso   1.000  C
  H320     1.0000 0.37040  0.95544  0.22190  Biso   1.000  H
  H321     1.0000 0.32803  0.94087  0.15451  Biso   1.000  H
  H322     1.0000 0.32794  0.94087  0.15451  Biso   1.000  H
  C285     1.0000 0.45879  0.04921  0.16447  Biso   1.000  C
  H323     1.0000 0.57478  0.40301  0.04330  Biso   1.000  H
  H324     1.0000 0.54721  0.50717  0.07721  Biso   1.000  H
  H325     1.0000 0.63024  0.42347  0.10748  Biso   1.000  H
  H326     1.0000 0.63016  0.42347  0.10753  Biso   1.000  H
  H327     1.0000 0.63024  0.42347  0.10753  Biso   1.000  H
  C286     1.0000 0.05968  0.26451  0.82357  Biso   1.000  C
  O42      1.0000 0.87926  0.34511  0.82917  Biso   1.000  O
  H328     1.0000 0.22096  0.20290  0.82597  Biso   1.000  H
  H329     1.0000 0.22088  0.20290  0.82597  Biso   1.000  H
  C287     1.0000 0.39159  0.20073  0.90198  Biso   1.000  C
  C288     1.0000 0.39159  0.20073  0.90203  Biso   1.000  C
  C289     1.0000 0.94023  0.73549  0.17638  Biso   1.000  C
  C290     1.0000 0.94015  0.73549  0.17638  Biso   1.000  C
  H330     1.0000 0.92260  0.77959  0.26342  Biso   1.000  H
  H331     1.0000 0.05148  0.74789  0.24919  Biso   1.000  H
  C291     1.0000 0.63936  0.94831  0.28947  Biso   1.000  C
  C292     1.0000 0.63927  0.94831  0.28951  Biso   1.000  C
  C293     1.0000 0.63936  0.94831  0.28951  Biso   1.000  C
  H332     1.0000 0.77299  0.05138  0.30551  Biso   1.000  H
  H333     1.0000 0.71789  0.06099  0.23999  Biso   1.000  H
  H334     1.0000 0.71789  0.06099  0.24004  Biso   1.000  H
  H335     1.0000 0.51972  0.99992  0.15611  Biso   1.000  H
  H336     1.0000 0.43922  0.08843  0.12882  Biso   1.000  H
  H337     1.0000 0.48563  0.09618  0.19559  Biso   1.000  H
  H338     1.0000 0.48555  0.09618  0.19563  Biso   1.000  H
  C294     1.0000 0.01685  0.21429  0.76601  Biso   1.000  C
  C295     1.0000 0.01676  0.21429  0.76601  Biso   1.000  C
  C296     1.0000 0.80036  0.41037  0.85500  Biso   1.000  C
  C297     1.0000 0.80027  0.41037  0.85500  Biso   1.000  C
  C298     1.0000 0.78599  0.37472  0.88318  Biso   1.000  C
  H339     1.0000 0.34816  0.13578  0.89696  Biso   1.000  H
  H340     1.0000 0.42139  0.22111  0.86336  Biso   1.000  H
  C299     1.0000 0.49095  0.18678  0.94724  Biso   1.000  C
  H341     1.0000 0.34807  0.13578  0.89696  Biso   1.000  H
  H342     1.0000 0.42148  0.22111  0.86336  Biso   1.000  H
  C300     1.0000 0.82867  0.75254  0.15367  Biso   1.000  C
  C301     1.0000 0.82868  0.75254  0.15371  Biso   1.000  C
  C302     1.0000 0.01209  0.66915  0.14589  Biso   1.000  C
  C303     1.0000 0.01209  0.66915  0.14593  Biso   1.000  C
  H343     1.0000 0.61176  0.90677  0.25600  Biso   1.000  H
  H344     1.0000 0.66265  0.90312  0.32209  Biso   1.000  H
  H345     1.0000 0.57754  0.99380  0.30200  Biso   1.000  H
  H346     1.0000 0.57763  0.99380  0.30200  Biso   1.000  H
  C304     1.0000 0.98524  0.10075  0.77285  Biso   1.000  C
  H347     1.0000 0.94843  0.25211  0.75076  Biso   1.000  H
  H348     1.0000 0.07731  0.22041  0.73654  Biso   1.000  H
  H349     1.0000 0.07731  0.22041  0.73658  Biso   1.000  H
  H350     1.0000 0.83933  0.47222  0.87114  Biso   1.000  H
  H351     1.0000 0.74056  0.43230  0.82575  Biso   1.000  H
  C305     1.0000 0.74739  0.34837  0.90385  Biso   1.000  C
  H352     1.0000 0.83933  0.47222  0.87118  Biso   1.000  H
  H353     1.0000 0.74048  0.43230  0.82580  Biso   1.000  H
  H354     1.0000 0.74056  0.43230  0.82580  Biso   1.000  H
  C306     1.0000 0.66290  0.36216  0.86078  Biso   1.000  C
  H355     1.0000 0.79882  0.44641  0.89616  Biso   1.000  H
  H356     1.0000 0.80704  0.33078  0.93355  Biso   1.000  H
  H357     1.0000 0.80704  0.33078  0.93359  Biso   1.000  H
  H358     1.0000 0.80044  0.32923  0.91745  Biso   1.000  H
  H359     1.0000 0.54333  0.13369  0.93355  Biso   1.000  H
  H360     1.0000 0.53271  0.25172  0.95195  Biso   1.000  H
  H361     1.0000 0.46023  0.16616  0.98506  Biso   1.000  H
  H362     1.0000 0.54333  0.13369  0.93359  Biso   1.000  H
  H363     1.0000 0.53271  0.25172  0.95199  Biso   1.000  H
  C307     1.0000 0.78860  0.70518  0.10153  Biso   1.000  C
  C308     1.0000 0.78868  0.70518  0.10153  Biso   1.000  C
  H364     1.0000 0.77895  0.79710  0.17403  Biso   1.000  H
  H365     1.0000 0.77895  0.79710  0.17398  Biso   1.000  H
  H366     1.0000 0.77903  0.79710  0.17398  Biso   1.000  H
  C309     1.0000 0.97007  0.61854  0.09477  Biso   1.000  C
  O43      1.0000 0.12065  0.65489  0.17078  Biso   1.000  O
  O44      1.0000 0.12065  0.65489  0.17083  Biso   1.000  O
  C310     1.0000 0.87391  0.07192  0.78748  Biso   1.000  C
  C311     1.0000 0.06711  0.02387  0.76339  Biso   1.000  C
  C312     1.0000 0.06711  0.02387  0.76343  Biso   1.000  C
  H367     1.0000 0.71378  0.28528  0.88745  Biso   1.000  H
  H368     1.0000 0.68739  0.38898  0.92217  Biso   1.000  H
  H369     1.0000 0.71379  0.28528  0.88749  Biso   1.000  H
  H370     1.0000 0.64898  0.40680  0.82660  Biso   1.000  H
  H371     1.0000 0.64955  0.29063  0.84935  Biso   1.000  H
  H372     1.0000 0.61053  0.38100  0.89198  Biso   1.000  H
  O45      1.0000 0.68049  0.72076  0.07561  Biso   1.000  O
  C313     1.0000 0.85921  0.63582  0.07201  Biso   1.000  C
  O46      1.0000 0.68057  0.72076  0.07557  Biso   1.000  O
  C314     1.0000 0.85929  0.63582  0.07201  Biso   1.000  C
  H373     1.0000 0.01847  0.57157  0.07539  Biso   1.000  H
  H374     1.0000 0.01847  0.57157  0.07543  Biso   1.000  H
  C315     1.0000 0.19955  0.58963  0.14496  Biso   1.000  C
  C316     1.0000 0.19964  0.58963  0.14496  Biso   1.000  C
  C317     1.0000 0.21393  0.62528  0.11682  Biso   1.000  C
  C318     1.0000 0.84371  0.96760  0.79326  Biso   1.000  C
  H375     1.0000 0.81770  0.12330  0.79366  Biso   1.000  H
  C319     1.0000 0.03653  0.91986  0.76859  Biso   1.000  C
  O47      1.0000 0.17551  0.05828  0.74916  Biso   1.000  O
  C320     1.0000 0.60833  0.79927  0.09797  Biso   1.000  C
  C321     1.0000 0.60824  0.79927  0.09797  Biso   1.000  C
  C322     1.0000 0.81451  0.58025  0.01662  Biso   1.000  C
  H376     1.0000 0.16058  0.52778  0.12882  Biso   1.000  H
  H377     1.0000 0.25935  0.56770  0.17420  Biso   1.000  H
  C323     1.0000 0.25252  0.65163  0.09610  Biso   1.000  C
  H378     1.0000 0.25944  0.56770  0.17420  Biso   1.000  H
  C324     1.0000 0.33701  0.63784  0.13918  Biso   1.000  C
  H379     1.0000 0.20109  0.55359  0.10379  Biso   1.000  H
  H380     1.0000 0.19287  0.66922  0.06641  Biso   1.000  H
  H381     1.0000 0.19947  0.67077  0.08250  Biso   1.000  H
  C325     1.0000 0.92583  0.89041  0.78361  Biso   1.000  C
  C326     1.0000 0.92583  0.89041  0.78366  Biso   1.000  C
  O48      1.0000 0.73522  0.93350  0.80744  Biso   1.000  O
  O49      1.0000 0.73522  0.93350  0.80748  Biso   1.000  O
  H382     1.0000 0.09243  0.86864  0.76165  Biso   1.000  H
  C327     1.0000 0.25871  0.98791  0.72849  Biso   1.000  C
  H383     1.0000 0.57852  0.77889  0.13660  Biso   1.000  H
  C328     1.0000 0.50896  0.81322  0.05272  Biso   1.000  C
  H384     1.0000 0.65175  0.86422  0.10304  Biso   1.000  H
  C329     1.0000 0.50896  0.81322  0.05276  Biso   1.000  C
  H385     1.0000 0.65175  0.86422  0.10299  Biso   1.000  H
  H386     1.0000 0.57844  0.77889  0.13660  Biso   1.000  H
  H387     1.0000 0.65184  0.86422  0.10299  Biso   1.000  H
  H388     1.0000 0.73136  0.56669  0.02063  Biso   1.000  H
  H389     1.0000 0.85376  0.51314  0.01414  Biso   1.000  H
  C330     1.0000 0.83155  0.63884  0.95897  Biso   1.000  C
  C331     1.0000 0.83147  0.63884  0.95902  Biso   1.000  C
  C332     1.0000 0.83155  0.63884  0.95902  Biso   1.000  C
  H390     1.0000 0.73136  0.56669  0.02058  Biso   1.000  H
  H391     1.0000 0.85376  0.51314  0.01409  Biso   1.000  H
  H392     1.0000 0.73144  0.56669  0.02058  Biso   1.000  H
  H393     1.0000 0.85384  0.51314  0.01409  Biso   1.000  H
  H394     1.0000 0.28613  0.71472  0.11251  Biso   1.000  H
  H395     1.0000 0.31252  0.61102  0.07779  Biso   1.000  H
  H396     1.0000 0.31252  0.61102  0.07783  Biso   1.000  H
  H397     1.0000 0.35085  0.59320  0.17340  Biso   1.000  H
  H398     1.0000 0.35036  0.70937  0.15060  Biso   1.000  H
  H399     1.0000 0.38938  0.61900  0.10802  Biso   1.000  H
  C333     1.0000 0.89244  0.77680  0.78690  Biso   1.000  C
  C334     1.0000 0.89236  0.77680  0.78694  Biso   1.000  C
  C335     1.0000 0.89245  0.77680  0.78694  Biso   1.000  C
  C336     1.0000 0.64692  0.00814  0.81544  Biso   1.000  C
  C337     1.0000 0.64693  0.00814  0.81548  Biso   1.000  C
  H400     1.0000 0.22692  0.94862  0.69444  Biso   1.000  H
  H401     1.0000 0.28202  0.93901  0.75996  Biso   1.000  H
  H402     1.0000 0.22692  0.94862  0.69449  Biso   1.000  H
  C338     1.0000 0.36055  0.05169  0.71049  Biso   1.000  C
  C339     1.0000 0.36064  0.05169  0.71049  Biso   1.000  C
  H403     1.0000 0.45658  0.86631  0.06641  Biso   1.000  H
  H404     1.0000 0.46720  0.74828  0.04801  Biso   1.000  H
  H405     1.0000 0.53968  0.83384  0.01489  Biso   1.000  H
  H406     1.0000 0.53968  0.83384  0.01494  Biso   1.000  H
  C340     1.0000 0.74188  0.64729  0.91630  Biso   1.000  C
  C341     1.0000 0.93907  0.68054  0.94595  Biso   1.000  C
  C342     1.0000 0.93916  0.68054  0.94595  Biso   1.000  C
  C343     1.0000 0.87042  0.73363  0.84829  Biso   1.000  C
  C344     1.0000 0.87051  0.73363  0.84829  Biso   1.000  C
  H407     1.0000 0.82206  0.76641  0.76205  Biso   1.000  H
  H408     1.0000 0.95432  0.73588  0.76948  Biso   1.000  H
  H409     1.0000 0.82198  0.76641  0.76205  Biso   1.000  H
  C345     1.0000 0.54112  0.95079  0.83549  Biso   1.000  C
  C346     1.0000 0.54113  0.95079  0.83553  Biso   1.000  C
  H410     1.0000 0.62951  0.04456  0.77805  Biso   1.000  H
  H411     1.0000 0.67188  0.05913  0.84544  Biso   1.000  H
  H412     1.0000 0.67188  0.05913  0.84549  Biso   1.000  H
  H413     1.0000 0.67197  0.05913  0.84544  Biso   1.000  H
  H414     1.0000 0.38815  0.09323  0.74396  Biso   1.000  H
  H415     1.0000 0.33726  0.09688  0.67786  Biso   1.000  H
  H416     1.0000 0.42237  0.00620  0.69795  Biso   1.000  H
  H417     1.0000 0.42228  0.00620  0.69795  Biso   1.000  H
  O50      1.0000 0.63697  0.60482  0.93079  Biso   1.000  O
  C347     1.0000 0.76249  0.69418  0.86176  Biso   1.000  C
  C348     1.0000 0.76241  0.69418  0.86176  Biso   1.000  C
  C349     1.0000 0.95934  0.72735  0.89158  Biso   1.000  C
  H418     1.0000 0.99988  0.67697  0.97475  Biso   1.000  H
  H419     1.0000 0.56069  0.91157  0.87114  Biso   1.000  H
  H420     1.0000 0.51428  0.90382  0.80437  Biso   1.000  H
  H421     1.0000 0.56070  0.91157  0.87118  Biso   1.000  H
  H422     1.0000 0.51436  0.90382  0.80437  Biso   1.000  H
  H423     1.0000 0.48019  0.00008  0.84384  Biso   1.000  H
  H424     1.0000 0.48019  0.00008  0.84389  Biso   1.000  H
  C350     1.0000 0.54103  0.61714  0.89065  Biso   1.000  C
  C351     1.0000 0.54095  0.61714  0.89069  Biso   1.000  C
  C352     1.0000 0.54103  0.61714  0.89069  Biso   1.000  C
  H425     1.0000 0.70135  0.69906  0.83326  Biso   1.000  H
  H426     1.0000 0.70127  0.69906  0.83326  Biso   1.000  H
  O51      1.0000 0.06499  0.76688  0.87629  Biso   1.000  O
  H427     1.0000 0.55715  0.58452  0.85247  Biso   1.000  H
  H428     1.0000 0.52552  0.69092  0.88376  Biso   1.000  H
  C353     1.0000 0.43801  0.56638  0.91803  Biso   1.000  C
  C354     1.0000 0.43802  0.56638  0.91808  Biso   1.000  C
  C355     1.0000 0.15197  0.77850  0.92190  Biso   1.000  C
  C356     1.0000 0.15197  0.77850  0.92194  Biso   1.000  C
  H429     1.0000 0.42513  0.59699  0.95666  Biso   1.000  H
  H430     1.0000 0.45270  0.49283  0.92274  Biso   1.000  H
  H431     1.0000 0.36967  0.57653  0.89247  Biso   1.000  H
  H432     1.0000 0.45270  0.49283  0.92279  Biso   1.000  H
  H433     1.0000 0.36976  0.57653  0.89247  Biso   1.000  H
  H434     1.0000 0.17782  0.71038  0.93635  Biso   1.000  H
  H435     1.0000 0.12125  0.81741  0.95537  Biso   1.000  H
  C357     1.0000 0.25176  0.83616  0.89572  Biso   1.000  C
  H436     1.0000 0.17783  0.71038  0.93639  Biso   1.000  H
  H437     1.0000 0.12117  0.81741  0.95537  Biso   1.000  H
  H438     1.0000 0.31249  0.84600  0.92594  Biso   1.000  H
  H439     1.0000 0.22513  0.90320  0.88127  Biso   1.000  H
  H440     1.0000 0.28200  0.79664  0.86296  Biso   1.000  H
  H441     1.0000 0.31249  0.84600  0.92599  Biso   1.000  H
  C358     1.0000 0.84794  0.22150  0.07806  Biso   1.000  C
  O52      1.0000 0.93492  0.23312  0.12366  Biso   1.000  O
  H442     1.0000 0.82209  0.28962  0.06361  Biso   1.000  H
  H443     1.0000 0.87866  0.18259  0.04458  Biso   1.000  H
  C359     1.0000 0.74815  0.16384  0.10424  Biso   1.000  C
  H444     1.0000 0.87866  0.18259  0.04463  Biso   1.000  H
  C360     1.0000 0.74815  0.16384  0.10428  Biso   1.000  C
  H445     1.0000 0.87874  0.18259  0.04458  Biso   1.000  H
  C361     1.0000 0.04057  0.27265  0.10837  Biso   1.000  C
  H446     1.0000 0.68742  0.15400  0.07401  Biso   1.000  H
  H447     1.0000 0.77478  0.09680  0.11869  Biso   1.000  H
  H448     1.0000 0.71791  0.20336  0.13700  Biso   1.000  H
  H449     1.0000 0.77478  0.09680  0.11873  Biso   1.000  H
  C362     1.0000 0.12949  0.26637  0.15167  Biso   1.000  C
  C363     1.0000 0.12941  0.26637  0.15171  Biso   1.000  C
  C364     1.0000 0.12949  0.26637  0.15171  Biso   1.000  C
  C365     1.0000 0.06084  0.31946  0.05401  Biso   1.000  C
  C366     1.0000 0.06075  0.31946  0.05401  Biso   1.000  C
  C367     1.0000 0.10747  0.22320  0.21306  Biso   1.000  C
  C368     1.0000 0.10755  0.22320  0.21306  Biso   1.000  C
  C369     1.0000 0.23742  0.30582  0.13820  Biso   1.000  C
  C370     1.0000 0.23742  0.30582  0.13824  Biso   1.000  C
  C371     1.0000 0.23750  0.30582  0.13820  Biso   1.000  C
  C372     1.0000 0.16836  0.36116  0.04098  Biso   1.000  C
  H450     1.0000 0.00003  0.32303  0.02520  Biso   1.000  H
  C373     1.0000 0.16845  0.36116  0.04098  Biso   1.000  C
  C374     1.0000 0.07408  0.10959  0.21634  Biso   1.000  C
  H451     1.0000 0.17785  0.23359  0.23790  Biso   1.000  H
  H452     1.0000 0.04559  0.26412  0.23048  Biso   1.000  H
  H453     1.0000 0.04560  0.26412  0.23052  Biso   1.000  H
  H454     1.0000 0.17793  0.23359  0.23790  Biso   1.000  H
  C375     1.0000 0.25803  0.35271  0.08366  Biso   1.000  C
  H455     1.0000 0.29856  0.30094  0.16669  Biso   1.000  H
  C376     1.0000 0.25803  0.35271  0.08370  Biso   1.000  C
  H456     1.0000 0.29856  0.30094  0.16674  Biso   1.000  H
  C377     1.0000 0.18540  0.41975  0.98333  Biso   1.000  C
  C378     1.0000 0.18540  0.41975  0.98338  Biso   1.000  C
  C379     1.0000 0.96338  0.08014  0.23137  Biso   1.000  C
  C380     1.0000 0.15620  0.03240  0.20670  Biso   1.000  C
  C381     1.0000 0.15620  0.03240  0.20674  Biso   1.000  C
  O53      1.0000 0.36294  0.39518  0.06917  Biso   1.000  O
  O54      1.0000 0.36294  0.39518  0.06921  Biso   1.000  O
  C382     1.0000 0.14070  0.36418  0.92794  Biso   1.000  C
  H457     1.0000 0.26855  0.43331  0.97937  Biso   1.000  H
  H458     1.0000 0.14615  0.48686  0.98586  Biso   1.000  H
  C383     1.0000 0.14062  0.36418  0.92799  Biso   1.000  C
  H459     1.0000 0.26847  0.43331  0.97937  Biso   1.000  H
  H460     1.0000 0.14607  0.48686  0.98586  Biso   1.000  H
  C384     1.0000 0.14071  0.36418  0.92799  Biso   1.000  C
  C385     1.0000 0.93280  0.97613  0.23657  Biso   1.000  C
  H461     1.0000 0.90748  0.13136  0.23830  Biso   1.000  H
  C386     1.0000 0.12600  0.92808  0.21248  Biso   1.000  C
  O55      1.0000 0.26469  0.06650  0.19252  Biso   1.000  O
  C387     1.0000 0.45888  0.38286  0.10931  Biso   1.000  C
  C388     1.0000 0.45897  0.38286  0.10931  Biso   1.000  C
  C389     1.0000 0.02984  0.38146  0.90519  Biso   1.000  C
  C390     1.0000 0.21131  0.29482  0.89843  Biso   1.000  C
  C391     1.0000 0.21123  0.29482  0.89847  Biso   1.000  C
  C392     1.0000 0.21132  0.29482  0.89847  Biso   1.000  C
  C393     1.0000 0.01467  0.89925  0.22710  Biso   1.000  C
  C394     1.0000 0.01468  0.89925  0.22715  Biso   1.000  C
  O56      1.0000 0.82440  0.94172  0.25079  Biso   1.000  O
  H462     1.0000 0.18221  0.87670  0.20630  Biso   1.000  H
  C395     1.0000 0.35299  0.99186  0.18452  Biso   1.000  C
  H463     1.0000 0.44276  0.41548  0.14749  Biso   1.000  H
  H464     1.0000 0.47439  0.30908  0.11620  Biso   1.000  H
  C396     1.0000 0.56190  0.43362  0.08192  Biso   1.000  C
  H465     1.0000 0.44276  0.41548  0.14753  Biso   1.000  H
  C397     1.0000 0.98782  0.33085  0.85407  Biso   1.000  C
  H466     1.0000 0.98144  0.42843  0.92457  Biso   1.000  H
  C398     1.0000 0.17124  0.24746  0.84629  Biso   1.000  C
  O57      1.0000 0.31934  0.27924  0.92439  Biso   1.000  O
  O58      1.0000 0.31942  0.27924  0.92439  Biso   1.000  O
  C399     1.0000 0.98306  0.78571  0.23399  Biso   1.000  C
  C400     1.0000 0.98306  0.78571  0.23395  Biso   1.000  C
  C401     1.0000 0.98315  0.78571  0.23395  Biso   1.000  C
  C402     1.0000 0.74120  0.01209  0.27146  Biso   1.000  C
  C403     1.0000 0.74120  0.01209  0.27151  Biso   1.000  C
  H467     1.0000 0.37040  0.95544  0.22190  Biso   1.000  H
  H468     1.0000 0.32803  0.94087  0.15451  Biso   1.000  H
  H469     1.0000 0.32794  0.94087  0.15451  Biso   1.000  H
  C404     1.0000 0.45879  0.04921  0.16447  Biso   1.000  C
  H470     1.0000 0.57478  0.40301  0.04330  Biso   1.000  H
  H471     1.0000 0.54721  0.50717  0.07721  Biso   1.000  H
  H472     1.0000 0.63024  0.42347  0.10748  Biso   1.000  H
  H473     1.0000 0.63016  0.42347  0.10753  Biso   1.000  H
  H474     1.0000 0.63024  0.42347  0.10753  Biso   1.000  H
  C405     1.0000 0.05968  0.26451  0.82357  Biso   1.000  C
  O59      1.0000 0.87926  0.34511  0.82917  Biso   1.000  O
  H475     1.0000 0.22096  0.20290  0.82597  Biso   1.000  H
  H476     1.0000 0.22088  0.20290  0.82597  Biso   1.000  H
  C406     1.0000 0.39159  0.20073  0.90198  Biso   1.000  C
  C407     1.0000 0.39159  0.20073  0.90203  Biso   1.000  C
  C408     1.0000 0.94023  0.73549  0.17638  Biso   1.000  C
  C409     1.0000 0.94015  0.73549  0.17638  Biso   1.000  C
  H477     1.0000 0.92260  0.77959  0.26342  Biso   1.000  H
  H478     1.0000 0.05148  0.74789  0.24919  Biso   1.000  H
  C410     1.0000 0.63936  0.94831  0.28947  Biso   1.000  C
  C411     1.0000 0.63927  0.94831  0.28951  Biso   1.000  C
  C412     1.0000 0.63936  0.94831  0.28951  Biso   1.000  C
  H479     1.0000 0.77299  0.05138  0.30551  Biso   1.000  H
  H480     1.0000 0.71789  0.06099  0.23999  Biso   1.000  H
  H481     1.0000 0.71789  0.06099  0.24004  Biso   1.000  H
  H482     1.0000 0.51972  0.99992  0.15611  Biso   1.000  H
  H483     1.0000 0.43922  0.08843  0.12882  Biso   1.000  H
  H484     1.0000 0.48563  0.09618  0.19559  Biso   1.000  H
  H485     1.0000 0.48555  0.09618  0.19563  Biso   1.000  H
  C413     1.0000 0.01685  0.21429  0.76601  Biso   1.000  C
  C414     1.0000 0.01676  0.21429  0.76601  Biso   1.000  C
  C415     1.0000 0.80036  0.41037  0.85500  Biso   1.000  C
  C416     1.0000 0.80027  0.41037  0.85500  Biso   1.000  C
  C417     1.0000 0.78599  0.37472  0.88318  Biso   1.000  C
  H486     1.0000 0.34816  0.13578  0.89696  Biso   1.000  H
  H487     1.0000 0.42139  0.22111  0.86336  Biso   1.000  H
  C418     1.0000 0.49095  0.18678  0.94724  Biso   1.000  C
  H488     1.0000 0.34807  0.13578  0.89696  Biso   1.000  H
  H489     1.0000 0.42148  0.22111  0.86336  Biso   1.000  H
  C419     1.0000 0.82867  0.75254  0.15367  Biso   1.000  C
  C420     1.0000 0.82868  0.75254  0.15371  Biso   1.000  C
  C421     1.0000 0.01209  0.66915  0.14589  Biso   1.000  C
  C422     1.0000 0.01209  0.66915  0.14593  Biso   1.000  C
  H490     1.0000 0.61176  0.90677  0.25600  Biso   1.000  H
  H491     1.0000 0.66265  0.90312  0.32209  Biso   1.000  H
  H492     1.0000 0.57754  0.99380  0.30200  Biso   1.000  H
  H493     1.0000 0.57763  0.99380  0.30200  Biso   1.000  H
  C423     1.0000 0.98524  0.10075  0.77285  Biso   1.000  C
  H494     1.0000 0.94843  0.25211  0.75076  Biso   1.000  H
  H495     1.0000 0.07731  0.22041  0.73654  Biso   1.000  H
  H496     1.0000 0.07731  0.22041  0.73658  Biso   1.000  H
  H497     1.0000 0.83933  0.47222  0.87114  Biso   1.000  H
  H498     1.0000 0.74056  0.43230  0.82575  Biso   1.000  H
  C424     1.0000 0.74739  0.34837  0.90385  Biso   1.000  C
  H499     1.0000 0.83933  0.47222  0.87118  Biso   1.000  H
  H500     1.0000 0.74048  0.43230  0.82580  Biso   1.000  H
  H501     1.0000 0.74056  0.43230  0.82580  Biso   1.000  H
  C425     1.0000 0.66290  0.36216  0.86078  Biso   1.000  C
  H502     1.0000 0.79882  0.44641  0.89616  Biso   1.000  H
  H503     1.0000 0.80704  0.33078  0.93355  Biso   1.000  H
  H504     1.0000 0.80704  0.33078  0.93359  Biso   1.000  H
  H505     1.0000 0.80044  0.32923  0.91745  Biso   1.000  H
  H506     1.0000 0.54333  0.13369  0.93355  Biso   1.000  H
  H507     1.0000 0.53271  0.25172  0.95195  Biso   1.000  H
  H508     1.0000 0.46023  0.16616  0.98506  Biso   1.000  H
  H509     1.0000 0.54333  0.13369  0.93359  Biso   1.000  H
  H510     1.0000 0.53271  0.25172  0.95199  Biso   1.000  H
  C426     1.0000 0.78860  0.70518  0.10153  Biso   1.000  C
  C427     1.0000 0.78868  0.70518  0.10153  Biso   1.000  C
  H511     1.0000 0.77895  0.79710  0.17403  Biso   1.000  H
  H512     1.0000 0.77895  0.79710  0.17398  Biso   1.000  H
  H513     1.0000 0.77903  0.79710  0.17398  Biso   1.000  H
  C428     1.0000 0.97007  0.61854  0.09477  Biso   1.000  C
  O60      1.0000 0.12065  0.65489  0.17078  Biso   1.000  O
  O61      1.0000 0.12065  0.65489  0.17083  Biso   1.000  O
  C429     1.0000 0.87391  0.07192  0.78748  Biso   1.000  C
  C430     1.0000 0.06711  0.02387  0.76339  Biso   1.000  C
  C431     1.0000 0.06711  0.02387  0.76343  Biso   1.000  C
  H514     1.0000 0.71378  0.28528  0.88745  Biso   1.000  H
  H515     1.0000 0.68739  0.38898  0.92217  Biso   1.000  H
  H516     1.0000 0.71379  0.28528  0.88749  Biso   1.000  H
  H517     1.0000 0.64898  0.40680  0.82660  Biso   1.000  H
  H518     1.0000 0.64955  0.29063  0.84935  Biso   1.000  H
  H519     1.0000 0.61053  0.38100  0.89198  Biso   1.000  H
  O62      1.0000 0.68049  0.72076  0.07561  Biso   1.000  O
  C432     1.0000 0.85921  0.63582  0.07201  Biso   1.000  C
  O63      1.0000 0.68057  0.72076  0.07557  Biso   1.000  O
  C433     1.0000 0.85929  0.63582  0.07201  Biso   1.000  C
  H520     1.0000 0.01847  0.57157  0.07539  Biso   1.000  H
  H521     1.0000 0.01847  0.57157  0.07543  Biso   1.000  H
  C434     1.0000 0.19955  0.58963  0.14496  Biso   1.000  C
  C435     1.0000 0.19964  0.58963  0.14496  Biso   1.000  C
  C436     1.0000 0.21393  0.62528  0.11682  Biso   1.000  C
  C437     1.0000 0.84371  0.96760  0.79326  Biso   1.000  C
  H522     1.0000 0.81770  0.12330  0.79366  Biso   1.000  H
  C438     1.0000 0.03653  0.91986  0.76859  Biso   1.000  C
  O64      1.0000 0.17551  0.05828  0.74916  Biso   1.000  O
  C439     1.0000 0.60833  0.79927  0.09797  Biso   1.000  C
  C440     1.0000 0.60824  0.79927  0.09797  Biso   1.000  C
  C441     1.0000 0.81451  0.58025  0.01662  Biso   1.000  C
  H523     1.0000 0.16058  0.52778  0.12882  Biso   1.000  H
  H524     1.0000 0.25935  0.56770  0.17420  Biso   1.000  H
  C442     1.0000 0.25252  0.65163  0.09610  Biso   1.000  C
  H525     1.0000 0.25944  0.56770  0.17420  Biso   1.000  H
  C443     1.0000 0.33701  0.63784  0.13918  Biso   1.000  C
  H526     1.0000 0.20109  0.55359  0.10379  Biso   1.000  H
  H527     1.0000 0.19287  0.66922  0.06641  Biso   1.000  H
  H528     1.0000 0.19947  0.67077  0.08250  Biso   1.000  H
  C444     1.0000 0.92583  0.89041  0.78361  Biso   1.000  C
  C445     1.0000 0.92583  0.89041  0.78366  Biso   1.000  C
  O65      1.0000 0.73522  0.93350  0.80744  Biso   1.000  O
  O66      1.0000 0.73522  0.93350  0.80748  Biso   1.000  O
  H529     1.0000 0.09243  0.86864  0.76165  Biso   1.000  H
  C446     1.0000 0.25871  0.98791  0.72849  Biso   1.000  C
  H530     1.0000 0.57852  0.77889  0.13660  Biso   1.000  H
  C447     1.0000 0.50896  0.81322  0.05272  Biso   1.000  C
  H531     1.0000 0.65175  0.86422  0.10304  Biso   1.000  H
  C448     1.0000 0.50896  0.81322  0.05276  Biso   1.000  C
  H532     1.0000 0.65175  0.86422  0.10299  Biso   1.000  H
  H533     1.0000 0.57844  0.77889  0.13660  Biso   1.000  H
  H534     1.0000 0.65184  0.86422  0.10299  Biso   1.000  H
  H535     1.0000 0.73136  0.56669  0.02063  Biso   1.000  H
  H536     1.0000 0.85376  0.51314  0.01414  Biso   1.000  H
  C449     1.0000 0.83155  0.63884  0.95897  Biso   1.000  C
  C450     1.0000 0.83147  0.63884  0.95902  Biso   1.000  C
  C451     1.0000 0.83155  0.63884  0.95902  Biso   1.000  C
  H537     1.0000 0.73136  0.56669  0.02058  Biso   1.000  H
  H538     1.0000 0.85376  0.51314  0.01409  Biso   1.000  H
  H539     1.0000 0.73144  0.56669  0.02058  Biso   1.000  H
  H540     1.0000 0.85384  0.51314  0.01409  Biso   1.000  H
  H541     1.0000 0.28613  0.71472  0.11251  Biso   1.000  H
  H542     1.0000 0.31252  0.61102  0.07779  Biso   1.000  H
  H543     1.0000 0.31252  0.61102  0.07783  Biso   1.000  H
  H544     1.0000 0.35085  0.59320  0.17340  Biso   1.000  H
  H545     1.0000 0.35036  0.70937  0.15060  Biso   1.000  H
  H546     1.0000 0.38938  0.61900  0.10802  Biso   1.000  H
  C452     1.0000 0.89244  0.77680  0.78690  Biso   1.000  C
  C453     1.0000 0.89236  0.77680  0.78694  Biso   1.000  C
  C454     1.0000 0.89245  0.77680  0.78694  Biso   1.000  C
  C455     1.0000 0.64692  0.00814  0.81544  Biso   1.000  C
  C456     1.0000 0.64693  0.00814  0.81548  Biso   1.000  C
  H547     1.0000 0.22692  0.94862  0.69444  Biso   1.000  H
  H548     1.0000 0.28202  0.93901  0.75996  Biso   1.000  H
  H549     1.0000 0.22692  0.94862  0.69449  Biso   1.000  H
  C457     1.0000 0.36055  0.05169  0.71049  Biso   1.000  C
  C458     1.0000 0.36064  0.05169  0.71049  Biso   1.000  C
  H550     1.0000 0.45658  0.86631  0.06641  Biso   1.000  H
  H551     1.0000 0.46720  0.74828  0.04801  Biso   1.000  H
  H552     1.0000 0.53968  0.83384  0.01489  Biso   1.000  H
  H553     1.0000 0.53968  0.83384  0.01494  Biso   1.000  H
  C459     1.0000 0.74188  0.64729  0.91630  Biso   1.000  C
  C460     1.0000 0.93907  0.68054  0.94595  Biso   1.000  C
  C461     1.0000 0.93916  0.68054  0.94595  Biso   1.000  C
  C462     1.0000 0.87042  0.73363  0.84829  Biso   1.000  C
  C463     1.0000 0.87051  0.73363  0.84829  Biso   1.000  C
  H554     1.0000 0.82206  0.76641  0.76205  Biso   1.000  H
  H555     1.0000 0.95432  0.73588  0.76948  Biso   1.000  H
  H556     1.0000 0.82198  0.76641  0.76205  Biso   1.000  H
  C464     1.0000 0.54112  0.95079  0.83549  Biso   1.000  C
  C465     1.0000 0.54113  0.95079  0.83553  Biso   1.000  C
  H557     1.0000 0.62951  0.04456  0.77805  Biso   1.000  H
  H558     1.0000 0.67188  0.05913  0.84544  Biso   1.000  H
  H559     1.0000 0.67188  0.05913  0.84549  Biso   1.000  H
  H560     1.0000 0.67197  0.05913  0.84544  Biso   1.000  H
  H561     1.0000 0.38815  0.09323  0.74396  Biso   1.000  H
  H562     1.0000 0.33726  0.09688  0.67786  Biso   1.000  H
  H563     1.0000 0.42237  0.00620  0.69795  Biso   1.000  H
  H564     1.0000 0.42228  0.00620  0.69795  Biso   1.000  H
  O67      1.0000 0.63697  0.60482  0.93079  Biso   1.000  O
  C466     1.0000 0.76249  0.69418  0.86176  Biso   1.000  C
  C467     1.0000 0.76241  0.69418  0.86176  Biso   1.000  C
  C468     1.0000 0.95934  0.72735  0.89158  Biso   1.000  C
  H565     1.0000 0.99988  0.67697  0.97475  Biso   1.000  H
  H566     1.0000 0.56069  0.91157  0.87114  Biso   1.000  H
  H567     1.0000 0.51428  0.90382  0.80437  Biso   1.000  H
  H568     1.0000 0.56070  0.91157  0.87118  Biso   1.000  H
  H569     1.0000 0.51436  0.90382  0.80437  Biso   1.000  H
  H570     1.0000 0.48019  0.00008  0.84384  Biso   1.000  H
  H571     1.0000 0.48019  0.00008  0.84389  Biso   1.000  H
  C469     1.0000 0.54103  0.61714  0.89065  Biso   1.000  C
  C470     1.0000 0.54095  0.61714  0.89069  Biso   1.000  C
  C471     1.0000 0.54103  0.61714  0.89069  Biso   1.000  C
  H572     1.0000 0.70135  0.69906  0.83326  Biso   1.000  H
  H573     1.0000 0.70127  0.69906  0.83326  Biso   1.000  H
  O68      1.0000 0.06499  0.76688  0.87629  Biso   1.000  O
  H574     1.0000 0.55715  0.58452  0.85247  Biso   1.000  H
  H575     1.0000 0.52552  0.69092  0.88376  Biso   1.000  H
  C472     1.0000 0.43801  0.56638  0.91803  Biso   1.000  C
  C473     1.0000 0.43802  0.56638  0.91808  Biso   1.000  C
  C474     1.0000 0.15197  0.77850  0.92190  Biso   1.000  C
  C475     1.0000 0.15197  0.77850  0.92194  Biso   1.000  C
  H576     1.0000 0.42513  0.59699  0.95666  Biso   1.000  H
  H577     1.0000 0.45270  0.49283  0.92274  Biso   1.000  H
  H578     1.0000 0.36967  0.57653  0.89247  Biso   1.000  H
  H579     1.0000 0.45270  0.49283  0.92279  Biso   1.000  H
  H580     1.0000 0.36976  0.57653  0.89247  Biso   1.000  H
  H581     1.0000 0.17782  0.71038  0.93635  Biso   1.000  H
  H582     1.0000 0.12125  0.81741  0.95537  Biso   1.000  H
  C476     1.0000 0.25176  0.83616  0.89572  Biso   1.000  C
  H583     1.0000 0.17783  0.71038  0.93639  Biso   1.000  H
  H584     1.0000 0.12117  0.81741  0.95537  Biso   1.000  H
  H585     1.0000 0.31249  0.84600  0.92594  Biso   1.000  H
  H586     1.0000 0.22513  0.90320  0.88127  Biso   1.000  H
  H587     1.0000 0.28200  0.79664  0.86296  Biso   1.000  H
  H588     1.0000 0.31249  0.84600  0.92599  Biso   1.000  H
  C477     1.0000 0.84794  0.22150  0.07806  Biso   1.000  C
  O69      1.0000 0.93492  0.23312  0.12366  Biso   1.000  O
  H589     1.0000 0.82209  0.28962  0.06361  Biso   1.000  H
  H590     1.0000 0.87866  0.18259  0.04458  Biso   1.000  H
  C478     1.0000 0.74815  0.16384  0.10424  Biso   1.000  C
  H591     1.0000 0.87866  0.18259  0.04463  Biso   1.000  H
  C479     1.0000 0.74815  0.16384  0.10428  Biso   1.000  C
  H592     1.0000 0.87874  0.18259  0.04458  Biso   1.000  H
  C480     1.0000 0.04057  0.27265  0.10837  Biso   1.000  C
  H593     1.0000 0.68742  0.15400  0.07401  Biso   1.000  H
  H594     1.0000 0.77478  0.09680  0.11869  Biso   1.000  H
  H595     1.0000 0.71791  0.20336  0.13700  Biso   1.000  H
  H596     1.0000 0.77478  0.09680  0.11873  Biso   1.000  H
  C481     1.0000 0.12949  0.26637  0.15167  Biso   1.000  C
  C482     1.0000 0.12941  0.26637  0.15171  Biso   1.000  C
  C483     1.0000 0.12949  0.26637  0.15171  Biso   1.000  C
  C484     1.0000 0.06084  0.31946  0.05401  Biso   1.000  C
  C485     1.0000 0.06075  0.31946  0.05401  Biso   1.000  C
  C486     1.0000 0.10747  0.22320  0.21306  Biso   1.000  C
  C487     1.0000 0.10755  0.22320  0.21306  Biso   1.000  C
  C488     1.0000 0.23742  0.30582  0.13820  Biso   1.000  C
  C489     1.0000 0.23742  0.30582  0.13824  Biso   1.000  C
  C490     1.0000 0.23750  0.30582  0.13820  Biso   1.000  C
  C491     1.0000 0.16836  0.36116  0.04098  Biso   1.000  C
  H597     1.0000 0.00003  0.32303  0.02520  Biso   1.000  H
  C492     1.0000 0.16845  0.36116  0.04098  Biso   1.000  C
  C493     1.0000 0.07408  0.10959  0.21634  Biso   1.000  C
  H598     1.0000 0.17785  0.23359  0.23790  Biso   1.000  H
  H599     1.0000 0.04559  0.26412  0.23048  Biso   1.000  H
  H600     1.0000 0.04560  0.26412  0.23052  Biso   1.000  H
  H601     1.0000 0.17793  0.23359  0.23790  Biso   1.000  H
  C494     1.0000 0.25803  0.35271  0.08366  Biso   1.000  C
  H602     1.0000 0.29856  0.30094  0.16669  Biso   1.000  H
  C495     1.0000 0.25803  0.35271  0.08370  Biso   1.000  C
  H603     1.0000 0.29856  0.30094  0.16674  Biso   1.000  H
  C496     1.0000 0.18540  0.41975  0.98333  Biso   1.000  C
  C497     1.0000 0.18540  0.41975  0.98338  Biso   1.000  C
  C498     1.0000 0.96338  0.08014  0.23137  Biso   1.000  C
  C499     1.0000 0.15620  0.03240  0.20670  Biso   1.000  C
  C500     1.0000 0.15620  0.03240  0.20674  Biso   1.000  C
  O70      1.0000 0.36294  0.39518  0.06917  Biso   1.000  O
  O71      1.0000 0.36294  0.39518  0.06921  Biso   1.000  O
  C501     1.0000 0.14070  0.36418  0.92794  Biso   1.000  C
  H604     1.0000 0.26855  0.43331  0.97937  Biso   1.000  H
  H605     1.0000 0.14615  0.48686  0.98586  Biso   1.000  H
  C502     1.0000 0.14062  0.36418  0.92799  Biso   1.000  C
  H606     1.0000 0.26847  0.43331  0.97937  Biso   1.000  H
  H607     1.0000 0.14607  0.48686  0.98586  Biso   1.000  H
  C503     1.0000 0.14071  0.36418  0.92799  Biso   1.000  C
  C504     1.0000 0.93280  0.97613  0.23657  Biso   1.000  C
  H608     1.0000 0.90748  0.13136  0.23830  Biso   1.000  H
  C505     1.0000 0.12600  0.92808  0.21248  Biso   1.000  C
  O72      1.0000 0.26469  0.06650  0.19252  Biso   1.000  O
  C506     1.0000 0.45888  0.38286  0.10931  Biso   1.000  C
  C507     1.0000 0.45897  0.38286  0.10931  Biso   1.000  C
  C508     1.0000 0.02984  0.38146  0.90519  Biso   1.000  C
  C509     1.0000 0.21131  0.29482  0.89843  Biso   1.000  C
  C510     1.0000 0.21123  0.29482  0.89847  Biso   1.000  C
  C511     1.0000 0.21132  0.29482  0.89847  Biso   1.000  C
  C512     1.0000 0.01467  0.89925  0.22710  Biso   1.000  C
  C513     1.0000 0.01468  0.89925  0.22715  Biso   1.000  C
  O73      1.0000 0.82440  0.94172  0.25079  Biso   1.000  O
  H609     1.0000 0.18221  0.87670  0.20630  Biso   1.000  H
  C514     1.0000 0.35299  0.99186  0.18452  Biso   1.000  C
  H610     1.0000 0.44276  0.41548  0.14749  Biso   1.000  H
  H611     1.0000 0.47439  0.30908  0.11620  Biso   1.000  H
  C515     1.0000 0.56190  0.43362  0.08192  Biso   1.000  C
  H612     1.0000 0.44276  0.41548  0.14753  Biso   1.000  H
  C516     1.0000 0.98782  0.33085  0.85407  Biso   1.000  C
  H613     1.0000 0.98144  0.42843  0.92457  Biso   1.000  H
  C517     1.0000 0.17124  0.24746  0.84629  Biso   1.000  C
  O74      1.0000 0.31934  0.27924  0.92439  Biso   1.000  O
  O75      1.0000 0.31942  0.27924  0.92439  Biso   1.000  O
  C518     1.0000 0.98306  0.78571  0.23395  Biso   1.000  C
  C519     1.0000 0.98306  0.78571  0.23399  Biso   1.000  C
  C520     1.0000 0.98315  0.78571  0.23395  Biso   1.000  C
  C521     1.0000 0.74120  0.01209  0.27146  Biso   1.000  C
  C522     1.0000 0.74120  0.01209  0.27151  Biso   1.000  C
  H614     1.0000 0.37040  0.95544  0.22190  Biso   1.000  H
  H615     1.0000 0.32803  0.94087  0.15451  Biso   1.000  H
  H616     1.0000 0.32794  0.94087  0.15451  Biso   1.000  H
  C523     1.0000 0.45879  0.04921  0.16447  Biso   1.000  C
  H617     1.0000 0.57478  0.40301  0.04330  Biso   1.000  H
  H618     1.0000 0.54721  0.50717  0.07721  Biso   1.000  H
  H619     1.0000 0.63024  0.42347  0.10748  Biso   1.000  H
  H620     1.0000 0.63016  0.42347  0.10753  Biso   1.000  H
  H621     1.0000 0.63024  0.42347  0.10753  Biso   1.000  H
  C524     1.0000 0.05968  0.26451  0.82357  Biso   1.000  C
  O76      1.0000 0.87926  0.34511  0.82917  Biso   1.000  O
  H622     1.0000 0.22096  0.20290  0.82597  Biso   1.000  H
  H623     1.0000 0.22088  0.20290  0.82597  Biso   1.000  H
  C525     1.0000 0.39159  0.20073  0.90198  Biso   1.000  C
  C526     1.0000 0.39159  0.20073  0.90203  Biso   1.000  C
  C527     1.0000 0.94023  0.73549  0.17638  Biso   1.000  C
  C528     1.0000 0.94015  0.73549  0.17638  Biso   1.000  C
  H624     1.0000 0.92260  0.77959  0.26342  Biso   1.000  H
  H625     1.0000 0.05148  0.74789  0.24919  Biso   1.000  H
  C529     1.0000 0.63936  0.94831  0.28947  Biso   1.000  C
  C530     1.0000 0.63927  0.94831  0.28951  Biso   1.000  C
  C531     1.0000 0.63936  0.94831  0.28951  Biso   1.000  C
  H626     1.0000 0.77299  0.05138  0.30551  Biso   1.000  H
  H627     1.0000 0.71789  0.06099  0.23999  Biso   1.000  H
  H628     1.0000 0.71789  0.06099  0.24004  Biso   1.000  H
  H629     1.0000 0.51972  0.99992  0.15611  Biso   1.000  H
  H630     1.0000 0.43922  0.08843  0.12882  Biso   1.000  H
  H631     1.0000 0.48563  0.09618  0.19559  Biso   1.000  H
  H632     1.0000 0.48555  0.09618  0.19563  Biso   1.000  H
  C532     1.0000 0.01685  0.21429  0.76601  Biso   1.000  C
  C533     1.0000 0.01676  0.21429  0.76601  Biso   1.000  C
  C534     1.0000 0.80036  0.41037  0.85500  Biso   1.000  C
  C535     1.0000 0.80027  0.41037  0.85500  Biso   1.000  C
  C536     1.0000 0.78599  0.37472  0.88318  Biso   1.000  C
  H633     1.0000 0.34816  0.13578  0.89696  Biso   1.000  H
  H634     1.0000 0.42139  0.22111  0.86336  Biso   1.000  H
  C537     1.0000 0.49095  0.18678  0.94724  Biso   1.000  C
  H635     1.0000 0.34807  0.13578  0.89696  Biso   1.000  H
  H636     1.0000 0.42148  0.22111  0.86336  Biso   1.000  H
  C538     1.0000 0.82867  0.75254  0.15367  Biso   1.000  C
  C539     1.0000 0.82868  0.75254  0.15371  Biso   1.000  C
  C540     1.0000 0.01209  0.66915  0.14589  Biso   1.000  C
  C541     1.0000 0.01209  0.66915  0.14593  Biso   1.000  C
  H637     1.0000 0.61176  0.90677  0.25600  Biso   1.000  H
  H638     1.0000 0.66265  0.90312  0.32209  Biso   1.000  H
  H639     1.0000 0.57754  0.99380  0.30200  Biso   1.000  H
  H640     1.0000 0.57763  0.99380  0.30200  Biso   1.000  H
  C542     1.0000 0.98524  0.10075  0.77285  Biso   1.000  C
  H641     1.0000 0.94843  0.25211  0.75076  Biso   1.000  H
  H642     1.0000 0.07731  0.22041  0.73654  Biso   1.000  H
  H643     1.0000 0.07731  0.22041  0.73658  Biso   1.000  H
  H644     1.0000 0.83933  0.47222  0.87114  Biso   1.000  H
  H645     1.0000 0.74056  0.43230  0.82575  Biso   1.000  H
  C543     1.0000 0.74739  0.34837  0.90385  Biso   1.000  C
  H646     1.0000 0.83933  0.47222  0.87118  Biso   1.000  H
  H647     1.0000 0.74048  0.43230  0.82580  Biso   1.000  H
  H648     1.0000 0.74056  0.43230  0.82580  Biso   1.000  H
  C544     1.0000 0.66290  0.36216  0.86078  Biso   1.000  C
  H649     1.0000 0.79882  0.44641  0.89616  Biso   1.000  H
  H650     1.0000 0.80704  0.33078  0.93355  Biso   1.000  H
  H651     1.0000 0.80704  0.33078  0.93359  Biso   1.000  H
  H652     1.0000 0.80044  0.32923  0.91745  Biso   1.000  H
  H653     1.0000 0.54333  0.13369  0.93355  Biso   1.000  H
  H654     1.0000 0.53271  0.25172  0.95195  Biso   1.000  H
  H655     1.0000 0.46023  0.16616  0.98506  Biso   1.000  H
  H656     1.0000 0.54333  0.13369  0.93359  Biso   1.000  H
  H657     1.0000 0.53271  0.25172  0.95199  Biso   1.000  H
  C545     1.0000 0.78860  0.70518  0.10153  Biso   1.000  C
  C546     1.0000 0.78868  0.70518  0.10153  Biso   1.000  C
  H658     1.0000 0.77895  0.79710  0.17398  Biso   1.000  H
  H659     1.0000 0.77895  0.79710  0.17403  Biso   1.000  H
  H660     1.0000 0.77903  0.79710  0.17398  Biso   1.000  H
  C547     1.0000 0.97007  0.61854  0.09477  Biso   1.000  C
  O77      1.0000 0.12065  0.65489  0.17078  Biso   1.000  O
  O78      1.0000 0.12065  0.65489  0.17083  Biso   1.000  O
  C548     1.0000 0.87391  0.07192  0.78748  Biso   1.000  C
  C549     1.0000 0.06711  0.02387  0.76339  Biso   1.000  C
  C550     1.0000 0.06711  0.02387  0.76343  Biso   1.000  C
  H661     1.0000 0.71378  0.28528  0.88745  Biso   1.000  H
  H662     1.0000 0.68739  0.38898  0.92217  Biso   1.000  H
  H663     1.0000 0.71379  0.28528  0.88749  Biso   1.000  H
  H664     1.0000 0.64898  0.40680  0.82660  Biso   1.000  H
  H665     1.0000 0.64955  0.29063  0.84935  Biso   1.000  H
  H666     1.0000 0.61053  0.38100  0.89198  Biso   1.000  H
  O79      1.0000 0.68057  0.72076  0.07557  Biso   1.000  O
  O80      1.0000 0.68049  0.72076  0.07561  Biso   1.000  O
  C551     1.0000 0.85921  0.63582  0.07201  Biso   1.000  C
  C552     1.0000 0.85929  0.63582  0.07201  Biso   1.000  C
  H667     1.0000 0.01847  0.57157  0.07539  Biso   1.000  H
  H668     1.0000 0.01847  0.57157  0.07543  Biso   1.000  H
  C553     1.0000 0.19955  0.58963  0.14496  Biso   1.000  C
  C554     1.0000 0.19964  0.58963  0.14496  Biso   1.000  C
  C555     1.0000 0.21393  0.62528  0.11682  Biso   1.000  C
  C556     1.0000 0.84371  0.96760  0.79326  Biso   1.000  C
  H669     1.0000 0.81770  0.12330  0.79366  Biso   1.000  H
  C557     1.0000 0.03653  0.91986  0.76859  Biso   1.000  C
  O81      1.0000 0.17551  0.05828  0.74916  Biso   1.000  O
  C558     1.0000 0.60833  0.79927  0.09797  Biso   1.000  C
  C559     1.0000 0.60824  0.79927  0.09797  Biso   1.000  C
  C560     1.0000 0.81451  0.58025  0.01662  Biso   1.000  C
  H670     1.0000 0.16058  0.52778  0.12882  Biso   1.000  H
  H671     1.0000 0.25935  0.56770  0.17420  Biso   1.000  H
  C561     1.0000 0.25252  0.65163  0.09610  Biso   1.000  C
  H672     1.0000 0.25944  0.56770  0.17420  Biso   1.000  H
  C562     1.0000 0.33701  0.63784  0.13918  Biso   1.000  C
  H673     1.0000 0.20109  0.55359  0.10379  Biso   1.000  H
  H674     1.0000 0.19287  0.66922  0.06641  Biso   1.000  H
  H675     1.0000 0.19947  0.67077  0.08250  Biso   1.000  H
  C563     1.0000 0.92583  0.89041  0.78361  Biso   1.000  C
  C564     1.0000 0.92583  0.89041  0.78366  Biso   1.000  C
  O82      1.0000 0.73522  0.93350  0.80744  Biso   1.000  O
  O83      1.0000 0.73522  0.93350  0.80748  Biso   1.000  O
  H676     1.0000 0.09243  0.86864  0.76165  Biso   1.000  H
  C565     1.0000 0.25871  0.98791  0.72849  Biso   1.000  C
  H677     1.0000 0.57852  0.77889  0.13660  Biso   1.000  H
  H678     1.0000 0.65175  0.86422  0.10299  Biso   1.000  H
  C566     1.0000 0.50896  0.81322  0.05272  Biso   1.000  C
  H679     1.0000 0.65175  0.86422  0.10304  Biso   1.000  H
  H680     1.0000 0.57844  0.77889  0.13660  Biso   1.000  H
  C567     1.0000 0.50896  0.81322  0.05276  Biso   1.000  C
  H681     1.0000 0.65184  0.86422  0.10299  Biso   1.000  H
  C568     1.0000 0.83155  0.63884  0.95897  Biso   1.000  C
  C569     1.0000 0.83147  0.63884  0.95902  Biso   1.000  C
  C570     1.0000 0.83155  0.63884  0.95902  Biso   1.000  C
  H682     1.0000 0.73136  0.56669  0.02058  Biso   1.000  H
  H683     1.0000 0.85376  0.51314  0.01409  Biso   1.000  H
  H684     1.0000 0.73136  0.56669  0.02063  Biso   1.000  H
  H685     1.0000 0.85376  0.51314  0.01414  Biso   1.000  H
  H686     1.0000 0.73144  0.56669  0.02058  Biso   1.000  H
  H687     1.0000 0.85384  0.51314  0.01409  Biso   1.000  H
  H688     1.0000 0.28613  0.71472  0.11251  Biso   1.000  H
  H689     1.0000 0.31252  0.61102  0.07779  Biso   1.000  H
  H690     1.0000 0.31252  0.61102  0.07783  Biso   1.000  H
  H691     1.0000 0.35085  0.59320  0.17340  Biso   1.000  H
  H692     1.0000 0.35036  0.70937  0.15060  Biso   1.000  H
  H693     1.0000 0.38938  0.61900  0.10802  Biso   1.000  H
  C571     1.0000 0.89244  0.77680  0.78690  Biso   1.000  C
  C572     1.0000 0.89236  0.77680  0.78694  Biso   1.000  C
  C573     1.0000 0.89245  0.77680  0.78694  Biso   1.000  C
  C574     1.0000 0.64692  0.00814  0.81544  Biso   1.000  C
  C575     1.0000 0.64693  0.00814  0.81548  Biso   1.000  C
  H694     1.0000 0.22692  0.94862  0.69444  Biso   1.000  H
  H695     1.0000 0.28202  0.93901  0.75996  Biso   1.000  H
  H696     1.0000 0.22692  0.94862  0.69449  Biso   1.000  H
  C576     1.0000 0.36055  0.05169  0.71049  Biso   1.000  C
  C577     1.0000 0.36064  0.05169  0.71049  Biso   1.000  C
  H697     1.0000 0.45658  0.86631  0.06641  Biso   1.000  H
  H698     1.0000 0.46720  0.74828  0.04801  Biso   1.000  H
  H699     1.0000 0.53968  0.83384  0.01489  Biso   1.000  H
  H700     1.0000 0.53968  0.83384  0.01494  Biso   1.000  H
  C578     1.0000 0.74188  0.64729  0.91630  Biso   1.000  C
  C579     1.0000 0.93907  0.68054  0.94595  Biso   1.000  C
  C580     1.0000 0.93916  0.68054  0.94595  Biso   1.000  C
  C581     1.0000 0.87042  0.73363  0.84829  Biso   1.000  C
  C582     1.0000 0.87051  0.73363  0.84829  Biso   1.000  C
  H701     1.0000 0.82206  0.76641  0.76205  Biso   1.000  H
  H702     1.0000 0.95432  0.73588  0.76948  Biso   1.000  H
  H703     1.0000 0.82198  0.76641  0.76205  Biso   1.000  H
  C583     1.0000 0.54112  0.95079  0.83549  Biso   1.000  C
  C584     1.0000 0.54113  0.95079  0.83553  Biso   1.000  C
  H704     1.0000 0.62951  0.04456  0.77805  Biso   1.000  H
  H705     1.0000 0.67188  0.05913  0.84544  Biso   1.000  H
  H706     1.0000 0.67188  0.05913  0.84549  Biso   1.000  H
  H707     1.0000 0.67197  0.05913  0.84544  Biso   1.000  H
  H708     1.0000 0.38815  0.09323  0.74396  Biso   1.000  H
  H709     1.0000 0.33726  0.09688  0.67786  Biso   1.000  H
  H710     1.0000 0.42237  0.00620  0.69795  Biso   1.000  H
  H711     1.0000 0.42228  0.00620  0.69795  Biso   1.000  H
  O84      1.0000 0.63697  0.60482  0.93079  Biso   1.000  O
  C585     1.0000 0.76249  0.69418  0.86176  Biso   1.000  C
  C586     1.0000 0.76241  0.69418  0.86176  Biso   1.000  C
  C587     1.0000 0.95934  0.72735  0.89158  Biso   1.000  C
  H712     1.0000 0.99988  0.67697  0.97475  Biso   1.000  H
  H713     1.0000 0.56069  0.91157  0.87114  Biso   1.000  H
  H714     1.0000 0.51428  0.90382  0.80437  Biso   1.000  H
  H715     1.0000 0.56070  0.91157  0.87118  Biso   1.000  H
  H716     1.0000 0.51436  0.90382  0.80437  Biso   1.000  H
  H717     1.0000 0.48019  0.00008  0.84384  Biso   1.000  H
  H718     1.0000 0.48019  0.00008  0.84389  Biso   1.000  H
  C588     1.0000 0.54103  0.61714  0.89065  Biso   1.000  C
  C589     1.0000 0.54095  0.61714  0.89069  Biso   1.000  C
  C590     1.0000 0.54103  0.61714  0.89069  Biso   1.000  C
  H719     1.0000 0.70135  0.69906  0.83326  Biso   1.000  H
  H720     1.0000 0.70127  0.69906  0.83326  Biso   1.000  H
  O85      1.0000 0.06499  0.76688  0.87629  Biso   1.000  O
  H721     1.0000 0.55715  0.58452  0.85247  Biso   1.000  H
  H722     1.0000 0.52552  0.69092  0.88376  Biso   1.000  H
  C591     1.0000 0.43801  0.56638  0.91803  Biso   1.000  C
  C592     1.0000 0.43802  0.56638  0.91808  Biso   1.000  C
  C593     1.0000 0.15197  0.77850  0.92190  Biso   1.000  C
  C594     1.0000 0.15197  0.77850  0.92194  Biso   1.000  C
  H723     1.0000 0.42513  0.59699  0.95666  Biso   1.000  H
  H724     1.0000 0.45270  0.49283  0.92274  Biso   1.000  H
  H725     1.0000 0.36967  0.57653  0.89247  Biso   1.000  H
  H726     1.0000 0.45270  0.49283  0.92279  Biso   1.000  H
  H727     1.0000 0.36976  0.57653  0.89247  Biso   1.000  H
  H728     1.0000 0.17782  0.71038  0.93635  Biso   1.000  H
  H729     1.0000 0.12125  0.81741  0.95537  Biso   1.000  H
  C595     1.0000 0.25176  0.83616  0.89572  Biso   1.000  C
  H730     1.0000 0.17783  0.71038  0.93639  Biso   1.000  H
  H731     1.0000 0.12117  0.81741  0.95537  Biso   1.000  H
  H732     1.0000 0.31249  0.84600  0.92594  Biso   1.000  H
  H733     1.0000 0.22513  0.90320  0.88127  Biso   1.000  H
  H734     1.0000 0.28200  0.79664  0.86296  Biso   1.000  H
  H735     1.0000 0.31249  0.84600  0.92599  Biso   1.000  H
  C596     1.0000 0.84794  0.22150  0.07806  Biso   1.000  C
  O86      1.0000 0.93492  0.23312  0.12366  Biso   1.000  O
  H736     1.0000 0.82209  0.28962  0.06361  Biso   1.000  H
  H737     1.0000 0.87866  0.18259  0.04458  Biso   1.000  H
  C597     1.0000 0.74815  0.16384  0.10424  Biso   1.000  C
  H738     1.0000 0.87866  0.18259  0.04463  Biso   1.000  H
  C598     1.0000 0.74815  0.16384  0.10428  Biso   1.000  C
  H739     1.0000 0.87874  0.18259  0.04458  Biso   1.000  H
  C599     1.0000 0.04057  0.27265  0.10837  Biso   1.000  C
  H740     1.0000 0.68742  0.15400  0.07401  Biso   1.000  H
  H741     1.0000 0.77478  0.09680  0.11869  Biso   1.000  H
  H742     1.0000 0.71791  0.20336  0.13700  Biso   1.000  H
  H743     1.0000 0.77478  0.09680  0.11873  Biso   1.000  H
  C600     1.0000 0.12949  0.26637  0.15167  Biso   1.000  C
  C601     1.0000 0.12941  0.26637  0.15171  Biso   1.000  C
  C602     1.0000 0.12949  0.26637  0.15171  Biso   1.000  C
  C603     1.0000 0.06084  0.31946  0.05401  Biso   1.000  C
  C604     1.0000 0.06075  0.31946  0.05401  Biso   1.000  C
  C605     1.0000 0.10747  0.22320  0.21306  Biso   1.000  C
  C606     1.0000 0.10755  0.22320  0.21306  Biso   1.000  C
  C607     1.0000 0.23742  0.30582  0.13820  Biso   1.000  C
  C608     1.0000 0.23742  0.30582  0.13824  Biso   1.000  C
  C609     1.0000 0.23750  0.30582  0.13820  Biso   1.000  C
  C610     1.0000 0.16836  0.36116  0.04098  Biso   1.000  C
  H744     1.0000 0.00003  0.32303  0.02520  Biso   1.000  H
  C611     1.0000 0.16845  0.36116  0.04098  Biso   1.000  C
  C612     1.0000 0.07408  0.10959  0.21634  Biso   1.000  C
  H745     1.0000 0.17785  0.23359  0.23790  Biso   1.000  H
  H746     1.0000 0.04559  0.26412  0.23048  Biso   1.000  H
  H747     1.0000 0.04560  0.26412  0.23052  Biso   1.000  H
  H748     1.0000 0.17793  0.23359  0.23790  Biso   1.000  H
  C613     1.0000 0.25803  0.35271  0.08366  Biso   1.000  C
  H749     1.0000 0.29856  0.30094  0.16669  Biso   1.000  H
  C614     1.0000 0.25803  0.35271  0.08370  Biso   1.000  C
  H750     1.0000 0.29856  0.30094  0.16674  Biso   1.000  H
  C615     1.0000 0.18540  0.41975  0.98333  Biso   1.000  C
  C616     1.0000 0.18540  0.41975  0.98338  Biso   1.000  C
  C617     1.0000 0.96338  0.08014  0.23137  Biso   1.000  C
  C618     1.0000 0.15620  0.03240  0.20670  Biso   1.000  C
  C619     1.0000 0.15620  0.03240  0.20674  Biso   1.000  C
  O87      1.0000 0.36294  0.39518  0.06917  Biso   1.000  O
  O88      1.0000 0.36294  0.39518  0.06921  Biso   1.000  O
  C620     1.0000 0.14070  0.36418  0.92794  Biso   1.000  C
  H751     1.0000 0.26855  0.43331  0.97937  Biso   1.000  H
  H752     1.0000 0.14615  0.48686  0.98586  Biso   1.000  H
  C621     1.0000 0.14062  0.36418  0.92799  Biso   1.000  C
  H753     1.0000 0.26847  0.43331  0.97937  Biso   1.000  H
  H754     1.0000 0.14607  0.48686  0.98586  Biso   1.000  H
  C622     1.0000 0.14071  0.36418  0.92799  Biso   1.000  C
  C623     1.0000 0.93280  0.97613  0.23657  Biso   1.000  C
  H755     1.0000 0.90748  0.13136  0.23830  Biso   1.000  H
  C624     1.0000 0.12600  0.92808  0.21248  Biso   1.000  C
  O89      1.0000 0.26469  0.06650  0.19252  Biso   1.000  O
  C625     1.0000 0.45888  0.38286  0.10931  Biso   1.000  C
  C626     1.0000 0.45897  0.38286  0.10931  Biso   1.000  C
  C627     1.0000 0.02984  0.38146  0.90519  Biso   1.000  C
  C628     1.0000 0.21131  0.29482  0.89843  Biso   1.000  C
  C629     1.0000 0.21123  0.29482  0.89847  Biso   1.000  C
  C630     1.0000 0.21132  0.29482  0.89847  Biso   1.000  C
  C631     1.0000 0.01467  0.89925  0.22710  Biso   1.000  C
  C632     1.0000 0.01468  0.89925  0.22715  Biso   1.000  C
  O90      1.0000 0.82440  0.94172  0.25079  Biso   1.000  O
  H756     1.0000 0.18221  0.87670  0.20630  Biso   1.000  H
  C633     1.0000 0.35299  0.99186  0.18452  Biso   1.000  C
  H757     1.0000 0.44276  0.41548  0.14749  Biso   1.000  H
  H758     1.0000 0.47439  0.30908  0.11620  Biso   1.000  H
  C634     1.0000 0.56190  0.43362  0.08192  Biso   1.000  C
  H759     1.0000 0.44276  0.41548  0.14753  Biso   1.000  H
  C635     1.0000 0.98782  0.33085  0.85407  Biso   1.000  C
  H760     1.0000 0.98144  0.42843  0.92457  Biso   1.000  H
  C636     1.0000 0.17124  0.24746  0.84629  Biso   1.000  C
  O91      1.0000 0.31934  0.27924  0.92439  Biso   1.000  O
  O92      1.0000 0.31942  0.27924  0.92439  Biso   1.000  O
  C637     1.0000 0.98306  0.78571  0.23395  Biso   1.000  C
  C638     1.0000 0.98306  0.78571  0.23399  Biso   1.000  C
  C639     1.0000 0.98315  0.78571  0.23395  Biso   1.000  C
  C640     1.0000 0.74120  0.01209  0.27146  Biso   1.000  C
  C641     1.0000 0.74120  0.01209  0.27151  Biso   1.000  C
  H761     1.0000 0.37040  0.95544  0.22190  Biso   1.000  H
  H762     1.0000 0.32803  0.94087  0.15451  Biso   1.000  H
  H763     1.0000 0.32794  0.94087  0.15451  Biso   1.000  H
  C642     1.0000 0.45879  0.04921  0.16447  Biso   1.000  C
  H764     1.0000 0.57478  0.40301  0.04330  Biso   1.000  H
  H765     1.0000 0.54721  0.50717  0.07721  Biso   1.000  H
  H766     1.0000 0.63024  0.42347  0.10748  Biso   1.000  H
  H767     1.0000 0.63016  0.42347  0.10753  Biso   1.000  H
  H768     1.0000 0.63024  0.42347  0.10753  Biso   1.000  H
  C643     1.0000 0.05968  0.26451  0.82357  Biso   1.000  C
  O93      1.0000 0.87926  0.34511  0.82917  Biso   1.000  O
  H769     1.0000 0.22096  0.20290  0.82597  Biso   1.000  H
  H770     1.0000 0.22088  0.20290  0.82597  Biso   1.000  H
  C644     1.0000 0.39159  0.20073  0.90198  Biso   1.000  C
  C645     1.0000 0.39159  0.20073  0.90203  Biso   1.000  C
  C646     1.0000 0.94023  0.73549  0.17638  Biso   1.000  C
  C647     1.0000 0.94015  0.73549  0.17638  Biso   1.000  C
  H771     1.0000 0.92260  0.77959  0.26342  Biso   1.000  H
  H772     1.0000 0.05148  0.74789  0.24919  Biso   1.000  H
  C648     1.0000 0.63936  0.94831  0.28947  Biso   1.000  C
  C649     1.0000 0.63927  0.94831  0.28951  Biso   1.000  C
  C650     1.0000 0.63936  0.94831  0.28951  Biso   1.000  C
  H773     1.0000 0.77299  0.05138  0.30551  Biso   1.000  H
  H774     1.0000 0.71789  0.06099  0.23999  Biso   1.000  H
  H775     1.0000 0.71789  0.06099  0.24004  Biso   1.000  H
  H776     1.0000 0.51972  0.99992  0.15611  Biso   1.000  H
  H777     1.0000 0.43922  0.08843  0.12882  Biso   1.000  H
  H778     1.0000 0.48563  0.09618  0.19559  Biso   1.000  H
  H779     1.0000 0.48555  0.09618  0.19563  Biso   1.000  H
  C651     1.0000 0.01685  0.21429  0.76601  Biso   1.000  C
  C652     1.0000 0.01676  0.21429  0.76601  Biso   1.000  C
  C653     1.0000 0.80036  0.41037  0.85500  Biso   1.000  C
  C654     1.0000 0.80027  0.41037  0.85500  Biso   1.000  C
  C655     1.0000 0.78599  0.37472  0.88318  Biso   1.000  C
  H780     1.0000 0.34816  0.13578  0.89696  Biso   1.000  H
  H781     1.0000 0.42139  0.22111  0.86336  Biso   1.000  H
  C656     1.0000 0.49095  0.18678  0.94724  Biso   1.000  C
  H782     1.0000 0.34807  0.13578  0.89696  Biso   1.000  H
  H783     1.0000 0.42148  0.22111  0.86336  Biso   1.000  H
  C657     1.0000 0.82867  0.75254  0.15367  Biso   1.000  C
  C658     1.0000 0.82868  0.75254  0.15371  Biso   1.000  C
  C659     1.0000 0.01209  0.66915  0.14589  Biso   1.000  C
  C660     1.0000 0.01209  0.66915  0.14593  Biso   1.000  C
  H784     1.0000 0.61176  0.90677  0.25600  Biso   1.000  H
  H785     1.0000 0.66265  0.90312  0.32209  Biso   1.000  H
  H786     1.0000 0.57754  0.99380  0.30200  Biso   1.000  H
  H787     1.0000 0.57763  0.99380  0.30200  Biso   1.000  H
  C661     1.0000 0.98524  0.10075  0.77285  Biso   1.000  C
  H788     1.0000 0.94843  0.25211  0.75076  Biso   1.000  H
  H789     1.0000 0.07731  0.22041  0.73654  Biso   1.000  H
  H790     1.0000 0.07731  0.22041  0.73658  Biso   1.000  H
  H791     1.0000 0.83933  0.47222  0.87114  Biso   1.000  H
  H792     1.0000 0.74056  0.43230  0.82575  Biso   1.000  H
  C662     1.0000 0.74739  0.34837  0.90385  Biso   1.000  C
  H793     1.0000 0.83933  0.47222  0.87118  Biso   1.000  H
  H794     1.0000 0.74048  0.43230  0.82580  Biso   1.000  H
  H795     1.0000 0.74056  0.43230  0.82580  Biso   1.000  H
  C663     1.0000 0.66290  0.36216  0.86078  Biso   1.000  C
  H796     1.0000 0.79882  0.44641  0.89616  Biso   1.000  H
  H797     1.0000 0.80704  0.33078  0.93355  Biso   1.000  H
  H798     1.0000 0.80704  0.33078  0.93359  Biso   1.000  H
  H799     1.0000 0.80044  0.32923  0.91745  Biso   1.000  H
  H800     1.0000 0.54333  0.13369  0.93355  Biso   1.000  H
  H801     1.0000 0.53271  0.25172  0.95195  Biso   1.000  H
  H802     1.0000 0.46023  0.16616  0.98506  Biso   1.000  H
  H803     1.0000 0.54333  0.13369  0.93359  Biso   1.000  H
  H804     1.0000 0.53271  0.25172  0.95199  Biso   1.000  H
  C664     1.0000 0.78860  0.70518  0.10153  Biso   1.000  C
  C665     1.0000 0.78868  0.70518  0.10153  Biso   1.000  C
  H805     1.0000 0.77895  0.79710  0.17398  Biso   1.000  H
  H806     1.0000 0.77895  0.79710  0.17403  Biso   1.000  H
  H807     1.0000 0.77903  0.79710  0.17398  Biso   1.000  H
  C666     1.0000 0.97007  0.61854  0.09477  Biso   1.000  C
  O94      1.0000 0.12065  0.65489  0.17078  Biso   1.000  O
  O95      1.0000 0.12065  0.65489  0.17083  Biso   1.000  O
  C667     1.0000 0.87391  0.07192  0.78748  Biso   1.000  C
  C668     1.0000 0.06711  0.02387  0.76339  Biso   1.000  C
  C669     1.0000 0.06711  0.02387  0.76343  Biso   1.000  C
  H808     1.0000 0.71378  0.28528  0.88745  Biso   1.000  H
  H809     1.0000 0.68739  0.38898  0.92217  Biso   1.000  H
  H810     1.0000 0.71379  0.28528  0.88749  Biso   1.000  H
  H811     1.0000 0.64898  0.40680  0.82660  Biso   1.000  H
  H812     1.0000 0.64955  0.29063  0.84935  Biso   1.000  H
  H813     1.0000 0.61053  0.38100  0.89198  Biso   1.000  H
  O96      1.0000 0.68057  0.72076  0.07557  Biso   1.000  O
  O97      1.0000 0.68049  0.72076  0.07561  Biso   1.000  O
  C670     1.0000 0.85921  0.63582  0.07201  Biso   1.000  C
  C671     1.0000 0.85929  0.63582  0.07201  Biso   1.000  C
  H814     1.0000 0.01847  0.57157  0.07539  Biso   1.000  H
  H815     1.0000 0.01847  0.57157  0.07543  Biso   1.000  H
  C672     1.0000 0.19955  0.58963  0.14496  Biso   1.000  C
  C673     1.0000 0.19964  0.58963  0.14496  Biso   1.000  C
  C674     1.0000 0.21393  0.62528  0.11682  Biso   1.000  C
  C675     1.0000 0.84371  0.96760  0.79326  Biso   1.000  C
  H816     1.0000 0.81770  0.12330  0.79366  Biso   1.000  H
  C676     1.0000 0.03653  0.91986  0.76859  Biso   1.000  C
  O98      1.0000 0.17551  0.05828  0.74916  Biso   1.000  O
  C677     1.0000 0.60833  0.79927  0.09797  Biso   1.000  C
  C678     1.0000 0.60824  0.79927  0.09797  Biso   1.000  C
  C679     1.0000 0.81451  0.58025  0.01662  Biso   1.000  C
  H817     1.0000 0.16058  0.52778  0.12882  Biso   1.000  H
  H818     1.0000 0.25935  0.56770  0.17420  Biso   1.000  H
  C680     1.0000 0.25252  0.65163  0.09610  Biso   1.000  C
  H819     1.0000 0.25944  0.56770  0.17420  Biso   1.000  H
  C681     1.0000 0.33701  0.63784  0.13918  Biso   1.000  C
  H820     1.0000 0.20109  0.55359  0.10379  Biso   1.000  H
  H821     1.0000 0.19287  0.66922  0.06641  Biso   1.000  H
  H822     1.0000 0.19947  0.67077  0.08250  Biso   1.000  H
  C682     1.0000 0.92583  0.89041  0.78361  Biso   1.000  C
  C683     1.0000 0.92583  0.89041  0.78366  Biso   1.000  C
  O99      1.0000 0.73522  0.93350  0.80744  Biso   1.000  O
  O100     1.0000 0.73522  0.93350  0.80748  Biso   1.000  O
  H823     1.0000 0.09243  0.86864  0.76165  Biso   1.000  H
  C684     1.0000 0.25871  0.98791  0.72849  Biso   1.000  C
  H824     1.0000 0.57852  0.77889  0.13660  Biso   1.000  H
  H825     1.0000 0.65175  0.86422  0.10299  Biso   1.000  H
  C685     1.0000 0.50896  0.81322  0.05272  Biso   1.000  C
  H826     1.0000 0.65175  0.86422  0.10304  Biso   1.000  H
  H827     1.0000 0.57844  0.77889  0.13660  Biso   1.000  H
  C686     1.0000 0.50896  0.81322  0.05276  Biso   1.000  C
  H828     1.0000 0.65184  0.86422  0.10299  Biso   1.000  H
  C687     1.0000 0.83155  0.63884  0.95897  Biso   1.000  C
  C688     1.0000 0.83147  0.63884  0.95902  Biso   1.000  C
  C689     1.0000 0.83155  0.63884  0.95902  Biso   1.000  C
  H829     1.0000 0.73136  0.56669  0.02058  Biso   1.000  H
  H830     1.0000 0.85376  0.51314  0.01409  Biso   1.000  H
  H831     1.0000 0.73136  0.56669  0.02063  Biso   1.000  H
  H832     1.0000 0.85376  0.51314  0.01414  Biso   1.000  H
  H833     1.0000 0.73144  0.56669  0.02058  Biso   1.000  H
  H834     1.0000 0.85384  0.51314  0.01409  Biso   1.000  H
  H835     1.0000 0.28613  0.71472  0.11251  Biso   1.000  H
  H836     1.0000 0.31252  0.61102  0.07779  Biso   1.000  H
  H837     1.0000 0.31252  0.61102  0.07783  Biso   1.000  H
  H838     1.0000 0.35085  0.59320  0.17340  Biso   1.000  H
  H839     1.0000 0.35036  0.70937  0.15060  Biso   1.000  H
  H840     1.0000 0.38938  0.61900  0.10802  Biso   1.000  H
  C690     1.0000 0.89244  0.77680  0.78690  Biso   1.000  C
  C691     1.0000 0.89236  0.77680  0.78694  Biso   1.000  C
  C692     1.0000 0.89245  0.77680  0.78694  Biso   1.000  C
  C693     1.0000 0.64692  0.00814  0.81544  Biso   1.000  C
  C694     1.0000 0.64693  0.00814  0.81548  Biso   1.000  C
  H841     1.0000 0.22692  0.94862  0.69444  Biso   1.000  H
  H842     1.0000 0.28202  0.93901  0.75996  Biso   1.000  H
  H843     1.0000 0.22692  0.94862  0.69449  Biso   1.000  H
  C695     1.0000 0.36055  0.05169  0.71049  Biso   1.000  C
  C696     1.0000 0.36064  0.05169  0.71049  Biso   1.000  C
  H844     1.0000 0.45658  0.86631  0.06641  Biso   1.000  H
  H845     1.0000 0.46720  0.74828  0.04801  Biso   1.000  H
  H846     1.0000 0.53968  0.83384  0.01489  Biso   1.000  H
  H847     1.0000 0.53968  0.83384  0.01494  Biso   1.000  H
  C697     1.0000 0.74188  0.64729  0.91630  Biso   1.000  C
  C698     1.0000 0.93907  0.68054  0.94595  Biso   1.000  C
  C699     1.0000 0.93916  0.68054  0.94595  Biso   1.000  C
  C700     1.0000 0.87042  0.73363  0.84829  Biso   1.000  C
  C701     1.0000 0.87051  0.73363  0.84829  Biso   1.000  C
  H848     1.0000 0.82206  0.76641  0.76205  Biso   1.000  H
  H849     1.0000 0.95432  0.73588  0.76948  Biso   1.000  H
  H850     1.0000 0.82198  0.76641  0.76205  Biso   1.000  H
  C702     1.0000 0.54112  0.95079  0.83549  Biso   1.000  C
  C703     1.0000 0.54113  0.95079  0.83553  Biso   1.000  C
  H851     1.0000 0.62951  0.04456  0.77805  Biso   1.000  H
  H852     1.0000 0.67188  0.05913  0.84544  Biso   1.000  H
  H853     1.0000 0.67188  0.05913  0.84549  Biso   1.000  H
  H854     1.0000 0.67197  0.05913  0.84544  Biso   1.000  H
  H855     1.0000 0.38815  0.09323  0.74396  Biso   1.000  H
  H856     1.0000 0.33726  0.09688  0.67786  Biso   1.000  H
  H857     1.0000 0.42237  0.00620  0.69795  Biso   1.000  H
  H858     1.0000 0.42228  0.00620  0.69795  Biso   1.000  H
  O101     1.0000 0.63697  0.60482  0.93079  Biso   1.000  O
  C704     1.0000 0.76249  0.69418  0.86176  Biso   1.000  C
  C705     1.0000 0.76241  0.69418  0.86176  Biso   1.000  C
  C706     1.0000 0.95934  0.72735  0.89158  Biso   1.000  C
  H859     1.0000 0.99988  0.67697  0.97475  Biso   1.000  H
  H860     1.0000 0.56069  0.91157  0.87114  Biso   1.000  H
  H861     1.0000 0.51428  0.90382  0.80437  Biso   1.000  H
  H862     1.0000 0.56070  0.91157  0.87118  Biso   1.000  H
  H863     1.0000 0.51436  0.90382  0.80437  Biso   1.000  H
  H864     1.0000 0.48019  0.00008  0.84384  Biso   1.000  H
  H865     1.0000 0.48019  0.00008  0.84389  Biso   1.000  H
  C707     1.0000 0.54103  0.61714  0.89065  Biso   1.000  C
  C708     1.0000 0.54095  0.61714  0.89069  Biso   1.000  C
  C709     1.0000 0.54103  0.61714  0.89069  Biso   1.000  C
  H866     1.0000 0.70135  0.69906  0.83326  Biso   1.000  H
  H867     1.0000 0.70127  0.69906  0.83326  Biso   1.000  H
  O102     1.0000 0.06499  0.76688  0.87629  Biso   1.000  O
  H868     1.0000 0.55715  0.58452  0.85247  Biso   1.000  H
  H869     1.0000 0.52552  0.69092  0.88376  Biso   1.000  H
  C710     1.0000 0.43801  0.56638  0.91803  Biso   1.000  C
  C711     1.0000 0.43802  0.56638  0.91808  Biso   1.000  C
  C712     1.0000 0.15197  0.77850  0.92190  Biso   1.000  C
  C713     1.0000 0.15197  0.77850  0.92194  Biso   1.000  C
  H870     1.0000 0.42513  0.59699  0.95666  Biso   1.000  H
  H871     1.0000 0.45270  0.49283  0.92274  Biso   1.000  H
  H872     1.0000 0.36967  0.57653  0.89247  Biso   1.000  H
  H873     1.0000 0.45270  0.49283  0.92279  Biso   1.000  H
  H874     1.0000 0.36976  0.57653  0.89247  Biso   1.000  H
  H875     1.0000 0.17782  0.71038  0.93635  Biso   1.000  H
  H876     1.0000 0.12125  0.81741  0.95537  Biso   1.000  H
  C714     1.0000 0.25176  0.83616  0.89572  Biso   1.000  C
  H877     1.0000 0.17783  0.71038  0.93639  Biso   1.000  H
  H878     1.0000 0.12117  0.81741  0.95537  Biso   1.000  H
  H879     1.0000 0.31249  0.84600  0.92594  Biso   1.000  H
  H880     1.0000 0.22513  0.90320  0.88127  Biso   1.000  H
  H881     1.0000 0.28200  0.79664  0.86296  Biso   1.000  H
  H882     1.0000 0.31249  0.84600  0.92599  Biso   1.000  H
  C715     1.0000 0.84794  0.22150  0.07806  Biso   1.000  C
  O103     1.0000 0.93492  0.23312  0.12366  Biso   1.000  O
  H883     1.0000 0.82209  0.28962  0.06361  Biso   1.000  H
  H884     1.0000 0.87866  0.18259  0.04458  Biso   1.000  H
  C716     1.0000 0.74815  0.16384  0.10424  Biso   1.000  C
  H885     1.0000 0.87866  0.18259  0.04463  Biso   1.000  H
  C717     1.0000 0.74815  0.16384  0.10428  Biso   1.000  C
  H886     1.0000 0.87874  0.18259  0.04458  Biso   1.000  H
  C718     1.0000 0.04057  0.27265  0.10837  Biso   1.000  C
  H887     1.0000 0.68742  0.15400  0.07401  Biso   1.000  H
  H888     1.0000 0.77478  0.09680  0.11869  Biso   1.000  H
  H889     1.0000 0.71791  0.20336  0.13700  Biso   1.000  H
  H890     1.0000 0.77478  0.09680  0.11873  Biso   1.000  H
  C719     1.0000 0.12949  0.26637  0.15167  Biso   1.000  C
  C720     1.0000 0.12941  0.26637  0.15171  Biso   1.000  C
  C721     1.0000 0.12949  0.26637  0.15171  Biso   1.000  C
  C722     1.0000 0.06084  0.31946  0.05401  Biso   1.000  C
  C723     1.0000 0.06075  0.31946  0.05401  Biso   1.000  C
  C724     1.0000 0.10747  0.22320  0.21306  Biso   1.000  C
  C725     1.0000 0.10755  0.22320  0.21306  Biso   1.000  C
  C726     1.0000 0.23742  0.30582  0.13820  Biso   1.000  C
  C727     1.0000 0.23742  0.30582  0.13824  Biso   1.000  C
  C728     1.0000 0.23750  0.30582  0.13820  Biso   1.000  C
  C729     1.0000 0.16836  0.36116  0.04098  Biso   1.000  C
  H891     1.0000 0.00003  0.32303  0.02520  Biso   1.000  H
  C730     1.0000 0.16845  0.36116  0.04098  Biso   1.000  C
  C731     1.0000 0.07408  0.10959  0.21634  Biso   1.000  C
  H892     1.0000 0.17785  0.23359  0.23790  Biso   1.000  H
  H893     1.0000 0.04559  0.26412  0.23048  Biso   1.000  H
  H894     1.0000 0.04560  0.26412  0.23052  Biso   1.000  H
  H895     1.0000 0.17793  0.23359  0.23790  Biso   1.000  H
  C732     1.0000 0.25803  0.35271  0.08366  Biso   1.000  C
  H896     1.0000 0.29856  0.30094  0.16669  Biso   1.000  H
  C733     1.0000 0.25803  0.35271  0.08370  Biso   1.000  C
  H897     1.0000 0.29856  0.30094  0.16674  Biso   1.000  H
  C734     1.0000 0.18540  0.41975  0.98333  Biso   1.000  C
  C735     1.0000 0.18540  0.41975  0.98338  Biso   1.000  C
  C736     1.0000 0.96338  0.08014  0.23137  Biso   1.000  C
  C737     1.0000 0.15620  0.03240  0.20670  Biso   1.000  C
  C738     1.0000 0.15620  0.03240  0.20674  Biso   1.000  C
  O104     1.0000 0.36294  0.39518  0.06917  Biso   1.000  O
  O105     1.0000 0.36294  0.39518  0.06921  Biso   1.000  O
  C739     1.0000 0.14070  0.36418  0.92794  Biso   1.000  C
  C740     1.0000 0.14062  0.36418  0.92799  Biso   1.000  C
  C741     1.0000 0.14071  0.36418  0.92799  Biso   1.000  C
  H898     1.0000 0.26855  0.43331  0.97937  Biso   1.000  H
  H899     1.0000 0.14615  0.48686  0.98586  Biso   1.000  H
  H900     1.0000 0.26847  0.43331  0.97937  Biso   1.000  H
  H901     1.0000 0.14607  0.48686  0.98586  Biso   1.000  H
  C742     1.0000 0.93280  0.97613  0.23657  Biso   1.000  C
  H902     1.0000 0.90748  0.13136  0.23830  Biso   1.000  H
  C743     1.0000 0.12600  0.92808  0.21248  Biso   1.000  C
  O106     1.0000 0.26469  0.06650  0.19252  Biso   1.000  O
  C744     1.0000 0.45888  0.38286  0.10931  Biso   1.000  C
  C745     1.0000 0.45897  0.38286  0.10931  Biso   1.000  C
  C746     1.0000 0.02984  0.38146  0.90519  Biso   1.000  C
  C747     1.0000 0.21131  0.29482  0.89843  Biso   1.000  C
  C748     1.0000 0.21123  0.29482  0.89847  Biso   1.000  C
  C749     1.0000 0.21132  0.29482  0.89847  Biso   1.000  C
  C750     1.0000 0.01467  0.89925  0.22710  Biso   1.000  C
  C751     1.0000 0.01468  0.89925  0.22715  Biso   1.000  C
  O107     1.0000 0.82440  0.94172  0.25079  Biso   1.000  O
  H903     1.0000 0.18221  0.87670  0.20630  Biso   1.000  H
  C752     1.0000 0.35299  0.99186  0.18452  Biso   1.000  C
  H904     1.0000 0.44276  0.41548  0.14749  Biso   1.000  H
  H905     1.0000 0.47439  0.30908  0.11620  Biso   1.000  H
  C753     1.0000 0.56190  0.43362  0.08192  Biso   1.000  C
  H906     1.0000 0.44276  0.41548  0.14753  Biso   1.000  H
  C754     1.0000 0.98782  0.33085  0.85407  Biso   1.000  C
  H907     1.0000 0.98144  0.42843  0.92457  Biso   1.000  H
  C755     1.0000 0.17124  0.24746  0.84629  Biso   1.000  C
  O108     1.0000 0.31934  0.27924  0.92439  Biso   1.000  O
  O109     1.0000 0.31942  0.27924  0.92439  Biso   1.000  O
  C756     1.0000 0.98306  0.78571  0.23395  Biso   1.000  C
  C757     1.0000 0.98306  0.78571  0.23399  Biso   1.000  C
  C758     1.0000 0.98315  0.78571  0.23395  Biso   1.000  C
  C759     1.0000 0.74120  0.01209  0.27146  Biso   1.000  C
  C760     1.0000 0.74120  0.01209  0.27151  Biso   1.000  C
  H908     1.0000 0.37040  0.95544  0.22190  Biso   1.000  H
  H909     1.0000 0.32803  0.94087  0.15451  Biso   1.000  H
  H910     1.0000 0.32794  0.94087  0.15451  Biso   1.000  H
  C761     1.0000 0.45879  0.04921  0.16447  Biso   1.000  C
  H911     1.0000 0.57478  0.40301  0.04330  Biso   1.000  H
  H912     1.0000 0.54721  0.50717  0.07721  Biso   1.000  H
  H913     1.0000 0.63024  0.42347  0.10748  Biso   1.000  H
  H914     1.0000 0.63016  0.42347  0.10753  Biso   1.000  H
  H915     1.0000 0.63024  0.42347  0.10753  Biso   1.000  H
  C762     1.0000 0.05968  0.26451  0.82357  Biso   1.000  C
  O110     1.0000 0.87926  0.34511  0.82917  Biso   1.000  O
  H916     1.0000 0.22096  0.20290  0.82597  Biso   1.000  H
  H917     1.0000 0.22088  0.20290  0.82597  Biso   1.000  H
  C763     1.0000 0.39159  0.20073  0.90198  Biso   1.000  C
  C764     1.0000 0.39159  0.20073  0.90203  Biso   1.000  C
  C765     1.0000 0.94023  0.73549  0.17638  Biso   1.000  C
  C766     1.0000 0.94015  0.73549  0.17638  Biso   1.000  C
  H918     1.0000 0.92260  0.77959  0.26342  Biso   1.000  H
  H919     1.0000 0.05148  0.74789  0.24919  Biso   1.000  H
  C767     1.0000 0.63936  0.94831  0.28947  Biso   1.000  C
  C768     1.0000 0.63927  0.94831  0.28951  Biso   1.000  C
  C769     1.0000 0.63936  0.94831  0.28951  Biso   1.000  C
  H920     1.0000 0.77299  0.05138  0.30551  Biso   1.000  H
  H921     1.0000 0.71789  0.06099  0.23999  Biso   1.000  H
  H922     1.0000 0.71789  0.06099  0.24004  Biso   1.000  H
  H923     1.0000 0.51972  0.99992  0.15611  Biso   1.000  H
  H924     1.0000 0.43922  0.08843  0.12882  Biso   1.000  H
  H925     1.0000 0.48563  0.09618  0.19559  Biso   1.000  H
  H926     1.0000 0.48555  0.09618  0.19563  Biso   1.000  H
  C770     1.0000 0.01685  0.21429  0.76601  Biso   1.000  C
  C771     1.0000 0.01676  0.21429  0.76601  Biso   1.000  C
  C772     1.0000 0.80036  0.41037  0.85500  Biso   1.000  C
  C773     1.0000 0.80027  0.41037  0.85500  Biso   1.000  C
  C774     1.0000 0.78599  0.37472  0.88318  Biso   1.000  C
  H927     1.0000 0.34816  0.13578  0.89696  Biso   1.000  H
  H928     1.0000 0.42139  0.22111  0.86336  Biso   1.000  H
  C775     1.0000 0.49095  0.18678  0.94724  Biso   1.000  C
  H929     1.0000 0.34807  0.13578  0.89696  Biso   1.000  H
  H930     1.0000 0.42148  0.22111  0.86336  Biso   1.000  H
  C776     1.0000 0.01209  0.66915  0.14589  Biso   1.000  C
  C777     1.0000 0.01209  0.66915  0.14593  Biso   1.000  C
  C778     1.0000 0.82867  0.75254  0.15367  Biso   1.000  C
  C779     1.0000 0.82868  0.75254  0.15371  Biso   1.000  C
  H931     1.0000 0.61176  0.90677  0.25600  Biso   1.000  H
  H932     1.0000 0.66265  0.90312  0.32209  Biso   1.000  H
  H933     1.0000 0.57754  0.99380  0.30200  Biso   1.000  H
  H934     1.0000 0.57763  0.99380  0.30200  Biso   1.000  H
  C780     1.0000 0.98524  0.10075  0.77285  Biso   1.000  C
  H935     1.0000 0.94843  0.25211  0.75076  Biso   1.000  H
  H936     1.0000 0.07731  0.22041  0.73654  Biso   1.000  H
  H937     1.0000 0.07731  0.22041  0.73658  Biso   1.000  H
  H938     1.0000 0.83933  0.47222  0.87114  Biso   1.000  H
  H939     1.0000 0.74056  0.43230  0.82575  Biso   1.000  H
  C781     1.0000 0.74739  0.34837  0.90385  Biso   1.000  C
  H940     1.0000 0.83933  0.47222  0.87118  Biso   1.000  H
  H941     1.0000 0.74048  0.43230  0.82580  Biso   1.000  H
  H942     1.0000 0.74056  0.43230  0.82580  Biso   1.000  H
  C782     1.0000 0.66290  0.36216  0.86078  Biso   1.000  C
  H943     1.0000 0.79882  0.44641  0.89616  Biso   1.000  H
  H944     1.0000 0.80704  0.33078  0.93355  Biso   1.000  H
  H945     1.0000 0.80704  0.33078  0.93359  Biso   1.000  H
  H946     1.0000 0.80044  0.32923  0.91745  Biso   1.000  H
  H947     1.0000 0.54333  0.13369  0.93355  Biso   1.000  H
  H948     1.0000 0.53271  0.25172  0.95195  Biso   1.000  H
  H949     1.0000 0.46023  0.16616  0.98506  Biso   1.000  H
  H950     1.0000 0.54333  0.13369  0.93359  Biso   1.000  H
  H951     1.0000 0.53271  0.25172  0.95199  Biso   1.000  H
  C783     1.0000 0.97007  0.61854  0.09477  Biso   1.000  C
  O111     1.0000 0.12065  0.65489  0.17078  Biso   1.000  O
  O112     1.0000 0.12065  0.65489  0.17083  Biso   1.000  O
  C784     1.0000 0.78860  0.70518  0.10153  Biso   1.000  C
  C785     1.0000 0.78868  0.70518  0.10153  Biso   1.000  C
  H952     1.0000 0.77895  0.79710  0.17398  Biso   1.000  H
  H953     1.0000 0.77895  0.79710  0.17403  Biso   1.000  H
  H954     1.0000 0.77903  0.79710  0.17398  Biso   1.000  H
  C786     1.0000 0.87391  0.07192  0.78748  Biso   1.000  C
  C787     1.0000 0.06711  0.02387  0.76339  Biso   1.000  C
  C788     1.0000 0.06711  0.02387  0.76343  Biso   1.000  C
  H955     1.0000 0.71378  0.28528  0.88745  Biso   1.000  H
  H956     1.0000 0.68739  0.38898  0.92217  Biso   1.000  H
  H957     1.0000 0.71379  0.28528  0.88749  Biso   1.000  H
  H958     1.0000 0.64898  0.40680  0.82660  Biso   1.000  H
  H959     1.0000 0.64955  0.29063  0.84935  Biso   1.000  H
  H960     1.0000 0.61053  0.38100  0.89198  Biso   1.000  H
  C789     1.0000 0.85921  0.63582  0.07201  Biso   1.000  C
  C790     1.0000 0.85929  0.63582  0.07201  Biso   1.000  C
  H961     1.0000 0.01847  0.57157  0.07539  Biso   1.000  H
  H962     1.0000 0.01847  0.57157  0.07543  Biso   1.000  H
  C791     1.0000 0.19955  0.58963  0.14496  Biso   1.000  C
  C792     1.0000 0.19964  0.58963  0.14496  Biso   1.000  C
  C793     1.0000 0.21393  0.62528  0.11682  Biso   1.000  C
  O113     1.0000 0.68057  0.72076  0.07557  Biso   1.000  O
  O114     1.0000 0.68049  0.72076  0.07561  Biso   1.000  O
  C794     1.0000 0.84371  0.96760  0.79326  Biso   1.000  C
  H963     1.0000 0.81770  0.12330  0.79366  Biso   1.000  H
  C795     1.0000 0.03653  0.91986  0.76859  Biso   1.000  C
  O115     1.0000 0.17551  0.05828  0.74916  Biso   1.000  O
  C796     1.0000 0.81451  0.58025  0.01662  Biso   1.000  C
  H964     1.0000 0.16058  0.52778  0.12882  Biso   1.000  H
  H965     1.0000 0.25935  0.56770  0.17420  Biso   1.000  H
  C797     1.0000 0.25252  0.65163  0.09610  Biso   1.000  C
  H966     1.0000 0.25944  0.56770  0.17420  Biso   1.000  H
  C798     1.0000 0.33701  0.63784  0.13918  Biso   1.000  C
  H967     1.0000 0.20109  0.55359  0.10379  Biso   1.000  H
  H968     1.0000 0.19287  0.66922  0.06641  Biso   1.000  H
  H969     1.0000 0.19947  0.67077  0.08250  Biso   1.000  H
  C799     1.0000 0.60833  0.79927  0.09797  Biso   1.000  C
  C800     1.0000 0.60824  0.79927  0.09797  Biso   1.000  C
  C801     1.0000 0.92583  0.89041  0.78361  Biso   1.000  C
  C802     1.0000 0.92583  0.89041  0.78366  Biso   1.000  C
  O116     1.0000 0.73522  0.93350  0.80744  Biso   1.000  O
  O117     1.0000 0.73522  0.93350  0.80748  Biso   1.000  O
  H970     1.0000 0.09243  0.86864  0.76165  Biso   1.000  H
  C803     1.0000 0.25871  0.98791  0.72849  Biso   1.000  C
  C804     1.0000 0.83155  0.63884  0.95897  Biso   1.000  C
  C805     1.0000 0.83147  0.63884  0.95902  Biso   1.000  C
  C806     1.0000 0.83155  0.63884  0.95902  Biso   1.000  C
  H971     1.0000 0.73136  0.56669  0.02058  Biso   1.000  H
  H972     1.0000 0.85376  0.51314  0.01409  Biso   1.000  H
  H973     1.0000 0.73136  0.56669  0.02063  Biso   1.000  H
  H974     1.0000 0.85376  0.51314  0.01414  Biso   1.000  H
  H975     1.0000 0.73144  0.56669  0.02058  Biso   1.000  H
  H976     1.0000 0.85384  0.51314  0.01409  Biso   1.000  H
  H977     1.0000 0.28613  0.71472  0.11251  Biso   1.000  H
  H978     1.0000 0.31252  0.61102  0.07779  Biso   1.000  H
  H979     1.0000 0.31252  0.61102  0.07783  Biso   1.000  H
  H980     1.0000 0.35085  0.59320  0.17340  Biso   1.000  H
  H981     1.0000 0.35036  0.70937  0.15060  Biso   1.000  H
  H982     1.0000 0.38938  0.61900  0.10802  Biso   1.000  H
  H983     1.0000 0.65175  0.86422  0.10299  Biso   1.000  H
  H984     1.0000 0.57852  0.77889  0.13660  Biso   1.000  H
  C807     1.0000 0.50896  0.81322  0.05272  Biso   1.000  C
  H985     1.0000 0.65175  0.86422  0.10304  Biso   1.000  H
  H986     1.0000 0.57844  0.77889  0.13660  Biso   1.000  H
  C808     1.0000 0.50896  0.81322  0.05276  Biso   1.000  C
  H987     1.0000 0.65184  0.86422  0.10299  Biso   1.000  H
  C809     1.0000 0.89244  0.77680  0.78690  Biso   1.000  C
  C810     1.0000 0.89236  0.77680  0.78694  Biso   1.000  C
  C811     1.0000 0.89245  0.77680  0.78694  Biso   1.000  C
  C812     1.0000 0.64692  0.00814  0.81544  Biso   1.000  C
  C813     1.0000 0.64693  0.00814  0.81548  Biso   1.000  C
  H988     1.0000 0.22692  0.94862  0.69444  Biso   1.000  H
  H989     1.0000 0.28202  0.93901  0.75996  Biso   1.000  H
  H990     1.0000 0.22692  0.94862  0.69449  Biso   1.000  H
  C814     1.0000 0.36055  0.05169  0.71049  Biso   1.000  C
  C815     1.0000 0.36064  0.05169  0.71049  Biso   1.000  C
  C816     1.0000 0.74188  0.64729  0.91630  Biso   1.000  C
  C817     1.0000 0.93907  0.68054  0.94595  Biso   1.000  C
  C818     1.0000 0.93916  0.68054  0.94595  Biso   1.000  C
  H991     1.0000 0.45658  0.86631  0.06641  Biso   1.000  H
  H992     1.0000 0.46720  0.74828  0.04801  Biso   1.000  H
  H993     1.0000 0.53968  0.83384  0.01489  Biso   1.000  H
  H994     1.0000 0.53968  0.83384  0.01494  Biso   1.000  H
  C819     1.0000 0.87042  0.73363  0.84829  Biso   1.000  C
  C820     1.0000 0.87051  0.73363  0.84829  Biso   1.000  C
  H995     1.0000 0.82206  0.76641  0.76205  Biso   1.000  H
  H996     1.0000 0.95432  0.73588  0.76948  Biso   1.000  H
  H997     1.0000 0.82198  0.76641  0.76205  Biso   1.000  H
  C821     1.0000 0.54112  0.95079  0.83549  Biso   1.000  C
  C822     1.0000 0.54113  0.95079  0.83553  Biso   1.000  C
  H998     1.0000 0.62951  0.04456  0.77805  Biso   1.000  H
  H999     1.0000 0.67188  0.05913  0.84544  Biso   1.000  H
  H1000    1.0000 0.67188  0.05913  0.84549  Biso   1.000  H
  H1001    1.0000 0.67197  0.05913  0.84544  Biso   1.000  H
  H1002    1.0000 0.38815  0.09323  0.74396  Biso   1.000  H
  H1003    1.0000 0.33726  0.09688  0.67786  Biso   1.000  H
  H1004    1.0000 0.42237  0.00620  0.69795  Biso   1.000  H
  H1005    1.0000 0.42228  0.00620  0.69795  Biso   1.000  H
  O118     1.0000 0.63697  0.60482  0.93079  Biso   1.000  O
  C823     1.0000 0.76249  0.69418  0.86176  Biso   1.000  C
  C824     1.0000 0.76241  0.69418  0.86176  Biso   1.000  C
  C825     1.0000 0.95934  0.72735  0.89158  Biso   1.000  C
  H1006    1.0000 0.99988  0.67697  0.97475  Biso   1.000  H
  H1007    1.0000 0.56069  0.91157  0.87114  Biso   1.000  H
  H1008    1.0000 0.51428  0.90382  0.80437  Biso   1.000  H
  H1009    1.0000 0.56070  0.91157  0.87118  Biso   1.000  H
  H1010    1.0000 0.51436  0.90382  0.80437  Biso   1.000  H
  H1011    1.0000 0.48019  0.00008  0.84384  Biso   1.000  H
  H1012    1.0000 0.48019  0.00008  0.84389  Biso   1.000  H
  C826     1.0000 0.54103  0.61714  0.89065  Biso   1.000  C
  C827     1.0000 0.54095  0.61714  0.89069  Biso   1.000  C
  C828     1.0000 0.54103  0.61714  0.89069  Biso   1.000  C
  H1013    1.0000 0.70135  0.69906  0.83326  Biso   1.000  H
  H1014    1.0000 0.70127  0.69906  0.83326  Biso   1.000  H
  O119     1.0000 0.06499  0.76688  0.87629  Biso   1.000  O
  H1015    1.0000 0.55715  0.58452  0.85247  Biso   1.000  H
  H1016    1.0000 0.52552  0.69092  0.88376  Biso   1.000  H
  C829     1.0000 0.43801  0.56638  0.91803  Biso   1.000  C
  C830     1.0000 0.43802  0.56638  0.91808  Biso   1.000  C
  C831     1.0000 0.15197  0.77850  0.92190  Biso   1.000  C
  C832     1.0000 0.15197  0.77850  0.92194  Biso   1.000  C
  H1017    1.0000 0.42513  0.59699  0.95666  Biso   1.000  H
  H1018    1.0000 0.45270  0.49283  0.92274  Biso   1.000  H
  H1019    1.0000 0.36967  0.57653  0.89247  Biso   1.000  H
  H1020    1.0000 0.45270  0.49283  0.92279  Biso   1.000  H
  H1021    1.0000 0.36976  0.57653  0.89247  Biso   1.000  H
  H1022    1.0000 0.17782  0.71038  0.93635  Biso   1.000  H
  H1023    1.0000 0.12125  0.81741  0.95537  Biso   1.000  H
  C833     1.0000 0.25176  0.83616  0.89572  Biso   1.000  C
  H1024    1.0000 0.17783  0.71038  0.93639  Biso   1.000  H
  H1025    1.0000 0.12117  0.81741  0.95537  Biso   1.000  H
  H1026    1.0000 0.31249  0.84600  0.92594  Biso   1.000  H
  H1027    1.0000 0.22513  0.90320  0.88127  Biso   1.000  H
  H1028    1.0000 0.28200  0.79664  0.86296  Biso   1.000  H
  H1029    1.0000 0.31249  0.84600  0.92599  Biso   1.000  H
  C834     1.0000 0.84794  0.22150  0.07806  Biso   1.000  C
  O120     1.0000 0.93492  0.23312  0.12366  Biso   1.000  O
  H1030    1.0000 0.82209  0.28962  0.06361  Biso   1.000  H
  H1031    1.0000 0.87866  0.18259  0.04458  Biso   1.000  H
  C835     1.0000 0.74815  0.16384  0.10424  Biso   1.000  C
  H1032    1.0000 0.87866  0.18259  0.04463  Biso   1.000  H
  C836     1.0000 0.74815  0.16384  0.10428  Biso   1.000  C
  H1033    1.0000 0.87874  0.18259  0.04458  Biso   1.000  H
  C837     1.0000 0.04057  0.27265  0.10837  Biso   1.000  C
  H1034    1.0000 0.68742  0.15400  0.07401  Biso   1.000  H
  H1035    1.0000 0.77478  0.09680  0.11869  Biso   1.000  H
  H1036    1.0000 0.71791  0.20336  0.13700  Biso   1.000  H
  H1037    1.0000 0.77478  0.09680  0.11873  Biso   1.000  H
  C838     1.0000 0.12949  0.26637  0.15167  Biso   1.000  C
  C839     1.0000 0.12941  0.26637  0.15171  Biso   1.000  C
  C840     1.0000 0.12949  0.26637  0.15171  Biso   1.000  C
  C841     1.0000 0.06084  0.31946  0.05401  Biso   1.000  C
  C842     1.0000 0.06075  0.31946  0.05401  Biso   1.000  C
  C843     1.0000 0.10747  0.22320  0.21306  Biso   1.000  C
  C844     1.0000 0.10755  0.22320  0.21306  Biso   1.000  C
  C845     1.0000 0.23742  0.30582  0.13820  Biso   1.000  C
  C846     1.0000 0.23742  0.30582  0.13824  Biso   1.000  C
  C847     1.0000 0.23750  0.30582  0.13820  Biso   1.000  C
  C848     1.0000 0.16836  0.36116  0.04098  Biso   1.000  C
  H1038    1.0000 0.00003  0.32303  0.02520  Biso   1.000  H
  C849     1.0000 0.16845  0.36116  0.04098  Biso   1.000  C
  C850     1.0000 0.07408  0.10959  0.21634  Biso   1.000  C
  H1039    1.0000 0.17785  0.23359  0.23790  Biso   1.000  H
  H1040    1.0000 0.04559  0.26412  0.23048  Biso   1.000  H
  H1041    1.0000 0.04560  0.26412  0.23052  Biso   1.000  H
  H1042    1.0000 0.17793  0.23359  0.23790  Biso   1.000  H
  C851     1.0000 0.25803  0.35271  0.08366  Biso   1.000  C
  H1043    1.0000 0.29856  0.30094  0.16669  Biso   1.000  H
  C852     1.0000 0.25803  0.35271  0.08370  Biso   1.000  C
  H1044    1.0000 0.29856  0.30094  0.16674  Biso   1.000  H
  C853     1.0000 0.18540  0.41975  0.98333  Biso   1.000  C
  C854     1.0000 0.18540  0.41975  0.98338  Biso   1.000  C
  C855     1.0000 0.96338  0.08014  0.23137  Biso   1.000  C
  C856     1.0000 0.15620  0.03240  0.20670  Biso   1.000  C
  C857     1.0000 0.15620  0.03240  0.20674  Biso   1.000  C
  O121     1.0000 0.36294  0.39518  0.06917  Biso   1.000  O
  O122     1.0000 0.36294  0.39518  0.06921  Biso   1.000  O
  C858     1.0000 0.14070  0.36418  0.92794  Biso   1.000  C
  C859     1.0000 0.14062  0.36418  0.92799  Biso   1.000  C
  C860     1.0000 0.14071  0.36418  0.92799  Biso   1.000  C
  H1045    1.0000 0.26855  0.43331  0.97937  Biso   1.000  H
  H1046    1.0000 0.14615  0.48686  0.98586  Biso   1.000  H
  H1047    1.0000 0.26847  0.43331  0.97937  Biso   1.000  H
  H1048    1.0000 0.14607  0.48686  0.98586  Biso   1.000  H
  C861     1.0000 0.93280  0.97613  0.23657  Biso   1.000  C
  H1049    1.0000 0.90748  0.13136  0.23830  Biso   1.000  H
  C862     1.0000 0.12600  0.92808  0.21248  Biso   1.000  C
  O123     1.0000 0.26469  0.06650  0.19252  Biso   1.000  O
  C863     1.0000 0.45888  0.38286  0.10931  Biso   1.000  C
  C864     1.0000 0.45897  0.38286  0.10931  Biso   1.000  C
  C865     1.0000 0.02984  0.38146  0.90519  Biso   1.000  C
  C866     1.0000 0.21131  0.29482  0.89843  Biso   1.000  C
  C867     1.0000 0.21123  0.29482  0.89847  Biso   1.000  C
  C868     1.0000 0.21132  0.29482  0.89847  Biso   1.000  C
  C869     1.0000 0.01467  0.89925  0.22710  Biso   1.000  C
  C870     1.0000 0.01468  0.89925  0.22715  Biso   1.000  C
  O124     1.0000 0.82440  0.94172  0.25079  Biso   1.000  O
  H1050    1.0000 0.18221  0.87670  0.20630  Biso   1.000  H
  C871     1.0000 0.35299  0.99186  0.18452  Biso   1.000  C
  H1051    1.0000 0.44276  0.41548  0.14749  Biso   1.000  H
  H1052    1.0000 0.47439  0.30908  0.11620  Biso   1.000  H
  C872     1.0000 0.56190  0.43362  0.08192  Biso   1.000  C
  H1053    1.0000 0.44276  0.41548  0.14753  Biso   1.000  H
  C873     1.0000 0.98782  0.33085  0.85407  Biso   1.000  C
  H1054    1.0000 0.98144  0.42843  0.92457  Biso   1.000  H
  C874     1.0000 0.17124  0.24746  0.84629  Biso   1.000  C
  O125     1.0000 0.31934  0.27924  0.92439  Biso   1.000  O
  O126     1.0000 0.31942  0.27924  0.92439  Biso   1.000  O
  C875     1.0000 0.98306  0.78571  0.23395  Biso   1.000  C
  C876     1.0000 0.98306  0.78571  0.23399  Biso   1.000  C
  C877     1.0000 0.98315  0.78571  0.23395  Biso   1.000  C
  C878     1.0000 0.74120  0.01209  0.27146  Biso   1.000  C
  C879     1.0000 0.74120  0.01209  0.27151  Biso   1.000  C
  H1055    1.0000 0.37040  0.95544  0.22190  Biso   1.000  H
  H1056    1.0000 0.32803  0.94087  0.15451  Biso   1.000  H
  H1057    1.0000 0.32794  0.94087  0.15451  Biso   1.000  H
  C880     1.0000 0.45879  0.04921  0.16447  Biso   1.000  C
  H1058    1.0000 0.57478  0.40301  0.04330  Biso   1.000  H
  H1059    1.0000 0.54721  0.50717  0.07721  Biso   1.000  H
  H1060    1.0000 0.63024  0.42347  0.10748  Biso   1.000  H
  H1061    1.0000 0.63016  0.42347  0.10753  Biso   1.000  H
  H1062    1.0000 0.63024  0.42347  0.10753  Biso   1.000  H
  C881     1.0000 0.05968  0.26451  0.82357  Biso   1.000  C
  O127     1.0000 0.87926  0.34511  0.82917  Biso   1.000  O
  H1063    1.0000 0.22096  0.20290  0.82597  Biso   1.000  H
  H1064    1.0000 0.22088  0.20290  0.82597  Biso   1.000  H
  C882     1.0000 0.39159  0.20073  0.90198  Biso   1.000  C
  C883     1.0000 0.39159  0.20073  0.90203  Biso   1.000  C
  C884     1.0000 0.94023  0.73549  0.17638  Biso   1.000  C
  C885     1.0000 0.94015  0.73549  0.17638  Biso   1.000  C
  H1065    1.0000 0.92260  0.77959  0.26342  Biso   1.000  H
  H1066    1.0000 0.05148  0.74789  0.24919  Biso   1.000  H
  C886     1.0000 0.63936  0.94831  0.28947  Biso   1.000  C
  C887     1.0000 0.63927  0.94831  0.28951  Biso   1.000  C
  C888     1.0000 0.63936  0.94831  0.28951  Biso   1.000  C
  H1067    1.0000 0.77299  0.05138  0.30551  Biso   1.000  H
  H1068    1.0000 0.71789  0.06099  0.23999  Biso   1.000  H
  H1069    1.0000 0.71789  0.06099  0.24004  Biso   1.000  H
  H1070    1.0000 0.51972  0.99992  0.15611  Biso   1.000  H
  H1071    1.0000 0.43922  0.08843  0.12882  Biso   1.000  H
  H1072    1.0000 0.48563  0.09618  0.19559  Biso   1.000  H
  H1073    1.0000 0.48555  0.09618  0.19563  Biso   1.000  H
  C889     1.0000 0.01685  0.21429  0.76601  Biso   1.000  C
  C890     1.0000 0.01676  0.21429  0.76601  Biso   1.000  C
  C891     1.0000 0.80036  0.41037  0.85500  Biso   1.000  C
  C892     1.0000 0.80027  0.41037  0.85500  Biso   1.000  C
  C893     1.0000 0.78599  0.37472  0.88318  Biso   1.000  C
  H1074    1.0000 0.34816  0.13578  0.89696  Biso   1.000  H
  H1075    1.0000 0.42139  0.22111  0.86336  Biso   1.000  H
  C894     1.0000 0.49095  0.18678  0.94724  Biso   1.000  C
  H1076    1.0000 0.34807  0.13578  0.89696  Biso   1.000  H
  H1077    1.0000 0.42148  0.22111  0.86336  Biso   1.000  H
  C895     1.0000 0.01209  0.66915  0.14589  Biso   1.000  C
  C896     1.0000 0.01209  0.66915  0.14593  Biso   1.000  C
  C897     1.0000 0.82867  0.75254  0.15367  Biso   1.000  C
  C898     1.0000 0.82868  0.75254  0.15371  Biso   1.000  C
  H1078    1.0000 0.61176  0.90677  0.25600  Biso   1.000  H
  H1079    1.0000 0.66265  0.90312  0.32209  Biso   1.000  H
  H1080    1.0000 0.57754  0.99380  0.30200  Biso   1.000  H
  H1081    1.0000 0.57763  0.99380  0.30200  Biso   1.000  H
  C899     1.0000 0.98524  0.10075  0.77285  Biso   1.000  C
  H1082    1.0000 0.94843  0.25211  0.75076  Biso   1.000  H
  H1083    1.0000 0.07731  0.22041  0.73654  Biso   1.000  H
  H1084    1.0000 0.07731  0.22041  0.73658  Biso   1.000  H
  H1085    1.0000 0.83933  0.47222  0.87114  Biso   1.000  H
  H1086    1.0000 0.74056  0.43230  0.82575  Biso   1.000  H
  C900     1.0000 0.74739  0.34837  0.90385  Biso   1.000  C
  H1087    1.0000 0.83933  0.47222  0.87118  Biso   1.000  H
  H1088    1.0000 0.74048  0.43230  0.82580  Biso   1.000  H
  H1089    1.0000 0.74056  0.43230  0.82580  Biso   1.000  H
  C901     1.0000 0.66290  0.36216  0.86078  Biso   1.000  C
  H1090    1.0000 0.79882  0.44641  0.89616  Biso   1.000  H
  H1091    1.0000 0.80704  0.33078  0.93355  Biso   1.000  H
  H1092    1.0000 0.80704  0.33078  0.93359  Biso   1.000  H
  H1093    1.0000 0.80044  0.32923  0.91745  Biso   1.000  H
  H1094    1.0000 0.54333  0.13369  0.93355  Biso   1.000  H
  H1095    1.0000 0.53271  0.25172  0.95195  Biso   1.000  H
  H1096    1.0000 0.46023  0.16616  0.98506  Biso   1.000  H
  H1097    1.0000 0.54333  0.13369  0.93359  Biso   1.000  H
  H1098    1.0000 0.53271  0.25172  0.95199  Biso   1.000  H
  C902     1.0000 0.97007  0.61854  0.09477  Biso   1.000  C
  O128     1.0000 0.12065  0.65489  0.17078  Biso   1.000  O
  O129     1.0000 0.12065  0.65489  0.17083  Biso   1.000  O
  C903     1.0000 0.78860  0.70518  0.10153  Biso   1.000  C
  C904     1.0000 0.78868  0.70518  0.10153  Biso   1.000  C
  H1099    1.0000 0.77895  0.79710  0.17398  Biso   1.000  H
  H1100    1.0000 0.77895  0.79710  0.17403  Biso   1.000  H
  H1101    1.0000 0.77903  0.79710  0.17398  Biso   1.000  H
  C905     1.0000 0.87391  0.07192  0.78748  Biso   1.000  C
  C906     1.0000 0.06711  0.02387  0.76339  Biso   1.000  C
  C907     1.0000 0.06711  0.02387  0.76343  Biso   1.000  C
  H1102    1.0000 0.71378  0.28528  0.88745  Biso   1.000  H
  H1103    1.0000 0.68739  0.38898  0.92217  Biso   1.000  H
  H1104    1.0000 0.71379  0.28528  0.88749  Biso   1.000  H
  H1105    1.0000 0.64898  0.40680  0.82660  Biso   1.000  H
  H1106    1.0000 0.64955  0.29063  0.84935  Biso   1.000  H
  H1107    1.0000 0.61053  0.38100  0.89198  Biso   1.000  H
  C908     1.0000 0.85921  0.63582  0.07201  Biso   1.000  C
  C909     1.0000 0.85929  0.63582  0.07201  Biso   1.000  C
  H1108    1.0000 0.01847  0.57157  0.07539  Biso   1.000  H
  H1109    1.0000 0.01847  0.57157  0.07543  Biso   1.000  H
  C910     1.0000 0.19955  0.58963  0.14496  Biso   1.000  C
  C911     1.0000 0.19964  0.58963  0.14496  Biso   1.000  C
  C912     1.0000 0.21393  0.62528  0.11682  Biso   1.000  C
  O130     1.0000 0.68057  0.72076  0.07557  Biso   1.000  O
  O131     1.0000 0.68049  0.72076  0.07561  Biso   1.000  O
  C913     1.0000 0.84371  0.96760  0.79326  Biso   1.000  C
  H1110    1.0000 0.81770  0.12330  0.79366  Biso   1.000  H
  C914     1.0000 0.03653  0.91986  0.76859  Biso   1.000  C
  O132     1.0000 0.17551  0.05828  0.74916  Biso   1.000  O
  C915     1.0000 0.81451  0.58025  0.01662  Biso   1.000  C
  H1111    1.0000 0.16058  0.52778  0.12882  Biso   1.000  H
  H1112    1.0000 0.25935  0.56770  0.17420  Biso   1.000  H
  C916     1.0000 0.25252  0.65163  0.09610  Biso   1.000  C
  H1113    1.0000 0.25944  0.56770  0.17420  Biso   1.000  H
  C917     1.0000 0.33701  0.63784  0.13918  Biso   1.000  C
  H1114    1.0000 0.20109  0.55359  0.10379  Biso   1.000  H
  H1115    1.0000 0.19287  0.66922  0.06641  Biso   1.000  H
  H1116    1.0000 0.19947  0.67077  0.08250  Biso   1.000  H
  C918     1.0000 0.60833  0.79927  0.09797  Biso   1.000  C
  C919     1.0000 0.60824  0.79927  0.09797  Biso   1.000  C
  C920     1.0000 0.92583  0.89041  0.78361  Biso   1.000  C
  C921     1.0000 0.92583  0.89041  0.78366  Biso   1.000  C
  O133     1.0000 0.73522  0.93350  0.80744  Biso   1.000  O
  O134     1.0000 0.73522  0.93350  0.80748  Biso   1.000  O
  H1117    1.0000 0.09243  0.86864  0.76165  Biso   1.000  H
  C922     1.0000 0.25871  0.98791  0.72849  Biso   1.000  C
  C923     1.0000 0.83155  0.63884  0.95897  Biso   1.000  C
  C924     1.0000 0.83147  0.63884  0.95902  Biso   1.000  C
  C925     1.0000 0.83155  0.63884  0.95902  Biso   1.000  C
  H1118    1.0000 0.73136  0.56669  0.02058  Biso   1.000  H
  H1119    1.0000 0.85376  0.51314  0.01409  Biso   1.000  H
  H1120    1.0000 0.73136  0.56669  0.02063  Biso   1.000  H
  H1121    1.0000 0.85376  0.51314  0.01414  Biso   1.000  H
  H1122    1.0000 0.73144  0.56669  0.02058  Biso   1.000  H
  H1123    1.0000 0.85384  0.51314  0.01409  Biso   1.000  H
  H1124    1.0000 0.28613  0.71472  0.11251  Biso   1.000  H
  H1125    1.0000 0.31252  0.61102  0.07779  Biso   1.000  H
  H1126    1.0000 0.31252  0.61102  0.07783  Biso   1.000  H
  H1127    1.0000 0.35085  0.59320  0.17340  Biso   1.000  H
  H1128    1.0000 0.35036  0.70937  0.15060  Biso   1.000  H
  H1129    1.0000 0.38938  0.61900  0.10802  Biso   1.000  H
  H1130    1.0000 0.65175  0.86422  0.10299  Biso   1.000  H
  H1131    1.0000 0.57852  0.77889  0.13660  Biso   1.000  H
  C926     1.0000 0.50896  0.81322  0.05272  Biso   1.000  C
  H1132    1.0000 0.65175  0.86422  0.10304  Biso   1.000  H
  H1133    1.0000 0.57844  0.77889  0.13660  Biso   1.000  H
  C927     1.0000 0.50896  0.81322  0.05276  Biso   1.000  C
  H1134    1.0000 0.65184  0.86422  0.10299  Biso   1.000  H
  C928     1.0000 0.89244  0.77680  0.78690  Biso   1.000  C
  C929     1.0000 0.89236  0.77680  0.78694  Biso   1.000  C
  C930     1.0000 0.89245  0.77680  0.78694  Biso   1.000  C
  C931     1.0000 0.64692  0.00814  0.81544  Biso   1.000  C
  C932     1.0000 0.64693  0.00814  0.81548  Biso   1.000  C
  H1135    1.0000 0.22692  0.94862  0.69444  Biso   1.000  H
  H1136    1.0000 0.28202  0.93901  0.75996  Biso   1.000  H
  H1137    1.0000 0.22692  0.94862  0.69449  Biso   1.000  H
  C933     1.0000 0.36055  0.05169  0.71049  Biso   1.000  C
  C934     1.0000 0.36064  0.05169  0.71049  Biso   1.000  C
  C935     1.0000 0.74188  0.64729  0.91630  Biso   1.000  C
  C936     1.0000 0.93907  0.68054  0.94595  Biso   1.000  C
  C937     1.0000 0.93916  0.68054  0.94595  Biso   1.000  C
  H1138    1.0000 0.45658  0.86631  0.06641  Biso   1.000  H
  H1139    1.0000 0.46720  0.74828  0.04801  Biso   1.000  H
  H1140    1.0000 0.53968  0.83384  0.01489  Biso   1.000  H
  H1141    1.0000 0.53968  0.83384  0.01494  Biso   1.000  H
  C938     1.0000 0.87042  0.73363  0.84829  Biso   1.000  C
  C939     1.0000 0.87051  0.73363  0.84829  Biso   1.000  C
  H1142    1.0000 0.82206  0.76641  0.76205  Biso   1.000  H
  H1143    1.0000 0.95432  0.73588  0.76948  Biso   1.000  H
  H1144    1.0000 0.82198  0.76641  0.76205  Biso   1.000  H
  C940     1.0000 0.54112  0.95079  0.83549  Biso   1.000  C
  C941     1.0000 0.54113  0.95079  0.83553  Biso   1.000  C
  H1145    1.0000 0.62951  0.04456  0.77805  Biso   1.000  H
  H1146    1.0000 0.67188  0.05913  0.84544  Biso   1.000  H
  H1147    1.0000 0.67188  0.05913  0.84549  Biso   1.000  H
  H1148    1.0000 0.67197  0.05913  0.84544  Biso   1.000  H
  H1149    1.0000 0.38815  0.09323  0.74396  Biso   1.000  H
  H1150    1.0000 0.33726  0.09688  0.67786  Biso   1.000  H
  H1151    1.0000 0.42237  0.00620  0.69795  Biso   1.000  H
  H1152    1.0000 0.42228  0.00620  0.69795  Biso   1.000  H
  O135     1.0000 0.63697  0.60482  0.93079  Biso   1.000  O
  C942     1.0000 0.76249  0.69418  0.86176  Biso   1.000  C
  C943     1.0000 0.76241  0.69418  0.86176  Biso   1.000  C
  C944     1.0000 0.95934  0.72735  0.89158  Biso   1.000  C
  H1153    1.0000 0.99988  0.67697  0.97475  Biso   1.000  H
  H1154    1.0000 0.56069  0.91157  0.87114  Biso   1.000  H
  H1155    1.0000 0.51428  0.90382  0.80437  Biso   1.000  H
  H1156    1.0000 0.56070  0.91157  0.87118  Biso   1.000  H
  H1157    1.0000 0.51436  0.90382  0.80437  Biso   1.000  H
  H1158    1.0000 0.48019  0.00008  0.84384  Biso   1.000  H
  H1159    1.0000 0.48019  0.00008  0.84389  Biso   1.000  H
  C945     1.0000 0.54103  0.61714  0.89065  Biso   1.000  C
  C946     1.0000 0.54095  0.61714  0.89069  Biso   1.000  C
  C947     1.0000 0.54103  0.61714  0.89069  Biso   1.000  C
  H1160    1.0000 0.70135  0.69906  0.83326  Biso   1.000  H
  H1161    1.0000 0.70127  0.69906  0.83326  Biso   1.000  H
  O136     1.0000 0.06499  0.76688  0.87629  Biso   1.000  O
  H1162    1.0000 0.55715  0.58452  0.85247  Biso   1.000  H
  H1163    1.0000 0.52552  0.69092  0.88376  Biso   1.000  H
  C948     1.0000 0.43801  0.56638  0.91803  Biso   1.000  C
  C949     1.0000 0.43802  0.56638  0.91808  Biso   1.000  C
  C950     1.0000 0.15197  0.77850  0.92190  Biso   1.000  C
  C951     1.0000 0.15197  0.77850  0.92194  Biso   1.000  C
  H1164    1.0000 0.42513  0.59699  0.95666  Biso   1.000  H
  H1165    1.0000 0.45270  0.49283  0.92274  Biso   1.000  H
  H1166    1.0000 0.36967  0.57653  0.89247  Biso   1.000  H
  H1167    1.0000 0.45270  0.49283  0.92279  Biso   1.000  H
  H1168    1.0000 0.36976  0.57653  0.89247  Biso   1.000  H
  H1169    1.0000 0.17782  0.71038  0.93635  Biso   1.000  H
  H1170    1.0000 0.12125  0.81741  0.95537  Biso   1.000  H
  C952     1.0000 0.25176  0.83616  0.89572  Biso   1.000  C
  H1171    1.0000 0.17783  0.71038  0.93639  Biso   1.000  H
  H1172    1.0000 0.12117  0.81741  0.95537  Biso   1.000  H
  H1173    1.0000 0.31249  0.84600  0.92594  Biso   1.000  H
  H1174    1.0000 0.22513  0.90320  0.88127  Biso   1.000  H
  H1175    1.0000 0.28200  0.79664  0.86296  Biso   1.000  H
  H1176    1.0000 0.31249  0.84600  0.92599  Biso   1.000  H
  C953     1.0000 0.75877  0.51213  0.22852  Biso   1.000  C
  O137     1.0000 0.67557  0.44168  0.24919  Biso   1.000  O
  H1177    1.0000 0.72698  0.55142  0.19452  Biso   1.000  H
  H1178    1.0000 0.78208  0.56103  0.26000  Biso   1.000  H
  C954     1.0000 0.86061  0.44835  0.21052  Biso   1.000  C
  C955     1.0000 0.56717  0.47617  0.26342  Biso   1.000  C
  H1179    1.0000 0.88821  0.40680  0.24399  Biso   1.000  H
  H1180    1.0000 0.83732  0.40308  0.17789  Biso   1.000  H
  H1181    1.0000 0.92243  0.49384  0.19799  Biso   1.000  H
  C956     1.0000 0.48530  0.39921  0.27289  Biso   1.000  C
  C957     1.0000 0.53659  0.58010  0.26862  Biso   1.000  C
  C958     1.0000 0.51691  0.28575  0.26604  Biso   1.000  C
  C959     1.0000 0.37397  0.42812  0.28751  Biso   1.000  C
  C960     1.0000 0.42589  0.60955  0.28364  Biso   1.000  C
  H1182    1.0000 0.59249  0.63140  0.26169  Biso   1.000  H
  C961     1.0000 0.55974  0.23545  0.32361  Biso   1.000  C
  H1183    1.0000 0.44849  0.24793  0.25079  Biso   1.000  H
  H1184    1.0000 0.57737  0.27962  0.23661  Biso   1.000  H
  C962     1.0000 0.34377  0.53236  0.29329  Biso   1.000  C
  H1185    1.0000 0.31776  0.37673  0.29369  Biso   1.000  H
  C963     1.0000 0.39251  0.72317  0.28698  Biso   1.000  C
  C964     1.0000 0.48788  0.16919  0.35410  Biso   1.000  C
  C965     1.0000 0.67130  0.25250  0.34632  Biso   1.000  C
  O138     1.0000 0.23528  0.56653  0.30751  Biso   1.000  O
  C966     1.0000 0.37048  0.76633  0.34832  Biso   1.000  C
  H1186    1.0000 0.32212  0.73363  0.26209  Biso   1.000  H
  H1187    1.0000 0.45438  0.76409  0.26951  Biso   1.000  H
  O139     1.0000 0.37932  0.15485  0.32921  Biso   1.000  O
  C967     1.0000 0.52990  0.11858  0.40522  Biso   1.000  C
  C968     1.0000 0.71137  0.20522  0.39846  Biso   1.000  C
  H1188    1.0000 0.72102  0.29706  0.32601  Biso   1.000  H
  C969     1.0000 0.14699  0.49190  0.31552  Biso   1.000  C
  C970     1.0000 0.45940  0.77269  0.39162  Biso   1.000  C
  C971     1.0000 0.26255  0.80586  0.36179  Biso   1.000  C
  C972     1.0000 0.30042  0.08959  0.35503  Biso   1.000  C
  C973     1.0000 0.28605  0.12532  0.38322  Biso   1.000  C
  C974     1.0000 0.64076  0.13578  0.42798  Biso   1.000  C
  H1189    1.0000 0.48150  0.07161  0.42460  Biso   1.000  H
  O140     1.0000 0.81940  0.22080  0.42442  Biso   1.000  O
  H1190    1.0000 0.12957  0.45540  0.27809  Biso   1.000  H
  H1191    1.0000 0.17194  0.44091  0.34548  Biso   1.000  H
  C975     1.0000 0.04119  0.54917  0.33556  Biso   1.000  C
  O141     1.0000 0.56505  0.73309  0.37633  Biso   1.000  O
  C976     1.0000 0.43913  0.81942  0.44598  Biso   1.000  C
  C977     1.0000 0.24194  0.85267  0.41633  Biso   1.000  C
  H1192    1.0000 0.20141  0.80090  0.33330  Biso   1.000  H
  H1193    1.0000 0.33939  0.02782  0.37121  Biso   1.000  H
  H1194    1.0000 0.24062  0.06774  0.32578  Biso   1.000  H
  C978     1.0000 0.24745  0.15159  0.40389  Biso   1.000  C
  C979     1.0000 0.16296  0.13780  0.36081  Biso   1.000  C
  H1195    1.0000 0.29888  0.05363  0.39619  Biso   1.000  H
  H1196    1.0000 0.30710  0.16919  0.43358  Biso   1.000  H
  H1197    1.0000 0.30050  0.17081  0.41749  Biso   1.000  H
  C980     1.0000 0.68546  0.08029  0.48341  Biso   1.000  C
  C981     1.0000 0.89165  0.29931  0.40206  Biso   1.000  C
  H1198    1.0000 0.06076  0.58839  0.37121  Biso   1.000  H
  H1199    1.0000 0.01434  0.59622  0.30440  Biso   1.000  H
  H1200    1.0000 0.98025  0.49988  0.34392  Biso   1.000  H
  C982     1.0000 0.65203  0.72146  0.42193  Biso   1.000  C
  C983     1.0000 0.33161  0.86112  0.45905  Biso   1.000  C
  H1201    1.0000 0.49994  0.82299  0.47478  Biso   1.000  H
  O142     1.0000 0.13703  0.89514  0.43082  Biso   1.000  O
  H1202    1.0000 0.21384  0.21468  0.38748  Biso   1.000  H
  H1203    1.0000 0.18745  0.11098  0.42220  Biso   1.000  H
  H1204    1.0000 0.14912  0.09323  0.32658  Biso   1.000  H
  H1205    1.0000 0.14961  0.20941  0.34939  Biso   1.000  H
  H1206    1.0000 0.11059  0.11896  0.39202  Biso   1.000  H
  C984     1.0000 0.66833  0.13888  0.54097  Biso   1.000  C
  H1207    1.0000 0.76861  0.06673  0.47941  Biso   1.000  H
  H1208    1.0000 0.64621  0.01310  0.48590  Biso   1.000  H
  H1209    1.0000 0.84822  0.36418  0.39700  Biso   1.000  H
  H1210    1.0000 0.92145  0.27893  0.36339  Biso   1.000  H
  C985     1.0000 0.99101  0.31318  0.44727  Biso   1.000  C
  H1211    1.0000 0.67788  0.78958  0.43638  Biso   1.000  H
  H1212    1.0000 0.62131  0.68263  0.45540  Biso   1.000  H
  C986     1.0000 0.75182  0.66380  0.39575  Biso   1.000  C
  C987     1.0000 0.31448  0.91971  0.51661  Biso   1.000  C
  C988     1.0000 0.04109  0.88282  0.39068  Biso   1.000  C
  C989     1.0000 0.75800  0.14733  0.58365  Biso   1.000  C
  C990     1.0000 0.56072  0.18058  0.55400  Biso   1.000  C
  H1213    1.0000 0.96029  0.33380  0.48510  Biso   1.000  H
  H1214    1.0000 0.04339  0.36627  0.43358  Biso   1.000  H
  H1215    1.0000 0.03277  0.24831  0.45198  Biso   1.000  H
  H1216    1.0000 0.81255  0.65403  0.42598  Biso   1.000  H
  H1217    1.0000 0.72519  0.59684  0.38130  Biso   1.000  H
  H1218    1.0000 0.78206  0.70340  0.36299  Biso   1.000  H
  C991     1.0000 0.35918  0.86422  0.57200  Biso   1.000  C
  H1219    1.0000 0.23133  0.93327  0.52061  Biso   1.000  H
  H1220    1.0000 0.35373  0.98690  0.51408  Biso   1.000  H
  H1221    1.0000 0.05721  0.91552  0.35250  Biso   1.000  H
  H1222    1.0000 0.02558  0.80911  0.38379  Biso   1.000  H
  C992     1.0000 0.93808  0.93366  0.41811  Biso   1.000  C
  O143     1.0000 0.86291  0.10486  0.56916  Biso   1.000  O
  C993     1.0000 0.73739  0.19414  0.63823  Biso   1.000  C
  C994     1.0000 0.54054  0.22731  0.60836  Biso   1.000  C
  H1223    1.0000 0.50000  0.17701  0.52519  Biso   1.000  H
  C995     1.0000 0.28857  0.79478  0.60152  Biso   1.000  C
  C996     1.0000 0.47004  0.88142  0.59476  Biso   1.000  C
  H1224    1.0000 0.92519  0.90297  0.45669  Biso   1.000  H
  H1225    1.0000 0.86973  0.92351  0.39251  Biso   1.000  H
  H1226    1.0000 0.95276  0.00721  0.42278  Biso   1.000  H
  C997     1.0000 0.95885  0.11718  0.60929  Biso   1.000  C
  C998     1.0000 0.62946  0.23367  0.65166  Biso   1.000  C
  H1227    1.0000 0.79853  0.19910  0.66668  Biso   1.000  H
  O144     1.0000 0.43489  0.26691  0.62365  Biso   1.000  O
  O145     1.0000 0.18046  0.77920  0.57556  Biso   1.000  O
  C999     1.0000 0.32865  0.74750  0.65370  Biso   1.000  C
  H1228    1.0000 0.51844  0.92839  0.57538  Biso   1.000  H
  C1000    1.0000 0.51206  0.83081  0.64588  Biso   1.000  C
  H1229    1.0000 0.94273  0.08448  0.64748  Biso   1.000  H
  H1230    1.0000 0.97436  0.19089  0.61618  Biso   1.000  H
  C1001    1.0000 0.06187  0.06634  0.58191  Biso   1.000  C
  C1002    1.0000 0.60744  0.27683  0.71304  Biso   1.000  C
  C1003    1.0000 0.34791  0.27854  0.57805  Biso   1.000  C
  C1004    1.0000 0.10830  0.70069  0.59796  Biso   1.000  C
  C1005    1.0000 0.44020  0.76455  0.67637  Biso   1.000  C
  H1231    1.0000 0.27892  0.70294  0.67402  Biso   1.000  H
  O146     1.0000 0.62062  0.84515  0.67077  Biso   1.000  O
  H1232    1.0000 0.04718  0.99279  0.57720  Biso   1.000  H
  H1233    1.0000 0.07475  0.09703  0.54328  Biso   1.000  H
  H1234    1.0000 0.13021  0.07649  0.60752  Biso   1.000  H
  C1006    1.0000 0.57405  0.39045  0.71633  Biso   1.000  C
  H1235    1.0000 0.67782  0.26637  0.73789  Biso   1.000  H
  H1236    1.0000 0.54557  0.23591  0.73051  Biso   1.000  H
  H1237    1.0000 0.32206  0.21042  0.56360  Biso   1.000  H
  H1238    1.0000 0.37863  0.31737  0.54462  Biso   1.000  H
  C1007    1.0000 0.24812  0.33620  0.60427  Biso   1.000  C
  H1239    1.0000 0.15172  0.63582  0.60298  Biso   1.000  H
  H1240    1.0000 0.07849  0.72107  0.63659  Biso   1.000  H
  C1008    1.0000 0.00893  0.68682  0.55271  Biso   1.000  C
  C1009    1.0000 0.48303  0.71425  0.73394  Biso   1.000  C
  C1010    1.0000 0.69952  0.91041  0.64494  Biso   1.000  C
  C1011    1.0000 0.71390  0.87468  0.61681  Biso   1.000  C
  C1012    1.0000 0.65617  0.46764  0.70673  Biso   1.000  C
  C1013    1.0000 0.46335  0.41990  0.73136  Biso   1.000  C
  H1241    1.0000 0.18739  0.34597  0.57400  Biso   1.000  H
  H1242    1.0000 0.27475  0.40316  0.61872  Biso   1.000  H
  H1243    1.0000 0.21788  0.29660  0.63699  Biso   1.000  H
  H1244    1.0000 0.03965  0.66620  0.51488  Biso   1.000  H
  H1245    1.0000 0.95655  0.63373  0.56640  Biso   1.000  H
  H1246    1.0000 0.96717  0.75169  0.54800  Biso   1.000  H
  C1014    1.0000 0.51464  0.60079  0.72709  Biso   1.000  C
  H1247    1.0000 0.55145  0.75207  0.74918  Biso   1.000  H
  H1248    1.0000 0.42257  0.72038  0.76341  Biso   1.000  H
  H1249    1.0000 0.66055  0.97218  0.62881  Biso   1.000  H
  H1250    1.0000 0.75932  0.93226  0.67419  Biso   1.000  H
  C1015    1.0000 0.75249  0.84841  0.59609  Biso   1.000  C
  C1016    1.0000 0.83698  0.86220  0.63921  Biso   1.000  C
  H1251    1.0000 0.70106  0.94637  0.60378  Biso   1.000  H
  H1252    1.0000 0.69284  0.83081  0.56640  Biso   1.000  H
  H1253    1.0000 0.69944  0.82919  0.58249  Biso   1.000  H
  O147     1.0000 0.76466  0.43347  0.69251  Biso   1.000  O
  C1017    1.0000 0.62597  0.57188  0.71247  Biso   1.000  C
  C1018    1.0000 0.43277  0.52383  0.73656  Biso   1.000  C
  H1254    1.0000 0.40745  0.36860  0.73829  Biso   1.000  H
  H1255    1.0000 0.78610  0.78532  0.61250  Biso   1.000  H
  H1256    1.0000 0.81249  0.88902  0.57778  Biso   1.000  H
  H1257    1.0000 0.85082  0.90677  0.67339  Biso   1.000  H
  H1258    1.0000 0.85033  0.79059  0.65059  Biso   1.000  H
  H1259    1.0000 0.88935  0.88104  0.60801  Biso   1.000  H
  C1019    1.0000 0.85296  0.50810  0.68451  Biso   1.000  C
  H1260    1.0000 0.68218  0.62327  0.70629  Biso   1.000  H
  O148     1.0000 0.32437  0.55832  0.75078  Biso   1.000  O
  H1261    1.0000 0.87037  0.54460  0.72189  Biso   1.000  H
  H1262    1.0000 0.82800  0.55909  0.65450  Biso   1.000  H
  C1020    1.0000 0.95876  0.45083  0.66446  Biso   1.000  C
  C1021    1.0000 0.24117  0.48787  0.77150  Biso   1.000  C
  H1263    1.0000 0.93919  0.41161  0.62881  Biso   1.000  H
  H1264    1.0000 0.98560  0.40378  0.69557  Biso   1.000  H
  H1265    1.0000 0.01969  0.50012  0.65610  Biso   1.000  H
  H1266    1.0000 0.27296  0.44858  0.80550  Biso   1.000  H
  H1267    1.0000 0.21786  0.43897  0.73998  Biso   1.000  H
  C1022    1.0000 0.13933  0.55165  0.78950  Biso   1.000  C
  H1268    1.0000 0.11173  0.59320  0.75598  Biso   1.000  H
  H1269    1.0000 0.16262  0.59692  0.82208  Biso   1.000  H
  H1270    1.0000 0.07751  0.50616  0.80199  Biso   1.000  H
