data_image0
_cell_length_a       12.351
_cell_length_b       21.501
_cell_length_c       12.326
_cell_angle_alpha    98.54
_cell_angle_beta     93.29
_cell_angle_gamma    99.39

_symmetry_space_group_name_H-M    "P 1"
_symmetry_int_tables_number       1

loop_
  _symmetry_equiv_pos_as_xyz
  'x, y, z'

loop_
  _atom_site_label
  _atom_site_occupancy
  _atom_site_fract_x
  _atom_site_fract_y
  _atom_site_fract_z
  _atom_site_thermal_displace_type
  _atom_site_B_iso_or_equiv
  _atom_site_type_symbol
  C1       1.0000 0.58772  0.83708  0.27777  Biso   1.000  C
  C2       1.0000 0.62678  0.80348  0.35598  Biso   1.000  C
  S1       1.0000 0.69277  0.89109  0.23249  Biso   1.000  S
  C3       1.0000 0.47651  0.82219  0.24336  Biso   1.000  C
  S2       1.0000 0.69285  0.89109  0.23249  Biso   1.000  S
  C4       1.0000 0.55994  0.75650  0.39879  Biso   1.000  C
  C5       1.0000 0.56003  0.75650  0.39879  Biso   1.000  C
  O1       1.0000 0.74198  0.81520  0.38373  Biso   1.000  O
  O2       1.0000 0.74206  0.81520  0.38373  Biso   1.000  O
  C6       1.0000 0.63412  0.93850  0.14819  Biso   1.000  C
  C7       1.0000 0.40540  0.77572  0.28403  Biso   1.000  C
  O3       1.0000 0.43447  0.85199  0.16029  Biso   1.000  O
  O4       1.0000 0.43455  0.85199  0.16029  Biso   1.000  O
  C8       1.0000 0.60850  0.72442  0.48680  Biso   1.000  C
  C9       1.0000 0.44914  0.74351  0.36208  Biso   1.000  C
  C10      1.0000 0.44922  0.74351  0.36208  Biso   1.000  C
  C11      1.0000 0.78088  0.85598  0.48466  Biso   1.000  C
  S3       1.0000 0.74589  0.99263  0.10521  Biso   1.000  S
  H1       1.0000 0.58803  0.90802  0.07698  Biso   1.000  H
  H2       1.0000 0.57999  0.96500  0.19396  Biso   1.000  H
  S4       1.0000 0.74596  0.99258  0.10521  Biso   1.000  S
  H3       1.0000 0.58802  0.90798  0.07698  Biso   1.000  H
  H4       1.0000 0.58007  0.96500  0.19396  Biso   1.000  H
  C12      1.0000 0.28256  0.76120  0.24550  Biso   1.000  C
  C13      1.0000 0.28264  0.76120  0.24550  Biso   1.000  C
  C14      1.0000 0.37663  0.90252  0.19479  Biso   1.000  C
  C15      1.0000 0.37662  0.90248  0.19479  Biso   1.000  C
  C16      1.0000 0.55419  0.65510  0.48450  Biso   1.000  C
  C17      1.0000 0.60477  0.76750  0.59671  Biso   1.000  C
  H5       1.0000 0.69197  0.71998  0.47198  Biso   1.000  H
  H6       1.0000 0.39500  0.70703  0.39501  Biso   1.000  H
  H7       1.0000 0.39499  0.70698  0.39501  Biso   1.000  H
  O5       1.0000 0.78567  0.82280  0.57596  Biso   1.000  O
  H8       1.0000 0.72596  0.88998  0.50096  Biso   1.000  H
  H9       1.0000 0.86303  0.88101  0.47602  Biso   1.000  H
  H10      1.0000 0.72605  0.88998  0.50096  Biso   1.000  H
  C18      1.0000 0.74085  0.06751  0.18861  Biso   1.000  C
  C19      1.0000 0.22495  0.80702  0.31853  Biso   1.000  C
  H11      1.0000 0.27298  0.76899  0.16103  Biso   1.000  H
  C20      1.0000 0.22927  0.69110  0.23793  Biso   1.000  C
  C21      1.0000 0.22503  0.80702  0.31853  Biso   1.000  C
  H12      1.0000 0.27306  0.76899  0.16103  Biso   1.000  H
  C22      1.0000 0.22935  0.69110  0.23793  Biso   1.000  C
  O6       1.0000 0.26065  0.88260  0.19396  Biso   1.000  O
  H13      1.0000 0.40798  0.92398  0.27802  Biso   1.000  H
  H14      1.0000 0.39101  0.93802  0.14103  Biso   1.000  H
  O7       1.0000 0.26074  0.88260  0.19396  Biso   1.000  O
  C23      1.0000 0.58054  0.61300  0.38151  Biso   1.000  C
  C24      1.0000 0.58062  0.61300  0.38151  Biso   1.000  C
  H15      1.0000 0.46600  0.65199  0.48400  Biso   1.000  H
  H16      1.0000 0.58498  0.63799  0.55703  Biso   1.000  H
  C25      1.0000 0.51404  0.76092  0.65829  Biso   1.000  C
  C26      1.0000 0.69266  0.81710  0.63433  Biso   1.000  C
  C27      1.0000 0.51412  0.76092  0.65829  Biso   1.000  C
  C28      1.0000 0.69274  0.81710  0.63433  Biso   1.000  C
  C29      1.0000 0.66523  0.10479  0.16219  Biso   1.000  C
  C30      1.0000 0.82443  0.09440  0.27201  Biso   1.000  C
  C31      1.0000 0.21980  0.86690  0.29226  Biso   1.000  C
  C32      1.0000 0.17824  0.79102  0.41213  Biso   1.000  C
  C33      1.0000 0.17832  0.79102  0.41213  Biso   1.000  C
  H17      1.0000 0.14098  0.68698  0.22097  Biso   1.000  H
  H18      1.0000 0.24699  0.67498  0.31499  Biso   1.000  H
  C34      1.0000 0.27345  0.64799  0.14588  Biso   1.000  C
  C35      1.0000 0.27353  0.64799  0.14588  Biso   1.000  C
  C36      1.0000 0.54120  0.54382  0.38126  Biso   1.000  C
  H19      1.0000 0.54196  0.62699  0.30996  Biso   1.000  H
  H20      1.0000 0.66895  0.62101  0.37698  Biso   1.000  H
  H21      1.0000 0.54204  0.62699  0.30996  Biso   1.000  H
  H22      1.0000 0.66903  0.62101  0.37698  Biso   1.000  H
  C37      1.0000 0.50957  0.80100  0.75470  Biso   1.000  C
  H23      1.0000 0.44491  0.72298  0.62898  Biso   1.000  H
  H24      1.0000 0.44499  0.72298  0.62898  Biso   1.000  H
  C38      1.0000 0.69217  0.85832  0.73239  Biso   1.000  C
  O8       1.0000 0.57969  0.07711  0.08093  Biso   1.000  O
  C39      1.0000 0.67224  0.16751  0.20952  Biso   1.000  C
  O9       1.0000 0.57977  0.07711  0.08093  Biso   1.000  O
  C40      1.0000 0.83473  0.15692  0.32281  Biso   1.000  C
  O10      1.0000 0.90090  0.05770  0.29910  Biso   1.000  O
  O11      1.0000 0.90098  0.05770  0.29910  Biso   1.000  O
  C41      1.0000 0.16796  0.91071  0.35582  Biso   1.000  C
  C42      1.0000 0.16804  0.91071  0.35582  Biso   1.000  C
  C43      1.0000 0.12419  0.83263  0.47783  Biso   1.000  C
  H25      1.0000 0.18397  0.74502  0.43502  Biso   1.000  H
  H26      1.0000 0.26601  0.66799  0.07097  Biso   1.000  H
  H27      1.0000 0.35901  0.64802  0.16803  Biso   1.000  H
  C44      1.0000 0.21164  0.58018  0.12538  Biso   1.000  C
  C45      1.0000 0.21172  0.58018  0.12538  Biso   1.000  C
  C46      1.0000 0.57552  0.49822  0.27917  Biso   1.000  C
  H28      1.0000 0.45199  0.53602  0.37904  Biso   1.000  H
  H29      1.0000 0.57496  0.53102  0.45601  Biso   1.000  H
  H30      1.0000 0.57504  0.53102  0.45601  Biso   1.000  H
  C47      1.0000 0.59719  0.85050  0.78927  Biso   1.000  C
  C48      1.0000 0.41263  0.79401  0.82558  Biso   1.000  C
  C49      1.0000 0.41271  0.79401  0.82558  Biso   1.000  C
  S5       1.0000 0.81348  0.91052  0.79191  Biso   1.000  S
  S6       1.0000 0.81347  0.91048  0.79191  Biso   1.000  S
  C50      1.0000 0.47375  0.06081  0.12012  Biso   1.000  C
  C51      1.0000 0.75859  0.19311  0.29119  Biso   1.000  C
  C52      1.0000 0.58732  0.20601  0.17437  Biso   1.000  C
  C53      1.0000 0.75867  0.19311  0.29119  Biso   1.000  C
  C54      1.0000 0.92434  0.18251  0.41600  Biso   1.000  C
  C55      1.0000 0.88319  0.02822  0.39476  Biso   1.000  C
  C56      1.0000 0.88325  0.02817  0.39476  Biso   1.000  C
  S7       1.0000 0.14740  0.98792  0.33499  Biso   1.000  S
  C57      1.0000 0.12003  0.89118  0.44852  Biso   1.000  C
  C58      1.0000 0.12011  0.89118  0.44852  Biso   1.000  C
  C59      1.0000 0.07570  0.81751  0.58403  Biso   1.000  C
  C60      1.0000 0.24387  0.53912  0.02807  Biso   1.000  C
  H31      1.0000 0.22795  0.55903  0.19701  Biso   1.000  H
  H32      1.0000 0.12500  0.58101  0.11402  Biso   1.000  H
  C61      1.0000 0.24394  0.53908  0.02807  Biso   1.000  C
  H33      1.0000 0.22802  0.55898  0.19701  Biso   1.000  H
  C62      1.0000 0.52862  0.50802  0.17931  Biso   1.000  C
  H34      1.0000 0.66395  0.50801  0.27901  Biso   1.000  H
  H35      1.0000 0.54996  0.44902  0.28897  Biso   1.000  H
  H36      1.0000 0.66403  0.50801  0.27901  Biso   1.000  H
  H37      1.0000 0.55004  0.44902  0.28897  Biso   1.000  H
  O12      1.0000 0.59474  0.89269  0.88658  Biso   1.000  O
  C63      1.0000 0.32772  0.83252  0.79051  Biso   1.000  C
  H38      1.0000 0.44193  0.81402  0.90997  Biso   1.000  H
  C64      1.0000 0.36446  0.72351  0.82887  Biso   1.000  C
  C65      1.0000 0.32780  0.83252  0.79051  Biso   1.000  C
  H39      1.0000 0.44200  0.81397  0.90997  Biso   1.000  H
  C66      1.0000 0.78345  0.98899  0.78046  Biso   1.000  C
  C67      1.0000 0.78353  0.98899  0.78046  Biso   1.000  C
  O13      1.0000 0.40519  0.10728  0.11336  Biso   1.000  O
  H40      1.0000 0.48497  0.05499  0.20500  Biso   1.000  H
  H41      1.0000 0.43300  0.01599  0.07204  Biso   1.000  H
  O14      1.0000 0.40527  0.10728  0.11336  Biso   1.000  O
  H42      1.0000 0.48505  0.05499  0.20500  Biso   1.000  H
  H43      1.0000 0.76604  0.24202  0.32997  Biso   1.000  H
  C68      1.0000 0.49038  0.19903  0.24534  Biso   1.000  C
  H44      1.0000 0.55802  0.18600  0.08998  Biso   1.000  H
  C69      1.0000 0.63549  0.27651  0.17108  Biso   1.000  C
  C70      1.0000 0.49046  0.19903  0.24534  Biso   1.000  C
  C71      1.0000 0.63557  0.27651  0.17108  Biso   1.000  C
  C72      1.0000 0.87577  0.16740  0.52220  Biso   1.000  C
  C73      1.0000 0.87585  0.16740  0.52220  Biso   1.000  C
  H45      1.0000 0.99401  0.15900  0.39896  Biso   1.000  H
  C74      1.0000 0.97640  0.25340  0.42497  Biso   1.000  C
  O15      1.0000 0.93837  0.06651  0.49273  Biso   1.000  O
  O16      1.0000 0.93845  0.06651  0.49273  Biso   1.000  O
  H46      1.0000 0.91298  0.98300  0.38299  Biso   1.000  H
  H47      1.0000 0.91306  0.98300  0.38299  Biso   1.000  H
  H48      1.0000 0.79595  0.01998  0.40398  Biso   1.000  H
  H49      1.0000 0.79604  0.01998  0.40398  Biso   1.000  H
  C75      1.0000 0.21648  0.01098  0.21949  Biso   1.000  C
  O17      1.0000 0.06158  0.93351  0.50730  Biso   1.000  O
  C76      1.0000 0.16522  0.84310  0.67723  Biso   1.000  C
  C77      1.0000 0.16530  0.84310  0.67723  Biso   1.000  C
  H50      1.0000 0.00594  0.84101  0.60099  Biso   1.000  H
  C78      1.0000 0.02355  0.74662  0.57498  Biso   1.000  C
  H51      1.0000 0.00602  0.84101  0.60099  Biso   1.000  H
  C79      1.0000 0.02354  0.74657  0.57498  Biso   1.000  C
  C80      1.0000 0.17991  0.47259  0.00461  Biso   1.000  C
  H52      1.0000 0.33001  0.53599  0.04199  Biso   1.000  H
  H53      1.0000 0.23093  0.56203  0.95703  Biso   1.000  H
  H54      1.0000 0.23091  0.56198  0.95703  Biso   1.000  H
  H55      1.0000 0.53496  0.47500  0.10604  Biso   1.000  H
  H56      1.0000 0.44402  0.50401  0.19800  Biso   1.000  H
  H57      1.0000 0.55899  0.55600  0.16498  Biso   1.000  H
  H58      1.0000 0.53504  0.47500  0.10604  Biso   1.000  H
  C81      1.0000 0.52629  0.93921  0.87992  Biso   1.000  C
  C82      1.0000 0.24135  0.80691  0.70876  Biso   1.000  C
  C83      1.0000 0.33470  0.89518  0.83776  Biso   1.000  C
  C84      1.0000 0.33478  0.89518  0.83776  Biso   1.000  C
  H59      1.0000 0.29990  0.72199  0.88403  Biso   1.000  H
  H60      1.0000 0.32997  0.70100  0.74696  Biso   1.000  H
  C85      1.0000 0.44822  0.68472  0.86798  Biso   1.000  C
  H61      1.0000 0.29998  0.72199  0.88403  Biso   1.000  H
  C86      1.0000 0.44829  0.68467  0.86798  Biso   1.000  C
  H62      1.0000 0.69599  0.98698  0.76598  Biso   1.000  H
  S8       1.0000 0.85254  0.01209  0.66496  Biso   1.000  S
  H63      1.0000 0.81396  0.02199  0.85398  Biso   1.000  H
  S9       1.0000 0.85263  0.01209  0.66496  Biso   1.000  S
  C87      1.0000 0.40284  0.14951  0.21068  Biso   1.000  C
  C88      1.0000 0.48590  0.23910  0.34166  Biso   1.000  C
  H64      1.0000 0.70004  0.27799  0.11600  Biso   1.000  H
  H65      1.0000 0.66998  0.29902  0.25299  Biso   1.000  H
  C89      1.0000 0.55173  0.31530  0.13197  Biso   1.000  C
  H66      1.0000 0.67006  0.29902  0.25299  Biso   1.000  H
  C90      1.0000 0.87991  0.10879  0.55151  Biso   1.000  C
  C91      1.0000 0.82172  0.20900  0.58790  Biso   1.000  C
  H67      1.0000 0.91200  0.28200  0.43098  Biso   1.000  H
  H68      1.0000 0.03303  0.26702  0.49800  Biso   1.000  H
  C92      1.0000 0.03858  0.26468  0.32379  Biso   1.000  C
  H69      1.0000 0.03295  0.26702  0.49800  Biso   1.000  H
  H70      1.0000 0.18598  0.97798  0.14597  Biso   1.000  H
  H71      1.0000 0.18606  0.97798  0.14597  Biso   1.000  H
  S10      1.0000 0.18648  0.08950  0.20812  Biso   1.000  S
  H72      1.0000 0.30395  0.01299  0.23397  Biso   1.000  H
  S11      1.0000 0.18656  0.08950  0.20812  Biso   1.000  S
  H73      1.0000 0.30403  0.01299  0.23397  Biso   1.000  H
  C93      1.0000 0.11676  0.97179  0.60519  Biso   1.000  C
  C94      1.0000 0.17552  0.90562  0.72802  Biso   1.000  C
  C95      1.0000 0.17560  0.90562  0.72802  Biso   1.000  C
  H74      1.0000 0.08795  0.71801  0.56897  Biso   1.000  H
  H75      1.0000 0.96701  0.73300  0.50203  Biso   1.000  H
  C96      1.0000 0.96143  0.73529  0.67616  Biso   1.000  C
  C97      1.0000 0.96135  0.73529  0.67616  Biso   1.000  C
  H76      1.0000 0.18694  0.45401  0.08101  Biso   1.000  H
  H77      1.0000 0.18702  0.45401  0.08101  Biso   1.000  H
  H78      1.0000 0.21093  0.44202  0.93998  Biso   1.000  H
  H79      1.0000 0.09391  0.47403  0.98304  Biso   1.000  H
  H80      1.0000 0.21091  0.44198  0.93998  Biso   1.000  H
  H81      1.0000 0.09390  0.47398  0.98304  Biso   1.000  H
  O18      1.0000 0.42027  0.92291  0.91910  Biso   1.000  O
  H82      1.0000 0.51496  0.94498  0.79495  Biso   1.000  H
  H83      1.0000 0.56694  0.98399  0.92800  Biso   1.000  H
  H84      1.0000 0.56702  0.98399  0.92800  Biso   1.000  H
  H85      1.0000 0.23399  0.75800  0.66998  Biso   1.000  H
  C98      1.0000 0.25919  0.93251  0.81142  Biso   1.000  C
  H86      1.0000 0.40394  0.63898  0.88000  Biso   1.000  H
  H87      1.0000 0.50394  0.67802  0.80401  Biso   1.000  H
  C99      1.0000 0.51640  0.71429  0.97311  Biso   1.000  C
  H88      1.0000 0.50402  0.67802  0.80401  Biso   1.000  H
  C100     1.0000 0.51648  0.71429  0.97311  Biso   1.000  C
  C101     1.0000 0.83200  0.08932  0.64421  Biso   1.000  C
  C102     1.0000 0.30777  0.14170  0.26756  Biso   1.000  C
  C103     1.0000 0.30785  0.14170  0.26756  Biso   1.000  C
  C104     1.0000 0.39519  0.23253  0.40332  Biso   1.000  C
  H89      1.0000 0.55502  0.27699  0.37097  Biso   1.000  H
  C105     1.0000 0.39527  0.23253  0.40332  Biso   1.000  C
  H90      1.0000 0.59600  0.36100  0.12003  Biso   1.000  H
  H91      1.0000 0.49601  0.32201  0.19602  Biso   1.000  H
  C106     1.0000 0.48354  0.28568  0.02692  Biso   1.000  C
  H92      1.0000 0.59609  0.36100  0.12003  Biso   1.000  H
  C107     1.0000 0.77501  0.19301  0.68151  Biso   1.000  C
  H93      1.0000 0.81598  0.25501  0.56501  Biso   1.000  H
  H94      1.0000 0.81606  0.25501  0.56501  Biso   1.000  H
  H95      1.0000 0.97898  0.26399  0.25497  Biso   1.000  H
  H96      1.0000 0.97906  0.26399  0.25497  Biso   1.000  H
  H97      1.0000 0.08505  0.22702  0.30404  Biso   1.000  H
  C108     1.0000 0.11819  0.32851  0.34256  Biso   1.000  C
  H98      1.0000 0.08497  0.22702  0.30404  Biso   1.000  H
  O19      1.0000 0.09906  0.94232  0.70094  Biso   1.000  O
  H99      1.0000 0.20398  0.97999  0.59597  Biso   1.000  H
  H100     1.0000 0.08696  0.01701  0.61696  Biso   1.000  H
  H101     1.0000 0.02095  0.73598  0.74498  Biso   1.000  H
  H102     1.0000 0.91499  0.77301  0.69600  Biso   1.000  H
  C109     1.0000 0.88184  0.67150  0.65739  Biso   1.000  C
  C110     1.0000 0.88176  0.67150  0.65739  Biso   1.000  C
  S12      1.0000 0.25406  0.00740  0.89482  Biso   1.000  S
  H103     1.0000 0.56892  0.75701  0.96002  Biso   1.000  H
  H104     1.0000 0.56900  0.75701  0.96002  Biso   1.000  H
  C111     1.0000 0.59002  0.66800  0.01213  Biso   1.000  C
  H105     1.0000 0.46212  0.72599  0.03601  Biso   1.000  H
  C112     1.0000 0.58994  0.66800  0.01213  Biso   1.000  C
  H106     1.0000 0.46204  0.72599  0.03601  Biso   1.000  H
  C113     1.0000 0.78014  0.13312  0.70769  Biso   1.000  C
  C114     1.0000 0.78022  0.13312  0.70769  Biso   1.000  C
  C115     1.0000 0.30729  0.18292  0.36570  Biso   1.000  C
  C116     1.0000 0.39145  0.27560  0.51323  Biso   1.000  C
  C117     1.0000 0.39153  0.27560  0.51323  Biso   1.000  C
  C118     1.0000 0.41002  0.33203  0.98790  Biso   1.000  C
  H107     1.0000 0.53791  0.27399  0.96402  Biso   1.000  H
  H108     1.0000 0.43104  0.24301  0.04001  Biso   1.000  H
  C119     1.0000 0.71739  0.23883  0.75453  Biso   1.000  C
  C120     1.0000 0.71738  0.23878  0.75453  Biso   1.000  C
  C121     1.0000 0.18300  0.33900  0.24040  Biso   1.000  C
  H109     1.0000 0.07198  0.36700  0.36002  Biso   1.000  H
  H110     1.0000 0.17602  0.33002  0.41197  Biso   1.000  H
  H111     1.0000 0.17594  0.33002  0.41197  Biso   1.000  H
  C122     1.0000 0.81704  0.66102  0.75964  Biso   1.000  C
  H112     1.0000 0.92805  0.63302  0.64001  Biso   1.000  H
  H113     1.0000 0.82400  0.67000  0.58798  Biso   1.000  H
  C123     1.0000 0.81695  0.66102  0.75964  Biso   1.000  C
  H114     1.0000 0.92796  0.63298  0.64001  Biso   1.000  H
  C124     1.0000 0.36582  0.06152  0.85176  Biso   1.000  C
  C125     1.0000 0.36589  0.06147  0.85176  Biso   1.000  C
  H115     1.0000 0.63598  0.65200  0.94397  Biso   1.000  H
  C126     1.0000 0.66785  0.69448  0.10327  Biso   1.000  C
  H116     1.0000 0.53610  0.62798  0.03403  Biso   1.000  H
  H117     1.0000 0.53602  0.62798  0.03403  Biso   1.000  H
  O20      1.0000 0.73929  0.11741  0.80599  Biso   1.000  O
  O21      1.0000 0.21428  0.17722  0.42399  Biso   1.000  O
  C127     1.0000 0.44000  0.24352  0.60116  Biso   1.000  C
  H118     1.0000 0.30796  0.27999  0.52797  Biso   1.000  H
  C128     1.0000 0.44576  0.34493  0.51553  Biso   1.000  C
  H119     1.0000 0.30804  0.27999  0.52797  Biso   1.000  H
  C129     1.0000 0.44585  0.34493  0.51553  Biso   1.000  C
  C130     1.0000 0.33216  0.30549  0.89668  Biso   1.000  C
  H120     1.0000 0.46392  0.37199  0.96600  Biso   1.000  H
  C131     1.0000 0.33208  0.30549  0.89668  Biso   1.000  C
  H121     1.0000 0.36405  0.34802  0.05598  Biso   1.000  H
  C132     1.0000 0.59455  0.22431  0.71600  Biso   1.000  C
  H122     1.0000 0.72697  0.23098  0.83900  Biso   1.000  H
  C133     1.0000 0.77069  0.30892  0.76211  Biso   1.000  C
  C134     1.0000 0.59463  0.22431  0.71600  Biso   1.000  C
  C135     1.0000 0.25805  0.40291  0.26402  Biso   1.000  C
  H123     1.0000 0.12606  0.33802  0.17001  Biso   1.000  H
  H124     1.0000 0.23100  0.30198  0.22303  Biso   1.000  H
  C136     1.0000 0.25796  0.40291  0.26402  Biso   1.000  C
  H125     1.0000 0.12598  0.33802  0.17001  Biso   1.000  H
  C137     1.0000 0.74199  0.59712  0.73601  Biso   1.000  C
  H126     1.0000 0.87397  0.66200  0.83003  Biso   1.000  H
  H127     1.0000 0.76902  0.69799  0.77701  Biso   1.000  H
  H128     1.0000 0.76894  0.69799  0.77701  Biso   1.000  H
  S13      1.0000 0.30717  0.10888  0.76746  Biso   1.000  S
  H129     1.0000 0.41192  0.09199  0.92297  Biso   1.000  H
  H130     1.0000 0.41996  0.03501  0.80599  Biso   1.000  H
  H131     1.0000 0.41200  0.09199  0.92297  Biso   1.000  H
  H132     1.0000 0.72210  0.66402  0.13003  Biso   1.000  H
  H133     1.0000 0.71607  0.73400  0.07199  Biso   1.000  H
  H134     1.0000 0.62612  0.71299  0.17201  Biso   1.000  H
  H135     1.0000 0.72202  0.66402  0.13003  Biso   1.000  H
  H136     1.0000 0.62604  0.71299  0.17201  Biso   1.000  H
  C138     1.0000 0.62339  0.09749  0.80516  Biso   1.000  C
  C139     1.0000 0.21906  0.14399  0.51529  Biso   1.000  C
  C140     1.0000 0.21914  0.14399  0.51529  Biso   1.000  C
  C141     1.0000 0.37315  0.19649  0.64397  Biso   1.000  C
  C142     1.0000 0.37323  0.19649  0.64397  Biso   1.000  C
  C143     1.0000 0.55080  0.25650  0.63787  Biso   1.000  C
  H137     1.0000 0.53402  0.34799  0.51603  Biso   1.000  H
  H138     1.0000 0.41496  0.36199  0.44300  Biso   1.000  H
  C144     1.0000 0.41941  0.38703  0.61853  Biso   1.000  C
  H139     1.0000 0.41504  0.36199  0.44300  Biso   1.000  H
  C145     1.0000 0.41940  0.38698  0.61853  Biso   1.000  C
  H140     1.0000 0.27793  0.33601  0.87000  Biso   1.000  H
  H141     1.0000 0.28396  0.26602  0.92796  Biso   1.000  H
  H142     1.0000 0.37398  0.28699  0.82802  Biso   1.000  H
  H143     1.0000 0.28388  0.26602  0.92796  Biso   1.000  H
  H144     1.0000 0.37390  0.28699  0.82802  Biso   1.000  H
  C146     1.0000 0.52343  0.17778  0.75659  Biso   1.000  C
  C147     1.0000 0.52351  0.17778  0.75659  Biso   1.000  C
  H145     1.0000 0.85896  0.31299  0.77898  Biso   1.000  H
  H146     1.0000 0.75294  0.32499  0.68496  Biso   1.000  H
  C148     1.0000 0.72649  0.35198  0.85407  Biso   1.000  C
  H147     1.0000 0.85904  0.31299  0.77898  Biso   1.000  H
  H148     1.0000 0.75302  0.32499  0.68496  Biso   1.000  H
  H149     1.0000 0.29404  0.40399  0.18598  Biso   1.000  H
  H150     1.0000 0.32203  0.40499  0.32898  Biso   1.000  H
  H151     1.0000 0.21605  0.44300  0.28197  Biso   1.000  H
  H152     1.0000 0.29396  0.40399  0.18598  Biso   1.000  H
  H153     1.0000 0.32195  0.40499  0.32898  Biso   1.000  H
  H154     1.0000 0.21597  0.44300  0.28197  Biso   1.000  H
  H155     1.0000 0.70597  0.59597  0.81397  Biso   1.000  H
  H156     1.0000 0.67799  0.59498  0.67097  Biso   1.000  H
  H157     1.0000 0.78396  0.55697  0.71798  Biso   1.000  H
  C149     1.0000 0.41229  0.16289  0.72218  Biso   1.000  C
  H158     1.0000 0.59196  0.07600  0.72201  Biso   1.000  H
  H159     1.0000 0.60895  0.06200  0.85901  Biso   1.000  H
  O22      1.0000 0.56546  0.14798  0.83966  Biso   1.000  O
  H160     1.0000 0.60903  0.06200  0.85901  Biso   1.000  H
  O23      1.0000 0.25798  0.18482  0.61630  Biso   1.000  O
  H161     1.0000 0.27397  0.10999  0.49899  Biso   1.000  H
  H162     1.0000 0.13700  0.11901  0.52401  Biso   1.000  H
  H163     1.0000 0.60495  0.29300  0.60502  Biso   1.000  H
  H164     1.0000 0.60503  0.29300  0.60502  Biso   1.000  H
  H165     1.0000 0.45797  0.37298  0.68999  Biso   1.000  H
  H166     1.0000 0.33100  0.37900  0.62297  Biso   1.000  H
  C150     1.0000 0.45874  0.45620  0.61869  Biso   1.000  C
  C151     1.0000 0.45883  0.45620  0.61869  Biso   1.000  C
  H167     1.0000 0.73392  0.33198  0.92898  Biso   1.000  H
  H168     1.0000 0.64095  0.35200  0.83200  Biso   1.000  H
  C152     1.0000 0.78830  0.41979  0.87457  Biso   1.000  C
  H169     1.0000 0.73401  0.33198  0.92898  Biso   1.000  H
  H170     1.0000 0.64103  0.35200  0.83200  Biso   1.000  H
  C153     1.0000 0.42451  0.50180  0.72078  Biso   1.000  C
  H171     1.0000 0.54797  0.46400  0.62100  Biso   1.000  H
  H172     1.0000 0.42499  0.46901  0.54402  Biso   1.000  H
  H173     1.0000 0.54805  0.46400  0.62100  Biso   1.000  H
  C154     1.0000 0.75607  0.46089  0.97188  Biso   1.000  C
  H174     1.0000 0.77200  0.44100  0.80302  Biso   1.000  H
  H175     1.0000 0.87496  0.41902  0.88601  Biso   1.000  H
  H176     1.0000 0.87504  0.41902  0.88601  Biso   1.000  H
  C155     1.0000 0.47134  0.49200  0.82072  Biso   1.000  C
  H177     1.0000 0.33600  0.49202  0.72102  Biso   1.000  H
  H178     1.0000 0.44999  0.55100  0.71098  Biso   1.000  H
  C156     1.0000 0.47142  0.49200  0.82072  Biso   1.000  C
  C157     1.0000 0.82003  0.52738  0.99542  Biso   1.000  C
  H179     1.0000 0.66993  0.46398  0.95796  Biso   1.000  H
  C158     1.0000 0.82011  0.52738  0.99542  Biso   1.000  C
  H180     1.0000 0.67001  0.46398  0.95796  Biso   1.000  H
  H181     1.0000 0.76903  0.43800  0.04301  Biso   1.000  H
  H182     1.0000 0.76911  0.43800  0.04301  Biso   1.000  H
  H183     1.0000 0.46499  0.52502  0.89399  Biso   1.000  H
  H184     1.0000 0.55601  0.49601  0.80203  Biso   1.000  H
  H185     1.0000 0.44095  0.44402  0.83497  Biso   1.000  H
  H186     1.0000 0.46498  0.52498  0.89399  Biso   1.000  H
  H187     1.0000 0.44103  0.44402  0.83497  Biso   1.000  H
  H188     1.0000 0.81301  0.54602  0.91902  Biso   1.000  H
  H189     1.0000 0.78902  0.55799  0.05997  Biso   1.000  H
  H190     1.0000 0.90604  0.52599  0.01699  Biso   1.000  H
  H191     1.0000 0.78910  0.55799  0.05997  Biso   1.000  H
  C159     1.0000 0.58772  0.83708  0.27777  Biso   1.000  C
  C160     1.0000 0.62678  0.80348  0.35598  Biso   1.000  C
  C161     1.0000 0.47651  0.82219  0.24336  Biso   1.000  C
  S14      1.0000 0.69277  0.89109  0.23249  Biso   1.000  S
  S15      1.0000 0.69285  0.89109  0.23249  Biso   1.000  S
  C162     1.0000 0.55994  0.75650  0.39879  Biso   1.000  C
  C163     1.0000 0.56003  0.75650  0.39879  Biso   1.000  C
  O24      1.0000 0.74198  0.81520  0.38373  Biso   1.000  O
  O25      1.0000 0.74206  0.81520  0.38373  Biso   1.000  O
  C164     1.0000 0.40540  0.77572  0.28403  Biso   1.000  C
  O26      1.0000 0.43447  0.85199  0.16029  Biso   1.000  O
  O27      1.0000 0.43455  0.85199  0.16029  Biso   1.000  O
  C165     1.0000 0.63412  0.93850  0.14819  Biso   1.000  C
  C166     1.0000 0.60850  0.72442  0.48680  Biso   1.000  C
  C167     1.0000 0.44914  0.74351  0.36208  Biso   1.000  C
  C168     1.0000 0.44922  0.74351  0.36208  Biso   1.000  C
  C169     1.0000 0.78088  0.85598  0.48466  Biso   1.000  C
  C170     1.0000 0.28256  0.76120  0.24550  Biso   1.000  C
  C171     1.0000 0.28264  0.76120  0.24550  Biso   1.000  C
  C172     1.0000 0.37663  0.90252  0.19479  Biso   1.000  C
  C173     1.0000 0.37662  0.90248  0.19479  Biso   1.000  C
  S16      1.0000 0.74589  0.99263  0.10521  Biso   1.000  S
  H192     1.0000 0.58803  0.90802  0.07698  Biso   1.000  H
  H193     1.0000 0.57999  0.96500  0.19396  Biso   1.000  H
  S17      1.0000 0.74596  0.99258  0.10521  Biso   1.000  S
  H194     1.0000 0.58802  0.90798  0.07698  Biso   1.000  H
  H195     1.0000 0.58007  0.96500  0.19396  Biso   1.000  H
  C174     1.0000 0.55419  0.65510  0.48450  Biso   1.000  C
  C175     1.0000 0.60477  0.76750  0.59671  Biso   1.000  C
  H196     1.0000 0.69197  0.71998  0.47198  Biso   1.000  H
  H197     1.0000 0.39500  0.70703  0.39501  Biso   1.000  H
  H198     1.0000 0.39499  0.70698  0.39501  Biso   1.000  H
  O28      1.0000 0.78567  0.82280  0.57596  Biso   1.000  O
  H199     1.0000 0.86303  0.88101  0.47602  Biso   1.000  H
  H200     1.0000 0.72596  0.88998  0.50096  Biso   1.000  H
  H201     1.0000 0.72605  0.88998  0.50096  Biso   1.000  H
  C176     1.0000 0.22495  0.80702  0.31853  Biso   1.000  C
  H202     1.0000 0.27298  0.76899  0.16103  Biso   1.000  H
  C177     1.0000 0.22927  0.69110  0.23793  Biso   1.000  C
  C178     1.0000 0.22503  0.80702  0.31853  Biso   1.000  C
  H203     1.0000 0.27306  0.76899  0.16103  Biso   1.000  H
  C179     1.0000 0.22935  0.69110  0.23793  Biso   1.000  C
  H204     1.0000 0.40798  0.92398  0.27802  Biso   1.000  H
  H205     1.0000 0.39101  0.93802  0.14103  Biso   1.000  H
  O29      1.0000 0.26065  0.88260  0.19396  Biso   1.000  O
  O30      1.0000 0.26074  0.88260  0.19396  Biso   1.000  O
  C180     1.0000 0.74085  0.06751  0.18861  Biso   1.000  C
  C181     1.0000 0.58054  0.61300  0.38151  Biso   1.000  C
  C182     1.0000 0.58062  0.61300  0.38151  Biso   1.000  C
  H206     1.0000 0.46600  0.65199  0.48400  Biso   1.000  H
  H207     1.0000 0.58498  0.63799  0.55703  Biso   1.000  H
  C183     1.0000 0.51404  0.76092  0.65829  Biso   1.000  C
  C184     1.0000 0.69266  0.81710  0.63433  Biso   1.000  C
  C185     1.0000 0.51412  0.76092  0.65829  Biso   1.000  C
  C186     1.0000 0.69274  0.81710  0.63433  Biso   1.000  C
  C187     1.0000 0.21980  0.86690  0.29226  Biso   1.000  C
  C188     1.0000 0.17824  0.79102  0.41213  Biso   1.000  C
  C189     1.0000 0.17832  0.79102  0.41213  Biso   1.000  C
  H208     1.0000 0.14098  0.68698  0.22097  Biso   1.000  H
  H209     1.0000 0.24699  0.67498  0.31499  Biso   1.000  H
  C190     1.0000 0.27345  0.64799  0.14588  Biso   1.000  C
  C191     1.0000 0.27353  0.64799  0.14588  Biso   1.000  C
  C192     1.0000 0.66523  0.10479  0.16219  Biso   1.000  C
  C193     1.0000 0.82443  0.09440  0.27201  Biso   1.000  C
  C194     1.0000 0.54120  0.54382  0.38126  Biso   1.000  C
  H210     1.0000 0.54196  0.62699  0.30996  Biso   1.000  H
  H211     1.0000 0.66895  0.62101  0.37698  Biso   1.000  H
  H212     1.0000 0.54204  0.62699  0.30996  Biso   1.000  H
  H213     1.0000 0.66903  0.62101  0.37698  Biso   1.000  H
  C195     1.0000 0.50957  0.80100  0.75470  Biso   1.000  C
  H214     1.0000 0.44491  0.72298  0.62898  Biso   1.000  H
  H215     1.0000 0.44499  0.72298  0.62898  Biso   1.000  H
  C196     1.0000 0.69217  0.85832  0.73239  Biso   1.000  C
  C197     1.0000 0.16796  0.91071  0.35582  Biso   1.000  C
  C198     1.0000 0.16804  0.91071  0.35582  Biso   1.000  C
  C199     1.0000 0.12419  0.83263  0.47783  Biso   1.000  C
  H216     1.0000 0.18397  0.74502  0.43502  Biso   1.000  H
  H217     1.0000 0.26601  0.66799  0.07097  Biso   1.000  H
  H218     1.0000 0.35901  0.64802  0.16803  Biso   1.000  H
  C200     1.0000 0.21164  0.58018  0.12538  Biso   1.000  C
  C201     1.0000 0.21172  0.58018  0.12538  Biso   1.000  C
  O31      1.0000 0.57969  0.07711  0.08093  Biso   1.000  O
  C202     1.0000 0.67224  0.16751  0.20952  Biso   1.000  C
  O32      1.0000 0.57977  0.07711  0.08093  Biso   1.000  O
  C203     1.0000 0.83473  0.15692  0.32281  Biso   1.000  C
  O33      1.0000 0.90090  0.05770  0.29910  Biso   1.000  O
  O34      1.0000 0.90098  0.05770  0.29910  Biso   1.000  O
  C204     1.0000 0.57552  0.49822  0.27917  Biso   1.000  C
  H219     1.0000 0.45199  0.53602  0.37904  Biso   1.000  H
  H220     1.0000 0.57496  0.53102  0.45601  Biso   1.000  H
  H221     1.0000 0.57504  0.53102  0.45601  Biso   1.000  H
  C205     1.0000 0.59719  0.85050  0.78927  Biso   1.000  C
  C206     1.0000 0.41263  0.79401  0.82558  Biso   1.000  C
  C207     1.0000 0.41271  0.79401  0.82558  Biso   1.000  C
  S18      1.0000 0.81348  0.91052  0.79191  Biso   1.000  S
  S19      1.0000 0.81347  0.91048  0.79191  Biso   1.000  S
  S20      1.0000 0.14740  0.98792  0.33499  Biso   1.000  S
  C208     1.0000 0.12003  0.89118  0.44852  Biso   1.000  C
  C209     1.0000 0.12011  0.89118  0.44852  Biso   1.000  C
  C210     1.0000 0.07570  0.81751  0.58403  Biso   1.000  C
  H222     1.0000 0.12500  0.58101  0.11402  Biso   1.000  H
  C211     1.0000 0.24387  0.53912  0.02807  Biso   1.000  C
  H223     1.0000 0.22795  0.55903  0.19701  Biso   1.000  H
  C212     1.0000 0.24394  0.53908  0.02807  Biso   1.000  C
  H224     1.0000 0.22802  0.55898  0.19701  Biso   1.000  H
  C213     1.0000 0.47375  0.06081  0.12012  Biso   1.000  C
  C214     1.0000 0.75859  0.19311  0.29119  Biso   1.000  C
  C215     1.0000 0.58732  0.20601  0.17437  Biso   1.000  C
  C216     1.0000 0.75867  0.19311  0.29119  Biso   1.000  C
  C217     1.0000 0.92434  0.18251  0.41600  Biso   1.000  C
  C218     1.0000 0.88319  0.02822  0.39476  Biso   1.000  C
  C219     1.0000 0.88325  0.02817  0.39476  Biso   1.000  C
  C220     1.0000 0.52862  0.50802  0.17931  Biso   1.000  C
  H225     1.0000 0.66395  0.50801  0.27901  Biso   1.000  H
  H226     1.0000 0.54996  0.44902  0.28897  Biso   1.000  H
  H227     1.0000 0.66403  0.50801  0.27901  Biso   1.000  H
  H228     1.0000 0.55004  0.44902  0.28897  Biso   1.000  H
  O35      1.0000 0.59474  0.89269  0.88658  Biso   1.000  O
  C221     1.0000 0.36446  0.72351  0.82887  Biso   1.000  C
  C222     1.0000 0.32772  0.83252  0.79051  Biso   1.000  C
  H229     1.0000 0.44193  0.81402  0.90997  Biso   1.000  H
  C223     1.0000 0.32780  0.83252  0.79051  Biso   1.000  C
  H230     1.0000 0.44200  0.81397  0.90997  Biso   1.000  H
  C224     1.0000 0.78345  0.98899  0.78046  Biso   1.000  C
  C225     1.0000 0.78353  0.98899  0.78046  Biso   1.000  C
  C226     1.0000 0.21648  0.01098  0.21949  Biso   1.000  C
  O36      1.0000 0.06158  0.93351  0.50730  Biso   1.000  O
  C227     1.0000 0.16522  0.84310  0.67723  Biso   1.000  C
  C228     1.0000 0.16530  0.84310  0.67723  Biso   1.000  C
  H231     1.0000 0.00594  0.84101  0.60099  Biso   1.000  H
  C229     1.0000 0.02355  0.74662  0.57498  Biso   1.000  C
  H232     1.0000 0.00602  0.84101  0.60099  Biso   1.000  H
  C230     1.0000 0.02354  0.74657  0.57498  Biso   1.000  C
  C231     1.0000 0.17991  0.47259  0.00461  Biso   1.000  C
  H233     1.0000 0.33001  0.53599  0.04199  Biso   1.000  H
  H234     1.0000 0.23093  0.56203  0.95703  Biso   1.000  H
  H235     1.0000 0.23091  0.56198  0.95703  Biso   1.000  H
  O37      1.0000 0.40519  0.10728  0.11336  Biso   1.000  O
  H236     1.0000 0.48497  0.05499  0.20500  Biso   1.000  H
  H237     1.0000 0.43300  0.01599  0.07204  Biso   1.000  H
  O38      1.0000 0.40527  0.10728  0.11336  Biso   1.000  O
  H238     1.0000 0.48505  0.05499  0.20500  Biso   1.000  H
  H239     1.0000 0.76604  0.24202  0.32997  Biso   1.000  H
  C232     1.0000 0.49038  0.19903  0.24534  Biso   1.000  C
  H240     1.0000 0.55802  0.18600  0.08998  Biso   1.000  H
  C233     1.0000 0.63549  0.27651  0.17108  Biso   1.000  C
  C234     1.0000 0.49046  0.19903  0.24534  Biso   1.000  C
  C235     1.0000 0.63557  0.27651  0.17108  Biso   1.000  C
  C236     1.0000 0.87577  0.16740  0.52220  Biso   1.000  C
  C237     1.0000 0.87585  0.16740  0.52220  Biso   1.000  C
  H241     1.0000 0.99401  0.15900  0.39896  Biso   1.000  H
  C238     1.0000 0.97640  0.25340  0.42497  Biso   1.000  C
  O39      1.0000 0.93837  0.06651  0.49273  Biso   1.000  O
  O40      1.0000 0.93845  0.06651  0.49273  Biso   1.000  O
  H242     1.0000 0.91298  0.98300  0.38299  Biso   1.000  H
  H243     1.0000 0.91306  0.98300  0.38299  Biso   1.000  H
  H244     1.0000 0.79595  0.01998  0.40398  Biso   1.000  H
  H245     1.0000 0.79604  0.01998  0.40398  Biso   1.000  H
  H246     1.0000 0.44402  0.50401  0.19800  Biso   1.000  H
  H247     1.0000 0.55899  0.55600  0.16498  Biso   1.000  H
  H248     1.0000 0.53496  0.47500  0.10604  Biso   1.000  H
  H249     1.0000 0.53504  0.47500  0.10604  Biso   1.000  H
  C239     1.0000 0.52629  0.93921  0.87992  Biso   1.000  C
  H250     1.0000 0.32997  0.70100  0.74696  Biso   1.000  H
  H251     1.0000 0.29990  0.72199  0.88403  Biso   1.000  H
  C240     1.0000 0.44822  0.68472  0.86798  Biso   1.000  C
  H252     1.0000 0.29998  0.72199  0.88403  Biso   1.000  H
  C241     1.0000 0.44829  0.68467  0.86798  Biso   1.000  C
  C242     1.0000 0.24135  0.80691  0.70876  Biso   1.000  C
  C243     1.0000 0.33470  0.89518  0.83776  Biso   1.000  C
  C244     1.0000 0.33478  0.89518  0.83776  Biso   1.000  C
  H253     1.0000 0.69599  0.98698  0.76598  Biso   1.000  H
  S21      1.0000 0.85254  0.01209  0.66496  Biso   1.000  S
  H254     1.0000 0.81396  0.02199  0.85398  Biso   1.000  H
  S22      1.0000 0.85263  0.01209  0.66496  Biso   1.000  S
  H255     1.0000 0.18598  0.97798  0.14597  Biso   1.000  H
  H256     1.0000 0.18606  0.97798  0.14597  Biso   1.000  H
  S23      1.0000 0.18648  0.08950  0.20812  Biso   1.000  S
  H257     1.0000 0.30395  0.01299  0.23397  Biso   1.000  H
  S24      1.0000 0.18656  0.08950  0.20812  Biso   1.000  S
  H258     1.0000 0.30403  0.01299  0.23397  Biso   1.000  H
  C245     1.0000 0.11676  0.97179  0.60519  Biso   1.000  C
  C246     1.0000 0.17552  0.90562  0.72802  Biso   1.000  C
  C247     1.0000 0.17560  0.90562  0.72802  Biso   1.000  C
  H259     1.0000 0.08795  0.71801  0.56897  Biso   1.000  H
  H260     1.0000 0.96701  0.73300  0.50203  Biso   1.000  H
  C248     1.0000 0.96143  0.73529  0.67616  Biso   1.000  C
  C249     1.0000 0.96135  0.73529  0.67616  Biso   1.000  C
  H261     1.0000 0.21093  0.44202  0.93998  Biso   1.000  H
  H262     1.0000 0.09391  0.47403  0.98304  Biso   1.000  H
  H263     1.0000 0.21091  0.44198  0.93998  Biso   1.000  H
  H264     1.0000 0.09390  0.47398  0.98304  Biso   1.000  H
  H265     1.0000 0.18694  0.45401  0.08101  Biso   1.000  H
  H266     1.0000 0.18702  0.45401  0.08101  Biso   1.000  H
  C250     1.0000 0.40284  0.14951  0.21068  Biso   1.000  C
  C251     1.0000 0.48590  0.23910  0.34166  Biso   1.000  C
  H267     1.0000 0.70004  0.27799  0.11600  Biso   1.000  H
  H268     1.0000 0.66998  0.29902  0.25299  Biso   1.000  H
  C252     1.0000 0.55173  0.31530  0.13197  Biso   1.000  C
  H269     1.0000 0.67006  0.29902  0.25299  Biso   1.000  H
  C253     1.0000 0.87991  0.10879  0.55151  Biso   1.000  C
  C254     1.0000 0.82172  0.20900  0.58790  Biso   1.000  C
  H270     1.0000 0.91200  0.28200  0.43098  Biso   1.000  H
  H271     1.0000 0.03303  0.26702  0.49800  Biso   1.000  H
  C255     1.0000 0.03858  0.26468  0.32379  Biso   1.000  C
  H272     1.0000 0.03295  0.26702  0.49800  Biso   1.000  H
  O41      1.0000 0.42027  0.92291  0.91910  Biso   1.000  O
  H273     1.0000 0.51496  0.94498  0.79495  Biso   1.000  H
  H274     1.0000 0.56694  0.98399  0.92800  Biso   1.000  H
  H275     1.0000 0.56702  0.98399  0.92800  Biso   1.000  H
  H276     1.0000 0.40394  0.63898  0.88000  Biso   1.000  H
  H277     1.0000 0.50394  0.67802  0.80401  Biso   1.000  H
  C256     1.0000 0.51640  0.71429  0.97311  Biso   1.000  C
  H278     1.0000 0.50402  0.67802  0.80401  Biso   1.000  H
  C257     1.0000 0.51648  0.71429  0.97311  Biso   1.000  C
  H279     1.0000 0.23399  0.75800  0.66998  Biso   1.000  H
  C258     1.0000 0.25919  0.93251  0.81142  Biso   1.000  C
  C259     1.0000 0.83200  0.08932  0.64421  Biso   1.000  C
  C260     1.0000 0.30777  0.14170  0.26756  Biso   1.000  C
  C261     1.0000 0.30785  0.14170  0.26756  Biso   1.000  C
  O42      1.0000 0.09906  0.94232  0.70094  Biso   1.000  O
  H280     1.0000 0.20398  0.97999  0.59597  Biso   1.000  H
  H281     1.0000 0.08696  0.01701  0.61696  Biso   1.000  H
  H282     1.0000 0.02095  0.73598  0.74498  Biso   1.000  H
  H283     1.0000 0.91499  0.77301  0.69600  Biso   1.000  H
  C262     1.0000 0.88184  0.67150  0.65739  Biso   1.000  C
  C263     1.0000 0.88176  0.67150  0.65739  Biso   1.000  C
  C264     1.0000 0.39519  0.23253  0.40332  Biso   1.000  C
  H284     1.0000 0.55502  0.27699  0.37097  Biso   1.000  H
  C265     1.0000 0.39527  0.23253  0.40332  Biso   1.000  C
  H285     1.0000 0.59600  0.36100  0.12003  Biso   1.000  H
  H286     1.0000 0.49601  0.32201  0.19602  Biso   1.000  H
  C266     1.0000 0.48354  0.28568  0.02692  Biso   1.000  C
  H287     1.0000 0.59609  0.36100  0.12003  Biso   1.000  H
  C267     1.0000 0.77501  0.19301  0.68151  Biso   1.000  C
  H288     1.0000 0.81598  0.25501  0.56501  Biso   1.000  H
  H289     1.0000 0.81606  0.25501  0.56501  Biso   1.000  H
  H290     1.0000 0.97898  0.26399  0.25497  Biso   1.000  H
  H291     1.0000 0.97906  0.26399  0.25497  Biso   1.000  H
  H292     1.0000 0.08505  0.22702  0.30404  Biso   1.000  H
  C268     1.0000 0.11819  0.32851  0.34256  Biso   1.000  C
  H293     1.0000 0.08497  0.22702  0.30404  Biso   1.000  H
  H294     1.0000 0.56892  0.75701  0.96002  Biso   1.000  H
  H295     1.0000 0.56900  0.75701  0.96002  Biso   1.000  H
  C269     1.0000 0.59002  0.66800  0.01213  Biso   1.000  C
  H296     1.0000 0.46212  0.72599  0.03601  Biso   1.000  H
  C270     1.0000 0.58994  0.66800  0.01213  Biso   1.000  C
  H297     1.0000 0.46204  0.72599  0.03601  Biso   1.000  H
  S25      1.0000 0.25406  0.00740  0.89482  Biso   1.000  S
  C271     1.0000 0.78014  0.13312  0.70769  Biso   1.000  C
  C272     1.0000 0.78022  0.13312  0.70769  Biso   1.000  C
  C273     1.0000 0.30729  0.18292  0.36570  Biso   1.000  C
  C274     1.0000 0.81704  0.66102  0.75964  Biso   1.000  C
  H298     1.0000 0.92805  0.63302  0.64001  Biso   1.000  H
  H299     1.0000 0.82400  0.67000  0.58798  Biso   1.000  H
  C275     1.0000 0.81695  0.66102  0.75964  Biso   1.000  C
  H300     1.0000 0.92796  0.63298  0.64001  Biso   1.000  H
  C276     1.0000 0.39145  0.27560  0.51323  Biso   1.000  C
  C277     1.0000 0.39153  0.27560  0.51323  Biso   1.000  C
  C278     1.0000 0.41002  0.33203  0.98790  Biso   1.000  C
  H301     1.0000 0.53791  0.27399  0.96402  Biso   1.000  H
  H302     1.0000 0.43104  0.24301  0.04001  Biso   1.000  H
  C279     1.0000 0.71739  0.23883  0.75453  Biso   1.000  C
  C280     1.0000 0.71738  0.23878  0.75453  Biso   1.000  C
  C281     1.0000 0.18300  0.33900  0.24040  Biso   1.000  C
  H303     1.0000 0.07198  0.36700  0.36002  Biso   1.000  H
  H304     1.0000 0.17602  0.33002  0.41197  Biso   1.000  H
  H305     1.0000 0.17594  0.33002  0.41197  Biso   1.000  H
  H306     1.0000 0.63598  0.65200  0.94397  Biso   1.000  H
  C282     1.0000 0.66785  0.69448  0.10327  Biso   1.000  C
  H307     1.0000 0.53610  0.62798  0.03403  Biso   1.000  H
  H308     1.0000 0.53602  0.62798  0.03403  Biso   1.000  H
  C283     1.0000 0.36582  0.06152  0.85176  Biso   1.000  C
  C284     1.0000 0.36589  0.06147  0.85176  Biso   1.000  C
  O43      1.0000 0.73929  0.11741  0.80599  Biso   1.000  O
  O44      1.0000 0.21428  0.17722  0.42399  Biso   1.000  O
  C285     1.0000 0.74199  0.59712  0.73601  Biso   1.000  C
  H309     1.0000 0.87397  0.66200  0.83003  Biso   1.000  H
  H310     1.0000 0.76902  0.69799  0.77701  Biso   1.000  H
  H311     1.0000 0.76894  0.69799  0.77701  Biso   1.000  H
  C286     1.0000 0.44000  0.24352  0.60116  Biso   1.000  C
  H312     1.0000 0.30796  0.27999  0.52797  Biso   1.000  H
  C287     1.0000 0.44576  0.34493  0.51553  Biso   1.000  C
  H313     1.0000 0.30804  0.27999  0.52797  Biso   1.000  H
  C288     1.0000 0.44585  0.34493  0.51553  Biso   1.000  C
  C289     1.0000 0.33216  0.30549  0.89668  Biso   1.000  C
  H314     1.0000 0.46392  0.37199  0.96600  Biso   1.000  H
  C290     1.0000 0.33208  0.30549  0.89668  Biso   1.000  C
  H315     1.0000 0.36405  0.34802  0.05598  Biso   1.000  H
  C291     1.0000 0.59455  0.22431  0.71600  Biso   1.000  C
  H316     1.0000 0.72697  0.23098  0.83900  Biso   1.000  H
  C292     1.0000 0.77069  0.30892  0.76211  Biso   1.000  C
  C293     1.0000 0.59463  0.22431  0.71600  Biso   1.000  C
  C294     1.0000 0.25805  0.40291  0.26402  Biso   1.000  C
  H317     1.0000 0.12606  0.33802  0.17001  Biso   1.000  H
  H318     1.0000 0.23100  0.30198  0.22303  Biso   1.000  H
  C295     1.0000 0.25796  0.40291  0.26402  Biso   1.000  C
  H319     1.0000 0.12598  0.33802  0.17001  Biso   1.000  H
  H320     1.0000 0.72210  0.66402  0.13003  Biso   1.000  H
  H321     1.0000 0.71607  0.73400  0.07199  Biso   1.000  H
  H322     1.0000 0.62612  0.71299  0.17201  Biso   1.000  H
  H323     1.0000 0.72202  0.66402  0.13003  Biso   1.000  H
  H324     1.0000 0.62604  0.71299  0.17201  Biso   1.000  H
  S26      1.0000 0.30717  0.10888  0.76746  Biso   1.000  S
  H325     1.0000 0.41192  0.09199  0.92297  Biso   1.000  H
  H326     1.0000 0.41996  0.03501  0.80599  Biso   1.000  H
  H327     1.0000 0.41200  0.09199  0.92297  Biso   1.000  H
  C296     1.0000 0.62339  0.09749  0.80516  Biso   1.000  C
  C297     1.0000 0.21906  0.14399  0.51529  Biso   1.000  C
  C298     1.0000 0.21914  0.14399  0.51529  Biso   1.000  C
  H328     1.0000 0.70597  0.59597  0.81397  Biso   1.000  H
  H329     1.0000 0.67799  0.59498  0.67097  Biso   1.000  H
  H330     1.0000 0.78396  0.55697  0.71798  Biso   1.000  H
  C299     1.0000 0.37315  0.19649  0.64397  Biso   1.000  C
  C300     1.0000 0.37323  0.19649  0.64397  Biso   1.000  C
  C301     1.0000 0.55080  0.25650  0.63787  Biso   1.000  C
  H331     1.0000 0.53402  0.34799  0.51603  Biso   1.000  H
  H332     1.0000 0.41496  0.36199  0.44300  Biso   1.000  H
  C302     1.0000 0.41941  0.38703  0.61853  Biso   1.000  C
  H333     1.0000 0.41504  0.36199  0.44300  Biso   1.000  H
  C303     1.0000 0.41940  0.38698  0.61853  Biso   1.000  C
  H334     1.0000 0.27793  0.33601  0.87000  Biso   1.000  H
  H335     1.0000 0.28396  0.26602  0.92796  Biso   1.000  H
  H336     1.0000 0.37398  0.28699  0.82802  Biso   1.000  H
  H337     1.0000 0.28388  0.26602  0.92796  Biso   1.000  H
  H338     1.0000 0.37390  0.28699  0.82802  Biso   1.000  H
  C304     1.0000 0.52343  0.17778  0.75659  Biso   1.000  C
  C305     1.0000 0.52351  0.17778  0.75659  Biso   1.000  C
  H339     1.0000 0.85896  0.31299  0.77898  Biso   1.000  H
  H340     1.0000 0.75294  0.32499  0.68496  Biso   1.000  H
  C306     1.0000 0.72649  0.35198  0.85407  Biso   1.000  C
  H341     1.0000 0.85904  0.31299  0.77898  Biso   1.000  H
  H342     1.0000 0.75302  0.32499  0.68496  Biso   1.000  H
  H343     1.0000 0.29404  0.40399  0.18598  Biso   1.000  H
  H344     1.0000 0.32203  0.40499  0.32898  Biso   1.000  H
  H345     1.0000 0.21605  0.44300  0.28197  Biso   1.000  H
  H346     1.0000 0.29396  0.40399  0.18598  Biso   1.000  H
  H347     1.0000 0.32195  0.40499  0.32898  Biso   1.000  H
  H348     1.0000 0.21597  0.44300  0.28197  Biso   1.000  H
  C307     1.0000 0.41229  0.16289  0.72218  Biso   1.000  C
  H349     1.0000 0.59196  0.07600  0.72201  Biso   1.000  H
  H350     1.0000 0.60895  0.06200  0.85901  Biso   1.000  H
  O45      1.0000 0.56546  0.14798  0.83966  Biso   1.000  O
  H351     1.0000 0.60903  0.06200  0.85901  Biso   1.000  H
  O46      1.0000 0.25798  0.18482  0.61630  Biso   1.000  O
  H352     1.0000 0.27397  0.10999  0.49899  Biso   1.000  H
  H353     1.0000 0.13700  0.11901  0.52401  Biso   1.000  H
  H354     1.0000 0.60495  0.29300  0.60502  Biso   1.000  H
  H355     1.0000 0.60503  0.29300  0.60502  Biso   1.000  H
  H356     1.0000 0.45797  0.37298  0.68999  Biso   1.000  H
  H357     1.0000 0.33100  0.37900  0.62297  Biso   1.000  H
  C308     1.0000 0.45874  0.45620  0.61869  Biso   1.000  C
  C309     1.0000 0.45883  0.45620  0.61869  Biso   1.000  C
  H358     1.0000 0.73392  0.33198  0.92898  Biso   1.000  H
  H359     1.0000 0.64095  0.35200  0.83200  Biso   1.000  H
  C310     1.0000 0.78830  0.41979  0.87457  Biso   1.000  C
  H360     1.0000 0.73401  0.33198  0.92898  Biso   1.000  H
  H361     1.0000 0.64103  0.35200  0.83200  Biso   1.000  H
  C311     1.0000 0.42451  0.50180  0.72078  Biso   1.000  C
  H362     1.0000 0.54797  0.46400  0.62100  Biso   1.000  H
  H363     1.0000 0.42499  0.46901  0.54402  Biso   1.000  H
  H364     1.0000 0.54805  0.46400  0.62100  Biso   1.000  H
  C312     1.0000 0.75607  0.46089  0.97188  Biso   1.000  C
  H365     1.0000 0.77200  0.44100  0.80302  Biso   1.000  H
  H366     1.0000 0.87496  0.41902  0.88601  Biso   1.000  H
  H367     1.0000 0.87504  0.41902  0.88601  Biso   1.000  H
  C313     1.0000 0.47134  0.49200  0.82072  Biso   1.000  C
  H368     1.0000 0.33600  0.49202  0.72102  Biso   1.000  H
  H369     1.0000 0.44999  0.55100  0.71098  Biso   1.000  H
  C314     1.0000 0.47142  0.49200  0.82072  Biso   1.000  C
  C315     1.0000 0.82003  0.52738  0.99542  Biso   1.000  C
  H370     1.0000 0.66993  0.46398  0.95796  Biso   1.000  H
  C316     1.0000 0.82011  0.52738  0.99542  Biso   1.000  C
  H371     1.0000 0.67001  0.46398  0.95796  Biso   1.000  H
  H372     1.0000 0.76903  0.43800  0.04301  Biso   1.000  H
  H373     1.0000 0.76911  0.43800  0.04301  Biso   1.000  H
  H374     1.0000 0.46499  0.52502  0.89399  Biso   1.000  H
  H375     1.0000 0.55601  0.49601  0.80203  Biso   1.000  H
  H376     1.0000 0.44095  0.44402  0.83497  Biso   1.000  H
  H377     1.0000 0.46498  0.52498  0.89399  Biso   1.000  H
  H378     1.0000 0.44103  0.44402  0.83497  Biso   1.000  H
  H379     1.0000 0.81301  0.54602  0.91902  Biso   1.000  H
  H380     1.0000 0.78902  0.55799  0.05997  Biso   1.000  H
  H381     1.0000 0.90604  0.52599  0.01699  Biso   1.000  H
  H382     1.0000 0.78910  0.55799  0.05997  Biso   1.000  H
