data_image0
_cell_length_a       10.588
_cell_length_b       17.65
_cell_length_c       35.44
_cell_angle_alpha    90
_cell_angle_beta     95.51
_cell_angle_gamma    90

_symmetry_space_group_name_H-M    "P 1"
_symmetry_int_tables_number       1

loop_
  _symmetry_equiv_pos_as_xyz
  'x, y, z'

loop_
  _atom_site_label
  _atom_site_occupancy
  _atom_site_fract_x
  _atom_site_fract_y
  _atom_site_fract_z
  _atom_site_thermal_displace_type
  _atom_site_B_iso_or_equiv
  _atom_site_type_symbol
  C1       1.0000 0.56690  0.41518  0.52877  Biso   1.000  C
  C2       1.0000 0.58838  0.36368  0.50068  Biso   1.000  C
  C3       1.0000 0.63085  0.41258  0.56466  Biso   1.000  C
  H1       1.0000 0.50570  0.45399  0.52318  Biso   1.000  H
  C4       1.0000 0.50910  0.36300  0.46263  Biso   1.000  C
  C5       1.0000 0.68198  0.30839  0.50980  Biso   1.000  C
  C6       1.0000 0.71741  0.35416  0.57302  Biso   1.000  C
  H2       1.0000 0.61622  0.44980  0.58320  Biso   1.000  H
  C7       1.0000 0.41852  0.29632  0.46088  Biso   1.000  C
  H3       1.0000 0.46061  0.41076  0.45929  Biso   1.000  H
  H4       1.0000 0.56527  0.35898  0.44200  Biso   1.000  H
  O1       1.0000 0.70962  0.25864  0.48149  Biso   1.000  O
  C8       1.0000 0.74145  0.30040  0.54615  Biso   1.000  C
  H5       1.0000 0.76075  0.35110  0.59768  Biso   1.000  H
  C9       1.0000 0.43962  0.23178  0.43981  Biso   1.000  C
  C10      1.0000 0.31646  0.29592  0.48273  Biso   1.000  C
  C11      1.0000 0.80950  0.28510  0.46076  Biso   1.000  C
  C12      1.0000 0.82075  0.23048  0.55689  Biso   1.000  C
  H6       1.0000 0.50675  0.23122  0.42388  Biso   1.000  H
  C13      1.0000 0.36339  0.16850  0.44186  Biso   1.000  C
  C14      1.0000 0.24330  0.23150  0.48752  Biso   1.000  C
  O2       1.0000 0.28866  0.36210  0.50232  Biso   1.000  O
  H7       1.0000 0.88779  0.29122  0.47808  Biso   1.000  H
  H8       1.0000 0.78654  0.33530  0.44959  Biso   1.000  H
  C15      1.0000 0.83329  0.23127  0.43018  Biso   1.000  C
  H9       1.0000 0.86946  0.23870  0.58181  Biso   1.000  H
  H10      1.0000 0.88208  0.22210  0.53790  Biso   1.000  H
  C16      1.0000 0.73647  0.16091  0.55885  Biso   1.000  C
  H11      1.0000 0.37606  0.12538  0.42660  Biso   1.000  H
  C17      1.0000 0.26827  0.16822  0.46621  Biso   1.000  C
  C18      1.0000 0.14850  0.22867  0.51672  Biso   1.000  C
  C19      1.0000 0.19627  0.40839  0.48081  Biso   1.000  C
  H12      1.0000 0.75674  0.22901  0.41181  Biso   1.000  H
  H13      1.0000 0.84697  0.18017  0.44129  Biso   1.000  H
  C20      1.0000 0.94594  0.25190  0.40923  Biso   1.000  C
  C21      1.0000 0.73171  0.10691  0.53024  Biso   1.000  C
  C22      1.0000 0.65618  0.15292  0.58702  Biso   1.000  C
  H14      1.0000 0.21908  0.12368  0.46830  Biso   1.000  H
  C23      1.0000 0.21565  0.22482  0.55638  Biso   1.000  C
  H15      1.0000 0.09337  0.18368  0.51210  Biso   1.000  H
  H16      1.0000 0.09408  0.27439  0.51428  Biso   1.000  H
  C24      1.0000 0.17529  0.47841  0.50309  Biso   1.000  C
  H17      1.0000 0.11561  0.38017  0.47579  Biso   1.000  H
  H18      1.0000 0.22709  0.42210  0.45620  Biso   1.000  H
  H19      1.0000 0.95666  0.21377  0.38970  Biso   1.000  H
  H20      1.0000 0.93199  0.30170  0.39729  Biso   1.000  H
  H21      1.0000 0.02261  0.25360  0.42709  Biso   1.000  H
  C25      1.0000 0.64795  0.04561  0.52968  Biso   1.000  C
  H22      1.0000 0.78644  0.11167  0.51068  Biso   1.000  H
  C26      1.0000 0.56211  0.09552  0.58555  Biso   1.000  C
  O3       1.0000 0.66136  0.20567  0.61580  Biso   1.000  O
  C27      1.0000 0.22108  0.28697  0.57974  Biso   1.000  C
  C28      1.0000 0.28432  0.16091  0.56902  Biso   1.000  C
  O4       1.0000 0.11065  0.45989  0.53588  Biso   1.000  O
  H23      1.0000 0.25793  0.50238  0.51131  Biso   1.000  H
  H24      1.0000 0.12393  0.51501  0.48698  Biso   1.000  H
  C29      1.0000 0.56328  0.04210  0.55689  Biso   1.000  C
  H25      1.0000 0.64927  0.00720  0.51088  Biso   1.000  H
  C30      1.0000 0.45881  0.09592  0.61180  Biso   1.000  C
  C31      1.0000 0.70968  0.17841  0.65271  Biso   1.000  C
  H26      1.0000 0.17319  0.33076  0.57208  Biso   1.000  H
  C32      1.0000 0.29416  0.28731  0.61404  Biso   1.000  C
  O5       1.0000 0.27673  0.09586  0.54629  Biso   1.000  O
  C33      1.0000 0.36572  0.16051  0.60219  Biso   1.000  C
  C34      1.0000 0.15378  0.49229  0.57016  Biso   1.000  C
  H27      1.0000 0.50387  0.00170  0.55598  Biso   1.000  H
  H28      1.0000 0.49680  0.10142  0.63830  Biso   1.000  H
  H29      1.0000 0.41280  0.04703  0.60970  Biso   1.000  H
  H30      1.0000 0.67684  0.12657  0.65631  Biso   1.000  H
  H31      1.0000 0.67792  0.21127  0.67229  Biso   1.000  H
  C35      1.0000 0.85168  0.17671  0.65815  Biso   1.000  C
  H32      1.0000 0.29343  0.33008  0.63028  Biso   1.000  H
  C36      1.0000 0.36911  0.22510  0.62478  Biso   1.000  C
  C37      1.0000 0.19521  0.03178  0.55978  Biso   1.000  C
  C38      1.0000 0.06542  0.51479  0.59352  Biso   1.000  C
  C39      1.0000 0.27999  0.50051  0.58201  Biso   1.000  C
  O6       1.0000 0.90822  0.24952  0.65449  Biso   1.000  O
  H33      1.0000 0.87878  0.15620  0.68369  Biso   1.000  H
  H34      1.0000 0.88318  0.14187  0.63918  Biso   1.000  H
  H35      1.0000 0.42307  0.22652  0.64780  Biso   1.000  H
  H36      1.0000 0.21312  0.02612  0.58759  Biso   1.000  H
  C40      1.0000 0.07610  0.04340  0.55179  Biso   1.000  C
  H37      1.0000 0.21878  0.98380  0.54790  Biso   1.000  H
  C41      1.0000 0.10237  0.54629  0.62855  Biso   1.000  C
  H38      1.0000 0.97769  0.50861  0.58561  Biso   1.000  H
  H39      1.0000 0.34259  0.48397  0.56639  Biso   1.000  H
  C42      1.0000 0.31582  0.53297  0.61707  Biso   1.000  C
  C43      1.0000 0.89891  0.30300  0.68256  Biso   1.000  C
  H40      1.0000 0.05759  0.05467  0.52449  Biso   1.000  H
  H41      1.0000 0.04815  0.08703  0.56650  Biso   1.000  H
  C44      1.0000 0.00163  0.96629  0.56281  Biso   1.000  C
  C45      1.0000 0.23018  0.55751  0.64097  Biso   1.000  C
  H42      1.0000 0.03940  0.56068  0.64448  Biso   1.000  H
  H43      1.0000 0.40371  0.53847  0.62490  Biso   1.000  H
  C46      1.0000 0.94856  0.37337  0.67541  Biso   1.000  C
  C47      1.0000 0.84726  0.29008  0.71637  Biso   1.000  C
  H44      1.0000 0.90984  0.97411  0.55788  Biso   1.000  H
  H45      1.0000 0.02301  0.95479  0.58969  Biso   1.000  H
  H46      1.0000 0.02737  0.92402  0.54739  Biso   1.000  H
  C48      1.0000 0.27252  0.59116  0.68015  Biso   1.000  C
  H47      1.0000 0.98555  0.38210  0.65239  Biso   1.000  H
  C49      1.0000 0.94458  0.43099  0.70152  Biso   1.000  C
  C50      1.0000 0.84184  0.34980  0.74183  Biso   1.000  C
  H48      1.0000 0.81604  0.24142  0.72210  Biso   1.000  H
  C51      1.0000 0.38021  0.64771  0.67754  Biso   1.000  C
  C52      1.0000 0.31212  0.52640  0.70665  Biso   1.000  C
  C53      1.0000 0.16339  0.63439  0.69645  Biso   1.000  C
  H49      1.0000 0.98062  0.47881  0.69639  Biso   1.000  H
  C54      1.0000 0.88905  0.42096  0.73531  Biso   1.000  C
  H50      1.0000 0.80405  0.34119  0.76471  Biso   1.000  H
  N1       1.0000 0.50470  0.62572  0.67669  Biso   1.000  N
  C55      1.0000 0.37850  0.72459  0.67280  Biso   1.000  C
  N2       1.0000 0.36810  0.53745  0.74302  Biso   1.000  N
  C56      1.0000 0.29419  0.44997  0.70288  Biso   1.000  C
  H51      1.0000 0.19338  0.65530  0.72131  Biso   1.000  H
  H52      1.0000 0.09274  0.59949  0.69908  Biso   1.000  H
  H53      1.0000 0.13470  0.67569  0.67918  Biso   1.000  H
  C57      1.0000 0.88993  0.48482  0.76510  Biso   1.000  C
  H54      1.0000 0.53160  0.57870  0.67930  Biso   1.000  H
  C58      1.0000 0.58215  0.68697  0.67113  Biso   1.000  C
  H55      1.0000 0.30573  0.75626  0.67210  Biso   1.000  H
  C59      1.0000 0.50462  0.74878  0.66909  Biso   1.000  C
  H56      1.0000 0.38928  0.58210  0.75280  Biso   1.000  H
  C60      1.0000 0.38692  0.46907  0.76218  Biso   1.000  C
  C61      1.0000 0.33990  0.41439  0.73727  Biso   1.000  C
  H57      1.0000 0.25715  0.42487  0.68080  Biso   1.000  H
  C62      1.0000 0.87438  0.56210  0.74699  Biso   1.000  C
  C63      1.0000 0.78820  0.47411  0.79152  Biso   1.000  C
  C64      1.0000 0.02174  0.48091  0.78821  Biso   1.000  C
  C65      1.0000 0.72284  0.67739  0.66719  Biso   1.000  C
  H58      1.0000 0.53072  0.79966  0.66569  Biso   1.000  H
  C66      1.0000 0.44057  0.46368  0.80278  Biso   1.000  C
  H59      1.0000 0.33818  0.36159  0.74220  Biso   1.000  H
  N3       1.0000 0.79330  0.57439  0.71453  Biso   1.000  N
  C67      1.0000 0.92506  0.63156  0.75685  Biso   1.000  C
  N4       1.0000 0.65961  0.47331  0.77843  Biso   1.000  N
  C68      1.0000 0.79178  0.46839  0.82999  Biso   1.000  C
  H60      1.0000 0.02788  0.52068  0.80760  Biso   1.000  H
  H61      1.0000 0.08834  0.48822  0.77120  Biso   1.000  H
  H62      1.0000 0.03239  0.43122  0.80048  Biso   1.000  H
  C69      1.0000 0.79449  0.64958  0.70353  Biso   1.000  C
  C70      1.0000 0.77723  0.75377  0.65659  Biso   1.000  C
  C71      1.0000 0.73929  0.62068  0.63462  Biso   1.000  C
  C72      1.0000 0.58510  0.46731  0.80785  Biso   1.000  C
  C73      1.0000 0.38695  0.52776  0.82605  Biso   1.000  C
  C74      1.0000 0.40100  0.38629  0.81865  Biso   1.000  C
  H63      1.0000 0.74684  0.53898  0.70248  Biso   1.000  H
  C75      1.0000 0.87555  0.68578  0.73007  Biso   1.000  C
  H64      1.0000 0.98387  0.64170  0.77820  Biso   1.000  H
  H65      1.0000 0.63016  0.47632  0.75439  Biso   1.000  H
  C76      1.0000 0.66606  0.46482  0.84023  Biso   1.000  C
  H66      1.0000 0.86651  0.46708  0.84709  Biso   1.000  H
  H67      1.0000 0.76742  0.79048  0.67689  Biso   1.000  H
  H68      1.0000 0.73193  0.77190  0.63289  Biso   1.000  H
  H69      1.0000 0.86756  0.74799  0.65319  Biso   1.000  H
  H70      1.0000 0.82971  0.61467  0.63150  Biso   1.000  H
  H71      1.0000 0.69496  0.63989  0.61101  Biso   1.000  H
  H72      1.0000 0.70340  0.57150  0.64080  Biso   1.000  H
  H73      1.0000 0.41072  0.57688  0.81599  Biso   1.000  H
  H74      1.0000 0.42183  0.52351  0.85259  Biso   1.000  H
  H75      1.0000 0.29432  0.52368  0.82438  Biso   1.000  H
  H76      1.0000 0.43401  0.34527  0.80380  Biso   1.000  H
  H77      1.0000 0.30819  0.38317  0.81698  Biso   1.000  H
  H78      1.0000 0.43569  0.38159  0.84519  Biso   1.000  H
  H79      1.0000 0.89521  0.73830  0.73041  Biso   1.000  H
  H80      1.0000 0.64210  0.46130  0.86528  Biso   1.000  H
  C77      1.0000 0.43309  0.58476  0.47122  Biso   1.000  C
  C78      1.0000 0.36914  0.58737  0.43534  Biso   1.000  C
  C79      1.0000 0.41161  0.63626  0.49932  Biso   1.000  C
  H81      1.0000 0.49429  0.54601  0.47681  Biso   1.000  H
  C80      1.0000 0.28258  0.64578  0.42697  Biso   1.000  C
  H82      1.0000 0.38377  0.55020  0.41680  Biso   1.000  H
  C81      1.0000 0.31801  0.69156  0.49019  Biso   1.000  C
  C82      1.0000 0.49089  0.63700  0.53736  Biso   1.000  C
  C83      1.0000 0.25844  0.69960  0.45385  Biso   1.000  C
  H83      1.0000 0.23924  0.64890  0.40231  Biso   1.000  H
  O7       1.0000 0.29037  0.74136  0.51851  Biso   1.000  O
  C84      1.0000 0.58147  0.70368  0.53912  Biso   1.000  C
  H84      1.0000 0.53938  0.58918  0.54070  Biso   1.000  H
  H85      1.0000 0.43472  0.64096  0.55800  Biso   1.000  H
  C85      1.0000 0.17915  0.76946  0.44310  Biso   1.000  C
  C86      1.0000 0.19050  0.71490  0.53923  Biso   1.000  C
  C87      1.0000 0.68352  0.70408  0.51723  Biso   1.000  C
  C88      1.0000 0.56037  0.76816  0.56018  Biso   1.000  C
  C89      1.0000 0.26352  0.83909  0.44115  Biso   1.000  C
  H86      1.0000 0.13053  0.76130  0.41819  Biso   1.000  H
  H87      1.0000 0.11791  0.77790  0.46210  Biso   1.000  H
  H88      1.0000 0.11220  0.70878  0.52191  Biso   1.000  H
  H89      1.0000 0.21335  0.66470  0.55040  Biso   1.000  H
  C90      1.0000 0.16670  0.76867  0.56982  Biso   1.000  C
  O8       1.0000 0.71133  0.63790  0.49767  Biso   1.000  O
  C91      1.0000 0.75670  0.76850  0.51247  Biso   1.000  C
  C92      1.0000 0.63660  0.83150  0.55814  Biso   1.000  C
  H90      1.0000 0.49314  0.76878  0.57608  Biso   1.000  H
  C93      1.0000 0.34381  0.84708  0.41297  Biso   1.000  C
  C94      1.0000 0.26828  0.89309  0.46975  Biso   1.000  C
  H91      1.0000 0.24316  0.77099  0.58819  Biso   1.000  H
  H92      1.0000 0.15303  0.81977  0.55870  Biso   1.000  H
  C95      1.0000 0.05396  0.74810  0.59077  Biso   1.000  C
  C96      1.0000 0.80372  0.59161  0.51919  Biso   1.000  C
  C97      1.0000 0.85148  0.77127  0.48324  Biso   1.000  C
  C98      1.0000 0.73172  0.83178  0.53379  Biso   1.000  C
  H93      1.0000 0.62384  0.87456  0.57339  Biso   1.000  H
  O9       1.0000 0.33863  0.79428  0.38420  Biso   1.000  O
  C99      1.0000 0.43788  0.90448  0.41444  Biso   1.000  C
  C100     1.0000 0.35195  0.95439  0.47032  Biso   1.000  C
  H94      1.0000 0.21346  0.88827  0.48931  Biso   1.000  H
  H95      1.0000 0.04333  0.78618  0.61030  Biso   1.000  H
  H96      1.0000 0.06800  0.69830  0.60270  Biso   1.000  H
  H97      1.0000 0.97739  0.74640  0.57291  Biso   1.000  H
  C101     1.0000 0.82470  0.52159  0.49691  Biso   1.000  C
  H98      1.0000 0.88438  0.61977  0.52421  Biso   1.000  H
  H99      1.0000 0.77290  0.57790  0.54379  Biso   1.000  H
  C102     1.0000 0.78424  0.77518  0.44361  Biso   1.000  C
  H100     1.0000 0.90662  0.81626  0.48789  Biso   1.000  H
  H101     1.0000 0.90592  0.72561  0.48571  Biso   1.000  H
  H102     1.0000 0.78091  0.87626  0.53169  Biso   1.000  H
  C103     1.0000 0.29031  0.82159  0.34729  Biso   1.000  C
  C104     1.0000 0.54118  0.90408  0.38819  Biso   1.000  C
  C105     1.0000 0.43671  0.95790  0.44310  Biso   1.000  C
  H103     1.0000 0.35071  0.99280  0.48908  Biso   1.000  H
  O10      1.0000 0.88925  0.54006  0.46411  Biso   1.000  O
  H104     1.0000 0.74206  0.49756  0.48869  Biso   1.000  H
  H105     1.0000 0.87606  0.48499  0.51301  Biso   1.000  H
  C106     1.0000 0.71567  0.83909  0.43097  Biso   1.000  C
  C107     1.0000 0.77891  0.71297  0.42025  Biso   1.000  C
  C108     1.0000 0.14831  0.82329  0.34184  Biso   1.000  C
  H106     1.0000 0.32306  0.87337  0.34369  Biso   1.000  H
  H107     1.0000 0.32208  0.78867  0.32770  Biso   1.000  H
  H108     1.0000 0.50319  0.89858  0.36169  Biso   1.000  H
  H109     1.0000 0.58719  0.95297  0.39029  Biso   1.000  H
  C109     1.0000 0.63427  0.83949  0.39780  Biso   1.000  C
  H110     1.0000 0.49612  0.99830  0.44401  Biso   1.000  H
  C110     1.0000 0.84621  0.50771  0.42984  Biso   1.000  C
  O11      1.0000 0.72326  0.90414  0.45370  Biso   1.000  O
  C111     1.0000 0.70574  0.71269  0.38595  Biso   1.000  C
  H111     1.0000 0.82680  0.66918  0.42791  Biso   1.000  H
  O12      1.0000 0.09178  0.75048  0.34550  Biso   1.000  O
  H112     1.0000 0.12121  0.84380  0.31630  Biso   1.000  H
  H113     1.0000 0.11681  0.85807  0.36081  Biso   1.000  H
  C112     1.0000 0.63089  0.77490  0.37521  Biso   1.000  C
  C113     1.0000 0.93457  0.48521  0.40648  Biso   1.000  C
  C114     1.0000 0.72000  0.49949  0.41799  Biso   1.000  C
  C115     1.0000 0.80478  0.96816  0.44021  Biso   1.000  C
  H114     1.0000 0.70656  0.66986  0.36971  Biso   1.000  H
  C116     1.0000 0.10108  0.69700  0.31744  Biso   1.000  C
  H115     1.0000 0.57693  0.77348  0.35219  Biso   1.000  H
  C117     1.0000 0.89762  0.45371  0.37144  Biso   1.000  C
  H116     1.0000 0.02230  0.49139  0.41439  Biso   1.000  H
  C118     1.0000 0.68418  0.46697  0.38292  Biso   1.000  C
  H117     1.0000 0.65740  0.51598  0.43361  Biso   1.000  H
  H118     1.0000 0.78687  0.97388  0.41240  Biso   1.000  H
  C119     1.0000 0.92390  0.95660  0.44821  Biso   1.000  C
  H119     1.0000 0.78121  0.01620  0.45209  Biso   1.000  H
  C120     1.0000 0.05143  0.62657  0.32458  Biso   1.000  C
  C121     1.0000 0.15273  0.70986  0.28362  Biso   1.000  C
  C122     1.0000 0.76981  0.44249  0.35902  Biso   1.000  C
  H120     1.0000 0.96059  0.43926  0.35551  Biso   1.000  H
  H121     1.0000 0.59628  0.46147  0.37510  Biso   1.000  H
  H122     1.0000 0.94240  0.94527  0.47550  Biso   1.000  H
  H123     1.0000 0.95185  0.91297  0.43349  Biso   1.000  H
  C123     1.0000 0.99836  0.03365  0.43718  Biso   1.000  C
  C124     1.0000 0.05540  0.56901  0.29844  Biso   1.000  C
  H124     1.0000 0.01444  0.61790  0.34760  Biso   1.000  H
  C125     1.0000 0.15806  0.65020  0.25816  Biso   1.000  C
  H125     1.0000 0.18385  0.75858  0.27789  Biso   1.000  H
  C126     1.0000 0.72747  0.40878  0.31985  Biso   1.000  C
  H126     1.0000 0.97698  0.04516  0.41030  Biso   1.000  H
  H127     1.0000 0.97253  0.07598  0.45260  Biso   1.000  H
  H128     1.0000 0.09014  0.02589  0.44208  Biso   1.000  H
  C127     1.0000 0.11094  0.57898  0.26465  Biso   1.000  C
  H129     1.0000 0.01937  0.52119  0.30360  Biso   1.000  H
  H130     1.0000 0.19585  0.65881  0.23529  Biso   1.000  H
  C128     1.0000 0.61979  0.35229  0.32245  Biso   1.000  C
  C129     1.0000 0.68788  0.47360  0.29334  Biso   1.000  C
  C130     1.0000 0.83660  0.36561  0.30355  Biso   1.000  C
  C131     1.0000 0.10997  0.51518  0.23489  Biso   1.000  C
  N5       1.0000 0.49530  0.37428  0.32331  Biso   1.000  N
  C132     1.0000 0.62150  0.27541  0.32719  Biso   1.000  C
  N6       1.0000 0.63189  0.46249  0.25697  Biso   1.000  N
  C133     1.0000 0.70580  0.54997  0.29711  Biso   1.000  C
  H131     1.0000 0.80661  0.34470  0.27869  Biso   1.000  H
  H132     1.0000 0.90725  0.40051  0.30091  Biso   1.000  H
  H133     1.0000 0.86529  0.32431  0.32081  Biso   1.000  H
  C134     1.0000 0.12561  0.43790  0.25300  Biso   1.000  C
  C135     1.0000 0.21179  0.52589  0.20847  Biso   1.000  C
  C136     1.0000 0.97825  0.51909  0.21179  Biso   1.000  C
  C137     1.0000 0.41775  0.31297  0.32886  Biso   1.000  C
  H134     1.0000 0.46839  0.42130  0.32070  Biso   1.000  H
  C138     1.0000 0.49538  0.25122  0.33090  Biso   1.000  C
  H135     1.0000 0.69426  0.24368  0.32790  Biso   1.000  H
  C139     1.0000 0.61308  0.53088  0.23781  Biso   1.000  C
  H136     1.0000 0.61071  0.41790  0.24719  Biso   1.000  H
  C140     1.0000 0.66009  0.58561  0.26273  Biso   1.000  C
  H137     1.0000 0.74275  0.57507  0.31919  Biso   1.000  H
  C141     1.0000 0.07493  0.36839  0.24314  Biso   1.000  C
  N7       1.0000 0.20669  0.42555  0.28546  Biso   1.000  N
  N8       1.0000 0.34038  0.52669  0.22157  Biso   1.000  N
  C142     1.0000 0.20821  0.53161  0.17000  Biso   1.000  C
  H138     1.0000 0.97211  0.47926  0.19240  Biso   1.000  H
  H139     1.0000 0.91156  0.51178  0.22879  Biso   1.000  H
  H140     1.0000 0.96760  0.56878  0.19951  Biso   1.000  H
  C143     1.0000 0.27706  0.32261  0.33280  Biso   1.000  C
  H141     1.0000 0.46927  0.20028  0.33430  Biso   1.000  H
  C144     1.0000 0.55942  0.53626  0.19721  Biso   1.000  C
  H142     1.0000 0.66181  0.63841  0.25779  Biso   1.000  H
  C145     1.0000 0.12444  0.31422  0.26993  Biso   1.000  C
  H143     1.0000 0.01613  0.35830  0.22179  Biso   1.000  H
  C146     1.0000 0.20550  0.35037  0.29646  Biso   1.000  C
  H144     1.0000 0.25306  0.46096  0.29751  Biso   1.000  H
  H145     1.0000 0.36983  0.52368  0.24560  Biso   1.000  H
  C147     1.0000 0.41489  0.53269  0.19214  Biso   1.000  C
  H146     1.0000 0.13348  0.53286  0.15291  Biso   1.000  H
  C148     1.0000 0.33393  0.53518  0.15977  Biso   1.000  C
  C149     1.0000 0.22267  0.24618  0.34340  Biso   1.000  C
  C150     1.0000 0.26070  0.37926  0.36537  Biso   1.000  C
  C151     1.0000 0.61295  0.47218  0.17394  Biso   1.000  C
  C152     1.0000 0.59899  0.61371  0.18134  Biso   1.000  C
  H147     1.0000 0.10478  0.26170  0.26959  Biso   1.000  H
  H148     1.0000 0.35790  0.53870  0.13471  Biso   1.000  H
  H149     1.0000 0.23258  0.20952  0.32311  Biso   1.000  H
  H150     1.0000 0.26797  0.22810  0.36710  Biso   1.000  H
  H151     1.0000 0.13243  0.25201  0.34681  Biso   1.000  H
  H152     1.0000 0.17028  0.38527  0.36849  Biso   1.000  H
  H153     1.0000 0.30503  0.36011  0.38899  Biso   1.000  H
  H154     1.0000 0.29659  0.42850  0.35919  Biso   1.000  H
  H155     1.0000 0.58927  0.42312  0.18400  Biso   1.000  H
  H156     1.0000 0.57817  0.47649  0.14741  Biso   1.000  H
  H157     1.0000 0.70566  0.47632  0.17559  Biso   1.000  H
  H158     1.0000 0.56598  0.65467  0.19619  Biso   1.000  H
  H159     1.0000 0.69179  0.61677  0.18298  Biso   1.000  H
  H160     1.0000 0.56430  0.61841  0.15481  Biso   1.000  H
  C153     1.0000 0.70816  0.96839  0.67000  Biso   1.000  C
  C154     1.0000 0.83388  0.96476  0.65976  Biso   1.000  C
  C155     1.0000 0.71183  0.97405  0.70847  Biso   1.000  C
  H161     1.0000 0.63353  0.96708  0.65290  Biso   1.000  H
  H162     1.0000 0.85784  0.96130  0.63470  Biso   1.000  H
  C156     1.0000 0.91484  0.96725  0.69214  Biso   1.000  C
  N9       1.0000 0.84033  0.97331  0.72156  Biso   1.000  N
  C157     1.0000 0.61001  0.98476  0.73489  Biso   1.000  C
  C158     1.0000 0.05937  0.96368  0.69721  Biso   1.000  C
  H163     1.0000 0.86978  0.97626  0.74560  Biso   1.000  H
  C159     1.0000 0.61089  0.92096  0.76465  Biso   1.000  C
  C160     1.0000 0.47820  0.98085  0.71178  Biso   1.000  C
  C161     1.0000 0.62556  0.06210  0.75300  Biso   1.000  C
  C162     1.0000 0.11312  0.96907  0.73781  Biso   1.000  C
  C163     1.0000 0.09894  0.88629  0.68134  Biso   1.000  C
  C164     1.0000 0.11299  0.02776  0.67394  Biso   1.000  C
  C165     1.0000 0.55535  0.93099  0.79844  Biso   1.000  C
  C166     1.0000 0.65810  0.84980  0.75816  Biso   1.000  C
  H164     1.0000 0.41160  0.98816  0.72879  Biso   1.000  H
  H165     1.0000 0.46755  0.93116  0.69951  Biso   1.000  H
  H166     1.0000 0.47206  0.02068  0.69239  Biso   1.000  H
  N10      1.0000 0.70672  0.07439  0.78543  Biso   1.000  N
  C167     1.0000 0.57488  0.13156  0.74313  Biso   1.000  C
  C168     1.0000 0.16004  0.91439  0.76272  Biso   1.000  C
  N11      1.0000 0.13184  0.03745  0.75697  Biso   1.000  N
  H167     1.0000 0.06593  0.84527  0.69619  Biso   1.000  H
  H168     1.0000 0.19174  0.88317  0.68298  Biso   1.000  H
  H169     1.0000 0.06425  0.88159  0.65480  Biso   1.000  H
  H170     1.0000 0.08931  0.07688  0.68400  Biso   1.000  H
  H171     1.0000 0.07821  0.02346  0.64740  Biso   1.000  H
  H172     1.0000 0.20570  0.02368  0.67558  Biso   1.000  H
  C169     1.0000 0.55138  0.87337  0.82458  Biso   1.000  C
  H173     1.0000 0.51942  0.97875  0.80360  Biso   1.000  H
  H174     1.0000 0.69589  0.84119  0.73528  Biso   1.000  H
  C170     1.0000 0.65268  0.79008  0.78362  Biso   1.000  C
  H175     1.0000 0.75310  0.03898  0.79751  Biso   1.000  H
  C171     1.0000 0.70545  0.14958  0.79646  Biso   1.000  C
  C172     1.0000 0.62439  0.18578  0.76992  Biso   1.000  C
  H176     1.0000 0.51607  0.14170  0.72179  Biso   1.000  H
  H177     1.0000 0.16176  0.86159  0.75779  Biso   1.000  H
  C173     1.0000 0.20575  0.94997  0.79711  Biso   1.000  C
  H178     1.0000 0.11066  0.08210  0.74719  Biso   1.000  H
  C174     1.0000 0.18782  0.02640  0.79334  Biso   1.000  C
  C175     1.0000 0.60112  0.80300  0.81743  Biso   1.000  C
  H179     1.0000 0.51439  0.88210  0.84760  Biso   1.000  H
  H180     1.0000 0.68390  0.74136  0.77789  Biso   1.000  H
  C176     1.0000 0.77710  0.17739  0.83280  Biso   1.000  C
  H181     1.0000 0.60482  0.23824  0.76958  Biso   1.000  H
  H182     1.0000 0.24279  0.92487  0.81919  Biso   1.000  H
  C177     1.0000 0.22742  0.09116  0.81984  Biso   1.000  C
  O13      1.0000 0.59182  0.74952  0.84550  Biso   1.000  O
  C178     1.0000 0.91779  0.18697  0.82886  Biso   1.000  C
  C179     1.0000 0.72271  0.25377  0.84340  Biso   1.000  C
  C180     1.0000 0.76065  0.12068  0.86537  Biso   1.000  C
  C181     1.0000 0.11973  0.14765  0.82245  Biso   1.000  C
  C182     1.0000 0.26976  0.05745  0.85902  Biso   1.000  C
  C183     1.0000 0.33655  0.13439  0.80354  Biso   1.000  C
  C184     1.0000 0.64826  0.67666  0.84184  Biso   1.000  C
  N12      1.0000 0.99524  0.12572  0.82330  Biso   1.000  N
  C185     1.0000 0.99532  0.24878  0.83090  Biso   1.000  C
  H183     1.0000 0.73262  0.29048  0.82310  Biso   1.000  H
  H184     1.0000 0.76801  0.27190  0.86710  Biso   1.000  H
  H185     1.0000 0.63238  0.24799  0.84680  Biso   1.000  H
  H186     1.0000 0.67033  0.11467  0.86849  Biso   1.000  H
  H187     1.0000 0.80498  0.13989  0.88898  Biso   1.000  H
  H188     1.0000 0.79654  0.07150  0.85919  Biso   1.000  H
  C186     1.0000 0.12144  0.22459  0.82719  Biso   1.000  C
  C187     1.0000 0.39757  0.04629  0.87144  Biso   1.000  C
  C188     1.0000 0.18412  0.03297  0.88292  Biso   1.000  C
  H189     1.0000 0.30655  0.15530  0.77868  Biso   1.000  H
  H190     1.0000 0.40729  0.09949  0.80091  Biso   1.000  H
  H191     1.0000 0.36523  0.17569  0.82078  Biso   1.000  H
  C189     1.0000 0.79026  0.67836  0.84728  Biso   1.000  C
  H192     1.0000 0.62116  0.65620  0.81630  Biso   1.000  H
  H193     1.0000 0.61676  0.64187  0.86081  Biso   1.000  H
  H194     1.0000 0.96834  0.07870  0.82069  Biso   1.000  H
  H195     1.0000 0.96931  0.29966  0.83430  Biso   1.000  H
  H196     1.0000 0.19430  0.25626  0.82789  Biso   1.000  H
  H197     1.0000 0.46054  0.06068  0.85550  Biso   1.000  H
  C190     1.0000 0.43452  0.01479  0.90647  Biso   1.000  C
  C191     1.0000 0.21995  0.00045  0.91798  Biso   1.000  C
  H198     1.0000 0.09623  0.03847  0.87509  Biso   1.000  H
  O14      1.0000 0.83858  0.70567  0.88419  Biso   1.000  O
  H199     1.0000 0.82310  0.62657  0.84368  Biso   1.000  H
  H200     1.0000 0.82212  0.71127  0.82770  Biso   1.000  H
  C192     1.0000 0.34616  0.99229  0.92983  Biso   1.000  C
  H201     1.0000 0.52225  0.00856  0.91438  Biso   1.000  H
  H202     1.0000 0.15735  0.98397  0.93360  Biso   1.000  H
  C193     1.0000 0.84376  0.65286  0.91297  Biso   1.000  C
  O15      1.0000 0.38929  0.95989  0.96410  Biso   1.000  O
  C194     1.0000 0.93783  0.59547  0.91444  Biso   1.000  C
  C195     1.0000 0.76347  0.66091  0.94114  Biso   1.000  C
  C196     1.0000 0.32465  0.97836  0.99690  Biso   1.000  C
  C197     1.0000 0.93665  0.54210  0.94310  Biso   1.000  C
  C198     1.0000 0.04113  0.59586  0.88819  Biso   1.000  C
  C199     1.0000 0.67919  0.73048  0.94310  Biso   1.000  C
  C200     1.0000 0.76832  0.60691  0.96975  Biso   1.000  C
  C201     1.0000 0.30367  0.90839  0.01918  Biso   1.000  C
  H203     1.0000 0.24211  0.00238  0.98868  Biso   1.000  H
  H204     1.0000 0.37610  0.01496  0.01300  Biso   1.000  H
  H205     1.0000 0.99606  0.50170  0.94398  Biso   1.000  H
  C202     1.0000 0.85199  0.54561  0.97031  Biso   1.000  C
  H206     1.0000 0.00314  0.60136  0.86168  Biso   1.000  H
  H207     1.0000 0.08714  0.54697  0.89029  Biso   1.000  H
  C203     1.0000 0.13432  0.66051  0.89780  Biso   1.000  C
  C204     1.0000 0.75849  0.80040  0.95384  Biso   1.000  C
  H208     1.0000 0.63048  0.73870  0.91818  Biso   1.000  H
  H209     1.0000 0.61786  0.72210  0.96209  Biso   1.000  H
  H210     1.0000 0.71349  0.61167  0.98928  Biso   1.000  H
  O16      1.0000 0.21128  0.86210  0.99767  Biso   1.000  O
  H211     1.0000 0.38433  0.88017  0.02420  Biso   1.000  H
  H212     1.0000 0.27285  0.92210  0.04379  Biso   1.000  H
  H213     1.0000 0.85066  0.50720  0.98908  Biso   1.000  H
  C205     1.0000 0.13083  0.72510  0.87521  Biso   1.000  C
  C206     1.0000 0.21562  0.66091  0.93097  Biso   1.000  C
  C207     1.0000 0.78262  0.85416  0.92697  Biso   1.000  C
  C208     1.0000 0.81796  0.80839  0.99018  Biso   1.000  C
  C209     1.0000 0.18347  0.79586  0.01723  Biso   1.000  C
  C210     1.0000 0.20578  0.78731  0.88595  Biso   1.000  C
  H214     1.0000 0.07687  0.72646  0.85219  Biso   1.000  H
  O17      1.0000 0.22331  0.59586  0.95370  Biso   1.000  O
  C211     1.0000 0.28429  0.72476  0.94361  Biso   1.000  C
  H215     1.0000 0.73918  0.85110  0.90228  Biso   1.000  H
  C212     1.0000 0.86908  0.91258  0.93533  Biso   1.000  C
  C213     1.0000 0.91156  0.86368  0.99931  Biso   1.000  C
  O18      1.0000 0.79041  0.75864  0.01850  Biso   1.000  O
  C214     1.0000 0.25664  0.73150  0.01247  Biso   1.000  C
  C215     1.0000 0.08151  0.79626  0.03911  Biso   1.000  C
  C216     1.0000 0.27886  0.78697  0.92025  Biso   1.000  C
  H216     1.0000 0.20660  0.83008  0.86968  Biso   1.000  H
  C217     1.0000 0.30473  0.53178  0.94021  Biso   1.000  C
  C218     1.0000 0.35143  0.72867  0.98324  Biso   1.000  C
  H217     1.0000 0.88381  0.94980  0.91679  Biso   1.000  H
  C219     1.0000 0.93304  0.91518  0.97122  Biso   1.000  C
  C220     1.0000 0.99084  0.86300  0.03736  Biso   1.000  C
  C221     1.0000 0.69044  0.78510  0.03923  Biso   1.000  C
  C222     1.0000 0.23167  0.66816  0.03378  Biso   1.000  C
  C223     1.0000 0.06032  0.73178  0.06018  Biso   1.000  C
  H218     1.0000 0.32675  0.83076  0.92790  Biso   1.000  H
  H219     1.0000 0.28116  0.48380  0.95209  Biso   1.000  H
  H220     1.0000 0.28691  0.52606  0.91240  Biso   1.000  H
  C224     1.0000 0.42384  0.54340  0.94820  Biso   1.000  C
  H221     1.0000 0.40657  0.68368  0.98789  Biso   1.000  H
  H222     1.0000 0.40586  0.77439  0.98571  Biso   1.000  H
  H223     1.0000 0.99424  0.95399  0.97680  Biso   1.000  H
  H224     1.0000 0.93467  0.85898  0.05799  Biso   1.000  H
  H225     1.0000 0.03933  0.91076  0.04070  Biso   1.000  H
  H226     1.0000 0.61214  0.79116  0.02188  Biso   1.000  H
  H227     1.0000 0.71339  0.83530  0.05040  Biso   1.000  H
  C225     1.0000 0.66665  0.73127  0.06981  Biso   1.000  C
  C226     1.0000 0.13655  0.66850  0.05813  Biso   1.000  C
  H228     1.0000 0.28086  0.62368  0.03169  Biso   1.000  H
  H229     1.0000 0.99318  0.73116  0.07608  Biso   1.000  H
  H230     1.0000 0.44235  0.55467  0.97550  Biso   1.000  H
  H231     1.0000 0.45189  0.58697  0.93349  Biso   1.000  H
  C227     1.0000 0.49831  0.46629  0.93717  Biso   1.000  C
  H232     1.0000 0.74320  0.72901  0.08818  Biso   1.000  H
  H233     1.0000 0.65297  0.68017  0.05870  Biso   1.000  H
  C228     1.0000 0.55400  0.75190  0.09076  Biso   1.000  C
  H234     1.0000 0.12388  0.62538  0.07339  Biso   1.000  H
  H235     1.0000 0.59018  0.47411  0.94208  Biso   1.000  H
  H236     1.0000 0.47693  0.45479  0.91030  Biso   1.000  H
  H237     1.0000 0.47257  0.42397  0.95260  Biso   1.000  H
  H238     1.0000 0.54328  0.71377  0.11029  Biso   1.000  H
  H239     1.0000 0.47743  0.75360  0.07290  Biso   1.000  H
  H240     1.0000 0.56794  0.80170  0.10270  Biso   1.000  H
  C229     1.0000 0.29174  0.03161  0.33000  Biso   1.000  C
  C230     1.0000 0.28816  0.02589  0.29153  Biso   1.000  C
  H241     1.0000 0.36646  0.03292  0.34709  Biso   1.000  H
  C231     1.0000 0.16611  0.03518  0.34023  Biso   1.000  C
  C232     1.0000 0.38998  0.01518  0.26511  Biso   1.000  C
  N13      1.0000 0.15957  0.02669  0.27843  Biso   1.000  N
  C233     1.0000 0.08506  0.03269  0.30786  Biso   1.000  C
  H242     1.0000 0.14205  0.03870  0.36529  Biso   1.000  H
  C234     1.0000 0.38910  0.07898  0.23531  Biso   1.000  C
  C235     1.0000 0.52179  0.01909  0.28821  Biso   1.000  C
  C236     1.0000 0.37443  0.93790  0.24699  Biso   1.000  C
  H243     1.0000 0.13021  0.02368  0.25439  Biso   1.000  H
  C237     1.0000 0.94063  0.03632  0.30278  Biso   1.000  C
  C238     1.0000 0.34189  0.15020  0.24183  Biso   1.000  C
  C239     1.0000 0.44455  0.06901  0.20155  Biso   1.000  C
  H244     1.0000 0.58839  0.01178  0.27120  Biso   1.000  H
  H245     1.0000 0.53235  0.06878  0.30049  Biso   1.000  H
  H246     1.0000 0.52793  0.97932  0.30760  Biso   1.000  H
  N14      1.0000 0.29326  0.92561  0.21454  Biso   1.000  N
  C240     1.0000 0.42511  0.86839  0.25686  Biso   1.000  C
  C241     1.0000 0.88700  0.97218  0.32606  Biso   1.000  C
  C242     1.0000 0.88687  0.03088  0.26219  Biso   1.000  C
  C243     1.0000 0.90096  0.11371  0.31866  Biso   1.000  C
  C244     1.0000 0.34731  0.20992  0.21638  Biso   1.000  C
  H247     1.0000 0.30410  0.15881  0.26471  Biso   1.000  H
  C245     1.0000 0.44861  0.12657  0.17542  Biso   1.000  C
  H248     1.0000 0.48057  0.02119  0.19639  Biso   1.000  H
  H249     1.0000 0.24689  0.96102  0.20249  Biso   1.000  H
  C246     1.0000 0.29445  0.85042  0.20354  Biso   1.000  C
  C247     1.0000 0.37561  0.81422  0.23007  Biso   1.000  C
  H250     1.0000 0.48392  0.85830  0.27820  Biso   1.000  H
  H251     1.0000 0.91068  0.92312  0.31599  Biso   1.000  H
  H252     1.0000 0.92178  0.97649  0.35259  Biso   1.000  H
  H253     1.0000 0.79429  0.97632  0.32441  Biso   1.000  H
  N15      1.0000 0.86806  0.96249  0.24302  Biso   1.000  N
  C248     1.0000 0.83995  0.08561  0.23727  Biso   1.000  C
  H254     1.0000 0.93396  0.15467  0.30380  Biso   1.000  H
  H255     1.0000 0.80824  0.11677  0.31698  Biso   1.000  H
  H256     1.0000 0.93574  0.11841  0.34519  Biso   1.000  H
  C249     1.0000 0.39887  0.19700  0.18256  Biso   1.000  C
  H257     1.0000 0.31609  0.25858  0.22210  Biso   1.000  H
  H258     1.0000 0.48561  0.11790  0.15240  Biso   1.000  H
  C250     1.0000 0.22289  0.82261  0.16719  Biso   1.000  C
  H259     1.0000 0.39517  0.76170  0.23041  Biso   1.000  H
  H260     1.0000 0.88933  0.91790  0.25280  Biso   1.000  H
  C251     1.0000 0.81207  0.97360  0.20665  Biso   1.000  C
  H261     1.0000 0.83823  0.13841  0.24220  Biso   1.000  H
  C252     1.0000 0.79424  0.04997  0.20288  Biso   1.000  C
  O19      1.0000 0.40817  0.25048  0.15449  Biso   1.000  O
  C253     1.0000 0.08220  0.81303  0.17113  Biso   1.000  C
  C254     1.0000 0.27728  0.74623  0.15659  Biso   1.000  C
  C255     1.0000 0.23934  0.87932  0.13462  Biso   1.000  C
  C256     1.0000 0.77248  0.90878  0.18015  Biso   1.000  C
  H262     1.0000 0.75720  0.07507  0.18080  Biso   1.000  H
  C257     1.0000 0.35164  0.32329  0.15815  Biso   1.000  C
  N16      1.0000 0.00475  0.87428  0.17669  Biso   1.000  N
  C258     1.0000 0.00457  0.75122  0.16909  Biso   1.000  C
  H263     1.0000 0.26737  0.70952  0.17689  Biso   1.000  H
  H264     1.0000 0.23198  0.72810  0.13289  Biso   1.000  H
  H265     1.0000 0.36761  0.75201  0.15319  Biso   1.000  H
  H266     1.0000 0.32967  0.88533  0.13150  Biso   1.000  H
  H267     1.0000 0.19501  0.86011  0.11101  Biso   1.000  H
  H268     1.0000 0.20336  0.92850  0.14080  Biso   1.000  H
  C259     1.0000 0.88016  0.85229  0.17754  Biso   1.000  C
  C260     1.0000 0.73023  0.94249  0.14097  Biso   1.000  C
  C261     1.0000 0.66344  0.86561  0.19645  Biso   1.000  C
  C262     1.0000 0.20973  0.32159  0.15271  Biso   1.000  C
  H269     1.0000 0.37883  0.34380  0.18369  Biso   1.000  H
  H270     1.0000 0.38323  0.35807  0.13919  Biso   1.000  H
  H271     1.0000 0.03156  0.92130  0.17930  Biso   1.000  H
  C263     1.0000 0.87855  0.77541  0.17281  Biso   1.000  C
  H272     1.0000 0.03068  0.70028  0.16569  Biso   1.000  H
  C264     1.0000 0.60242  0.95371  0.12856  Biso   1.000  C
  C265     1.0000 0.81577  0.96703  0.11708  Biso   1.000  C
  H273     1.0000 0.69344  0.84470  0.22131  Biso   1.000  H
  H274     1.0000 0.59270  0.90051  0.19909  Biso   1.000  H
  H275     1.0000 0.63475  0.82431  0.17919  Biso   1.000  H
  O20      1.0000 0.16141  0.29428  0.11580  Biso   1.000  O
  H276     1.0000 0.17689  0.37337  0.15631  Biso   1.000  H
  H277     1.0000 0.17787  0.28867  0.17230  Biso   1.000  H
  H278     1.0000 0.80569  0.74368  0.17210  Biso   1.000  H
  H279     1.0000 0.53945  0.93932  0.14449  Biso   1.000  H
  C266     1.0000 0.56538  0.98521  0.09352  Biso   1.000  C
  C267     1.0000 0.78004  0.99949  0.08201  Biso   1.000  C
  H280     1.0000 0.90367  0.96147  0.12490  Biso   1.000  H
  C268     1.0000 0.15623  0.34708  0.08703  Biso   1.000  C
  H281     1.0000 0.47774  0.99139  0.08561  Biso   1.000  H
  C269     1.0000 0.65383  0.00771  0.07016  Biso   1.000  C
  H282     1.0000 0.84264  0.01598  0.06639  Biso   1.000  H
  C270     1.0000 0.06206  0.40448  0.08555  Biso   1.000  C
  C271     1.0000 0.23652  0.33909  0.05885  Biso   1.000  C
  O21      1.0000 0.61070  0.04011  0.03589  Biso   1.000  O
  C272     1.0000 0.06334  0.45790  0.05689  Biso   1.000  C
  C273     1.0000 0.95877  0.40408  0.11180  Biso   1.000  C
  C274     1.0000 0.32080  0.26952  0.05689  Biso   1.000  C
  C275     1.0000 0.23167  0.39309  0.03025  Biso   1.000  C
  C276     1.0000 0.67534  0.02159  0.00309  Biso   1.000  C
  H283     1.0000 0.00392  0.49830  0.05599  Biso   1.000  H
  C277     1.0000 0.14800  0.45439  0.02968  Biso   1.000  C
  H284     1.0000 0.99676  0.39858  0.13831  Biso   1.000  H
  H285     1.0000 0.91276  0.45297  0.10971  Biso   1.000  H
  C278     1.0000 0.86567  0.33949  0.10219  Biso   1.000  C
  C279     1.0000 0.24150  0.19960  0.04615  Biso   1.000  C
  H286     1.0000 0.36951  0.26130  0.08181  Biso   1.000  H
  H287     1.0000 0.38213  0.27790  0.03790  Biso   1.000  H
  H288     1.0000 0.28649  0.38827  0.01069  Biso   1.000  H
  C280     1.0000 0.69633  0.09161  0.98081  Biso   1.000  C
  H289     1.0000 0.62389  0.98499  0.98699  Biso   1.000  H
  H290     1.0000 0.75789  0.99762  0.01131  Biso   1.000  H
  H291     1.0000 0.14933  0.49280  0.01091  Biso   1.000  H
  C281     1.0000 0.86906  0.27490  0.12479  Biso   1.000  C
  C282     1.0000 0.78427  0.33909  0.06903  Biso   1.000  C
  C283     1.0000 0.21737  0.14578  0.07302  Biso   1.000  C
  C284     1.0000 0.18203  0.19161  0.00981  Biso   1.000  C
  O22      1.0000 0.78871  0.13790  0.00232  Biso   1.000  O
  H292     1.0000 0.61557  0.11977  0.97579  Biso   1.000  H
  H293     1.0000 0.72714  0.07790  0.95620  Biso   1.000  H
  C285     1.0000 0.79421  0.21269  0.11404  Biso   1.000  C
  H294     1.0000 0.92312  0.27348  0.14780  Biso   1.000  H
  O23      1.0000 0.77668  0.40414  0.04629  Biso   1.000  O
  C286     1.0000 0.71570  0.27518  0.05638  Biso   1.000  C
  H295     1.0000 0.26081  0.14890  0.09769  Biso   1.000  H
  C287     1.0000 0.13091  0.08742  0.06466  Biso   1.000  C
  C288     1.0000 0.08843  0.13632  0.00068  Biso   1.000  C
  O24      1.0000 0.20958  0.24136  0.98149  Biso   1.000  O
  C289     1.0000 0.81651  0.20408  0.98274  Biso   1.000  C
  C290     1.0000 0.72113  0.21297  0.07974  Biso   1.000  C
  H296     1.0000 0.79338  0.16992  0.13029  Biso   1.000  H
  C291     1.0000 0.69517  0.46822  0.05979  Biso   1.000  C
  C292     1.0000 0.64847  0.27127  0.01675  Biso   1.000  C
  H297     1.0000 0.11618  0.05020  0.08320  Biso   1.000  H
  C293     1.0000 0.06686  0.08482  0.02877  Biso   1.000  C
  C294     1.0000 0.00905  0.13700  0.96264  Biso   1.000  C
  C295     1.0000 0.30945  0.21490  0.96077  Biso   1.000  C
  C296     1.0000 0.74335  0.26850  0.98753  Biso   1.000  C
  C297     1.0000 0.91848  0.20368  0.96088  Biso   1.000  C
  H298     1.0000 0.67324  0.16918  0.07209  Biso   1.000  H
  H299     1.0000 0.71884  0.51620  0.04791  Biso   1.000  H
  H300     1.0000 0.71308  0.47388  0.08759  Biso   1.000  H
  C298     1.0000 0.57615  0.45660  0.05179  Biso   1.000  C
  H301     1.0000 0.59343  0.31632  0.01210  Biso   1.000  H
  H302     1.0000 0.59413  0.22561  0.01429  Biso   1.000  H
  H303     1.0000 0.00566  0.04601  0.02319  Biso   1.000  H
  H304     1.0000 0.96057  0.08918  0.95929  Biso   1.000  H
  H305     1.0000 0.06532  0.14102  0.94200  Biso   1.000  H
  H306     1.0000 0.38774  0.20878  0.97809  Biso   1.000  H
  H307     1.0000 0.28660  0.16470  0.94960  Biso   1.000  H
  C299     1.0000 0.33334  0.26867  0.93018  Biso   1.000  C
  C300     1.0000 0.76832  0.33178  0.96621  Biso   1.000  C
  C301     1.0000 0.93957  0.26822  0.93982  Biso   1.000  C
  H308     1.0000 0.55765  0.44527  0.02449  Biso   1.000  H
  H309     1.0000 0.54810  0.41297  0.06650  Biso   1.000  H
  C302     1.0000 0.50158  0.53371  0.06282  Biso   1.000  C
  H310     1.0000 0.25679  0.27099  0.91181  Biso   1.000  H
  H311     1.0000 0.34702  0.31977  0.94129  Biso   1.000  H
  C303     1.0000 0.44599  0.24810  0.90923  Biso   1.000  C
  C304     1.0000 0.86344  0.33150  0.94186  Biso   1.000  C
  H312     1.0000 0.71913  0.37632  0.96831  Biso   1.000  H
  H313     1.0000 0.00681  0.26878  0.92391  Biso   1.000  H
  H314     1.0000 0.40980  0.52589  0.05789  Biso   1.000  H
  H315     1.0000 0.52297  0.54521  0.08969  Biso   1.000  H
  H316     1.0000 0.52742  0.57598  0.04740  Biso   1.000  H
  H317     1.0000 0.45671  0.28618  0.88970  Biso   1.000  H
  H318     1.0000 0.52256  0.24640  0.92709  Biso   1.000  H
  H319     1.0000 0.43195  0.19830  0.89730  Biso   1.000  H
  H320     1.0000 0.87611  0.37462  0.92661  Biso   1.000  H
  Ne1      1.0000 0.02800  0.12573  0.12231  Biso   1.000  Ne
  He1      1.0000 0.04479  0.20515  0.21352  Biso   1.000  He
  He2      1.0000 0.31708  0.02944  0.12185  Biso   1.000  He
  He3      1.0000 0.06794  0.97470  0.11419  Biso   1.000  He
  Ar1      1.0000 0.03983  0.12265  0.14496  Biso   1.000  Ar
  Ne2      1.0000 0.47199  0.62571  0.37769  Biso   1.000  Ne
  He4      1.0000 0.47640  0.84596  0.50140  Biso   1.000  He
  He5      1.0000 0.43091  0.48141  0.38225  Biso   1.000  He
  He6      1.0000 0.13637  0.52122  0.38716  Biso   1.000  He
  He7      1.0000 0.45510  0.70442  0.28691  Biso   1.000  He
  He8      1.0000 0.46452  0.49509  0.28692  Biso   1.000  He
  Ar2      1.0000 0.48503  0.59718  0.35504  Biso   1.000  Ar
  Ne3      1.0000 0.52799  0.37427  0.62230  Biso   1.000  Ne
  He9      1.0000 0.54521  0.29657  0.71264  Biso   1.000  He
  He10     1.0000 0.69260  0.43709  0.64865  Biso   1.000  He
  He11     1.0000 0.56789  0.52587  0.61388  Biso   1.000  He
  Ar3      1.0000 0.53980  0.37731  0.64495  Biso   1.000  Ar
  Ne4      1.0000 0.97196  0.87425  0.87769  Biso   1.000  Ne
  He12     1.0000 0.94030  0.64214  0.01780  Biso   1.000  He
  He13     1.0000 0.98164  0.00591  0.89783  Biso   1.000  He
  He14     1.0000 0.66212  0.97419  0.88217  Biso   1.000  He
  He15     1.0000 0.95044  0.81545  0.79823  Biso   1.000  He
  He16     1.0000 0.96485  0.00357  0.78735  Biso   1.000  He
  Ar4      1.0000 0.98511  0.90262  0.85503  Biso   1.000  Ar
