data_image0
_cell_length_a       19.406
_cell_length_b       30.447
_cell_length_c       19.9
_cell_angle_alpha    90
_cell_angle_beta     101.58
_cell_angle_gamma    90

_symmetry_space_group_name_H-M    "P 1"
_symmetry_int_tables_number       1

loop_
  _symmetry_equiv_pos_as_xyz
  'x, y, z'

loop_
  _atom_site_label
  _atom_site_occupancy
  _atom_site_fract_x
  _atom_site_fract_y
  _atom_site_fract_z
  _atom_site_thermal_displace_type
  _atom_site_B_iso_or_equiv
  _atom_site_type_symbol
  C1       1.0000 0.54125  0.42612  0.46222  Biso   1.000  C
  C2       1.0000 0.50320  0.43962  0.39708  Biso   1.000  C
  C3       1.0000 0.61284  0.43650  0.48161  Biso   1.000  C
  H1       1.0000 0.51836  0.41019  0.49249  Biso   1.000  H
  C4       1.0000 0.42714  0.42920  0.37528  Biso   1.000  C
  C5       1.0000 0.53893  0.46300  0.35409  Biso   1.000  C
  C6       1.0000 0.64763  0.45811  0.43632  Biso   1.000  C
  C7       1.0000 0.65564  0.42349  0.54958  Biso   1.000  C
  C8       1.0000 0.39472  0.39400  0.39600  Biso   1.000  C
  C9       1.0000 0.38253  0.45982  0.33229  Biso   1.000  C
  H2       1.0000 0.51300  0.47269  0.31100  Biso   1.000  H
  C10      1.0000 0.61006  0.47289  0.37071  Biso   1.000  C
  H3       1.0000 0.69693  0.46300  0.44899  Biso   1.000  H
  C11      1.0000 0.64094  0.38411  0.58379  Biso   1.000  C
  C12      1.0000 0.71025  0.44852  0.58179  Biso   1.000  C
  C13      1.0000 0.32474  0.38519  0.37548  Biso   1.000  C
  H4       1.0000 0.42243  0.37409  0.42698  Biso   1.000  H
  C14      1.0000 0.31454  0.45049  0.30890  Biso   1.000  C
  H5       1.0000 0.40134  0.48691  0.32029  Biso   1.000  H
  C15      1.0000 0.64841  0.49650  0.32470  Biso   1.000  C
  H6       1.0000 0.60303  0.36582  0.56312  Biso   1.000  H
  C16      1.0000 0.68125  0.37301  0.64571  Biso   1.000  C
  C17      1.0000 0.75383  0.43719  0.64458  Biso   1.000  C
  H7       1.0000 0.71956  0.47532  0.56071  Biso   1.000  H
  C18      1.0000 0.29505  0.34450  0.40021  Biso   1.000  C
  C19      1.0000 0.28223  0.41321  0.32891  Biso   1.000  C
  H8       1.0000 0.28711  0.47010  0.27730  Biso   1.000  H
  C20      1.0000 0.61251  0.51020  0.25868  Biso   1.000  C
  C21      1.0000 0.71831  0.50760  0.34358  Biso   1.000  C
  C22      1.0000 0.66596  0.33189  0.68130  Biso   1.000  C
  C23      1.0000 0.73823  0.39889  0.67669  Biso   1.000  C
  H9       1.0000 0.79266  0.45509  0.66448  Biso   1.000  H
  O1       1.0000 0.31725  0.30630  0.39092  Biso   1.000  O
  N1       1.0000 0.24611  0.35081  0.44058  Biso   1.000  N
  O2       1.0000 0.21373  0.39971  0.30680  Biso   1.000  O
  H10      1.0000 0.56401  0.50350  0.24360  Biso   1.000  H
  C24      1.0000 0.64864  0.53371  0.21590  Biso   1.000  C
  C25      1.0000 0.75255  0.53109  0.30239  Biso   1.000  C
  H11      1.0000 0.74372  0.49851  0.38718  Biso   1.000  H
  O3       1.0000 0.67417  0.29609  0.65812  Biso   1.000  O
  N2       1.0000 0.64475  0.33639  0.74250  Biso   1.000  N
  O4       1.0000 0.77485  0.38431  0.73891  Biso   1.000  O
  N3       1.0000 0.22272  0.39061  0.45012  Biso   1.000  N
  H12      1.0000 0.23034  0.32811  0.46038  Biso   1.000  H
  C26      1.0000 0.16910  0.42769  0.26099  Biso   1.000  C
  C27      1.0000 0.60849  0.54780  0.14578  Biso   1.000  C
  C28      1.0000 0.71735  0.54472  0.23652  Biso   1.000  C
  H13      1.0000 0.80064  0.53841  0.31798  Biso   1.000  H
  N4       1.0000 0.63667  0.37859  0.76558  Biso   1.000  N
  H14      1.0000 0.63649  0.31330  0.76620  Biso   1.000  H
  C29      1.0000 0.82276  0.41331  0.77989  Biso   1.000  C
  C30      1.0000 0.17615  0.39340  0.48849  Biso   1.000  C
  H15      1.0000 0.16095  0.45479  0.28572  Biso   1.000  H
  H16      1.0000 0.19320  0.43620  0.22360  Biso   1.000  H
  C31      1.0000 0.10092  0.40822  0.23068  Biso   1.000  C
  O5       1.0000 0.59800  0.52271  0.09659  Biso   1.000  O
  N5       1.0000 0.58494  0.58771  0.13952  Biso   1.000  N
  O6       1.0000 0.74703  0.56800  0.19220  Biso   1.000  O
  C32      1.0000 0.61999  0.38270  0.82401  Biso   1.000  C
  H17      1.0000 0.86566  0.41659  0.76050  Biso   1.000  H
  H18      1.0000 0.80104  0.44261  0.78128  Biso   1.000  H
  C33      1.0000 0.84149  0.39400  0.85161  Biso   1.000  C
  C34      1.0000 0.14494  0.43620  0.49910  Biso   1.000  C
  H19      1.0000 0.16233  0.36789  0.50972  Biso   1.000  H
  H20      1.0000 0.09840  0.40661  0.18061  Biso   1.000  H
  H21      1.0000 0.06432  0.42930  0.23811  Biso   1.000  H
  N6       1.0000 0.08061  0.36582  0.25191  Biso   1.000  N
  N7       1.0000 0.59374  0.61701  0.19579  Biso   1.000  N
  H22      1.0000 0.56282  0.59691  0.09890  Biso   1.000  H
  C35      1.0000 0.81781  0.58131  0.21139  Biso   1.000  C
  C36      1.0000 0.61264  0.42631  0.85237  Biso   1.000  C
  H23      1.0000 0.61219  0.35731  0.84919  Biso   1.000  H
  H24      1.0000 0.79757  0.38822  0.86807  Biso   1.000  H
  H25      1.0000 0.86878  0.41610  0.88259  Biso   1.000  H
  N8       1.0000 0.88239  0.35330  0.85581  Biso   1.000  N
  C37      1.0000 0.15112  0.47069  0.45350  Biso   1.000  C
  C38      1.0000 0.10912  0.44369  0.55189  Biso   1.000  C
  C39      1.0000 0.00462  0.35609  0.22770  Biso   1.000  C
  C40      1.0000 0.12181  0.32949  0.23001  Biso   1.000  C
  C41      1.0000 0.56452  0.65340  0.18328  Biso   1.000  C
  H26      1.0000 0.82551  0.59651  0.25632  Biso   1.000  H
  H27      1.0000 0.84912  0.55539  0.21580  Biso   1.000  H
  C42      1.0000 0.83503  0.61221  0.15712  Biso   1.000  C
  C43      1.0000 0.63126  0.46422  0.81667  Biso   1.000  C
  C44      1.0000 0.58829  0.43301  0.91157  Biso   1.000  C
  C45      1.0000 0.83748  0.31451  0.83288  Biso   1.000  C
  C46      1.0000 0.91749  0.34480  0.92922  Biso   1.000  C
  C47      1.0000 0.12323  0.51079  0.46171  Biso   1.000  C
  H28      1.0000 0.17494  0.46589  0.41677  Biso   1.000  H
  H29      1.0000 0.10264  0.42050  0.58200  Biso   1.000  H
  C48      1.0000 0.08454  0.48300  0.55989  Biso   1.000  C
  H30      1.0000 0.98642  0.37311  0.18610  Biso   1.000  H
  H31      1.0000 0.99842  0.32470  0.21739  Biso   1.000  H
  H32      1.0000 0.97885  0.36401  0.26350  Biso   1.000  H
  H33      1.0000 0.16450  0.34230  0.21888  Biso   1.000  H
  H34      1.0000 0.13480  0.30699  0.26561  Biso   1.000  H
  H35      1.0000 0.09344  0.31619  0.18882  Biso   1.000  H
  C49      1.0000 0.56430  0.68549  0.23929  Biso   1.000  C
  H36      1.0000 0.54234  0.66069  0.13757  Biso   1.000  H
  H37      1.0000 0.87172  0.63300  0.17938  Biso   1.000  H
  H38      1.0000 0.79239  0.62959  0.13798  Biso   1.000  H
  N9       1.0000 0.85911  0.59080  0.10110  Biso   1.000  N
  C50      1.0000 0.62706  0.50501  0.84130  Biso   1.000  C
  H39      1.0000 0.64685  0.46031  0.77471  Biso   1.000  H
  H40      1.0000 0.57688  0.40871  0.93722  Biso   1.000  H
  C51      1.0000 0.58026  0.47430  0.93337  Biso   1.000  C
  H41      1.0000 0.79349  0.31740  0.84950  Biso   1.000  H
  H42      1.0000 0.82718  0.31310  0.78261  Biso   1.000  H
  H43      1.0000 0.86177  0.28761  0.85150  Biso   1.000  H
  H44      1.0000 0.88597  0.32739  0.95158  Biso   1.000  H
  H45      1.0000 0.96137  0.32860  0.93060  Biso   1.000  H
  H46      1.0000 0.92775  0.37291  0.95327  Biso   1.000  H
  C52      1.0000 0.09171  0.51930  0.51588  Biso   1.000  C
  H47      1.0000 0.12562  0.53339  0.42929  Biso   1.000  H
  H48      1.0000 0.06084  0.48770  0.59672  Biso   1.000  H
  C53      1.0000 0.61924  0.68440  0.30039  Biso   1.000  C
  C54      1.0000 0.51262  0.71649  0.23278  Biso   1.000  C
  C55      1.0000 0.81664  0.55319  0.07202  Biso   1.000  C
  C56      1.0000 0.86932  0.62082  0.04529  Biso   1.000  C
  C57      1.0000 0.59925  0.51099  0.89998  Biso   1.000  C
  H49      1.0000 0.64287  0.52951  0.81898  Biso   1.000  H
  H50      1.0000 0.56099  0.47841  0.97318  Biso   1.000  H
  C58      1.0000 0.06644  0.56541  0.52629  Biso   1.000  C
  C59      1.0000 0.61651  0.71262  0.35148  Biso   1.000  C
  H51      1.0000 0.65661  0.66381  0.30418  Biso   1.000  H
  H52      1.0000 0.47721  0.71800  0.19220  Biso   1.000  H
  C60      1.0000 0.51262  0.74641  0.28761  Biso   1.000  C
  H53      1.0000 0.82080  0.52990  0.10649  Biso   1.000  H
  H54      1.0000 0.76730  0.56209  0.05837  Biso   1.000  H
  H55      1.0000 0.83340  0.54229  0.03180  Biso   1.000  H
  H56      1.0000 0.87224  0.65110  0.06202  Biso   1.000  H
  H57      1.0000 0.91273  0.61320  0.02991  Biso   1.000  H
  H58      1.0000 0.82921  0.61779  0.00692  Biso   1.000  H
  C61      1.0000 0.59276  0.55759  0.92701  Biso   1.000  C
  N10      1.0000 0.12816  0.59402  0.55050  Biso   1.000  N
  H59      1.0000 0.03584  0.56511  0.56061  Biso   1.000  H
  H60      1.0000 0.03874  0.57690  0.48259  Biso   1.000  H
  C62      1.0000 0.56353  0.74290  0.34619  Biso   1.000  C
  H61      1.0000 0.65193  0.71160  0.39210  Biso   1.000  H
  H62      1.0000 0.47773  0.76861  0.28382  Biso   1.000  H
  N11      1.0000 0.55117  0.58420  0.87017  Biso   1.000  N
  H63      1.0000 0.63998  0.57060  0.94240  Biso   1.000  H
  H64      1.0000 0.56876  0.55690  0.96640  Biso   1.000  H
  C63      1.0000 0.15642  0.61839  0.50731  Biso   1.000  C
  C64      1.0000 0.16345  0.58741  0.61831  Biso   1.000  C
  C65      1.0000 0.55845  0.77489  0.40662  Biso   1.000  C
  C66      1.0000 0.58329  0.61182  0.83519  Biso   1.000  C
  C67      1.0000 0.48445  0.57970  0.85468  Biso   1.000  C
  C68      1.0000 0.22093  0.63691  0.52732  Biso   1.000  C
  H65      1.0000 0.13093  0.62289  0.46181  Biso   1.000  H
  H66      1.0000 0.14365  0.56961  0.64878  Biso   1.000  H
  C69      1.0000 0.22707  0.60732  0.63899  Biso   1.000  C
  N12      1.0000 0.52555  0.75291  0.45858  Biso   1.000  N
  H67      1.0000 0.53015  0.80090  0.38831  Biso   1.000  H
  H68      1.0000 0.60615  0.78510  0.42832  Biso   1.000  H
  C70      1.0000 0.54508  0.63340  0.77800  Biso   1.000  C
  H69      1.0000 0.63239  0.61691  0.84919  Biso   1.000  H
  C71      1.0000 0.44166  0.59940  0.79877  Biso   1.000  C
  H70      1.0000 0.46287  0.56160  0.88331  Biso   1.000  H
  C72      1.0000 0.25732  0.63070  0.59518  Biso   1.000  C
  H71      1.0000 0.24115  0.65369  0.49587  Biso   1.000  H
  H72      1.0000 0.25066  0.60449  0.68551  Biso   1.000  H
  C73      1.0000 0.45812  0.74520  0.44268  Biso   1.000  C
  C74      1.0000 0.56036  0.74191  0.51880  Biso   1.000  C
  C75      1.0000 0.47684  0.62762  0.75789  Biso   1.000  C
  H73      1.0000 0.56888  0.65281  0.75291  Biso   1.000  H
  H74      1.0000 0.39226  0.59471  0.78810  Biso   1.000  H
  C76      1.0000 0.33002  0.64749  0.61667  Biso   1.000  C
  C77      1.0000 0.42305  0.72372  0.48859  Biso   1.000  C
  H75      1.0000 0.43213  0.75429  0.39928  Biso   1.000  H
  C78      1.0000 0.52966  0.72030  0.56492  Biso   1.000  C
  H76      1.0000 0.60886  0.74920  0.53111  Biso   1.000  H
  C79      1.0000 0.43366  0.64611  0.69459  Biso   1.000  C
  N13      1.0000 0.36628  0.63359  0.67689  Biso   1.000  N
  N14      1.0000 0.35855  0.67320  0.57379  Biso   1.000  N
  C80      1.0000 0.46053  0.71110  0.54948  Biso   1.000  C
  H77      1.0000 0.37392  0.71830  0.47669  Biso   1.000  H
  H78      1.0000 0.55693  0.71179  0.60800  Biso   1.000  H
  N15      1.0000 0.46584  0.67209  0.65689  Biso   1.000  N
  C81      1.0000 0.42466  0.68352  0.59651  Biso   1.000  C
  C82      1.0000 0.45884  0.57392  0.53778  Biso   1.000  C
  C83      1.0000 0.49682  0.56042  0.60287  Biso   1.000  C
  C84      1.0000 0.38724  0.56350  0.51839  Biso   1.000  C
  H79      1.0000 0.48172  0.58981  0.50752  Biso   1.000  H
  C85      1.0000 0.46116  0.53700  0.64591  Biso   1.000  C
  C86      1.0000 0.57293  0.57080  0.62467  Biso   1.000  C
  C87      1.0000 0.35245  0.54189  0.56368  Biso   1.000  C
  C88      1.0000 0.34443  0.57651  0.45037  Biso   1.000  C
  C89      1.0000 0.39002  0.52711  0.62929  Biso   1.000  C
  H80      1.0000 0.48708  0.52731  0.68900  Biso   1.000  H
  C90      1.0000 0.60537  0.60600  0.60400  Biso   1.000  C
  C91      1.0000 0.61755  0.54022  0.66771  Biso   1.000  C
  H81      1.0000 0.30316  0.53700  0.55101  Biso   1.000  H
  C92      1.0000 0.35915  0.61589  0.41621  Biso   1.000  C
  C93      1.0000 0.28984  0.55152  0.41821  Biso   1.000  C
  C94      1.0000 0.35167  0.50350  0.67530  Biso   1.000  C
  C95      1.0000 0.67534  0.61481  0.62452  Biso   1.000  C
  H82      1.0000 0.57766  0.62591  0.57302  Biso   1.000  H
  C96      1.0000 0.68555  0.54951  0.69110  Biso   1.000  C
  H83      1.0000 0.59874  0.51309  0.67971  Biso   1.000  H
  C97      1.0000 0.31883  0.62699  0.35430  Biso   1.000  C
  H84      1.0000 0.39705  0.63422  0.43688  Biso   1.000  H
  C98      1.0000 0.24624  0.56281  0.35537  Biso   1.000  C
  H85      1.0000 0.28052  0.52472  0.43929  Biso   1.000  H
  C99      1.0000 0.38758  0.48980  0.74132  Biso   1.000  C
  C100     1.0000 0.28177  0.49240  0.65638  Biso   1.000  C
  C101     1.0000 0.70504  0.65550  0.59980  Biso   1.000  C
  C102     1.0000 0.71786  0.58679  0.67110  Biso   1.000  C
  H86      1.0000 0.71297  0.52990  0.72270  Biso   1.000  H
  C103     1.0000 0.33413  0.66811  0.31870  Biso   1.000  C
  C104     1.0000 0.26185  0.60111  0.32331  Biso   1.000  C
  H87      1.0000 0.20743  0.54491  0.33552  Biso   1.000  H
  C105     1.0000 0.35145  0.46629  0.78410  Biso   1.000  C
  H88      1.0000 0.43608  0.49650  0.75640  Biso   1.000  H
  C106     1.0000 0.24754  0.46891  0.69762  Biso   1.000  C
  H89      1.0000 0.25635  0.50149  0.61277  Biso   1.000  H
  N16      1.0000 0.75397  0.64919  0.55938  Biso   1.000  N
  O7       1.0000 0.68283  0.69370  0.60908  Biso   1.000  O
  O8       1.0000 0.78636  0.60029  0.69321  Biso   1.000  O
  N17      1.0000 0.35534  0.66361  0.25750  Biso   1.000  N
  O9       1.0000 0.32591  0.70391  0.34188  Biso   1.000  O
  O10      1.0000 0.22524  0.61569  0.26109  Biso   1.000  O
  C107     1.0000 0.39159  0.45220  0.85417  Biso   1.000  C
  C108     1.0000 0.28274  0.45532  0.76348  Biso   1.000  C
  H90      1.0000 0.19943  0.46159  0.68197  Biso   1.000  H
  N18      1.0000 0.77737  0.60939  0.54989  Biso   1.000  N
  H91      1.0000 0.76973  0.67189  0.53958  Biso   1.000  H
  C109     1.0000 0.83098  0.57231  0.73901  Biso   1.000  C
  N19      1.0000 0.36341  0.62141  0.23442  Biso   1.000  N
  H92      1.0000 0.36360  0.68670  0.23380  Biso   1.000  H
  C110     1.0000 0.17733  0.58669  0.22011  Biso   1.000  C
  N20      1.0000 0.41515  0.41229  0.86048  Biso   1.000  N
  O11      1.0000 0.40208  0.47729  0.90341  Biso   1.000  O
  O12      1.0000 0.25306  0.43200  0.80780  Biso   1.000  O
  C111     1.0000 0.82394  0.60660  0.51152  Biso   1.000  C
  H93      1.0000 0.83914  0.54521  0.71429  Biso   1.000  H
  H94      1.0000 0.80689  0.56380  0.77641  Biso   1.000  H
  C112     1.0000 0.89915  0.59182  0.76928  Biso   1.000  C
  C113     1.0000 0.38009  0.61730  0.17599  Biso   1.000  C
  H95      1.0000 0.13443  0.58341  0.23950  Biso   1.000  H
  H96      1.0000 0.19905  0.55739  0.21872  Biso   1.000  H
  C114     1.0000 0.15860  0.60600  0.14840  Biso   1.000  C
  N21      1.0000 0.40634  0.38299  0.80421  Biso   1.000  N
  H97      1.0000 0.43727  0.40309  0.90111  Biso   1.000  H
  C115     1.0000 0.18228  0.41869  0.78861  Biso   1.000  C
  C116     1.0000 0.85514  0.56380  0.50090  Biso   1.000  C
  H98      1.0000 0.83776  0.63211  0.49028  Biso   1.000  H
  H99      1.0000 0.90169  0.59339  0.81939  Biso   1.000  H
  H100     1.0000 0.93577  0.57070  0.76189  Biso   1.000  H
  N22      1.0000 0.91948  0.63422  0.74809  Biso   1.000  N
  C117     1.0000 0.38743  0.57372  0.14758  Biso   1.000  C
  H101     1.0000 0.38789  0.64269  0.15081  Biso   1.000  H
  H102     1.0000 0.20251  0.61182  0.13188  Biso   1.000  H
  H103     1.0000 0.13130  0.58390  0.11742  Biso   1.000  H
  N23      1.0000 0.11770  0.64670  0.14419  Biso   1.000  N
  C118     1.0000 0.43555  0.34660  0.81667  Biso   1.000  C
  H104     1.0000 0.17457  0.40349  0.74368  Biso   1.000  H
  H105     1.0000 0.15096  0.44461  0.78420  Biso   1.000  H
  C119     1.0000 0.16505  0.38779  0.84289  Biso   1.000  C
  C120     1.0000 0.84897  0.52931  0.54650  Biso   1.000  C
  C121     1.0000 0.89096  0.55631  0.44812  Biso   1.000  C
  C122     1.0000 0.99547  0.64391  0.77230  Biso   1.000  C
  C123     1.0000 0.87828  0.67051  0.76999  Biso   1.000  C
  C124     1.0000 0.36881  0.53582  0.18328  Biso   1.000  C
  C125     1.0000 0.41178  0.56702  0.08838  Biso   1.000  C
  C126     1.0000 0.16261  0.68549  0.16712  Biso   1.000  C
  C127     1.0000 0.08259  0.65520  0.07079  Biso   1.000  C
  C128     1.0000 0.43578  0.31451  0.76071  Biso   1.000  C
  H106     1.0000 0.45774  0.33931  0.86238  Biso   1.000  H
  H107     1.0000 0.12836  0.36700  0.82057  Biso   1.000  H
  H108     1.0000 0.20769  0.37041  0.86202  Biso   1.000  H
  N24      1.0000 0.14098  0.40920  0.89890  Biso   1.000  N
  C129     1.0000 0.87686  0.48921  0.53829  Biso   1.000  C
  H109     1.0000 0.82514  0.53411  0.58318  Biso   1.000  H
  C130     1.0000 0.91555  0.51700  0.44011  Biso   1.000  C
  H110     1.0000 0.89744  0.57950  0.41801  Biso   1.000  H
  H111     1.0000 0.01367  0.62689  0.81390  Biso   1.000  H
  H112     1.0000 0.00166  0.67530  0.78261  Biso   1.000  H
  H113     1.0000 0.02123  0.63599  0.73650  Biso   1.000  H
  H114     1.0000 0.83557  0.65770  0.78107  Biso   1.000  H
  H115     1.0000 0.86528  0.69301  0.73440  Biso   1.000  H
  H116     1.0000 0.90665  0.68381  0.81118  Biso   1.000  H
  C131     1.0000 0.37303  0.49499  0.15871  Biso   1.000  C
  H117     1.0000 0.35324  0.53969  0.22529  Biso   1.000  H
  C132     1.0000 0.41982  0.52570  0.06658  Biso   1.000  C
  H118     1.0000 0.42321  0.59129  0.06279  Biso   1.000  H
  H119     1.0000 0.20660  0.68260  0.15050  Biso   1.000  H
  H120     1.0000 0.17291  0.68690  0.21739  Biso   1.000  H
  H121     1.0000 0.13832  0.71242  0.14850  Biso   1.000  H
  H122     1.0000 0.11411  0.67261  0.04842  Biso   1.000  H
  H123     1.0000 0.03871  0.67140  0.06940  Biso   1.000  H
  H124     1.0000 0.07232  0.62709  0.04668  Biso   1.000  H
  C133     1.0000 0.38085  0.31560  0.69962  Biso   1.000  C
  C134     1.0000 0.48746  0.28351  0.76717  Biso   1.000  C
  C135     1.0000 0.18345  0.44681  0.92798  Biso   1.000  C
  C136     1.0000 0.13077  0.37922  0.95471  Biso   1.000  C
  C137     1.0000 0.90836  0.48070  0.48407  Biso   1.000  C
  H125     1.0000 0.87446  0.46661  0.57071  Biso   1.000  H
  H126     1.0000 0.93924  0.51230  0.40328  Biso   1.000  H
  C138     1.0000 0.40082  0.48901  0.09997  Biso   1.000  C
  H127     1.0000 0.35722  0.47049  0.18102  Biso   1.000  H
  H128     1.0000 0.43909  0.52159  0.02678  Biso   1.000  H
  C139     1.0000 0.38356  0.28738  0.64848  Biso   1.000  C
  H129     1.0000 0.34348  0.33619  0.69582  Biso   1.000  H
  C140     1.0000 0.48746  0.25359  0.71239  Biso   1.000  C
  H130     1.0000 0.52287  0.28200  0.80780  Biso   1.000  H
  H131     1.0000 0.17929  0.47010  0.89351  Biso   1.000  H
  H132     1.0000 0.23278  0.43791  0.94158  Biso   1.000  H
  H133     1.0000 0.16668  0.45771  0.96820  Biso   1.000  H
  H134     1.0000 0.12784  0.34890  0.93799  Biso   1.000  H
  H135     1.0000 0.08735  0.38680  0.97010  Biso   1.000  H
  H136     1.0000 0.17087  0.38221  0.99308  Biso   1.000  H
  C141     1.0000 0.93364  0.43459  0.47371  Biso   1.000  C
  C142     1.0000 0.40733  0.44241  0.07299  Biso   1.000  C
  C143     1.0000 0.43655  0.25710  0.65381  Biso   1.000  C
  H137     1.0000 0.34816  0.28840  0.60790  Biso   1.000  H
  H138     1.0000 0.52236  0.23139  0.71619  Biso   1.000  H
  N25      1.0000 0.87193  0.40602  0.44950  Biso   1.000  N
  H139     1.0000 0.96425  0.43489  0.43940  Biso   1.000  H
  H140     1.0000 0.96135  0.42310  0.51742  Biso   1.000  H
  N26      1.0000 0.44890  0.41580  0.12978  Biso   1.000  N
  H141     1.0000 0.36010  0.42940  0.05760  Biso   1.000  H
  H142     1.0000 0.43132  0.44310  0.03360  Biso   1.000  H
  C144     1.0000 0.44163  0.22511  0.59338  Biso   1.000  C
  C145     1.0000 0.84366  0.38161  0.49269  Biso   1.000  C
  C146     1.0000 0.83663  0.41259  0.38169  Biso   1.000  C
  C147     1.0000 0.41680  0.38822  0.16481  Biso   1.000  C
  C148     1.0000 0.51564  0.42030  0.14532  Biso   1.000  C
  N27      1.0000 0.47453  0.24709  0.54142  Biso   1.000  N
  H143     1.0000 0.46993  0.19910  0.61170  Biso   1.000  H
  H144     1.0000 0.39393  0.21490  0.57169  Biso   1.000  H
  C149     1.0000 0.77915  0.36309  0.47269  Biso   1.000  C
  H145     1.0000 0.86916  0.37711  0.53819  Biso   1.000  H
  C150     1.0000 0.77302  0.39272  0.36102  Biso   1.000  C
  H146     1.0000 0.85644  0.43039  0.35122  Biso   1.000  H
  C151     1.0000 0.45501  0.36660  0.22201  Biso   1.000  C
  H147     1.0000 0.36769  0.38309  0.15081  Biso   1.000  H
  C152     1.0000 0.55842  0.40060  0.20118  Biso   1.000  C
  H148     1.0000 0.53721  0.43840  0.11670  Biso   1.000  H
  C153     1.0000 0.43972  0.25809  0.48120  Biso   1.000  C
  C154     1.0000 0.54195  0.25480  0.55727  Biso   1.000  C
  C155     1.0000 0.74277  0.36930  0.40482  Biso   1.000  C
  H149     1.0000 0.75892  0.34631  0.50408  Biso   1.000  H
  H150     1.0000 0.74942  0.39551  0.31449  Biso   1.000  H
  C156     1.0000 0.52325  0.37242  0.24211  Biso   1.000  C
  H151     1.0000 0.43121  0.34719  0.24709  Biso   1.000  H
  H152     1.0000 0.60783  0.40529  0.21190  Biso   1.000  H
  C157     1.0000 0.47042  0.27970  0.43509  Biso   1.000  C
  H153     1.0000 0.39122  0.25080  0.46889  Biso   1.000  H
  C158     1.0000 0.57703  0.27632  0.51141  Biso   1.000  C
  H154     1.0000 0.56795  0.24571  0.60072  Biso   1.000  H
  C159     1.0000 0.67005  0.35251  0.38328  Biso   1.000  C
  C160     1.0000 0.56642  0.35389  0.30541  Biso   1.000  C
  C161     1.0000 0.53955  0.28890  0.45048  Biso   1.000  C
  H155     1.0000 0.44316  0.28821  0.39200  Biso   1.000  H
  H156     1.0000 0.62617  0.28170  0.52332  Biso   1.000  H
  N28      1.0000 0.64153  0.32680  0.42621  Biso   1.000  N
  N29      1.0000 0.63381  0.36641  0.32311  Biso   1.000  N
  N30      1.0000 0.53425  0.32791  0.34311  Biso   1.000  N
  C162     1.0000 0.57543  0.31652  0.40349  Biso   1.000  C
  C163     1.0000 0.48740  0.24640  0.21241  Biso   1.000  C
  C164     1.0000 0.43653  0.24291  0.15378  Biso   1.000  C
  C165     1.0000 0.48745  0.21651  0.26720  Biso   1.000  C
  H157     1.0000 0.52235  0.26860  0.21621  Biso   1.000  H
  C166     1.0000 0.38350  0.21260  0.14850  Biso   1.000  C
  C167     1.0000 0.44162  0.27490  0.09341  Biso   1.000  C
  C168     1.0000 0.43571  0.18550  0.26068  Biso   1.000  C
  H158     1.0000 0.52281  0.21799  0.30782  Biso   1.000  H
  C169     1.0000 0.38083  0.18439  0.19959  Biso   1.000  C
  H159     1.0000 0.34808  0.21161  0.10787  Biso   1.000  H
  N31      1.0000 0.47451  0.25290  0.04140  Biso   1.000  N
  H160     1.0000 0.46992  0.30092  0.11172  Biso   1.000  H
  H161     1.0000 0.39392  0.28509  0.07171  Biso   1.000  H
  C170     1.0000 0.43554  0.15341  0.31670  Biso   1.000  C
  H162     1.0000 0.34341  0.16379  0.19579  Biso   1.000  H
  C171     1.0000 0.54189  0.24521  0.05730  Biso   1.000  C
  C172     1.0000 0.43980  0.24190  0.98117  Biso   1.000  C
  N32      1.0000 0.40632  0.11699  0.30418  Biso   1.000  N
  H163     1.0000 0.45773  0.16071  0.36240  Biso   1.000  H
  C173     1.0000 0.57701  0.22370  0.01139  Biso   1.000  C
  H164     1.0000 0.56793  0.25431  0.10069  Biso   1.000  H
  H165     1.0000 0.39131  0.24919  0.96892  Biso   1.000  H
  C174     1.0000 0.47051  0.22028  0.93511  Biso   1.000  C
  N33      1.0000 0.41513  0.08769  0.36050  Biso   1.000  N
  H166     1.0000 0.62610  0.21831  0.02329  Biso   1.000  H
  C175     1.0000 0.53959  0.21109  0.95050  Biso   1.000  C
  H167     1.0000 0.44319  0.21181  0.89197  Biso   1.000  H
  H168     1.0000 0.43724  0.09689  0.40108  Biso   1.000  H
  C176     1.0000 0.39152  0.04779  0.35419  Biso   1.000  C
  C177     1.0000 0.57547  0.18350  0.90351  Biso   1.000  C
  O13      1.0000 0.40201  0.02270  0.40339  Biso   1.000  O
  C178     1.0000 0.35143  0.03370  0.28407  Biso   1.000  C
  N34      1.0000 0.64161  0.17319  0.92619  Biso   1.000  N
  N35      1.0000 0.53428  0.17210  0.84309  Biso   1.000  N
  C179     1.0000 0.38750  0.01021  0.24129  Biso   1.000  C
  C180     1.0000 0.28273  0.04470  0.26350  Biso   1.000  C
  C181     1.0000 0.67009  0.14750  0.88330  Biso   1.000  C
  C182     1.0000 0.56650  0.14609  0.80539  Biso   1.000  C
  H169     1.0000 0.43601  0.00351  0.25637  Biso   1.000  H
  C183     1.0000 0.35160  0.99652  0.17528  Biso   1.000  C
  O14      1.0000 0.25305  0.06799  0.30782  Biso   1.000  O
  C184     1.0000 0.24752  0.03110  0.19759  Biso   1.000  C
  N36      1.0000 0.63389  0.13361  0.82308  Biso   1.000  N
  C185     1.0000 0.74280  0.13069  0.90480  Biso   1.000  C
  C186     1.0000 0.52328  0.12760  0.74209  Biso   1.000  C
  C187     1.0000 0.28170  0.00759  0.15640  Biso   1.000  C
  C188     1.0000 0.39001  0.97290  0.12932  Biso   1.000  C
  C189     1.0000 0.18220  0.08129  0.28859  Biso   1.000  C
  H170     1.0000 0.19942  0.03839  0.18200  Biso   1.000  H
  C190     1.0000 0.77919  0.13689  0.97271  Biso   1.000  C
  C191     1.0000 0.77310  0.10730  0.86099  Biso   1.000  C
  C192     1.0000 0.45509  0.13341  0.72198  Biso   1.000  C
  C193     1.0000 0.55846  0.09939  0.70120  Biso   1.000  C
  H171     1.0000 0.25629  0.99849  0.11280  Biso   1.000  H
  C194     1.0000 0.46113  0.96302  0.14588  Biso   1.000  C
  C195     1.0000 0.35239  0.95809  0.06371  Biso   1.000  C
  H172     1.0000 0.17451  0.09650  0.24370  Biso   1.000  H
  H173     1.0000 0.15094  0.05541  0.28418  Biso   1.000  H
  C196     1.0000 0.16504  0.11219  0.34291  Biso   1.000  C
  H174     1.0000 0.75891  0.15371  0.00410  Biso   1.000  H
  C197     1.0000 0.84370  0.11840  0.99272  Biso   1.000  C
  C198     1.0000 0.83667  0.08740  0.88171  Biso   1.000  C
  H175     1.0000 0.74951  0.10451  0.81452  Biso   1.000  H
  H176     1.0000 0.43130  0.15279  0.74711  Biso   1.000  H
  C199     1.0000 0.41688  0.11180  0.66478  Biso   1.000  C
  C200     1.0000 0.51567  0.07971  0.64529  Biso   1.000  C
  H177     1.0000 0.60786  0.09469  0.71187  Biso   1.000  H
  C201     1.0000 0.49681  0.93960  0.10290  Biso   1.000  C
  H178     1.0000 0.48702  0.97271  0.18902  Biso   1.000  H
  H179     1.0000 0.30309  0.96302  0.05099  Biso   1.000  H
  C202     1.0000 0.38723  0.93651  0.01842  Biso   1.000  C
  H180     1.0000 0.12835  0.13299  0.32060  Biso   1.000  H
  H181     1.0000 0.20762  0.12960  0.36199  Biso   1.000  H
  N37      1.0000 0.14090  0.09081  0.39887  Biso   1.000  N
  H182     1.0000 0.86909  0.12290  0.03822  Biso   1.000  H
  N38      1.0000 0.87201  0.09400  0.94947  Biso   1.000  N
  H183     1.0000 0.85647  0.06960  0.85119  Biso   1.000  H
  N39      1.0000 0.44899  0.08421  0.62980  Biso   1.000  N
  H184     1.0000 0.36777  0.11689  0.65078  Biso   1.000  H
  H185     1.0000 0.53724  0.06162  0.61667  Biso   1.000  H
  C203     1.0000 0.45883  0.92610  0.03780  Biso   1.000  C
  C204     1.0000 0.57292  0.92919  0.12470  Biso   1.000  C
  C205     1.0000 0.34447  0.92351  0.95040  Biso   1.000  C
  C206     1.0000 0.18344  0.05321  0.42801  Biso   1.000  C
  C207     1.0000 0.13075  0.12080  0.45468  Biso   1.000  C
  C208     1.0000 0.93367  0.06539  0.97369  Biso   1.000  C
  C209     1.0000 0.40737  0.05761  0.57302  Biso   1.000  C
  H186     1.0000 0.48170  0.91020  0.00749  Biso   1.000  H
  C210     1.0000 0.60529  0.89401  0.10398  Biso   1.000  C
  C211     1.0000 0.61753  0.95980  0.16768  Biso   1.000  C
  C212     1.0000 0.35918  0.88409  0.91618  Biso   1.000  C
  C213     1.0000 0.28987  0.94850  0.91818  Biso   1.000  C
  H187     1.0000 0.17921  0.02989  0.39349  Biso   1.000  H
  H188     1.0000 0.23271  0.06211  0.44160  Biso   1.000  H
  H189     1.0000 0.16661  0.04230  0.46817  Biso   1.000  H
  H190     1.0000 0.12783  0.15112  0.43801  Biso   1.000  H
  H191     1.0000 0.08734  0.11321  0.47012  Biso   1.000  H
  H192     1.0000 0.17086  0.11781  0.49310  Biso   1.000  H
  H193     1.0000 0.96132  0.07689  0.01739  Biso   1.000  H
  H194     1.0000 0.96428  0.06510  0.93937  Biso   1.000  H
  C214     1.0000 0.90840  0.01931  0.98410  Biso   1.000  C
  H195     1.0000 0.36018  0.07061  0.55758  Biso   1.000  H
  H196     1.0000 0.43135  0.05689  0.53357  Biso   1.000  H
  C215     1.0000 0.40086  0.01100  0.60000  Biso   1.000  C
  H197     1.0000 0.57763  0.87411  0.07299  Biso   1.000  H
  C216     1.0000 0.67532  0.88521  0.12449  Biso   1.000  C
  C217     1.0000 0.68552  0.95050  0.19108  Biso   1.000  C
  H198     1.0000 0.59872  0.98690  0.17969  Biso   1.000  H
  H199     1.0000 0.39709  0.86580  0.93691  Biso   1.000  H
  C218     1.0000 0.31886  0.87299  0.85427  Biso   1.000  C
  C219     1.0000 0.24628  0.93720  0.85540  Biso   1.000  C
  H200     1.0000 0.28060  0.97530  0.93927  Biso   1.000  H
  C220     1.0000 0.87679  0.01081  0.03832  Biso   1.000  C
  C221     1.0000 0.91558  0.98299  0.94009  Biso   1.000  C
  C222     1.0000 0.41986  0.97432  0.56661  Biso   1.000  C
  C223     1.0000 0.37306  0.00499  0.65868  Biso   1.000  C
  C224     1.0000 0.70503  0.84452  0.09982  Biso   1.000  C
  C225     1.0000 0.71785  0.91319  0.17112  Biso   1.000  C
  H201     1.0000 0.71290  0.97011  0.22267  Biso   1.000  H
  C226     1.0000 0.33416  0.83190  0.81867  Biso   1.000  C
  C227     1.0000 0.26188  0.89891  0.82329  Biso   1.000  C
  H202     1.0000 0.20751  0.95510  0.83550  Biso   1.000  H
  H203     1.0000 0.87439  0.03340  0.07068  Biso   1.000  H
  C228     1.0000 0.84891  0.97070  0.04652  Biso   1.000  C
  C229     1.0000 0.89099  0.94371  0.94809  Biso   1.000  C
  H204     1.0000 0.93928  0.98772  0.90331  Biso   1.000  H
  C230     1.0000 0.41187  0.93300  0.58841  Biso   1.000  C
  H205     1.0000 0.43918  0.97839  0.52680  Biso   1.000  H
  C231     1.0000 0.36885  0.96420  0.68330  Biso   1.000  C
  H206     1.0000 0.35730  0.02949  0.68099  Biso   1.000  H
  O15      1.0000 0.68282  0.80629  0.10911  Biso   1.000  O
  N40      1.0000 0.75391  0.85079  0.05940  Biso   1.000  N
  O16      1.0000 0.78634  0.89969  0.19318  Biso   1.000  O
  O17      1.0000 0.32601  0.79610  0.84191  Biso   1.000  O
  N41      1.0000 0.35536  0.83640  0.75748  Biso   1.000  N
  O18      1.0000 0.22528  0.88429  0.76112  Biso   1.000  O
  H207     1.0000 0.82512  0.96591  0.08320  Biso   1.000  H
  C232     1.0000 0.85513  0.93622  0.00092  Biso   1.000  C
  H208     1.0000 0.89747  0.92052  0.91798  Biso   1.000  H
  C233     1.0000 0.38747  0.92630  0.64760  Biso   1.000  C
  H209     1.0000 0.42325  0.90869  0.56281  Biso   1.000  H
  H210     1.0000 0.35328  0.96029  0.72531  Biso   1.000  H
  N42      1.0000 0.77730  0.89060  0.04991  Biso   1.000  N
  H211     1.0000 0.76972  0.82809  0.03960  Biso   1.000  H
  C234     1.0000 0.83091  0.92771  0.23899  Biso   1.000  C
  N43      1.0000 0.36350  0.87861  0.73439  Biso   1.000  N
  H212     1.0000 0.36368  0.81331  0.73378  Biso   1.000  H
  C235     1.0000 0.17736  0.91329  0.72008  Biso   1.000  C
  C236     1.0000 0.82392  0.89339  0.01149  Biso   1.000  C
  C237     1.0000 0.38018  0.88271  0.67602  Biso   1.000  C
  H213     1.0000 0.83913  0.95481  0.21431  Biso   1.000  H
  H214     1.0000 0.80681  0.93622  0.27638  Biso   1.000  H
  C238     1.0000 0.89914  0.90820  0.26930  Biso   1.000  C
  H215     1.0000 0.13446  0.91661  0.73947  Biso   1.000  H
  H216     1.0000 0.19908  0.94259  0.71870  Biso   1.000  H
  C239     1.0000 0.15868  0.89401  0.64837  Biso   1.000  C
  H217     1.0000 0.83780  0.86790  0.99031  Biso   1.000  H
  H218     1.0000 0.38797  0.85729  0.65078  Biso   1.000  H
  H219     1.0000 0.90163  0.90659  0.31942  Biso   1.000  H
  H220     1.0000 0.93575  0.92929  0.26191  Biso   1.000  H
  N44      1.0000 0.91941  0.86580  0.24812  Biso   1.000  N
  H221     1.0000 0.20255  0.88820  0.63190  Biso   1.000  H
  H222     1.0000 0.13138  0.91612  0.61739  Biso   1.000  H
  N45      1.0000 0.11779  0.85332  0.64422  Biso   1.000  N
  C240     1.0000 0.99545  0.85611  0.27228  Biso   1.000  C
  C241     1.0000 0.87821  0.82951  0.27002  Biso   1.000  C
  C242     1.0000 0.16269  0.81450  0.66709  Biso   1.000  C
  C243     1.0000 0.08268  0.84481  0.57081  Biso   1.000  C
  H223     1.0000 0.01359  0.87309  0.31388  Biso   1.000  H
  H224     1.0000 0.00164  0.82471  0.28259  Biso   1.000  H
  H225     1.0000 0.02122  0.86399  0.23652  Biso   1.000  H
  H226     1.0000 0.83551  0.84232  0.28110  Biso   1.000  H
  H227     1.0000 0.86522  0.80701  0.23442  Biso   1.000  H
  H228     1.0000 0.90664  0.81621  0.31121  Biso   1.000  H
  H229     1.0000 0.20668  0.81739  0.65047  Biso   1.000  H
  H230     1.0000 0.17300  0.81312  0.71741  Biso   1.000  H
  H231     1.0000 0.13835  0.78760  0.64847  Biso   1.000  H
  H232     1.0000 0.11414  0.82740  0.54840  Biso   1.000  H
  H233     1.0000 0.03874  0.82859  0.56938  Biso   1.000  H
  H234     1.0000 0.07236  0.87289  0.54670  Biso   1.000  H
  C244     1.0000 0.51268  0.75360  0.78759  Biso   1.000  C
  C245     1.0000 0.56355  0.75709  0.84622  Biso   1.000  C
  C246     1.0000 0.51264  0.78349  0.73281  Biso   1.000  C
  H235     1.0000 0.47774  0.73140  0.78379  Biso   1.000  H
  C247     1.0000 0.55846  0.72510  0.90659  Biso   1.000  C
  C248     1.0000 0.61659  0.78740  0.85150  Biso   1.000  C
  C249     1.0000 0.56438  0.81450  0.73932  Biso   1.000  C
  H236     1.0000 0.47728  0.78201  0.69218  Biso   1.000  H
  N46      1.0000 0.52557  0.74710  0.95861  Biso   1.000  N
  H237     1.0000 0.53016  0.69912  0.88828  Biso   1.000  H
  H238     1.0000 0.60616  0.71491  0.92829  Biso   1.000  H
  H239     1.0000 0.65199  0.78839  0.89208  Biso   1.000  H
  C250     1.0000 0.61926  0.81561  0.80041  Biso   1.000  C
  C251     1.0000 0.56455  0.84662  0.68331  Biso   1.000  C
  C252     1.0000 0.45820  0.75479  0.94271  Biso   1.000  C
  C253     1.0000 0.56028  0.75810  0.01883  Biso   1.000  C
  H240     1.0000 0.65668  0.83621  0.80421  Biso   1.000  H
  N47      1.0000 0.59376  0.88301  0.69582  Biso   1.000  N
  H241     1.0000 0.54236  0.83929  0.63760  Biso   1.000  H
  C254     1.0000 0.42307  0.77630  0.98862  Biso   1.000  C
  H242     1.0000 0.43216  0.74569  0.89931  Biso   1.000  H
  H243     1.0000 0.60877  0.75081  0.03109  Biso   1.000  H
  C255     1.0000 0.52957  0.77972  0.06489  Biso   1.000  C
  N48      1.0000 0.58495  0.91231  0.63950  Biso   1.000  N
  H244     1.0000 0.37399  0.78169  0.97671  Biso   1.000  H
  C256     1.0000 0.46050  0.78891  0.04950  Biso   1.000  C
  H245     1.0000 0.55689  0.78819  0.10798  Biso   1.000  H
  H246     1.0000 0.56283  0.90311  0.59887  Biso   1.000  H
  C257     1.0000 0.60856  0.95221  0.64581  Biso   1.000  C
  C258     1.0000 0.42462  0.81650  0.09649  Biso   1.000  C
  O19      1.0000 0.59808  0.97730  0.59662  Biso   1.000  O
  C259     1.0000 0.64865  0.96630  0.71588  Biso   1.000  C
  N49      1.0000 0.35847  0.82681  0.07382  Biso   1.000  N
  N50      1.0000 0.46581  0.82790  0.15692  Biso   1.000  N
  C260     1.0000 0.61258  0.98982  0.75871  Biso   1.000  C
  C261     1.0000 0.71736  0.95530  0.73650  Biso   1.000  C
  C262     1.0000 0.32999  0.85250  0.11670  Biso   1.000  C
  C263     1.0000 0.43358  0.85391  0.19462  Biso   1.000  C
  H247     1.0000 0.56407  0.99652  0.74358  Biso   1.000  H
  C264     1.0000 0.64847  0.00351  0.82468  Biso   1.000  C
  O20      1.0000 0.74704  0.93201  0.69218  Biso   1.000  O
  C265     1.0000 0.75257  0.96890  0.80241  Biso   1.000  C
  N51      1.0000 0.36620  0.86639  0.17692  Biso   1.000  N
  C266     1.0000 0.25729  0.86931  0.09521  Biso   1.000  C
  C267     1.0000 0.47681  0.87240  0.25792  Biso   1.000  C
  C268     1.0000 0.71838  0.99241  0.84360  Biso   1.000  C
  C269     1.0000 0.61007  0.02710  0.87069  Biso   1.000  C
  C270     1.0000 0.81788  0.91871  0.71142  Biso   1.000  C
  H248     1.0000 0.80066  0.96161  0.81801  Biso   1.000  H
  C271     1.0000 0.22089  0.86311  0.02729  Biso   1.000  C
  C272     1.0000 0.22699  0.89270  0.13901  Biso   1.000  C
  C273     1.0000 0.54500  0.86659  0.27802  Biso   1.000  C
  C274     1.0000 0.44163  0.90061  0.29880  Biso   1.000  C
  H249     1.0000 0.74379  0.00151  0.88720  Biso   1.000  H
  C275     1.0000 0.53895  0.03702  0.85412  Biso   1.000  C
  C276     1.0000 0.64769  0.04191  0.93629  Biso   1.000  C
  H250     1.0000 0.82558  0.90350  0.75630  Biso   1.000  H
  H251     1.0000 0.84913  0.94459  0.71578  Biso   1.000  H
  C277     1.0000 0.83504  0.88781  0.65709  Biso   1.000  C
  H252     1.0000 0.24118  0.84629  0.99590  Biso   1.000  H
  C278     1.0000 0.15638  0.88160  0.00729  Biso   1.000  C
  C279     1.0000 0.16341  0.91260  0.11829  Biso   1.000  C
  H253     1.0000 0.25057  0.89549  0.18549  Biso   1.000  H
  H254     1.0000 0.56879  0.84721  0.25289  Biso   1.000  H
  C280     1.0000 0.58321  0.88820  0.33522  Biso   1.000  C
  C281     1.0000 0.48442  0.92029  0.35471  Biso   1.000  C
  H255     1.0000 0.39222  0.90531  0.28808  Biso   1.000  H
  C282     1.0000 0.50328  0.06040  0.89710  Biso   1.000  C
  H256     1.0000 0.51307  0.02729  0.81098  Biso   1.000  H
  H257     1.0000 0.69700  0.03702  0.94902  Biso   1.000  H
  C283     1.0000 0.61286  0.06349  0.98159  Biso   1.000  C
  H258     1.0000 0.87174  0.86701  0.67941  Biso   1.000  H
  H259     1.0000 0.79247  0.87040  0.63801  Biso   1.000  H
  N52      1.0000 0.85917  0.90922  0.60108  Biso   1.000  N
  H260     1.0000 0.13099  0.87710  0.96179  Biso   1.000  H
  N53      1.0000 0.12807  0.90600  0.05048  Biso   1.000  N
  H261     1.0000 0.14362  0.93040  0.14881  Biso   1.000  H
  N54      1.0000 0.55109  0.91579  0.37020  Biso   1.000  N
  H262     1.0000 0.63231  0.88311  0.34922  Biso   1.000  H
  H263     1.0000 0.46283  0.93842  0.38328  Biso   1.000  H
  C284     1.0000 0.54126  0.07390  0.96220  Biso   1.000  C
  C285     1.0000 0.42716  0.07081  0.87530  Biso   1.000  C
  C286     1.0000 0.65561  0.07649  0.04961  Biso   1.000  C
  C287     1.0000 0.81665  0.94679  0.57199  Biso   1.000  C
  C288     1.0000 0.86934  0.87920  0.54532  Biso   1.000  C
  C289     1.0000 0.06641  0.93461  0.02632  Biso   1.000  C
  C290     1.0000 0.59272  0.94239  0.42699  Biso   1.000  C
  H264     1.0000 0.51838  0.08980  0.99251  Biso   1.000  H
  C291     1.0000 0.39478  0.10599  0.89598  Biso   1.000  C
  C292     1.0000 0.38255  0.04020  0.83232  Biso   1.000  C
  C293     1.0000 0.64091  0.11591  0.08382  Biso   1.000  C
  C294     1.0000 0.71022  0.05150  0.08182  Biso   1.000  C
  H265     1.0000 0.82087  0.97011  0.60652  Biso   1.000  H
  H266     1.0000 0.76737  0.93789  0.55840  Biso   1.000  H
  H267     1.0000 0.83347  0.95770  0.53178  Biso   1.000  H
  H268     1.0000 0.87225  0.84892  0.56199  Biso   1.000  H
  H269     1.0000 0.91274  0.88679  0.52988  Biso   1.000  H
  H270     1.0000 0.82922  0.88219  0.50690  Biso   1.000  H
  H271     1.0000 0.03876  0.92311  0.98261  Biso   1.000  H
  H272     1.0000 0.03580  0.93490  0.06058  Biso   1.000  H
  C295     1.0000 0.09168  0.98069  0.01590  Biso   1.000  C
  H273     1.0000 0.63990  0.92942  0.44243  Biso   1.000  H
  H274     1.0000 0.56872  0.94311  0.46638  Biso   1.000  H
  C296     1.0000 0.59922  0.98900  0.40000  Biso   1.000  C
  H275     1.0000 0.42245  0.12589  0.92701  Biso   1.000  H
  C297     1.0000 0.32476  0.11479  0.87551  Biso   1.000  C
  C298     1.0000 0.31455  0.04950  0.80888  Biso   1.000  C
  H276     1.0000 0.40136  0.01310  0.82032  Biso   1.000  H
  H277     1.0000 0.60299  0.13420  0.06310  Biso   1.000  H
  C299     1.0000 0.68121  0.12701  0.14568  Biso   1.000  C
  C300     1.0000 0.75380  0.06280  0.14460  Biso   1.000  C
  H278     1.0000 0.71947  0.02470  0.06069  Biso   1.000  H
  C301     1.0000 0.12329  0.98919  0.96169  Biso   1.000  C
  C302     1.0000 0.08451  0.01701  0.05992  Biso   1.000  C
  C303     1.0000 0.62703  0.99501  0.34132  Biso   1.000  C
  C304     1.0000 0.58023  0.02568  0.43340  Biso   1.000  C
  C305     1.0000 0.29506  0.15552  0.90018  Biso   1.000  C
  C306     1.0000 0.28224  0.08681  0.82888  Biso   1.000  C
  H279     1.0000 0.28718  0.02989  0.77728  Biso   1.000  H
  C307     1.0000 0.66592  0.16810  0.18128  Biso   1.000  C
  C308     1.0000 0.73820  0.10109  0.17672  Biso   1.000  C
  H280     1.0000 0.79258  0.04490  0.16451  Biso   1.000  H
  H281     1.0000 0.12570  0.96660  0.92932  Biso   1.000  H
  C309     1.0000 0.15118  0.02930  0.95348  Biso   1.000  C
  C310     1.0000 0.10909  0.05629  0.05191  Biso   1.000  C
  H282     1.0000 0.06080  0.01228  0.09669  Biso   1.000  H
  H283     1.0000 0.64279  0.97051  0.31901  Biso   1.000  H
  C311     1.0000 0.63124  0.03580  0.31670  Biso   1.000  C
  C312     1.0000 0.58821  0.06700  0.41160  Biso   1.000  C
  H284     1.0000 0.56091  0.02161  0.47320  Biso   1.000  H
  O21      1.0000 0.31726  0.19371  0.89090  Biso   1.000  O
  N55      1.0000 0.24618  0.14921  0.94060  Biso   1.000  N
  O22      1.0000 0.21374  0.10031  0.80677  Biso   1.000  O
  O23      1.0000 0.67408  0.20390  0.15810  Biso   1.000  O
  N56      1.0000 0.64471  0.16360  0.24248  Biso   1.000  N
  O24      1.0000 0.77481  0.11571  0.23889  Biso   1.000  O
  H285     1.0000 0.17496  0.03409  0.91680  Biso   1.000  H
  C313     1.0000 0.14495  0.06382  0.99908  Biso   1.000  C
  H286     1.0000 0.10261  0.07952  0.08202  Biso   1.000  H
  H287     1.0000 0.64681  0.03971  0.27469  Biso   1.000  H
  C314     1.0000 0.61261  0.07370  0.35240  Biso   1.000  C
  H288     1.0000 0.57684  0.09131  0.43719  Biso   1.000  H
  N57      1.0000 0.22278  0.10940  0.95009  Biso   1.000  N
  H289     1.0000 0.23037  0.17191  0.96040  Biso   1.000  H
  C315     1.0000 0.16917  0.07229  0.76102  Biso   1.000  C
  N58      1.0000 0.63659  0.12139  0.26561  Biso   1.000  N
  H290     1.0000 0.63641  0.18669  0.26623  Biso   1.000  H
  C316     1.0000 0.82273  0.08671  0.27992  Biso   1.000  C
  C317     1.0000 0.17617  0.10661  0.98851  Biso   1.000  C
  C318     1.0000 0.61990  0.11729  0.32398  Biso   1.000  C
  H291     1.0000 0.16096  0.04519  0.78569  Biso   1.000  H
  H292     1.0000 0.19326  0.06382  0.72357  Biso   1.000  H
  C319     1.0000 0.10094  0.09180  0.73070  Biso   1.000  C
  H293     1.0000 0.86562  0.08339  0.26048  Biso   1.000  H
  H294     1.0000 0.80101  0.05741  0.28131  Biso   1.000  H
  C320     1.0000 0.84139  0.10599  0.35158  Biso   1.000  C
  H295     1.0000 0.16229  0.13210  0.00970  Biso   1.000  H
  H296     1.0000 0.61211  0.14271  0.34922  Biso   1.000  H
  H297     1.0000 0.09846  0.09341  0.68059  Biso   1.000  H
  H298     1.0000 0.06433  0.07071  0.73809  Biso   1.000  H
  N59      1.0000 0.08067  0.13420  0.75189  Biso   1.000  N
  H299     1.0000 0.79754  0.11180  0.36810  Biso   1.000  H
  H300     1.0000 0.86870  0.08392  0.38261  Biso   1.000  H
  N60      1.0000 0.88230  0.14671  0.35579  Biso   1.000  N
  C321     1.0000 0.00463  0.14389  0.72768  Biso   1.000  C
  C322     1.0000 0.12187  0.17049  0.72998  Biso   1.000  C
  C323     1.0000 0.83740  0.18550  0.33291  Biso   1.000  C
  C324     1.0000 0.91740  0.15519  0.42919  Biso   1.000  C
  H301     1.0000 0.98648  0.12691  0.68608  Biso   1.000  H
  H302     1.0000 0.99845  0.17529  0.71742  Biso   1.000  H
  H303     1.0000 0.97886  0.13601  0.76348  Biso   1.000  H
  H304     1.0000 0.16458  0.15772  0.71890  Biso   1.000  H
  H305     1.0000 0.13487  0.19299  0.76558  Biso   1.000  H
  H306     1.0000 0.09345  0.18379  0.68879  Biso   1.000  H
  H307     1.0000 0.79340  0.18261  0.34948  Biso   1.000  H
  H308     1.0000 0.82709  0.18691  0.28259  Biso   1.000  H
  H309     1.0000 0.86173  0.21240  0.35148  Biso   1.000  H
  H310     1.0000 0.88595  0.17260  0.45161  Biso   1.000  H
  H311     1.0000 0.96133  0.17141  0.43058  Biso   1.000  H
  H312     1.0000 0.92772  0.12711  0.45330  Biso   1.000  H
  Ne1      1.0000 0.49712  0.51551  0.49720  Biso   1.000  Ne
  He1      1.0000 0.39069  0.50890  0.56025  Biso   1.000  He
  He2      1.0000 0.46148  0.58271  0.44328  Biso   1.000  He
  He3      1.0000 0.44293  0.60718  0.36186  Biso   1.000  He
  Ar1      1.0000 0.46841  0.55391  0.52014  Biso   1.000  Ar
  Ne2      1.0000 0.50297  0.01550  0.00279  Biso   1.000  Ne
  He4      1.0000 0.52796  0.09984  0.11152  Biso   1.000  He
  He5      1.0000 0.53885  0.08238  0.05594  Biso   1.000  He
  He6      1.0000 0.54701  0.04187  0.95334  Biso   1.000  He
  Ar2      1.0000 0.53162  0.05391  0.97989  Biso   1.000  Ar
  Ne3      1.0000 0.50296  0.48450  0.50279  Biso   1.000  Ne
  He7      1.0000 0.53175  0.39898  0.61577  Biso   1.000  He
  He8      1.0000 0.52314  0.42028  0.54019  Biso   1.000  He
  He9      1.0000 0.54294  0.45395  0.45967  Biso   1.000  He
  Ar3      1.0000 0.53160  0.44609  0.47991  Biso   1.000  Ar
  Ne4      1.0000 0.49712  0.98450  0.99721  Biso   1.000  Ne
  He10     1.0000 0.45732  0.95404  0.04080  Biso   1.000  He
  He11     1.0000 0.46307  0.91470  0.93698  Biso   1.000  He
  He12     1.0000 0.35966  0.90255  0.88902  Biso   1.000  He
  Ar4      1.0000 0.46846  0.94609  0.02011  Biso   1.000  Ar
