data_image0
_cell_length_a       16.446
_cell_length_b       13.829
_cell_length_c       25.616
_cell_angle_alpha    90
_cell_angle_beta     91.49
_cell_angle_gamma    90

_symmetry_space_group_name_H-M    "P 1"
_symmetry_int_tables_number       1

loop_
  _symmetry_equiv_pos_as_xyz
  'x, y, z'

loop_
  _atom_site_label
  _atom_site_occupancy
  _atom_site_fract_x
  _atom_site_fract_y
  _atom_site_fract_z
  _atom_site_thermal_displace_type
  _atom_site_B_iso_or_equiv
  _atom_site_type_symbol
  N1       1.0000 0.73254  0.47097  0.53211  Biso   1.000  N
  C1       1.0000 0.76593  0.39330  0.52911  Biso   1.000  C
  C2       1.0000 0.76952  0.52491  0.58940  Biso   1.000  C
  C3       1.0000 0.71653  0.51139  0.57948  Biso   1.000  C
  C4       1.0000 0.77456  0.36337  0.47361  Biso   1.000  C
  N2       1.0000 0.77402  0.49910  0.53969  Biso   1.000  N
  C5       1.0000 0.76586  0.33003  0.57101  Biso   1.000  C
  C6       1.0000 0.77717  0.63403  0.59799  Biso   1.000  C
  C7       1.0000 0.74033  0.45759  0.62822  Biso   1.000  C
  C8       1.0000 0.69552  0.61950  0.57882  Biso   1.000  C
  N3       1.0000 0.69915  0.39367  0.44331  Biso   1.000  N
  H1       1.0000 0.78135  0.29380  0.47158  Biso   1.000  H
  H2       1.0000 0.82201  0.39388  0.45909  Biso   1.000  H
  C9       1.0000 0.75263  0.36243  0.61971  Biso   1.000  C
  H3       1.0000 0.77512  0.26452  0.56550  Biso   1.000  H
  N4       1.0000 0.75847  0.68053  0.55660  Biso   1.000  N
  H4       1.0000 0.74176  0.65348  0.62591  Biso   1.000  H
  H5       1.0000 0.83264  0.64943  0.60881  Biso   1.000  H
  H6       1.0000 0.80505  0.66252  0.57320  Biso   1.000  H
  H7       1.0000 0.71417  0.47921  0.65790  Biso   1.000  H
  H8       1.0000 0.74603  0.48659  0.66098  Biso   1.000  H
  H9       1.0000 0.70714  0.66353  0.54750  Biso   1.000  H
  H10      1.0000 0.64527  0.62861  0.55859  Biso   1.000  H
  H11      1.0000 0.68614  0.64047  0.61439  Biso   1.000  H
  C10      1.0000 0.70313  0.37168  0.38532  Biso   1.000  C
  H12      1.0000 0.69172  0.45773  0.44749  Biso   1.000  H
  H13      1.0000 0.65596  0.36308  0.45639  Biso   1.000  H
  H14      1.0000 0.75194  0.31918  0.64759  Biso   1.000  H
  C11      1.0000 0.76214  0.78603  0.55410  Biso   1.000  C
  H15      1.0000 0.79052  0.65797  0.53129  Biso   1.000  H
  H16      1.0000 0.76265  0.66050  0.52321  Biso   1.000  H
  C12      1.0000 0.62521  0.39967  0.35611  Biso   1.000  C
  H17      1.0000 0.71291  0.30320  0.38059  Biso   1.000  H
  H18      1.0000 0.74832  0.40668  0.37060  Biso   1.000  H
  C13      1.0000 0.84584  0.82052  0.53711  Biso   1.000  C
  H19      1.0000 0.75075  0.81278  0.58831  Biso   1.000  H
  H20      1.0000 0.72082  0.80939  0.52942  Biso   1.000  H
  N5       1.0000 0.63584  0.48673  0.32139  Biso   1.000  N
  H21      1.0000 0.60672  0.34551  0.33490  Biso   1.000  H
  H22      1.0000 0.58361  0.41348  0.38130  Biso   1.000  H
  N6       1.0000 0.84493  0.85668  0.48162  Biso   1.000  N
  H23      1.0000 0.86442  0.87194  0.56039  Biso   1.000  H
  H24      1.0000 0.88417  0.76737  0.54051  Biso   1.000  H
  C14      1.0000 0.55293  0.52253  0.30249  Biso   1.000  C
  C15      1.0000 0.68561  0.45983  0.27398  Biso   1.000  C
  C16      1.0000 0.80182  0.95300  0.47842  Biso   1.000  C
  C17      1.0000 0.93266  0.87107  0.46459  Biso   1.000  C
  C18      1.0000 0.50654  0.57582  0.34471  Biso   1.000  C
  H25      1.0000 0.52070  0.46771  0.29039  Biso   1.000  H
  H26      1.0000 0.55982  0.56548  0.27289  Biso   1.000  H
  C19      1.0000 0.71855  0.54451  0.24360  Biso   1.000  C
  H27      1.0000 0.73090  0.41991  0.28582  Biso   1.000  H
  H28      1.0000 0.65182  0.42093  0.25040  Biso   1.000  H
  C20      1.0000 0.77273  0.98062  0.42390  Biso   1.000  C
  H29      1.0000 0.75543  0.95112  0.50111  Biso   1.000  H
  H30      1.0000 0.83853  0.00268  0.49169  Biso   1.000  H
  C21      1.0000 0.97451  0.77822  0.44858  Biso   1.000  C
  H31      1.0000 0.93281  0.91583  0.43530  Biso   1.000  H
  H32      1.0000 0.96361  0.90028  0.49330  Biso   1.000  H
  N7       1.0000 0.50804  0.68277  0.33818  Biso   1.000  N
  H33      1.0000 0.45051  0.55391  0.34389  Biso   1.000  H
  H34      1.0000 0.53012  0.55940  0.37880  Biso   1.000  H
  N8       1.0000 0.80004  0.57510  0.26200  Biso   1.000  N
  H35      1.0000 0.72071  0.52694  0.20682  Biso   1.000  H
  H36      1.0000 0.68133  0.59860  0.24641  Biso   1.000  H
  N9       1.0000 0.68815  0.94880  0.41180  Biso   1.000  N
  H37      1.0000 0.80862  0.95191  0.39860  Biso   1.000  H
  H38      1.0000 0.77593  0.05033  0.42019  Biso   1.000  H
  N10      1.0000 0.96416  0.75891  0.39110  Biso   1.000  N
  H39      1.0000 0.95226  0.72456  0.46811  Biso   1.000  H
  H40      1.0000 0.03215  0.78270  0.45760  Biso   1.000  H
  C22      1.0000 0.45970  0.73490  0.37720  Biso   1.000  C
  H41      1.0000 0.55995  0.70330  0.34068  Biso   1.000  H
  H42      1.0000 0.48874  0.69759  0.30589  Biso   1.000  H
  C23      1.0000 0.83381  0.65478  0.22939  Biso   1.000  C
  H43      1.0000 0.83394  0.52397  0.26129  Biso   1.000  H
  H44      1.0000 0.79745  0.59520  0.29550  Biso   1.000  H
  C24      1.0000 0.64754  0.99450  0.36560  Biso   1.000  C
  H45      1.0000 0.68843  0.88437  0.40680  Biso   1.000  H
  H46      1.0000 0.65791  0.96073  0.43999  Biso   1.000  H
  C25      1.0000 0.02866  0.69759  0.36982  Biso   1.000  C
  H47      1.0000 0.91575  0.72992  0.38508  Biso   1.000  H
  H48      1.0000 0.96321  0.81560  0.37380  Biso   1.000  H
  C26      1.0000 0.46842  0.84120  0.37021  Biso   1.000  C
  H49      1.0000 0.47821  0.71690  0.41230  Biso   1.000  H
  H50      1.0000 0.40293  0.71690  0.37321  Biso   1.000  H
  C27      1.0000 0.92280  0.66758  0.24380  Biso   1.000  C
  H51      1.0000 0.80463  0.71437  0.23571  Biso   1.000  H
  H52      1.0000 0.82751  0.63880  0.19248  Biso   1.000  H
  C28      1.0000 0.55945  0.96782  0.36431  Biso   1.000  C
  H53      1.0000 0.67264  0.97238  0.33369  Biso   1.000  H
  H54      1.0000 0.65322  0.06421  0.36759  Biso   1.000  H
  C29      1.0000 0.01650  0.68530  0.31120  Biso   1.000  C
  H55      1.0000 0.02782  0.63468  0.38669  Biso   1.000  H
  H56      1.0000 0.08126  0.72702  0.37731  Biso   1.000  H
  C30      1.0000 0.40324  0.90339  0.37028  Biso   1.000  C
  N11      1.0000 0.54613  0.87179  0.36720  Biso   1.000  N
  C31      1.0000 0.98312  0.66888  0.20639  Biso   1.000  C
  N12      1.0000 0.93893  0.67662  0.29511  Biso   1.000  N
  C32      1.0000 0.49791  0.03442  0.36279  Biso   1.000  C
  C33      1.0000 0.07940  0.69000  0.27738  Biso   1.000  C
  H57      1.0000 0.35044  0.88040  0.37278  Biso   1.000  H
  C34      1.0000 0.41914  0.00362  0.36669  Biso   1.000  C
  H58      1.0000 0.97031  0.66339  0.17081  Biso   1.000  H
  C35      1.0000 0.06284  0.67872  0.22451  Biso   1.000  C
  H59      1.0000 0.50944  0.09993  0.35919  Biso   1.000  H
  H60      1.0000 0.13231  0.70070  0.28980  Biso   1.000  H
  H61      1.0000 0.37671  0.04802  0.36689  Biso   1.000  H
  H62      1.0000 0.10512  0.67763  0.20100  Biso   1.000  H
  N13      1.0000 0.73254  0.47097  0.53211  Biso   1.000  N
  C36      1.0000 0.76952  0.52491  0.58940  Biso   1.000  C
  C37      1.0000 0.71653  0.51139  0.57948  Biso   1.000  C
  C38      1.0000 0.76593  0.39330  0.52911  Biso   1.000  C
  C39      1.0000 0.74033  0.45759  0.62822  Biso   1.000  C
  C40      1.0000 0.77717  0.63403  0.59799  Biso   1.000  C
  N14      1.0000 0.77402  0.49910  0.53969  Biso   1.000  N
  C41      1.0000 0.69552  0.61950  0.57882  Biso   1.000  C
  C42      1.0000 0.76586  0.33003  0.57101  Biso   1.000  C
  C43      1.0000 0.77456  0.36337  0.47361  Biso   1.000  C
  C44      1.0000 0.75263  0.36243  0.61971  Biso   1.000  C
  H63      1.0000 0.71417  0.47921  0.65790  Biso   1.000  H
  H64      1.0000 0.74603  0.48659  0.66098  Biso   1.000  H
  N15      1.0000 0.75847  0.68053  0.55660  Biso   1.000  N
  H65      1.0000 0.74176  0.65348  0.62591  Biso   1.000  H
  H66      1.0000 0.83264  0.64943  0.60881  Biso   1.000  H
  H67      1.0000 0.80505  0.66252  0.57320  Biso   1.000  H
  H68      1.0000 0.70714  0.66353  0.54750  Biso   1.000  H
  H69      1.0000 0.64527  0.62861  0.55859  Biso   1.000  H
  H70      1.0000 0.68614  0.64047  0.61439  Biso   1.000  H
  H71      1.0000 0.77512  0.26452  0.56550  Biso   1.000  H
  N16      1.0000 0.69915  0.39367  0.44331  Biso   1.000  N
  H72      1.0000 0.78135  0.29380  0.47158  Biso   1.000  H
  H73      1.0000 0.82201  0.39388  0.45909  Biso   1.000  H
  H74      1.0000 0.75194  0.31918  0.64759  Biso   1.000  H
  C45      1.0000 0.76214  0.78603  0.55410  Biso   1.000  C
  H75      1.0000 0.79052  0.65797  0.53129  Biso   1.000  H
  H76      1.0000 0.76265  0.66050  0.52321  Biso   1.000  H
  C46      1.0000 0.70313  0.37168  0.38532  Biso   1.000  C
  H77      1.0000 0.69172  0.45773  0.44749  Biso   1.000  H
  H78      1.0000 0.65596  0.36308  0.45639  Biso   1.000  H
  C47      1.0000 0.84584  0.82052  0.53711  Biso   1.000  C
  H79      1.0000 0.75075  0.81278  0.58831  Biso   1.000  H
  H80      1.0000 0.72082  0.80939  0.52942  Biso   1.000  H
  C48      1.0000 0.62521  0.39967  0.35611  Biso   1.000  C
  H81      1.0000 0.71291  0.30320  0.38059  Biso   1.000  H
  H82      1.0000 0.74832  0.40668  0.37060  Biso   1.000  H
  N17      1.0000 0.84493  0.85668  0.48162  Biso   1.000  N
  H83      1.0000 0.86442  0.87194  0.56039  Biso   1.000  H
  H84      1.0000 0.88417  0.76737  0.54051  Biso   1.000  H
  N18      1.0000 0.63584  0.48673  0.32139  Biso   1.000  N
  H85      1.0000 0.60672  0.34551  0.33490  Biso   1.000  H
  H86      1.0000 0.58361  0.41348  0.38130  Biso   1.000  H
  C49      1.0000 0.93266  0.87107  0.46459  Biso   1.000  C
  C50      1.0000 0.80182  0.95300  0.47842  Biso   1.000  C
  C51      1.0000 0.68561  0.45983  0.27398  Biso   1.000  C
  C52      1.0000 0.55293  0.52253  0.30249  Biso   1.000  C
  C53      1.0000 0.97451  0.77822  0.44858  Biso   1.000  C
  H87      1.0000 0.93281  0.91583  0.43530  Biso   1.000  H
  H88      1.0000 0.96361  0.90028  0.49330  Biso   1.000  H
  C54      1.0000 0.77273  0.98062  0.42390  Biso   1.000  C
  H89      1.0000 0.75543  0.95112  0.50111  Biso   1.000  H
  H90      1.0000 0.83853  0.00268  0.49169  Biso   1.000  H
  C55      1.0000 0.71855  0.54451  0.24360  Biso   1.000  C
  H91      1.0000 0.73090  0.41991  0.28582  Biso   1.000  H
  H92      1.0000 0.65182  0.42093  0.25040  Biso   1.000  H
  C56      1.0000 0.50654  0.57582  0.34471  Biso   1.000  C
  H93      1.0000 0.52070  0.46771  0.29039  Biso   1.000  H
  H94      1.0000 0.55982  0.56548  0.27289  Biso   1.000  H
  N19      1.0000 0.96416  0.75891  0.39110  Biso   1.000  N
  H95      1.0000 0.95226  0.72456  0.46811  Biso   1.000  H
  H96      1.0000 0.03215  0.78270  0.45760  Biso   1.000  H
  N20      1.0000 0.68815  0.94880  0.41180  Biso   1.000  N
  H97      1.0000 0.80862  0.95191  0.39860  Biso   1.000  H
  H98      1.0000 0.77593  0.05033  0.42019  Biso   1.000  H
  N21      1.0000 0.80004  0.57510  0.26200  Biso   1.000  N
  H99      1.0000 0.72071  0.52694  0.20682  Biso   1.000  H
  H100     1.0000 0.68133  0.59860  0.24641  Biso   1.000  H
  N22      1.0000 0.50804  0.68277  0.33818  Biso   1.000  N
  H101     1.0000 0.45051  0.55391  0.34389  Biso   1.000  H
  H102     1.0000 0.53012  0.55940  0.37880  Biso   1.000  H
  H103     1.0000 0.91575  0.72992  0.38508  Biso   1.000  H
  H104     1.0000 0.96321  0.81560  0.37380  Biso   1.000  H
  C57      1.0000 0.02866  0.69759  0.36982  Biso   1.000  C
  C58      1.0000 0.64754  0.99450  0.36560  Biso   1.000  C
  H105     1.0000 0.68843  0.88437  0.40680  Biso   1.000  H
  H106     1.0000 0.65791  0.96073  0.43999  Biso   1.000  H
  C59      1.0000 0.83381  0.65478  0.22939  Biso   1.000  C
  H107     1.0000 0.83394  0.52397  0.26129  Biso   1.000  H
  H108     1.0000 0.79745  0.59520  0.29550  Biso   1.000  H
  C60      1.0000 0.45970  0.73490  0.37720  Biso   1.000  C
  H109     1.0000 0.55995  0.70330  0.34068  Biso   1.000  H
  H110     1.0000 0.48874  0.69759  0.30589  Biso   1.000  H
  C61      1.0000 0.01650  0.68530  0.31120  Biso   1.000  C
  H111     1.0000 0.02782  0.63468  0.38669  Biso   1.000  H
  H112     1.0000 0.08126  0.72702  0.37731  Biso   1.000  H
  C62      1.0000 0.55945  0.96782  0.36431  Biso   1.000  C
  H113     1.0000 0.67264  0.97238  0.33369  Biso   1.000  H
  H114     1.0000 0.65322  0.06421  0.36759  Biso   1.000  H
  C63      1.0000 0.92280  0.66758  0.24380  Biso   1.000  C
  H115     1.0000 0.80463  0.71437  0.23571  Biso   1.000  H
  H116     1.0000 0.82751  0.63880  0.19248  Biso   1.000  H
  C64      1.0000 0.46842  0.84120  0.37021  Biso   1.000  C
  H117     1.0000 0.47821  0.71690  0.41230  Biso   1.000  H
  H118     1.0000 0.40293  0.71690  0.37321  Biso   1.000  H
  N23      1.0000 0.93893  0.67662  0.29511  Biso   1.000  N
  C65      1.0000 0.07940  0.69000  0.27738  Biso   1.000  C
  N24      1.0000 0.54613  0.87179  0.36720  Biso   1.000  N
  C66      1.0000 0.49791  0.03442  0.36279  Biso   1.000  C
  C67      1.0000 0.98312  0.66888  0.20639  Biso   1.000  C
  C68      1.0000 0.40324  0.90339  0.37028  Biso   1.000  C
  C69      1.0000 0.06284  0.67872  0.22451  Biso   1.000  C
  H119     1.0000 0.13231  0.70070  0.28980  Biso   1.000  H
  C70      1.0000 0.41914  0.00362  0.36669  Biso   1.000  C
  H120     1.0000 0.50944  0.09993  0.35919  Biso   1.000  H
  H121     1.0000 0.97031  0.66339  0.17081  Biso   1.000  H
  H122     1.0000 0.35044  0.88040  0.37278  Biso   1.000  H
  H123     1.0000 0.10512  0.67763  0.20100  Biso   1.000  H
  H124     1.0000 0.37671  0.04802  0.36689  Biso   1.000  H
  N25      1.0000 0.30097  0.60633  0.55672  Biso   1.000  N
  C71      1.0000 0.22556  0.63663  0.52641  Biso   1.000  C
  C72      1.0000 0.29694  0.62832  0.61471  Biso   1.000  C
  H125     1.0000 0.30834  0.54227  0.55250  Biso   1.000  H
  H126     1.0000 0.34416  0.63692  0.54359  Biso   1.000  H
  C73      1.0000 0.23414  0.60670  0.47092  Biso   1.000  C
  H127     1.0000 0.21871  0.70620  0.52840  Biso   1.000  H
  H128     1.0000 0.17805  0.60612  0.54090  Biso   1.000  H
  C74      1.0000 0.37486  0.60033  0.64392  Biso   1.000  C
  H129     1.0000 0.28716  0.69680  0.61939  Biso   1.000  H
  H130     1.0000 0.25175  0.59332  0.62939  Biso   1.000  H
  N26      1.0000 0.22605  0.50090  0.46030  Biso   1.000  N
  N27      1.0000 0.26752  0.52903  0.46791  Biso   1.000  N
  C75      1.0000 0.23421  0.66997  0.42902  Biso   1.000  C
  N28      1.0000 0.36428  0.51327  0.67859  Biso   1.000  N
  H131     1.0000 0.39335  0.65449  0.66508  Biso   1.000  H
  H132     1.0000 0.41646  0.58652  0.61869  Biso   1.000  H
  C76      1.0000 0.23054  0.47509  0.41059  Biso   1.000  C
  C77      1.0000 0.28354  0.48861  0.42050  Biso   1.000  C
  C78      1.0000 0.24743  0.63757  0.38028  Biso   1.000  C
  H133     1.0000 0.22494  0.73548  0.43448  Biso   1.000  H
  C79      1.0000 0.31446  0.54017  0.72600  Biso   1.000  C
  C80      1.0000 0.44714  0.47747  0.69750  Biso   1.000  C
  C81      1.0000 0.22296  0.36597  0.40199  Biso   1.000  C
  C82      1.0000 0.25974  0.54241  0.37181  Biso   1.000  C
  C83      1.0000 0.30455  0.38050  0.42121  Biso   1.000  C
  H134     1.0000 0.24813  0.68082  0.35240  Biso   1.000  H
  C84      1.0000 0.28158  0.45549  0.75638  Biso   1.000  C
  H135     1.0000 0.26917  0.58009  0.71421  Biso   1.000  H
  H136     1.0000 0.34825  0.57907  0.74959  Biso   1.000  H
  C85      1.0000 0.49352  0.42418  0.65532  Biso   1.000  C
  H137     1.0000 0.47937  0.53229  0.70960  Biso   1.000  H
  H138     1.0000 0.44025  0.43452  0.72710  Biso   1.000  H
  H139     1.0000 0.16743  0.35057  0.39122  Biso   1.000  H
  N29      1.0000 0.24166  0.31947  0.44339  Biso   1.000  N
  H140     1.0000 0.25831  0.34652  0.37411  Biso   1.000  H
  H141     1.0000 0.19502  0.33748  0.42679  Biso   1.000  H
  H142     1.0000 0.28596  0.52079  0.34209  Biso   1.000  H
  H143     1.0000 0.25403  0.51341  0.33900  Biso   1.000  H
  H144     1.0000 0.29292  0.33647  0.45249  Biso   1.000  H
  H145     1.0000 0.35486  0.37139  0.44140  Biso   1.000  H
  H146     1.0000 0.31393  0.35953  0.38559  Biso   1.000  H
  N30      1.0000 0.20008  0.42490  0.73799  Biso   1.000  N
  H147     1.0000 0.27936  0.47306  0.79321  Biso   1.000  H
  H148     1.0000 0.31874  0.40140  0.75361  Biso   1.000  H
  N31      1.0000 0.49208  0.31723  0.66180  Biso   1.000  N
  H149     1.0000 0.54956  0.44609  0.65610  Biso   1.000  H
  H150     1.0000 0.46995  0.44060  0.62119  Biso   1.000  H
  C86      1.0000 0.23793  0.21397  0.44589  Biso   1.000  C
  H151     1.0000 0.20955  0.34203  0.46869  Biso   1.000  H
  H152     1.0000 0.23742  0.33950  0.47682  Biso   1.000  H
  C87      1.0000 0.16626  0.34522  0.77060  Biso   1.000  C
  H153     1.0000 0.16618  0.47603  0.73869  Biso   1.000  H
  H154     1.0000 0.20268  0.40480  0.70449  Biso   1.000  H
  C88      1.0000 0.54036  0.26510  0.62279  Biso   1.000  C
  H155     1.0000 0.44018  0.29670  0.65930  Biso   1.000  H
  H156     1.0000 0.51133  0.30241  0.69410  Biso   1.000  H
  C89      1.0000 0.15422  0.17948  0.46291  Biso   1.000  C
  H157     1.0000 0.24932  0.18722  0.41172  Biso   1.000  H
  H158     1.0000 0.27924  0.19061  0.47061  Biso   1.000  H
  C90      1.0000 0.07726  0.33242  0.75619  Biso   1.000  C
  H159     1.0000 0.19543  0.28563  0.76431  Biso   1.000  H
  H160     1.0000 0.17256  0.36120  0.80750  Biso   1.000  H
  C91      1.0000 0.53165  0.15880  0.62982  Biso   1.000  C
  H161     1.0000 0.52186  0.28310  0.58768  Biso   1.000  H
  H162     1.0000 0.59714  0.28310  0.62681  Biso   1.000  H
  N32      1.0000 0.15513  0.14332  0.51841  Biso   1.000  N
  H163     1.0000 0.13564  0.12806  0.43960  Biso   1.000  H
  H164     1.0000 0.11596  0.23263  0.45952  Biso   1.000  H
  N33      1.0000 0.06114  0.32338  0.70492  Biso   1.000  N
  C92      1.0000 0.01694  0.33112  0.79360  Biso   1.000  C
  N34      1.0000 0.45394  0.12821  0.63279  Biso   1.000  N
  C93      1.0000 0.59683  0.09661  0.62970  Biso   1.000  C
  C94      1.0000 0.06747  0.12893  0.53539  Biso   1.000  C
  C95      1.0000 0.19825  0.04700  0.52161  Biso   1.000  C
  C96      1.0000 0.98357  0.31470  0.68879  Biso   1.000  C
  C97      1.0000 0.93728  0.32128  0.77552  Biso   1.000  C
  H165     1.0000 0.02975  0.33661  0.82922  Biso   1.000  H
  C98      1.0000 0.44068  0.03218  0.63572  Biso   1.000  C
  C99      1.0000 0.58098  0.99638  0.63330  Biso   1.000  C
  H166     1.0000 0.64963  0.11960  0.62720  Biso   1.000  H
  C100     1.0000 0.02556  0.22178  0.55140  Biso   1.000  C
  H167     1.0000 0.06726  0.08417  0.56468  Biso   1.000  H
  H168     1.0000 0.03645  0.09972  0.50669  Biso   1.000  H
  C101     1.0000 0.22733  0.01938  0.57608  Biso   1.000  C
  H169     1.0000 0.24464  0.04888  0.49892  Biso   1.000  H
  H170     1.0000 0.16153  0.99732  0.50829  Biso   1.000  H
  C102     1.0000 0.97147  0.30241  0.63021  Biso   1.000  C
  C103     1.0000 0.92067  0.31000  0.72261  Biso   1.000  C
  H171     1.0000 0.89494  0.32237  0.79899  Biso   1.000  H
  C104     1.0000 0.35258  0.00550  0.63439  Biso   1.000  C
  C105     1.0000 0.50215  0.96558  0.63720  Biso   1.000  C
  H172     1.0000 0.62335  0.95198  0.63310  Biso   1.000  H
  N35      1.0000 0.03597  0.24109  0.60889  Biso   1.000  N
  H173     1.0000 0.04787  0.27544  0.53192  Biso   1.000  H
  H174     1.0000 0.96797  0.21730  0.54238  Biso   1.000  H
  N36      1.0000 0.31198  0.05120  0.58819  Biso   1.000  N
  H175     1.0000 0.19145  0.04809  0.60139  Biso   1.000  H
  H176     1.0000 0.22414  0.94967  0.57979  Biso   1.000  H
  H177     1.0000 0.97224  0.36532  0.61330  Biso   1.000  H
  H178     1.0000 0.91887  0.27298  0.62271  Biso   1.000  H
  H179     1.0000 0.86775  0.29930  0.71019  Biso   1.000  H
  H180     1.0000 0.32748  0.02762  0.66629  Biso   1.000  H
  H181     1.0000 0.34685  0.93579  0.63240  Biso   1.000  H
  H182     1.0000 0.49063  0.90007  0.64079  Biso   1.000  H
  H183     1.0000 0.08437  0.27008  0.61490  Biso   1.000  H
  H184     1.0000 0.03685  0.18440  0.62619  Biso   1.000  H
  H185     1.0000 0.31163  0.11563  0.59319  Biso   1.000  H
  H186     1.0000 0.34215  0.03927  0.56000  Biso   1.000  H
  N37      1.0000 0.30097  0.60633  0.55672  Biso   1.000  N
  C106     1.0000 0.22556  0.63663  0.52641  Biso   1.000  C
  C107     1.0000 0.29694  0.62832  0.61471  Biso   1.000  C
  H187     1.0000 0.30834  0.54227  0.55250  Biso   1.000  H
  H188     1.0000 0.34416  0.63692  0.54359  Biso   1.000  H
  C108     1.0000 0.23414  0.60670  0.47092  Biso   1.000  C
  H189     1.0000 0.21871  0.70620  0.52840  Biso   1.000  H
  H190     1.0000 0.17805  0.60612  0.54090  Biso   1.000  H
  C109     1.0000 0.37486  0.60033  0.64392  Biso   1.000  C
  H191     1.0000 0.28716  0.69680  0.61939  Biso   1.000  H
  H192     1.0000 0.25175  0.59332  0.62939  Biso   1.000  H
  N38      1.0000 0.22605  0.50090  0.46030  Biso   1.000  N
  N39      1.0000 0.26752  0.52903  0.46791  Biso   1.000  N
  C110     1.0000 0.23421  0.66997  0.42902  Biso   1.000  C
  N40      1.0000 0.36428  0.51327  0.67859  Biso   1.000  N
  H193     1.0000 0.39335  0.65449  0.66508  Biso   1.000  H
  H194     1.0000 0.41646  0.58652  0.61869  Biso   1.000  H
  C111     1.0000 0.23054  0.47509  0.41059  Biso   1.000  C
  C112     1.0000 0.28354  0.48861  0.42050  Biso   1.000  C
  C113     1.0000 0.24743  0.63757  0.38028  Biso   1.000  C
  H195     1.0000 0.22494  0.73548  0.43448  Biso   1.000  H
  C114     1.0000 0.31446  0.54017  0.72600  Biso   1.000  C
  C115     1.0000 0.44714  0.47747  0.69750  Biso   1.000  C
  C116     1.0000 0.22296  0.36597  0.40199  Biso   1.000  C
  C117     1.0000 0.25974  0.54241  0.37181  Biso   1.000  C
  C118     1.0000 0.30455  0.38050  0.42121  Biso   1.000  C
  H196     1.0000 0.24813  0.68082  0.35240  Biso   1.000  H
  C119     1.0000 0.28158  0.45549  0.75638  Biso   1.000  C
  H197     1.0000 0.26917  0.58009  0.71421  Biso   1.000  H
  H198     1.0000 0.34825  0.57907  0.74959  Biso   1.000  H
  C120     1.0000 0.49352  0.42418  0.65532  Biso   1.000  C
  H199     1.0000 0.47937  0.53229  0.70960  Biso   1.000  H
  H200     1.0000 0.44025  0.43452  0.72710  Biso   1.000  H
  H201     1.0000 0.16743  0.35057  0.39122  Biso   1.000  H
  N41      1.0000 0.24166  0.31947  0.44339  Biso   1.000  N
  H202     1.0000 0.19502  0.33748  0.42679  Biso   1.000  H
  H203     1.0000 0.25831  0.34652  0.37411  Biso   1.000  H
  H204     1.0000 0.28596  0.52079  0.34209  Biso   1.000  H
  H205     1.0000 0.25403  0.51341  0.33900  Biso   1.000  H
  H206     1.0000 0.29292  0.33647  0.45249  Biso   1.000  H
  H207     1.0000 0.35486  0.37139  0.44140  Biso   1.000  H
  H208     1.0000 0.31393  0.35953  0.38559  Biso   1.000  H
  N42      1.0000 0.20008  0.42490  0.73799  Biso   1.000  N
  H209     1.0000 0.27936  0.47306  0.79321  Biso   1.000  H
  H210     1.0000 0.31874  0.40140  0.75361  Biso   1.000  H
  N43      1.0000 0.49208  0.31723  0.66180  Biso   1.000  N
  H211     1.0000 0.54956  0.44609  0.65610  Biso   1.000  H
  H212     1.0000 0.46995  0.44060  0.62119  Biso   1.000  H
  C121     1.0000 0.23793  0.21397  0.44589  Biso   1.000  C
  H213     1.0000 0.20955  0.34203  0.46869  Biso   1.000  H
  H214     1.0000 0.23742  0.33950  0.47682  Biso   1.000  H
  C122     1.0000 0.16626  0.34522  0.77060  Biso   1.000  C
  H215     1.0000 0.16618  0.47603  0.73869  Biso   1.000  H
  H216     1.0000 0.20268  0.40480  0.70449  Biso   1.000  H
  C123     1.0000 0.54036  0.26510  0.62279  Biso   1.000  C
  H217     1.0000 0.44018  0.29670  0.65930  Biso   1.000  H
  H218     1.0000 0.51133  0.30241  0.69410  Biso   1.000  H
  C124     1.0000 0.15422  0.17948  0.46291  Biso   1.000  C
  H219     1.0000 0.24932  0.18722  0.41172  Biso   1.000  H
  H220     1.0000 0.27924  0.19061  0.47061  Biso   1.000  H
  C125     1.0000 0.07726  0.33242  0.75619  Biso   1.000  C
  H221     1.0000 0.19543  0.28563  0.76431  Biso   1.000  H
  H222     1.0000 0.17256  0.36120  0.80750  Biso   1.000  H
  C126     1.0000 0.53165  0.15880  0.62982  Biso   1.000  C
  H223     1.0000 0.52186  0.28310  0.58768  Biso   1.000  H
  H224     1.0000 0.59714  0.28310  0.62681  Biso   1.000  H
  N44      1.0000 0.15513  0.14332  0.51841  Biso   1.000  N
  H225     1.0000 0.13564  0.12806  0.43960  Biso   1.000  H
  H226     1.0000 0.11596  0.23263  0.45952  Biso   1.000  H
  N45      1.0000 0.06114  0.32338  0.70492  Biso   1.000  N
  C127     1.0000 0.01694  0.33112  0.79360  Biso   1.000  C
  N46      1.0000 0.45394  0.12821  0.63279  Biso   1.000  N
  C128     1.0000 0.59683  0.09661  0.62970  Biso   1.000  C
  C129     1.0000 0.06747  0.12893  0.53539  Biso   1.000  C
  C130     1.0000 0.19825  0.04700  0.52161  Biso   1.000  C
  C131     1.0000 0.98357  0.31470  0.68879  Biso   1.000  C
  C132     1.0000 0.93728  0.32128  0.77552  Biso   1.000  C
  H227     1.0000 0.02975  0.33661  0.82922  Biso   1.000  H
  C133     1.0000 0.44068  0.03218  0.63572  Biso   1.000  C
  C134     1.0000 0.58098  0.99638  0.63330  Biso   1.000  C
  H228     1.0000 0.64963  0.11960  0.62720  Biso   1.000  H
  C135     1.0000 0.02556  0.22178  0.55140  Biso   1.000  C
  H229     1.0000 0.06726  0.08417  0.56468  Biso   1.000  H
  H230     1.0000 0.03645  0.09972  0.50669  Biso   1.000  H
  H231     1.0000 0.16153  0.99732  0.50829  Biso   1.000  H
  C136     1.0000 0.22733  0.01938  0.57608  Biso   1.000  C
  H232     1.0000 0.24464  0.04888  0.49892  Biso   1.000  H
  C137     1.0000 0.97147  0.30241  0.63021  Biso   1.000  C
  C138     1.0000 0.92067  0.31000  0.72261  Biso   1.000  C
  H233     1.0000 0.89494  0.32237  0.79899  Biso   1.000  H
  C139     1.0000 0.35258  0.00550  0.63439  Biso   1.000  C
  C140     1.0000 0.50215  0.96558  0.63720  Biso   1.000  C
  H234     1.0000 0.62335  0.95198  0.63310  Biso   1.000  H
  H235     1.0000 0.96797  0.21730  0.54238  Biso   1.000  H
  N47      1.0000 0.03597  0.24109  0.60889  Biso   1.000  N
  H236     1.0000 0.04787  0.27544  0.53192  Biso   1.000  H
  H237     1.0000 0.22414  0.94967  0.57979  Biso   1.000  H
  N48      1.0000 0.31198  0.05120  0.58819  Biso   1.000  N
  H238     1.0000 0.19145  0.04809  0.60139  Biso   1.000  H
  H239     1.0000 0.97224  0.36532  0.61330  Biso   1.000  H
  H240     1.0000 0.91887  0.27298  0.62271  Biso   1.000  H
  H241     1.0000 0.86775  0.29930  0.71019  Biso   1.000  H
  H242     1.0000 0.34685  0.93579  0.63240  Biso   1.000  H
  H243     1.0000 0.32748  0.02762  0.66629  Biso   1.000  H
  H244     1.0000 0.49063  0.90007  0.64079  Biso   1.000  H
  H245     1.0000 0.08437  0.27008  0.61490  Biso   1.000  H
  H246     1.0000 0.03685  0.18440  0.62619  Biso   1.000  H
  H247     1.0000 0.31163  0.11563  0.59319  Biso   1.000  H
  H248     1.0000 0.34215  0.03927  0.56000  Biso   1.000  H
  C141     1.0000 0.49797  0.46562  0.86280  Biso   1.000  C
  C142     1.0000 0.41915  0.49642  0.86670  Biso   1.000  C
  C143     1.0000 0.55945  0.53221  0.86428  Biso   1.000  C
  H249     1.0000 0.50944  0.40010  0.85921  Biso   1.000  H
  C144     1.0000 0.40330  0.59657  0.87030  Biso   1.000  C
  H250     1.0000 0.37677  0.45202  0.86690  Biso   1.000  H
  C145     1.0000 0.64755  0.50553  0.86561  Biso   1.000  C
  N49      1.0000 0.54619  0.62817  0.86721  Biso   1.000  N
  C146     1.0000 0.46848  0.65883  0.87022  Biso   1.000  C
  H251     1.0000 0.35044  0.61957  0.87280  Biso   1.000  H
  N50      1.0000 0.68815  0.55123  0.91181  Biso   1.000  N
  H252     1.0000 0.67264  0.52759  0.83371  Biso   1.000  H
  H253     1.0000 0.65328  0.43582  0.86760  Biso   1.000  H
  C147     1.0000 0.45976  0.76513  0.87721  Biso   1.000  C
  C148     1.0000 0.77280  0.51942  0.92391  Biso   1.000  C
  H254     1.0000 0.68850  0.61559  0.90681  Biso   1.000  H
  H255     1.0000 0.65798  0.53930  0.94000  Biso   1.000  H
  N51      1.0000 0.50804  0.81720  0.83820  Biso   1.000  N
  H256     1.0000 0.47827  0.78306  0.91232  Biso   1.000  H
  H257     1.0000 0.40299  0.78306  0.87319  Biso   1.000  H
  C149     1.0000 0.80188  0.54697  0.97839  Biso   1.000  C
  H258     1.0000 0.77599  0.44971  0.92020  Biso   1.000  H
  H259     1.0000 0.80868  0.54812  0.89861  Biso   1.000  H
  C150     1.0000 0.50655  0.92422  0.84472  Biso   1.000  C
  H260     1.0000 0.55995  0.79673  0.84070  Biso   1.000  H
  H261     1.0000 0.48874  0.80237  0.80590  Biso   1.000  H
  N52      1.0000 0.84500  0.64329  0.98159  Biso   1.000  N
  H262     1.0000 0.83860  0.49729  0.99171  Biso   1.000  H
  H263     1.0000 0.75543  0.54892  0.00112  Biso   1.000  H
  C151     1.0000 0.55299  0.97751  0.80250  Biso   1.000  C
  H264     1.0000 0.45057  0.94613  0.84390  Biso   1.000  H
  H265     1.0000 0.53018  0.94063  0.87881  Biso   1.000  H
  C152     1.0000 0.93266  0.62890  0.96461  Biso   1.000  C
  C153     1.0000 0.84585  0.67951  0.03709  Biso   1.000  C
  H266     1.0000 0.55988  0.93449  0.77290  Biso   1.000  H
  N53      1.0000 0.63585  0.01331  0.82141  Biso   1.000  N
  H267     1.0000 0.52076  0.03232  0.79040  Biso   1.000  H
  C154     1.0000 0.97457  0.72182  0.94860  Biso   1.000  C
  H268     1.0000 0.93287  0.58421  0.93532  Biso   1.000  H
  H269     1.0000 0.96368  0.59968  0.99331  Biso   1.000  H
  C155     1.0000 0.76214  0.71401  0.05411  Biso   1.000  C
  H270     1.0000 0.86442  0.62810  0.06040  Biso   1.000  H
  H271     1.0000 0.88411  0.73259  0.04048  Biso   1.000  H
  C156     1.0000 0.68567  0.04021  0.77400  Biso   1.000  C
  C157     1.0000 0.62527  0.10030  0.85608  Biso   1.000  C
  N54      1.0000 0.96416  0.74112  0.89111  Biso   1.000  N
  H272     1.0000 0.95226  0.77540  0.96808  Biso   1.000  H
  H273     1.0000 0.03216  0.71733  0.95762  Biso   1.000  H
  N55      1.0000 0.75841  0.81951  0.05661  Biso   1.000  N
  H274     1.0000 0.75075  0.68718  0.08832  Biso   1.000  H
  H275     1.0000 0.72082  0.69058  0.02939  Biso   1.000  H
  N56      1.0000 0.75841  0.81951  0.05657  Biso   1.000  N
  C158     1.0000 0.71855  0.95553  0.74361  Biso   1.000  C
  H276     1.0000 0.73096  0.08012  0.78579  Biso   1.000  H
  H277     1.0000 0.65188  0.07911  0.75041  Biso   1.000  H
  C159     1.0000 0.70319  0.12828  0.88529  Biso   1.000  C
  H278     1.0000 0.60678  0.15453  0.83492  Biso   1.000  H
  H279     1.0000 0.58367  0.08648  0.88131  Biso   1.000  H
  H280     1.0000 0.91576  0.77012  0.88510  Biso   1.000  H
  H281     1.0000 0.96328  0.68443  0.87381  Biso   1.000  H
  C160     1.0000 0.02866  0.80237  0.86979  Biso   1.000  C
  C161     1.0000 0.77711  0.86601  0.09801  Biso   1.000  C
  H282     1.0000 0.70715  0.83650  0.04751  Biso   1.000  H
  C162     1.0000 0.69552  0.88047  0.07879  Biso   1.000  C
  H283     1.0000 0.79052  0.84200  0.03131  Biso   1.000  H
  H284     1.0000 0.76259  0.83947  0.02318  Biso   1.000  H
  H285     1.0000 0.80499  0.83752  0.07317  Biso   1.000  H
  N57      1.0000 0.80005  0.92487  0.76201  Biso   1.000  N
  H286     1.0000 0.72077  0.97310  0.70679  Biso   1.000  H
  H287     1.0000 0.68133  0.90137  0.74639  Biso   1.000  H
  N58      1.0000 0.69915  0.10630  0.94328  Biso   1.000  N
  H288     1.0000 0.71297  0.19683  0.88061  Biso   1.000  H
  H289     1.0000 0.74838  0.09328  0.87061  Biso   1.000  H
  C163     1.0000 0.01656  0.81466  0.81121  Biso   1.000  C
  H290     1.0000 0.02789  0.86528  0.88670  Biso   1.000  H
  H291     1.0000 0.08126  0.77301  0.87729  Biso   1.000  H
  C164     1.0000 0.76953  0.97512  0.08941  Biso   1.000  C
  H292     1.0000 0.74176  0.84648  0.12589  Biso   1.000  H
  H293     1.0000 0.83264  0.85060  0.10878  Biso   1.000  H
  C165     1.0000 0.71653  0.98857  0.07950  Biso   1.000  C
  H294     1.0000 0.64521  0.87143  0.05860  Biso   1.000  H
  H295     1.0000 0.68614  0.85950  0.11437  Biso   1.000  H
  C166     1.0000 0.83387  0.84518  0.72940  Biso   1.000  C
  H296     1.0000 0.83395  0.97599  0.76131  Biso   1.000  H
  H297     1.0000 0.79745  0.90477  0.79551  Biso   1.000  H
  C167     1.0000 0.77456  0.13660  0.97359  Biso   1.000  C
  H298     1.0000 0.69179  0.04230  0.94750  Biso   1.000  H
  H299     1.0000 0.65597  0.13689  0.95641  Biso   1.000  H
  N59      1.0000 0.93899  0.82341  0.79508  Biso   1.000  N
  C168     1.0000 0.07946  0.80996  0.77739  Biso   1.000  C
  C169     1.0000 0.74033  0.04237  0.12819  Biso   1.000  C
  N60      1.0000 0.77402  0.00087  0.03970  Biso   1.000  N
  N61      1.0000 0.73249  0.02900  0.03209  Biso   1.000  N
  C170     1.0000 0.92286  0.83238  0.74381  Biso   1.000  C
  H300     1.0000 0.80463  0.78560  0.73569  Biso   1.000  H
  H301     1.0000 0.82757  0.86123  0.69250  Biso   1.000  H
  H302     1.0000 0.78135  0.20623  0.97160  Biso   1.000  H
  H303     1.0000 0.82207  0.10608  0.95910  Biso   1.000  H
  C171     1.0000 0.76593  0.10673  0.02912  Biso   1.000  C
  C172     1.0000 0.06285  0.82132  0.72452  Biso   1.000  C
  H304     1.0000 0.13238  0.79933  0.78981  Biso   1.000  H
  C173     1.0000 0.75263  0.13761  0.11972  Biso   1.000  C
  H305     1.0000 0.71411  0.02083  0.15787  Biso   1.000  H
  H306     1.0000 0.74604  0.01338  0.16100  Biso   1.000  H
  C174     1.0000 0.98313  0.83108  0.70640  Biso   1.000  C
  C175     1.0000 0.76580  0.17001  0.07098  Biso   1.000  C
  H307     1.0000 0.10513  0.82240  0.70101  Biso   1.000  H
  H308     1.0000 0.75194  0.18078  0.14760  Biso   1.000  H
  H309     1.0000 0.97038  0.83658  0.67078  Biso   1.000  H
  H310     1.0000 0.77513  0.23552  0.06551  Biso   1.000  H
  C176     1.0000 0.16619  0.15482  0.27059  Biso   1.000  C
  C177     1.0000 0.07720  0.16762  0.25622  Biso   1.000  C
  N62      1.0000 0.20002  0.07513  0.23802  Biso   1.000  N
  H311     1.0000 0.19543  0.21440  0.26430  Biso   1.000  H
  H312     1.0000 0.17255  0.13877  0.30749  Biso   1.000  H
  C178     1.0000 0.01694  0.16892  0.29359  Biso   1.000  C
  N63      1.0000 0.06114  0.17659  0.20490  Biso   1.000  N
  C179     1.0000 0.28151  0.04447  0.25641  Biso   1.000  C
  H313     1.0000 0.16612  0.02401  0.23868  Biso   1.000  H
  H314     1.0000 0.20262  0.09523  0.20451  Biso   1.000  H
  H315     1.0000 0.02975  0.16342  0.32920  Biso   1.000  H
  C180     1.0000 0.93722  0.17868  0.27551  Biso   1.000  C
  C181     1.0000 0.98351  0.18534  0.18881  Biso   1.000  C
  H316     1.0000 0.27930  0.02690  0.29320  Biso   1.000  H
  H317     1.0000 0.31874  0.09863  0.25360  Biso   1.000  H
  C182     1.0000 0.31439  0.95979  0.22599  Biso   1.000  C
  C183     1.0000 0.92060  0.19004  0.22259  Biso   1.000  C
  H318     1.0000 0.89494  0.17760  0.29902  Biso   1.000  H
  C184     1.0000 0.97140  0.19763  0.13020  Biso   1.000  C
  N64      1.0000 0.36422  0.98669  0.17858  Biso   1.000  N
  H319     1.0000 0.26910  0.91988  0.21420  Biso   1.000  H
  H320     1.0000 0.34825  0.92089  0.24962  Biso   1.000  H
  H321     1.0000 0.86769  0.20067  0.21021  Biso   1.000  H
  N65      1.0000 0.03591  0.25888  0.10891  Biso   1.000  N
  H322     1.0000 0.97218  0.13472  0.11329  Biso   1.000  H
  H323     1.0000 0.91881  0.22699  0.12270  Biso   1.000  H
  C185     1.0000 0.44713  0.02249  0.19748  Biso   1.000  C
  C186     1.0000 0.37479  0.89970  0.14390  Biso   1.000  C
  C187     1.0000 0.02549  0.27818  0.05139  Biso   1.000  C
  H324     1.0000 0.08431  0.22988  0.11489  Biso   1.000  H
  H325     1.0000 0.03679  0.31557  0.12621  Biso   1.000  H
  C188     1.0000 0.49352  0.07578  0.15531  Biso   1.000  C
  H326     1.0000 0.44024  0.06551  0.22708  Biso   1.000  H
  H327     1.0000 0.47930  0.96768  0.20959  Biso   1.000  H
  C189     1.0000 0.29694  0.87172  0.11469  Biso   1.000  C
  H328     1.0000 0.39329  0.84547  0.16511  Biso   1.000  H
  H329     1.0000 0.41640  0.91352  0.11872  Biso   1.000  H
  C190     1.0000 0.06741  0.37110  0.03542  Biso   1.000  C
  H330     1.0000 0.04781  0.22460  0.03190  Biso   1.000  H
  H331     1.0000 0.96791  0.28267  0.04241  Biso   1.000  H
  N66      1.0000 0.49202  0.18280  0.16179  Biso   1.000  N
  H332     1.0000 0.54949  0.05387  0.15609  Biso   1.000  H
  H333     1.0000 0.46989  0.05937  0.12122  Biso   1.000  H
  N67      1.0000 0.30091  0.89370  0.05670  Biso   1.000  N
  H334     1.0000 0.28709  0.80317  0.11942  Biso   1.000  H
  H335     1.0000 0.25168  0.90672  0.12942  Biso   1.000  H
  N68      1.0000 0.15513  0.35671  0.01839  Biso   1.000  N
  H336     1.0000 0.06720  0.41579  0.06471  Biso   1.000  H
  H337     1.0000 0.03639  0.40032  0.00672  Biso   1.000  H
  C191     1.0000 0.54030  0.23487  0.12282  Biso   1.000  C
  H338     1.0000 0.44011  0.20327  0.15929  Biso   1.000  H
  H339     1.0000 0.51133  0.19763  0.19408  Biso   1.000  H
  C192     1.0000 0.22550  0.86340  0.02640  Biso   1.000  C
  H340     1.0000 0.30828  0.95770  0.05248  Biso   1.000  H
  H341     1.0000 0.34410  0.86311  0.04358  Biso   1.000  H
  C193     1.0000 0.19819  0.45303  0.02160  Biso   1.000  C
  C194     1.0000 0.15428  0.32049  0.96290  Biso   1.000  C
  C195     1.0000 0.53159  0.34117  0.12981  Biso   1.000  C
  H342     1.0000 0.52179  0.21694  0.08771  Biso   1.000  H
  H343     1.0000 0.59713  0.21694  0.12680  Biso   1.000  H
  C196     1.0000 0.23414  0.89327  0.97091  Biso   1.000  C
  H344     1.0000 0.21871  0.79377  0.02839  Biso   1.000  H
  H345     1.0000 0.17799  0.89392  0.04089  Biso   1.000  H
  C197     1.0000 0.22733  0.48058  0.07611  Biso   1.000  C
  H346     1.0000 0.16153  0.50271  0.00832  Biso   1.000  H
  H347     1.0000 0.24464  0.45108  0.99891  Biso   1.000  H
  C198     1.0000 0.23793  0.28599  0.94591  Biso   1.000  C
  H348     1.0000 0.13564  0.37190  0.93959  Biso   1.000  H
  H349     1.0000 0.11596  0.26741  0.95950  Biso   1.000  H
  C199     1.0000 0.59682  0.40343  0.12969  Biso   1.000  C
  N69      1.0000 0.45394  0.37183  0.13281  Biso   1.000  N
  N70      1.0000 0.22605  0.99913  0.96028  Biso   1.000  N
  C200     1.0000 0.23426  0.82999  0.92900  Biso   1.000  C
  N71      1.0000 0.26758  0.97100  0.96790  Biso   1.000  N
  N72      1.0000 0.31192  0.44877  0.08822  Biso   1.000  N
  H350     1.0000 0.22414  0.55029  0.07978  Biso   1.000  H
  H351     1.0000 0.19139  0.45188  0.10142  Biso   1.000  H
  N73      1.0000 0.24166  0.18049  0.94341  Biso   1.000  N
  H352     1.0000 0.24937  0.31282  0.91170  Biso   1.000  H
  H353     1.0000 0.27924  0.30942  0.97059  Biso   1.000  H
  C201     1.0000 0.58092  0.50358  0.13328  Biso   1.000  C
  H354     1.0000 0.64962  0.38043  0.12719  Biso   1.000  H
  C202     1.0000 0.44062  0.46779  0.13570  Biso   1.000  C
  C203     1.0000 0.23054  0.02488  0.91061  Biso   1.000  C
  C204     1.0000 0.28360  0.01143  0.92053  Biso   1.000  C
  C205     1.0000 0.24743  0.86239  0.88031  Biso   1.000  C
  H355     1.0000 0.22494  0.76448  0.93451  Biso   1.000  H
  C206     1.0000 0.35252  0.49447  0.13441  Biso   1.000  C
  H356     1.0000 0.31163  0.38441  0.09322  Biso   1.000  H
  H357     1.0000 0.34209  0.46070  0.05998  Biso   1.000  H
  C207     1.0000 0.22295  0.13399  0.90198  Biso   1.000  C
  H358     1.0000 0.29298  0.16350  0.95251  Biso   1.000  H
  C208     1.0000 0.30454  0.11953  0.92123  Biso   1.000  C
  H359     1.0000 0.20961  0.15800  0.96872  Biso   1.000  H
  H360     1.0000 0.23748  0.16053  0.97680  Biso   1.000  H
  H361     1.0000 0.19508  0.16248  0.92682  Biso   1.000  H
  C209     1.0000 0.50209  0.53438  0.13719  Biso   1.000  C
  H362     1.0000 0.62329  0.54798  0.13309  Biso   1.000  H
  C210     1.0000 0.25974  0.95763  0.87179  Biso   1.000  C
  C211     1.0000 0.25980  0.95763  0.87183  Biso   1.000  C
  H363     1.0000 0.24813  0.81922  0.85239  Biso   1.000  H
  H364     1.0000 0.32742  0.47241  0.16632  Biso   1.000  H
  H365     1.0000 0.34678  0.56418  0.13238  Biso   1.000  H
  H366     1.0000 0.25837  0.15352  0.87410  Biso   1.000  H
  H367     1.0000 0.16749  0.14940  0.89120  Biso   1.000  H
  H368     1.0000 0.35486  0.12857  0.94142  Biso   1.000  H
  H369     1.0000 0.31399  0.14050  0.88562  Biso   1.000  H
  H370     1.0000 0.49062  0.59990  0.14082  Biso   1.000  H
  H371     1.0000 0.28596  0.97917  0.84212  Biso   1.000  H
  H372     1.0000 0.25409  0.98662  0.83903  Biso   1.000  H
