data_image0
_cell_length_a       12.485
_cell_length_b       17.202
_cell_length_c       17.659
_cell_angle_alpha    94.55
_cell_angle_beta     93.3
_cell_angle_gamma    111.02

_symmetry_space_group_name_H-M    "P 1"
_symmetry_int_tables_number       1

loop_
  _symmetry_equiv_pos_as_xyz
  'x, y, z'

loop_
  _atom_site_label
  _atom_site_occupancy
  _atom_site_fract_x
  _atom_site_fract_y
  _atom_site_fract_z
  _atom_site_thermal_displace_type
  _atom_site_B_iso_or_equiv
  _atom_site_type_symbol
  C1       1.0000 0.97075  0.75813  0.87951  Biso   1.000  C
  O1       1.0000 0.91216  0.76157  0.82360  Biso   1.000  O
  N1       1.0000 0.93083  0.71648  0.94101  Biso   1.000  N
  N2       1.0000 0.93094  0.71655  0.94101  Biso   1.000  N
  O2       1.0000 0.91227  0.76163  0.82360  Biso   1.000  O
  N3       1.0000 0.93086  0.71655  0.94101  Biso   1.000  N
  O3       1.0000 0.91219  0.76163  0.82360  Biso   1.000  O
  N4       1.0000 0.08849  0.79232  0.89120  Biso   1.000  N
  N5       1.0000 0.08857  0.79232  0.89120  Biso   1.000  N
  C2       1.0000 0.97083  0.75813  0.87951  Biso   1.000  C
  C3       1.0000 0.81006  0.67462  0.94831  Biso   1.000  C
  C4       1.0000 0.81014  0.67462  0.94831  Biso   1.000  C
  C5       1.0000 0.02303  0.71720  0.99578  Biso   1.000  C
  C6       1.0000 0.02314  0.71727  0.99578  Biso   1.000  C
  C7       1.0000 0.02311  0.71720  0.99578  Biso   1.000  C
  C8       1.0000 0.13390  0.76698  0.95841  Biso   1.000  C
  C9       1.0000 0.16010  0.83058  0.83318  Biso   1.000  C
  C10      1.0000 0.13393  0.76705  0.95841  Biso   1.000  C
  C11      1.0000 0.16013  0.83064  0.83318  Biso   1.000  C
  H1       1.0000 0.76787  0.66570  0.89851  Biso   1.000  H
  H2       1.0000 0.79788  0.62009  0.96543  Biso   1.000  H
  H3       1.0000 0.76790  0.66577  0.89851  Biso   1.000  H
  H4       1.0000 0.79790  0.62015  0.96537  Biso   1.000  H
  H5       1.0000 0.76798  0.66577  0.89851  Biso   1.000  H
  H6       1.0000 0.79791  0.62015  0.96543  Biso   1.000  H
  H7       1.0000 0.79787  0.62008  0.96537  Biso   1.000  H
  N6       1.0000 0.76412  0.72049  0.00091  Biso   1.000  N
  N7       1.0000 0.76401  0.72043  0.00091  Biso   1.000  N
  H8       1.0000 0.01929  0.66028  0.00211  Biso   1.000  H
  N8       1.0000 0.03350  0.76387  0.06732  Biso   1.000  N
  H9       1.0000 0.01917  0.66022  0.00211  Biso   1.000  H
  N9       1.0000 0.03342  0.76387  0.06732  Biso   1.000  N
  H10      1.0000 0.01925  0.66022  0.00211  Biso   1.000  H
  N10      1.0000 0.03339  0.76381  0.06732  Biso   1.000  N
  H11      1.0000 0.17935  0.73257  0.94540  Biso   1.000  H
  H12      1.0000 0.17946  0.73263  0.94540  Biso   1.000  H
  H13      1.0000 0.17938  0.73263  0.94540  Biso   1.000  H
  N11      1.0000 0.19397  0.83445  0.01620  Biso   1.000  N
  N12      1.0000 0.19389  0.83445  0.01620  Biso   1.000  N
  H14      1.0000 0.21591  0.80401  0.82599  Biso   1.000  H
  H15      1.0000 0.11226  0.82041  0.78543  Biso   1.000  H
  N13      1.0000 0.22041  0.91941  0.85081  Biso   1.000  N
  H16      1.0000 0.21594  0.80407  0.82599  Biso   1.000  H
  H17      1.0000 0.11236  0.82046  0.78537  Biso   1.000  H
  N14      1.0000 0.22044  0.91947  0.85081  Biso   1.000  N
  H18      1.0000 0.11237  0.82047  0.78543  Biso   1.000  H
  H19      1.0000 0.11233  0.82040  0.78537  Biso   1.000  H
  C12      1.0000 0.69220  0.75871  0.97650  Biso   1.000  C
  C13      1.0000 0.75575  0.70755  0.08090  Biso   1.000  C
  C14      1.0000 0.75564  0.70749  0.08090  Biso   1.000  C
  C15      1.0000 0.96573  0.73246  0.13002  Biso   1.000  C
  C16      1.0000 0.96570  0.73239  0.13002  Biso   1.000  C
  C17      1.0000 0.13920  0.82949  0.08193  Biso   1.000  C
  C18      1.0000 0.13908  0.82942  0.08187  Biso   1.000  C
  C19      1.0000 0.13909  0.82942  0.08193  Biso   1.000  C
  C20      1.0000 0.31378  0.88405  0.01592  Biso   1.000  C
  C21      1.0000 0.31370  0.88405  0.01592  Biso   1.000  C
  C22      1.0000 0.19743  0.97782  0.81110  Biso   1.000  C
  C23      1.0000 0.33529  0.95358  0.89349  Biso   1.000  C
  C24      1.0000 0.33532  0.95364  0.89349  Biso   1.000  C
  O4       1.0000 0.67090  0.76912  0.91049  Biso   1.000  O
  N15      1.0000 0.64595  0.78338  0.03788  Biso   1.000  N
  N16      1.0000 0.64592  0.78332  0.03788  Biso   1.000  N
  C25      1.0000 0.67267  0.75227  0.10629  Biso   1.000  C
  H20      1.0000 0.72435  0.64776  0.08769  Biso   1.000  H
  N17      1.0000 0.86169  0.75137  0.13042  Biso   1.000  N
  N18      1.0000 0.86161  0.75137  0.13042  Biso   1.000  N
  C26      1.0000 0.67264  0.75221  0.10629  Biso   1.000  C
  N19      1.0000 0.86158  0.75131  0.13042  Biso   1.000  N
  C27      1.0000 0.67256  0.75221  0.10629  Biso   1.000  C
  H21      1.0000 0.72424  0.64769  0.08769  Biso   1.000  H
  H22      1.0000 0.94492  0.67224  0.12688  Biso   1.000  H
  H23      1.0000 0.94484  0.67224  0.12688  Biso   1.000  H
  H24      1.0000 0.01272  0.75663  0.17772  Biso   1.000  H
  O5       1.0000 0.17468  0.87587  0.14160  Biso   1.000  O
  O6       1.0000 0.17465  0.87581  0.14160  Biso   1.000  O
  O7       1.0000 0.17457  0.87581  0.14160  Biso   1.000  O
  H25      1.0000 0.35217  0.84907  0.99338  Biso   1.000  H
  N20      1.0000 0.33701  0.95750  0.97439  Biso   1.000  N
  H26      1.0000 0.35220  0.84914  0.99338  Biso   1.000  H
  N21      1.0000 0.33704  0.95756  0.97439  Biso   1.000  N
  H27      1.0000 0.34686  0.90235  0.06818  Biso   1.000  H
  H28      1.0000 0.34678  0.90235  0.06818  Biso   1.000  H
  O8       1.0000 0.11352  0.96370  0.76740  Biso   1.000  O
  O9       1.0000 0.11356  0.96376  0.76740  Biso   1.000  O
  N22      1.0000 0.28615  0.05433  0.82942  Biso   1.000  N
  N23      1.0000 0.28604  0.05427  0.82942  Biso   1.000  N
  H29      1.0000 0.38557  0.92542  0.87437  Biso   1.000  H
  H30      1.0000 0.38565  0.92542  0.87437  Biso   1.000  H
  C28      1.0000 0.37869  0.04690  0.87683  Biso   1.000  C
  C29      1.0000 0.37868  0.04689  0.87677  Biso   1.000  C
  C30      1.0000 0.37857  0.04683  0.87677  Biso   1.000  C
  C31      1.0000 0.55900  0.81934  0.02961  Biso   1.000  C
  C32      1.0000 0.55892  0.81934  0.02961  Biso   1.000  C
  H31      1.0000 0.60334  0.71326  0.12512  Biso   1.000  H
  N24      1.0000 0.74490  0.81456  0.16671  Biso   1.000  N
  N25      1.0000 0.74482  0.81456  0.16671  Biso   1.000  N
  H32      1.0000 0.60323  0.71320  0.12512  Biso   1.000  H
  N26      1.0000 0.74479  0.81450  0.16671  Biso   1.000  N
  C33      1.0000 0.85185  0.81234  0.17852  Biso   1.000  C
  C34      1.0000 0.85177  0.81234  0.17852  Biso   1.000  C
  C35      1.0000 0.37672  0.03783  0.00810  Biso   1.000  C
  C36      1.0000 0.37661  0.03776  0.00810  Biso   1.000  C
  C37      1.0000 0.29369  0.12613  0.79022  Biso   1.000  C
  C38      1.0000 0.29366  0.12607  0.79022  Biso   1.000  C
  C39      1.0000 0.29358  0.12607  0.79022  Biso   1.000  C
  H33      1.0000 0.45001  0.06203  0.85138  Biso   1.000  H
  N27      1.0000 0.39760  0.09121  0.95322  Biso   1.000  N
  H34      1.0000 0.44990  0.06196  0.85138  Biso   1.000  H
  H35      1.0000 0.44998  0.06196  0.85138  Biso   1.000  H
  N28      1.0000 0.39749  0.09115  0.95322  Biso   1.000  N
  H36      1.0000 0.52331  0.80511  0.97758  Biso   1.000  H
  H37      1.0000 0.49967  0.79475  0.06299  Biso   1.000  H
  N29      1.0000 0.60248  0.90886  0.04678  Biso   1.000  N
  H38      1.0000 0.49959  0.79475  0.06299  Biso   1.000  H
  N30      1.0000 0.60237  0.90880  0.04678  Biso   1.000  N
  C40      1.0000 0.70638  0.87394  0.20978  Biso   1.000  C
  C41      1.0000 0.70630  0.87394  0.20978  Biso   1.000  C
  O10      1.0000 0.92687  0.85743  0.22718  Biso   1.000  O
  O11      1.0000 0.92679  0.85743  0.22718  Biso   1.000  O
  O12      1.0000 0.39367  0.05819  0.07788  Biso   1.000  O
  O13      1.0000 0.39370  0.05825  0.07788  Biso   1.000  O
  H39      1.0000 0.37300  0.15443  0.77990  Biso   1.000  H
  H40      1.0000 0.24732  0.10721  0.74173  Biso   1.000  H
  N31      1.0000 0.25518  0.18551  0.83330  Biso   1.000  N
  H41      1.0000 0.37297  0.15437  0.77990  Biso   1.000  H
  H42      1.0000 0.24731  0.10721  0.74167  Biso   1.000  H
  H43      1.0000 0.37289  0.15437  0.77990  Biso   1.000  H
  H44      1.0000 0.24720  0.10715  0.74167  Biso   1.000  H
  N32      1.0000 0.25507  0.18545  0.83330  Biso   1.000  N
  C42      1.0000 0.44108  0.18073  0.97039  Biso   1.000  C
  C43      1.0000 0.44105  0.18067  0.97039  Biso   1.000  C
  C44      1.0000 0.62324  0.96218  0.99190  Biso   1.000  C
  C45      1.0000 0.62335  0.96224  0.99190  Biso   1.000  C
  C46      1.0000 0.62327  0.96224  0.99190  Biso   1.000  C
  C47      1.0000 0.62139  0.95317  0.12318  Biso   1.000  C
  C48      1.0000 0.62131  0.95317  0.12318  Biso   1.000  C
  C49      1.0000 0.62128  0.95311  0.12318  Biso   1.000  C
  H45      1.0000 0.62708  0.84564  0.22011  Biso   1.000  H
  H46      1.0000 0.75276  0.89286  0.25827  Biso   1.000  H
  N33      1.0000 0.71393  0.94574  0.17059  Biso   1.000  N
  H47      1.0000 0.62700  0.84564  0.22011  Biso   1.000  H
  H48      1.0000 0.75265  0.89279  0.25827  Biso   1.000  H
  C50      1.0000 0.14823  0.18773  0.82149  Biso   1.000  C
  C51      1.0000 0.32741  0.24780  0.89371  Biso   1.000  C
  C52      1.0000 0.14812  0.18767  0.82149  Biso   1.000  C
  C53      1.0000 0.32730  0.24774  0.89371  Biso   1.000  C
  H49      1.0000 0.50041  0.20532  0.93702  Biso   1.000  H
  N34      1.0000 0.35413  0.21669  0.96212  Biso   1.000  N
  H50      1.0000 0.50038  0.20526  0.93702  Biso   1.000  H
  N35      1.0000 0.35405  0.21669  0.96212  Biso   1.000  N
  H51      1.0000 0.50030  0.20526  0.93702  Biso   1.000  H
  H52      1.0000 0.47666  0.19489  0.02242  Biso   1.000  H
  H53      1.0000 0.47677  0.19496  0.02242  Biso   1.000  H
  O14      1.0000 0.60630  0.94182  0.92213  Biso   1.000  O
  O15      1.0000 0.60637  0.94181  0.92207  Biso   1.000  O
  O16      1.0000 0.60638  0.94182  0.92213  Biso   1.000  O
  O17      1.0000 0.60629  0.94181  0.92207  Biso   1.000  O
  N36      1.0000 0.66296  0.04250  0.02562  Biso   1.000  N
  H54      1.0000 0.55007  0.93804  0.14862  Biso   1.000  H
  H55      1.0000 0.54999  0.93804  0.14862  Biso   1.000  H
  C54      1.0000 0.66468  0.04643  0.10652  Biso   1.000  C
  C55      1.0000 0.66465  0.04637  0.10652  Biso   1.000  C
  C56      1.0000 0.80254  0.02219  0.18890  Biso   1.000  C
  C57      1.0000 0.80257  0.02225  0.18890  Biso   1.000  C
  N37      1.0000 0.13838  0.24870  0.86958  Biso   1.000  N
  O18      1.0000 0.07320  0.14264  0.77282  Biso   1.000  O
  O19      1.0000 0.07317  0.14258  0.77282  Biso   1.000  O
  N38      1.0000 0.13827  0.24863  0.86958  Biso   1.000  N
  O20      1.0000 0.07309  0.14258  0.77282  Biso   1.000  O
  H56      1.0000 0.39674  0.28681  0.87489  Biso   1.000  H
  C58      1.0000 0.24433  0.29252  0.91910  Biso   1.000  C
  H57      1.0000 0.39666  0.28681  0.87489  Biso   1.000  H
  C59      1.0000 0.24425  0.29252  0.91910  Biso   1.000  C
  C60      1.0000 0.24422  0.29246  0.91910  Biso   1.000  C
  H58      1.0000 0.39663  0.28675  0.87489  Biso   1.000  H
  C61      1.0000 0.30777  0.24129  0.02351  Biso   1.000  C
  C62      1.0000 0.30780  0.24136  0.02351  Biso   1.000  C
  C63      1.0000 0.68630  0.11602  0.98408  Biso   1.000  C
  C64      1.0000 0.68627  0.11596  0.98408  Biso   1.000  C
  C65      1.0000 0.68619  0.11596  0.98408  Biso   1.000  C
  H59      1.0000 0.61439  0.07459  0.12563  Biso   1.000  H
  N39      1.0000 0.77956  0.08060  0.14919  Biso   1.000  N
  H60      1.0000 0.61431  0.07458  0.12557  Biso   1.000  H
  H61      1.0000 0.61431  0.07459  0.12563  Biso   1.000  H
  H62      1.0000 0.61442  0.07464  0.12557  Biso   1.000  H
  O21      1.0000 0.88644  0.03631  0.23260  Biso   1.000  O
  C66      1.0000 0.03435  0.26761  0.86998  Biso   1.000  C
  C67      1.0000 0.03427  0.26761  0.86998  Biso   1.000  C
  C68      1.0000 0.03424  0.26755  0.86998  Biso   1.000  C
  H63      1.0000 0.27573  0.35231  0.91231  Biso   1.000  H
  N40      1.0000 0.23596  0.27958  0.99909  Biso   1.000  N
  H64      1.0000 0.27565  0.35231  0.91231  Biso   1.000  H
  H65      1.0000 0.27562  0.35225  0.91231  Biso   1.000  H
  O22      1.0000 0.32906  0.23088  0.08952  Biso   1.000  O
  O23      1.0000 0.32910  0.23095  0.08952  Biso   1.000  O
  H66      1.0000 0.65322  0.09772  0.93182  Biso   1.000  H
  N41      1.0000 0.80611  0.16562  0.98380  Biso   1.000  N
  H67      1.0000 0.65314  0.09772  0.93182  Biso   1.000  H
  N42      1.0000 0.80607  0.16556  0.98380  Biso   1.000  N
  H68      1.0000 0.65311  0.09766  0.93182  Biso   1.000  H
  N43      1.0000 0.80599  0.16556  0.98380  Biso   1.000  N
  H69      1.0000 0.64780  0.15093  0.00662  Biso   1.000  H
  H70      1.0000 0.64777  0.15087  0.00662  Biso   1.000  H
  C69      1.0000 0.83987  0.16943  0.16682  Biso   1.000  C
  C70      1.0000 0.83984  0.16937  0.16682  Biso   1.000  C
  H71      1.0000 0.98736  0.24344  0.82229  Biso   1.000  H
  N44      1.0000 0.96658  0.23620  0.93268  Biso   1.000  N
  H72      1.0000 0.98725  0.24337  0.82229  Biso   1.000  H
  N45      1.0000 0.96647  0.23614  0.93268  Biso   1.000  N
  H73      1.0000 0.05515  0.32783  0.87312  Biso   1.000  H
  H74      1.0000 0.05504  0.32777  0.87312  Biso   1.000  H
  C71      1.0000 0.18991  0.32539  0.05169  Biso   1.000  C
  C72      1.0000 0.18983  0.32539  0.05169  Biso   1.000  C
  C73      1.0000 0.18994  0.32545  0.05169  Biso   1.000  C
  C74      1.0000 0.86088  0.17058  0.91808  Biso   1.000  C
  C75      1.0000 0.86080  0.17058  0.91808  Biso   1.000  C
  C76      1.0000 0.86607  0.23302  0.04159  Biso   1.000  C
  C77      1.0000 0.86604  0.23296  0.04159  Biso   1.000  C
  C78      1.0000 0.86615  0.23302  0.04159  Biso   1.000  C
  H75      1.0000 0.78406  0.19600  0.17401  Biso   1.000  H
  H76      1.0000 0.88771  0.17960  0.21457  Biso   1.000  H
  N46      1.0000 0.91148  0.20768  0.10880  Biso   1.000  N
  H77      1.0000 0.88763  0.17960  0.21457  Biso   1.000  H
  H78      1.0000 0.78409  0.19606  0.17401  Biso   1.000  H
  N47      1.0000 0.91151  0.20775  0.10880  Biso   1.000  N
  C79      1.0000 0.97693  0.28280  0.00422  Biso   1.000  C
  C80      1.0000 0.97685  0.28280  0.00422  Biso   1.000  C
  H79      1.0000 0.23209  0.33430  0.10150  Biso   1.000  H
  H80      1.0000 0.20209  0.37992  0.03457  Biso   1.000  H
  N48      1.0000 0.06914  0.28352  0.05899  Biso   1.000  N
  N49      1.0000 0.06902  0.28346  0.05899  Biso   1.000  N
  H81      1.0000 0.20206  0.37986  0.03457  Biso   1.000  H
  O24      1.0000 0.82540  0.12420  0.85840  Biso   1.000  O
  O25      1.0000 0.82529  0.12413  0.85840  Biso   1.000  O
  H82      1.0000 0.82062  0.26744  0.05460  Biso   1.000  H
  H83      1.0000 0.82051  0.26738  0.05460  Biso   1.000  H
  H84      1.0000 0.82059  0.26738  0.05460  Biso   1.000  H
  C81      1.0000 0.02921  0.24188  0.12049  Biso   1.000  C
  C82      1.0000 0.02913  0.24188  0.12049  Biso   1.000  C
  C83      1.0000 0.02924  0.24194  0.12049  Biso   1.000  C
  H85      1.0000 0.98079  0.33979  0.99789  Biso   1.000  H
  H86      1.0000 0.98071  0.33979  0.99789  Biso   1.000  H
  O26      1.0000 0.08781  0.23844  0.17641  Biso   1.000  O
  O27      1.0000 0.08770  0.23838  0.17641  Biso   1.000  O
  O28      1.0000 0.08778  0.23838  0.17641  Biso   1.000  O
  C84      1.0000 0.97075  0.75813  0.87951  Biso   1.000  C
  O29      1.0000 0.91216  0.76157  0.82360  Biso   1.000  O
  N50      1.0000 0.93094  0.71655  0.94101  Biso   1.000  N
  O30      1.0000 0.91227  0.76163  0.82360  Biso   1.000  O
  N51      1.0000 0.93083  0.71648  0.94101  Biso   1.000  N
  N52      1.0000 0.93086  0.71655  0.94101  Biso   1.000  N
  O31      1.0000 0.91219  0.76163  0.82360  Biso   1.000  O
  N53      1.0000 0.08849  0.79232  0.89120  Biso   1.000  N
  N54      1.0000 0.08857  0.79232  0.89120  Biso   1.000  N
  C85      1.0000 0.97083  0.75813  0.87951  Biso   1.000  C
  C86      1.0000 0.81014  0.67462  0.94831  Biso   1.000  C
  C87      1.0000 0.81006  0.67462  0.94831  Biso   1.000  C
  C88      1.0000 0.02303  0.71720  0.99578  Biso   1.000  C
  C89      1.0000 0.02314  0.71727  0.99578  Biso   1.000  C
  C90      1.0000 0.02311  0.71720  0.99578  Biso   1.000  C
  C91      1.0000 0.13390  0.76698  0.95841  Biso   1.000  C
  C92      1.0000 0.16010  0.83058  0.83318  Biso   1.000  C
  C93      1.0000 0.13393  0.76705  0.95841  Biso   1.000  C
  C94      1.0000 0.16013  0.83064  0.83318  Biso   1.000  C
  H87      1.0000 0.76787  0.66570  0.89851  Biso   1.000  H
  H88      1.0000 0.79788  0.62009  0.96543  Biso   1.000  H
  H89      1.0000 0.76790  0.66577  0.89851  Biso   1.000  H
  H90      1.0000 0.79790  0.62015  0.96537  Biso   1.000  H
  H91      1.0000 0.76798  0.66577  0.89851  Biso   1.000  H
  H92      1.0000 0.79791  0.62015  0.96543  Biso   1.000  H
  H93      1.0000 0.79787  0.62008  0.96537  Biso   1.000  H
  N55      1.0000 0.76412  0.72049  0.00091  Biso   1.000  N
  N56      1.0000 0.76401  0.72043  0.00091  Biso   1.000  N
  H94      1.0000 0.01929  0.66028  0.00211  Biso   1.000  H
  N57      1.0000 0.03350  0.76387  0.06732  Biso   1.000  N
  H95      1.0000 0.01917  0.66022  0.00211  Biso   1.000  H
  N58      1.0000 0.03342  0.76387  0.06732  Biso   1.000  N
  H96      1.0000 0.01925  0.66022  0.00211  Biso   1.000  H
  N59      1.0000 0.03339  0.76381  0.06732  Biso   1.000  N
  H97      1.0000 0.17935  0.73257  0.94540  Biso   1.000  H
  H98      1.0000 0.17946  0.73263  0.94540  Biso   1.000  H
  H99      1.0000 0.17938  0.73263  0.94540  Biso   1.000  H
  N60      1.0000 0.19397  0.83445  0.01620  Biso   1.000  N
  N61      1.0000 0.19389  0.83445  0.01620  Biso   1.000  N
  H100     1.0000 0.21591  0.80401  0.82599  Biso   1.000  H
  H101     1.0000 0.11226  0.82041  0.78543  Biso   1.000  H
  N62      1.0000 0.22041  0.91941  0.85081  Biso   1.000  N
  H102     1.0000 0.21594  0.80407  0.82599  Biso   1.000  H
  H103     1.0000 0.11236  0.82046  0.78537  Biso   1.000  H
  N63      1.0000 0.22044  0.91947  0.85081  Biso   1.000  N
  H104     1.0000 0.11237  0.82047  0.78543  Biso   1.000  H
  H105     1.0000 0.11233  0.82040  0.78537  Biso   1.000  H
  C95      1.0000 0.69220  0.75871  0.97650  Biso   1.000  C
  C96      1.0000 0.75575  0.70755  0.08090  Biso   1.000  C
  C97      1.0000 0.75564  0.70749  0.08090  Biso   1.000  C
  C98      1.0000 0.96573  0.73246  0.13002  Biso   1.000  C
  C99      1.0000 0.96570  0.73239  0.13002  Biso   1.000  C
  C100     1.0000 0.13920  0.82949  0.08193  Biso   1.000  C
  C101     1.0000 0.13908  0.82942  0.08187  Biso   1.000  C
  C102     1.0000 0.13909  0.82942  0.08193  Biso   1.000  C
  C103     1.0000 0.31378  0.88405  0.01592  Biso   1.000  C
  C104     1.0000 0.31370  0.88405  0.01592  Biso   1.000  C
  C105     1.0000 0.19743  0.97782  0.81110  Biso   1.000  C
  C106     1.0000 0.33529  0.95358  0.89349  Biso   1.000  C
  C107     1.0000 0.33532  0.95364  0.89349  Biso   1.000  C
  O32      1.0000 0.67090  0.76912  0.91049  Biso   1.000  O
  N64      1.0000 0.64595  0.78338  0.03788  Biso   1.000  N
  N65      1.0000 0.64592  0.78332  0.03788  Biso   1.000  N
  C108     1.0000 0.67267  0.75227  0.10629  Biso   1.000  C
  H106     1.0000 0.72435  0.64776  0.08769  Biso   1.000  H
  N66      1.0000 0.86169  0.75137  0.13042  Biso   1.000  N
  N67      1.0000 0.86161  0.75137  0.13042  Biso   1.000  N
  C109     1.0000 0.67264  0.75221  0.10629  Biso   1.000  C
  N68      1.0000 0.86158  0.75131  0.13042  Biso   1.000  N
  C110     1.0000 0.67256  0.75221  0.10629  Biso   1.000  C
  H107     1.0000 0.72424  0.64769  0.08769  Biso   1.000  H
  H108     1.0000 0.94492  0.67224  0.12688  Biso   1.000  H
  H109     1.0000 0.94484  0.67224  0.12688  Biso   1.000  H
  H110     1.0000 0.01272  0.75663  0.17772  Biso   1.000  H
  O33      1.0000 0.17468  0.87587  0.14160  Biso   1.000  O
  O34      1.0000 0.17465  0.87581  0.14160  Biso   1.000  O
  O35      1.0000 0.17457  0.87581  0.14160  Biso   1.000  O
  H111     1.0000 0.35217  0.84907  0.99338  Biso   1.000  H
  N69      1.0000 0.33701  0.95750  0.97439  Biso   1.000  N
  H112     1.0000 0.35220  0.84914  0.99338  Biso   1.000  H
  N70      1.0000 0.33704  0.95756  0.97439  Biso   1.000  N
  H113     1.0000 0.34686  0.90235  0.06818  Biso   1.000  H
  H114     1.0000 0.34678  0.90235  0.06818  Biso   1.000  H
  O36      1.0000 0.11352  0.96370  0.76740  Biso   1.000  O
  O37      1.0000 0.11356  0.96376  0.76740  Biso   1.000  O
  N71      1.0000 0.28615  0.05433  0.82942  Biso   1.000  N
  N72      1.0000 0.28604  0.05427  0.82942  Biso   1.000  N
  H115     1.0000 0.38557  0.92542  0.87437  Biso   1.000  H
  H116     1.0000 0.38565  0.92542  0.87437  Biso   1.000  H
  C111     1.0000 0.37869  0.04690  0.87683  Biso   1.000  C
  C112     1.0000 0.37868  0.04689  0.87677  Biso   1.000  C
  C113     1.0000 0.37857  0.04683  0.87677  Biso   1.000  C
  C114     1.0000 0.55900  0.81934  0.02961  Biso   1.000  C
  C115     1.0000 0.55892  0.81934  0.02961  Biso   1.000  C
  H117     1.0000 0.60334  0.71326  0.12512  Biso   1.000  H
  N73      1.0000 0.74490  0.81456  0.16671  Biso   1.000  N
  N74      1.0000 0.74482  0.81456  0.16671  Biso   1.000  N
  H118     1.0000 0.60323  0.71320  0.12512  Biso   1.000  H
  N75      1.0000 0.74479  0.81450  0.16671  Biso   1.000  N
  C116     1.0000 0.85185  0.81234  0.17852  Biso   1.000  C
  C117     1.0000 0.85177  0.81234  0.17852  Biso   1.000  C
  C118     1.0000 0.37672  0.03783  0.00810  Biso   1.000  C
  C119     1.0000 0.37661  0.03776  0.00810  Biso   1.000  C
  C120     1.0000 0.29369  0.12613  0.79022  Biso   1.000  C
  C121     1.0000 0.29366  0.12607  0.79022  Biso   1.000  C
  C122     1.0000 0.29358  0.12607  0.79022  Biso   1.000  C
  H119     1.0000 0.45001  0.06203  0.85138  Biso   1.000  H
  N76      1.0000 0.39760  0.09121  0.95322  Biso   1.000  N
  H120     1.0000 0.44990  0.06196  0.85138  Biso   1.000  H
  H121     1.0000 0.44998  0.06196  0.85138  Biso   1.000  H
  N77      1.0000 0.39749  0.09115  0.95322  Biso   1.000  N
  H122     1.0000 0.52331  0.80511  0.97758  Biso   1.000  H
  H123     1.0000 0.49967  0.79475  0.06299  Biso   1.000  H
  N78      1.0000 0.60248  0.90886  0.04678  Biso   1.000  N
  H124     1.0000 0.49959  0.79475  0.06299  Biso   1.000  H
  N79      1.0000 0.60237  0.90880  0.04678  Biso   1.000  N
  C123     1.0000 0.70638  0.87394  0.20978  Biso   1.000  C
  C124     1.0000 0.70630  0.87394  0.20978  Biso   1.000  C
  O38      1.0000 0.92687  0.85743  0.22718  Biso   1.000  O
  O39      1.0000 0.92679  0.85743  0.22718  Biso   1.000  O
  O40      1.0000 0.39367  0.05819  0.07788  Biso   1.000  O
  O41      1.0000 0.39370  0.05825  0.07788  Biso   1.000  O
  H125     1.0000 0.37300  0.15443  0.77990  Biso   1.000  H
  H126     1.0000 0.24732  0.10721  0.74173  Biso   1.000  H
  N80      1.0000 0.25518  0.18551  0.83330  Biso   1.000  N
  H127     1.0000 0.37297  0.15437  0.77990  Biso   1.000  H
  H128     1.0000 0.24731  0.10721  0.74167  Biso   1.000  H
  H129     1.0000 0.37289  0.15437  0.77990  Biso   1.000  H
  H130     1.0000 0.24720  0.10715  0.74167  Biso   1.000  H
  N81      1.0000 0.25507  0.18545  0.83330  Biso   1.000  N
  C125     1.0000 0.44108  0.18073  0.97039  Biso   1.000  C
  C126     1.0000 0.44105  0.18067  0.97039  Biso   1.000  C
  C127     1.0000 0.62335  0.96224  0.99190  Biso   1.000  C
  C128     1.0000 0.62324  0.96218  0.99190  Biso   1.000  C
  C129     1.0000 0.62327  0.96224  0.99190  Biso   1.000  C
  C130     1.0000 0.62139  0.95317  0.12318  Biso   1.000  C
  C131     1.0000 0.62131  0.95317  0.12318  Biso   1.000  C
  C132     1.0000 0.62128  0.95311  0.12318  Biso   1.000  C
  H131     1.0000 0.62708  0.84564  0.22011  Biso   1.000  H
  H132     1.0000 0.75276  0.89286  0.25827  Biso   1.000  H
  N82      1.0000 0.71393  0.94574  0.17059  Biso   1.000  N
  H133     1.0000 0.62700  0.84564  0.22011  Biso   1.000  H
  H134     1.0000 0.75265  0.89279  0.25827  Biso   1.000  H
  C133     1.0000 0.14823  0.18773  0.82149  Biso   1.000  C
  C134     1.0000 0.32741  0.24780  0.89371  Biso   1.000  C
  C135     1.0000 0.14812  0.18767  0.82149  Biso   1.000  C
  C136     1.0000 0.32730  0.24774  0.89371  Biso   1.000  C
  H135     1.0000 0.50041  0.20532  0.93702  Biso   1.000  H
  N83      1.0000 0.35413  0.21669  0.96212  Biso   1.000  N
  H136     1.0000 0.50038  0.20526  0.93702  Biso   1.000  H
  N84      1.0000 0.35405  0.21669  0.96212  Biso   1.000  N
  H137     1.0000 0.50030  0.20526  0.93702  Biso   1.000  H
  H138     1.0000 0.47666  0.19489  0.02242  Biso   1.000  H
  H139     1.0000 0.47677  0.19496  0.02242  Biso   1.000  H
  O42      1.0000 0.60630  0.94182  0.92213  Biso   1.000  O
  O43      1.0000 0.60637  0.94181  0.92207  Biso   1.000  O
  O44      1.0000 0.60638  0.94182  0.92213  Biso   1.000  O
  O45      1.0000 0.60629  0.94181  0.92207  Biso   1.000  O
  N85      1.0000 0.66296  0.04250  0.02562  Biso   1.000  N
  H140     1.0000 0.55007  0.93804  0.14862  Biso   1.000  H
  H141     1.0000 0.54999  0.93804  0.14862  Biso   1.000  H
  C137     1.0000 0.66468  0.04643  0.10652  Biso   1.000  C
  C138     1.0000 0.66465  0.04637  0.10652  Biso   1.000  C
  C139     1.0000 0.80254  0.02219  0.18890  Biso   1.000  C
  C140     1.0000 0.80257  0.02225  0.18890  Biso   1.000  C
  N86      1.0000 0.13838  0.24870  0.86958  Biso   1.000  N
  O46      1.0000 0.07320  0.14264  0.77282  Biso   1.000  O
  O47      1.0000 0.07317  0.14258  0.77282  Biso   1.000  O
  N87      1.0000 0.13827  0.24863  0.86958  Biso   1.000  N
  O48      1.0000 0.07309  0.14258  0.77282  Biso   1.000  O
  H142     1.0000 0.39674  0.28681  0.87489  Biso   1.000  H
  C141     1.0000 0.24433  0.29252  0.91910  Biso   1.000  C
  H143     1.0000 0.39666  0.28681  0.87489  Biso   1.000  H
  C142     1.0000 0.24425  0.29252  0.91910  Biso   1.000  C
  C143     1.0000 0.24422  0.29246  0.91910  Biso   1.000  C
  H144     1.0000 0.39663  0.28675  0.87489  Biso   1.000  H
  C144     1.0000 0.30777  0.24129  0.02351  Biso   1.000  C
  C145     1.0000 0.30780  0.24136  0.02351  Biso   1.000  C
  C146     1.0000 0.68630  0.11602  0.98408  Biso   1.000  C
  C147     1.0000 0.68627  0.11596  0.98408  Biso   1.000  C
  C148     1.0000 0.68619  0.11596  0.98408  Biso   1.000  C
  H145     1.0000 0.61439  0.07459  0.12563  Biso   1.000  H
  N88      1.0000 0.77956  0.08060  0.14919  Biso   1.000  N
  H146     1.0000 0.61431  0.07458  0.12557  Biso   1.000  H
  H147     1.0000 0.61431  0.07459  0.12563  Biso   1.000  H
  H148     1.0000 0.61442  0.07464  0.12557  Biso   1.000  H
  O49      1.0000 0.88644  0.03631  0.23260  Biso   1.000  O
  C149     1.0000 0.03435  0.26761  0.86998  Biso   1.000  C
  C150     1.0000 0.03427  0.26761  0.86998  Biso   1.000  C
  C151     1.0000 0.03424  0.26755  0.86998  Biso   1.000  C
  H149     1.0000 0.27573  0.35231  0.91231  Biso   1.000  H
  N89      1.0000 0.23596  0.27958  0.99909  Biso   1.000  N
  H150     1.0000 0.27565  0.35231  0.91231  Biso   1.000  H
  H151     1.0000 0.27562  0.35225  0.91231  Biso   1.000  H
  O50      1.0000 0.32906  0.23088  0.08952  Biso   1.000  O
  O51      1.0000 0.32910  0.23095  0.08952  Biso   1.000  O
  H152     1.0000 0.65322  0.09772  0.93182  Biso   1.000  H
  N90      1.0000 0.80611  0.16562  0.98380  Biso   1.000  N
  H153     1.0000 0.65314  0.09772  0.93182  Biso   1.000  H
  N91      1.0000 0.80607  0.16556  0.98380  Biso   1.000  N
  H154     1.0000 0.65311  0.09766  0.93182  Biso   1.000  H
  N92      1.0000 0.80599  0.16556  0.98380  Biso   1.000  N
  H155     1.0000 0.64780  0.15093  0.00662  Biso   1.000  H
  H156     1.0000 0.64777  0.15087  0.00662  Biso   1.000  H
  C152     1.0000 0.83987  0.16943  0.16682  Biso   1.000  C
  C153     1.0000 0.83984  0.16937  0.16682  Biso   1.000  C
  H157     1.0000 0.98736  0.24344  0.82229  Biso   1.000  H
  N93      1.0000 0.96658  0.23620  0.93268  Biso   1.000  N
  H158     1.0000 0.98725  0.24337  0.82229  Biso   1.000  H
  N94      1.0000 0.96647  0.23614  0.93268  Biso   1.000  N
  H159     1.0000 0.05515  0.32783  0.87312  Biso   1.000  H
  H160     1.0000 0.05504  0.32777  0.87312  Biso   1.000  H
  C154     1.0000 0.18991  0.32539  0.05169  Biso   1.000  C
  C155     1.0000 0.18983  0.32539  0.05169  Biso   1.000  C
  C156     1.0000 0.18994  0.32545  0.05169  Biso   1.000  C
  C157     1.0000 0.86088  0.17058  0.91808  Biso   1.000  C
  C158     1.0000 0.86080  0.17058  0.91808  Biso   1.000  C
  C159     1.0000 0.86607  0.23302  0.04159  Biso   1.000  C
  C160     1.0000 0.86604  0.23296  0.04159  Biso   1.000  C
  C161     1.0000 0.86615  0.23302  0.04159  Biso   1.000  C
  H161     1.0000 0.78406  0.19600  0.17401  Biso   1.000  H
  H162     1.0000 0.88771  0.17960  0.21457  Biso   1.000  H
  N95      1.0000 0.91148  0.20768  0.10880  Biso   1.000  N
  H163     1.0000 0.88763  0.17960  0.21457  Biso   1.000  H
  H164     1.0000 0.78409  0.19606  0.17401  Biso   1.000  H
  N96      1.0000 0.91151  0.20775  0.10880  Biso   1.000  N
  C162     1.0000 0.97693  0.28280  0.00422  Biso   1.000  C
  C163     1.0000 0.97685  0.28280  0.00422  Biso   1.000  C
  H165     1.0000 0.23209  0.33430  0.10150  Biso   1.000  H
  H166     1.0000 0.20209  0.37992  0.03457  Biso   1.000  H
  N97      1.0000 0.06914  0.28352  0.05899  Biso   1.000  N
  N98      1.0000 0.06902  0.28346  0.05899  Biso   1.000  N
  H167     1.0000 0.20206  0.37986  0.03457  Biso   1.000  H
  O52      1.0000 0.82540  0.12420  0.85840  Biso   1.000  O
  O53      1.0000 0.82529  0.12413  0.85840  Biso   1.000  O
  H168     1.0000 0.82062  0.26744  0.05460  Biso   1.000  H
  H169     1.0000 0.82051  0.26738  0.05460  Biso   1.000  H
  H170     1.0000 0.82059  0.26738  0.05460  Biso   1.000  H
  C164     1.0000 0.02921  0.24188  0.12049  Biso   1.000  C
  C165     1.0000 0.02913  0.24188  0.12049  Biso   1.000  C
  C166     1.0000 0.02924  0.24194  0.12049  Biso   1.000  C
  H171     1.0000 0.98079  0.33979  0.99789  Biso   1.000  H
  H172     1.0000 0.98071  0.33979  0.99789  Biso   1.000  H
  O54      1.0000 0.08781  0.23844  0.17641  Biso   1.000  O
  O55      1.0000 0.08770  0.23838  0.17641  Biso   1.000  O
  O56      1.0000 0.08778  0.23838  0.17641  Biso   1.000  O
  C167     1.0000 0.97075  0.75813  0.87951  Biso   1.000  C
  O57      1.0000 0.91227  0.76163  0.82360  Biso   1.000  O
  N99      1.0000 0.93094  0.71655  0.94101  Biso   1.000  N
  N100     1.0000 0.93083  0.71648  0.94101  Biso   1.000  N
  O58      1.0000 0.91216  0.76157  0.82360  Biso   1.000  O
  N101     1.0000 0.93086  0.71655  0.94101  Biso   1.000  N
  O59      1.0000 0.91219  0.76163  0.82360  Biso   1.000  O
  N102     1.0000 0.08849  0.79232  0.89120  Biso   1.000  N
  N103     1.0000 0.08857  0.79232  0.89120  Biso   1.000  N
  C168     1.0000 0.97083  0.75813  0.87951  Biso   1.000  C
  C169     1.0000 0.81006  0.67462  0.94831  Biso   1.000  C
  C170     1.0000 0.81014  0.67462  0.94831  Biso   1.000  C
  C171     1.0000 0.02303  0.71720  0.99578  Biso   1.000  C
  C172     1.0000 0.02314  0.71727  0.99578  Biso   1.000  C
  C173     1.0000 0.02311  0.71720  0.99578  Biso   1.000  C
  C174     1.0000 0.13390  0.76698  0.95841  Biso   1.000  C
  C175     1.0000 0.16010  0.83058  0.83318  Biso   1.000  C
  C176     1.0000 0.13393  0.76705  0.95841  Biso   1.000  C
  C177     1.0000 0.16013  0.83064  0.83318  Biso   1.000  C
  H173     1.0000 0.76787  0.66570  0.89851  Biso   1.000  H
  H174     1.0000 0.79788  0.62009  0.96543  Biso   1.000  H
  H175     1.0000 0.76790  0.66577  0.89851  Biso   1.000  H
  H176     1.0000 0.79790  0.62015  0.96537  Biso   1.000  H
  H177     1.0000 0.76798  0.66577  0.89851  Biso   1.000  H
  H178     1.0000 0.79791  0.62015  0.96543  Biso   1.000  H
  H179     1.0000 0.79787  0.62008  0.96537  Biso   1.000  H
  N104     1.0000 0.76412  0.72049  0.00091  Biso   1.000  N
  N105     1.0000 0.76401  0.72043  0.00091  Biso   1.000  N
  H180     1.0000 0.01929  0.66028  0.00211  Biso   1.000  H
  N106     1.0000 0.03350  0.76387  0.06732  Biso   1.000  N
  H181     1.0000 0.01917  0.66022  0.00211  Biso   1.000  H
  N107     1.0000 0.03342  0.76387  0.06732  Biso   1.000  N
  H182     1.0000 0.01925  0.66022  0.00211  Biso   1.000  H
  N108     1.0000 0.03339  0.76381  0.06732  Biso   1.000  N
  H183     1.0000 0.17935  0.73257  0.94540  Biso   1.000  H
  H184     1.0000 0.17946  0.73263  0.94540  Biso   1.000  H
  H185     1.0000 0.17938  0.73263  0.94540  Biso   1.000  H
  N109     1.0000 0.19397  0.83445  0.01620  Biso   1.000  N
  N110     1.0000 0.19389  0.83445  0.01620  Biso   1.000  N
  H186     1.0000 0.21591  0.80401  0.82599  Biso   1.000  H
  H187     1.0000 0.11226  0.82041  0.78543  Biso   1.000  H
  N111     1.0000 0.22041  0.91941  0.85081  Biso   1.000  N
  H188     1.0000 0.21594  0.80407  0.82599  Biso   1.000  H
  H189     1.0000 0.11236  0.82046  0.78537  Biso   1.000  H
  N112     1.0000 0.22044  0.91947  0.85081  Biso   1.000  N
  H190     1.0000 0.11237  0.82047  0.78543  Biso   1.000  H
  H191     1.0000 0.11233  0.82040  0.78537  Biso   1.000  H
  C178     1.0000 0.69220  0.75871  0.97650  Biso   1.000  C
  C179     1.0000 0.75575  0.70755  0.08090  Biso   1.000  C
  C180     1.0000 0.75564  0.70749  0.08090  Biso   1.000  C
  C181     1.0000 0.96573  0.73246  0.13002  Biso   1.000  C
  C182     1.0000 0.96570  0.73239  0.13002  Biso   1.000  C
  C183     1.0000 0.13920  0.82949  0.08193  Biso   1.000  C
  C184     1.0000 0.13908  0.82942  0.08187  Biso   1.000  C
  C185     1.0000 0.13909  0.82942  0.08193  Biso   1.000  C
  C186     1.0000 0.31378  0.88405  0.01592  Biso   1.000  C
  C187     1.0000 0.31370  0.88405  0.01592  Biso   1.000  C
  C188     1.0000 0.19743  0.97782  0.81110  Biso   1.000  C
  C189     1.0000 0.33529  0.95358  0.89349  Biso   1.000  C
  C190     1.0000 0.33532  0.95364  0.89349  Biso   1.000  C
  O60      1.0000 0.67090  0.76912  0.91049  Biso   1.000  O
  N113     1.0000 0.64595  0.78338  0.03788  Biso   1.000  N
  N114     1.0000 0.64592  0.78332  0.03788  Biso   1.000  N
  C191     1.0000 0.67267  0.75227  0.10629  Biso   1.000  C
  H192     1.0000 0.72435  0.64776  0.08769  Biso   1.000  H
  N115     1.0000 0.86169  0.75137  0.13042  Biso   1.000  N
  N116     1.0000 0.86161  0.75137  0.13042  Biso   1.000  N
  C192     1.0000 0.67264  0.75221  0.10629  Biso   1.000  C
  N117     1.0000 0.86158  0.75131  0.13042  Biso   1.000  N
  C193     1.0000 0.67256  0.75221  0.10629  Biso   1.000  C
  H193     1.0000 0.72424  0.64769  0.08769  Biso   1.000  H
  H194     1.0000 0.94492  0.67224  0.12688  Biso   1.000  H
  H195     1.0000 0.94484  0.67224  0.12688  Biso   1.000  H
  H196     1.0000 0.01272  0.75663  0.17772  Biso   1.000  H
  O61      1.0000 0.17468  0.87587  0.14160  Biso   1.000  O
  O62      1.0000 0.17465  0.87581  0.14160  Biso   1.000  O
  O63      1.0000 0.17457  0.87581  0.14160  Biso   1.000  O
  H197     1.0000 0.35217  0.84907  0.99338  Biso   1.000  H
  N118     1.0000 0.33701  0.95750  0.97439  Biso   1.000  N
  H198     1.0000 0.35220  0.84914  0.99338  Biso   1.000  H
  N119     1.0000 0.33704  0.95756  0.97439  Biso   1.000  N
  H199     1.0000 0.34686  0.90235  0.06818  Biso   1.000  H
  H200     1.0000 0.34678  0.90235  0.06818  Biso   1.000  H
  O64      1.0000 0.11352  0.96370  0.76740  Biso   1.000  O
  O65      1.0000 0.11356  0.96376  0.76740  Biso   1.000  O
  N120     1.0000 0.28615  0.05433  0.82942  Biso   1.000  N
  N121     1.0000 0.28604  0.05427  0.82942  Biso   1.000  N
  H201     1.0000 0.38557  0.92542  0.87437  Biso   1.000  H
  H202     1.0000 0.38565  0.92542  0.87437  Biso   1.000  H
  C194     1.0000 0.37869  0.04690  0.87683  Biso   1.000  C
  C195     1.0000 0.37868  0.04689  0.87677  Biso   1.000  C
  C196     1.0000 0.37857  0.04683  0.87677  Biso   1.000  C
  C197     1.0000 0.55900  0.81934  0.02961  Biso   1.000  C
  C198     1.0000 0.55892  0.81934  0.02961  Biso   1.000  C
  H203     1.0000 0.60334  0.71326  0.12512  Biso   1.000  H
  N122     1.0000 0.74490  0.81456  0.16671  Biso   1.000  N
  N123     1.0000 0.74482  0.81456  0.16671  Biso   1.000  N
  H204     1.0000 0.60323  0.71320  0.12512  Biso   1.000  H
  N124     1.0000 0.74479  0.81450  0.16671  Biso   1.000  N
  C199     1.0000 0.85185  0.81234  0.17852  Biso   1.000  C
  C200     1.0000 0.85177  0.81234  0.17852  Biso   1.000  C
  C201     1.0000 0.37672  0.03783  0.00810  Biso   1.000  C
  C202     1.0000 0.37661  0.03776  0.00810  Biso   1.000  C
  C203     1.0000 0.29369  0.12613  0.79022  Biso   1.000  C
  C204     1.0000 0.29366  0.12607  0.79022  Biso   1.000  C
  C205     1.0000 0.29358  0.12607  0.79022  Biso   1.000  C
  H205     1.0000 0.45001  0.06203  0.85138  Biso   1.000  H
  N125     1.0000 0.39760  0.09121  0.95322  Biso   1.000  N
  H206     1.0000 0.44990  0.06196  0.85138  Biso   1.000  H
  H207     1.0000 0.44998  0.06196  0.85138  Biso   1.000  H
  N126     1.0000 0.39749  0.09115  0.95322  Biso   1.000  N
  H208     1.0000 0.52331  0.80511  0.97758  Biso   1.000  H
  H209     1.0000 0.49967  0.79475  0.06299  Biso   1.000  H
  N127     1.0000 0.60248  0.90886  0.04678  Biso   1.000  N
  H210     1.0000 0.49959  0.79475  0.06299  Biso   1.000  H
  N128     1.0000 0.60237  0.90880  0.04678  Biso   1.000  N
  C206     1.0000 0.70638  0.87394  0.20978  Biso   1.000  C
  C207     1.0000 0.70630  0.87394  0.20978  Biso   1.000  C
  O66      1.0000 0.92687  0.85743  0.22718  Biso   1.000  O
  O67      1.0000 0.92679  0.85743  0.22718  Biso   1.000  O
  O68      1.0000 0.39367  0.05819  0.07788  Biso   1.000  O
  O69      1.0000 0.39370  0.05825  0.07788  Biso   1.000  O
  H211     1.0000 0.37300  0.15443  0.77990  Biso   1.000  H
  H212     1.0000 0.24732  0.10721  0.74173  Biso   1.000  H
  N129     1.0000 0.25518  0.18551  0.83330  Biso   1.000  N
  H213     1.0000 0.37297  0.15437  0.77990  Biso   1.000  H
  H214     1.0000 0.24731  0.10721  0.74167  Biso   1.000  H
  H215     1.0000 0.37289  0.15437  0.77990  Biso   1.000  H
  H216     1.0000 0.24720  0.10715  0.74167  Biso   1.000  H
  N130     1.0000 0.25507  0.18545  0.83330  Biso   1.000  N
  C208     1.0000 0.44108  0.18073  0.97039  Biso   1.000  C
  C209     1.0000 0.44105  0.18067  0.97039  Biso   1.000  C
  C210     1.0000 0.62335  0.96224  0.99190  Biso   1.000  C
  C211     1.0000 0.62324  0.96218  0.99190  Biso   1.000  C
  C212     1.0000 0.62327  0.96224  0.99190  Biso   1.000  C
  C213     1.0000 0.62139  0.95317  0.12318  Biso   1.000  C
  C214     1.0000 0.62131  0.95317  0.12318  Biso   1.000  C
  C215     1.0000 0.62128  0.95311  0.12318  Biso   1.000  C
  H217     1.0000 0.62708  0.84564  0.22011  Biso   1.000  H
  H218     1.0000 0.75276  0.89286  0.25827  Biso   1.000  H
  N131     1.0000 0.71393  0.94574  0.17059  Biso   1.000  N
  H219     1.0000 0.62700  0.84564  0.22011  Biso   1.000  H
  H220     1.0000 0.75265  0.89279  0.25827  Biso   1.000  H
  C216     1.0000 0.14823  0.18773  0.82149  Biso   1.000  C
  C217     1.0000 0.32741  0.24780  0.89371  Biso   1.000  C
  C218     1.0000 0.14812  0.18767  0.82149  Biso   1.000  C
  C219     1.0000 0.32730  0.24774  0.89371  Biso   1.000  C
  H221     1.0000 0.50041  0.20532  0.93702  Biso   1.000  H
  N132     1.0000 0.35413  0.21669  0.96212  Biso   1.000  N
  H222     1.0000 0.50038  0.20526  0.93702  Biso   1.000  H
  N133     1.0000 0.35405  0.21669  0.96212  Biso   1.000  N
  H223     1.0000 0.50030  0.20526  0.93702  Biso   1.000  H
  H224     1.0000 0.47666  0.19489  0.02242  Biso   1.000  H
  H225     1.0000 0.47677  0.19496  0.02242  Biso   1.000  H
  O70      1.0000 0.60630  0.94182  0.92213  Biso   1.000  O
  O71      1.0000 0.60637  0.94181  0.92207  Biso   1.000  O
  O72      1.0000 0.60638  0.94182  0.92213  Biso   1.000  O
  O73      1.0000 0.60629  0.94181  0.92207  Biso   1.000  O
  N134     1.0000 0.66296  0.04250  0.02562  Biso   1.000  N
  H226     1.0000 0.55007  0.93804  0.14862  Biso   1.000  H
  H227     1.0000 0.54999  0.93804  0.14862  Biso   1.000  H
  C220     1.0000 0.66468  0.04643  0.10652  Biso   1.000  C
  C221     1.0000 0.66465  0.04637  0.10652  Biso   1.000  C
  C222     1.0000 0.80254  0.02219  0.18890  Biso   1.000  C
  C223     1.0000 0.80257  0.02225  0.18890  Biso   1.000  C
  N135     1.0000 0.13838  0.24870  0.86958  Biso   1.000  N
  O74      1.0000 0.07320  0.14264  0.77282  Biso   1.000  O
  O75      1.0000 0.07317  0.14258  0.77282  Biso   1.000  O
  N136     1.0000 0.13827  0.24863  0.86958  Biso   1.000  N
  O76      1.0000 0.07309  0.14258  0.77282  Biso   1.000  O
  H228     1.0000 0.39674  0.28681  0.87489  Biso   1.000  H
  C224     1.0000 0.24433  0.29252  0.91910  Biso   1.000  C
  H229     1.0000 0.39666  0.28681  0.87489  Biso   1.000  H
  C225     1.0000 0.24425  0.29252  0.91910  Biso   1.000  C
  C226     1.0000 0.24422  0.29246  0.91910  Biso   1.000  C
  H230     1.0000 0.39663  0.28675  0.87489  Biso   1.000  H
  C227     1.0000 0.30777  0.24129  0.02351  Biso   1.000  C
  C228     1.0000 0.30780  0.24136  0.02351  Biso   1.000  C
  C229     1.0000 0.68630  0.11602  0.98408  Biso   1.000  C
  C230     1.0000 0.68627  0.11596  0.98408  Biso   1.000  C
  C231     1.0000 0.68619  0.11596  0.98408  Biso   1.000  C
  H231     1.0000 0.61439  0.07459  0.12563  Biso   1.000  H
  N137     1.0000 0.77956  0.08060  0.14919  Biso   1.000  N
  H232     1.0000 0.61431  0.07458  0.12557  Biso   1.000  H
  H233     1.0000 0.61431  0.07459  0.12563  Biso   1.000  H
  H234     1.0000 0.61442  0.07464  0.12557  Biso   1.000  H
  O77      1.0000 0.88644  0.03631  0.23260  Biso   1.000  O
  C232     1.0000 0.03435  0.26761  0.86998  Biso   1.000  C
  C233     1.0000 0.03427  0.26761  0.86998  Biso   1.000  C
  C234     1.0000 0.03424  0.26755  0.86998  Biso   1.000  C
  H235     1.0000 0.27573  0.35231  0.91231  Biso   1.000  H
  N138     1.0000 0.23596  0.27958  0.99909  Biso   1.000  N
  H236     1.0000 0.27565  0.35231  0.91231  Biso   1.000  H
  H237     1.0000 0.27562  0.35225  0.91231  Biso   1.000  H
  O78      1.0000 0.32906  0.23088  0.08952  Biso   1.000  O
  O79      1.0000 0.32910  0.23095  0.08952  Biso   1.000  O
  H238     1.0000 0.65322  0.09772  0.93182  Biso   1.000  H
  N139     1.0000 0.80611  0.16562  0.98380  Biso   1.000  N
  H239     1.0000 0.65314  0.09772  0.93182  Biso   1.000  H
  N140     1.0000 0.80607  0.16556  0.98380  Biso   1.000  N
  H240     1.0000 0.65311  0.09766  0.93182  Biso   1.000  H
  N141     1.0000 0.80599  0.16556  0.98380  Biso   1.000  N
  H241     1.0000 0.64780  0.15093  0.00662  Biso   1.000  H
  H242     1.0000 0.64777  0.15087  0.00662  Biso   1.000  H
  C235     1.0000 0.83987  0.16943  0.16682  Biso   1.000  C
  C236     1.0000 0.83984  0.16937  0.16682  Biso   1.000  C
  H243     1.0000 0.98736  0.24344  0.82229  Biso   1.000  H
  N142     1.0000 0.96658  0.23620  0.93268  Biso   1.000  N
  H244     1.0000 0.98725  0.24337  0.82229  Biso   1.000  H
  N143     1.0000 0.96647  0.23614  0.93268  Biso   1.000  N
  H245     1.0000 0.05515  0.32783  0.87312  Biso   1.000  H
  H246     1.0000 0.05504  0.32777  0.87312  Biso   1.000  H
  C237     1.0000 0.18991  0.32539  0.05169  Biso   1.000  C
  C238     1.0000 0.18983  0.32539  0.05169  Biso   1.000  C
  C239     1.0000 0.18994  0.32545  0.05169  Biso   1.000  C
  C240     1.0000 0.86088  0.17058  0.91808  Biso   1.000  C
  C241     1.0000 0.86080  0.17058  0.91808  Biso   1.000  C
  C242     1.0000 0.86607  0.23302  0.04159  Biso   1.000  C
  C243     1.0000 0.86604  0.23296  0.04159  Biso   1.000  C
  C244     1.0000 0.86615  0.23302  0.04159  Biso   1.000  C
  H247     1.0000 0.78406  0.19600  0.17401  Biso   1.000  H
  H248     1.0000 0.88771  0.17960  0.21457  Biso   1.000  H
  N144     1.0000 0.91148  0.20768  0.10880  Biso   1.000  N
  H249     1.0000 0.88763  0.17960  0.21457  Biso   1.000  H
  H250     1.0000 0.78409  0.19606  0.17401  Biso   1.000  H
  N145     1.0000 0.91151  0.20775  0.10880  Biso   1.000  N
  C245     1.0000 0.97693  0.28280  0.00422  Biso   1.000  C
  C246     1.0000 0.97685  0.28280  0.00422  Biso   1.000  C
  H251     1.0000 0.23209  0.33430  0.10150  Biso   1.000  H
  H252     1.0000 0.20209  0.37992  0.03457  Biso   1.000  H
  N146     1.0000 0.06914  0.28352  0.05899  Biso   1.000  N
  N147     1.0000 0.06902  0.28346  0.05899  Biso   1.000  N
  H253     1.0000 0.20206  0.37986  0.03457  Biso   1.000  H
  O80      1.0000 0.82540  0.12420  0.85840  Biso   1.000  O
  O81      1.0000 0.82529  0.12413  0.85840  Biso   1.000  O
  H254     1.0000 0.82062  0.26744  0.05460  Biso   1.000  H
  H255     1.0000 0.82051  0.26738  0.05460  Biso   1.000  H
  H256     1.0000 0.82059  0.26738  0.05460  Biso   1.000  H
  C247     1.0000 0.02921  0.24188  0.12049  Biso   1.000  C
  C248     1.0000 0.02913  0.24188  0.12049  Biso   1.000  C
  C249     1.0000 0.02924  0.24194  0.12049  Biso   1.000  C
  H257     1.0000 0.98079  0.33979  0.99789  Biso   1.000  H
  H258     1.0000 0.98071  0.33979  0.99789  Biso   1.000  H
  O82      1.0000 0.08781  0.23844  0.17641  Biso   1.000  O
  O83      1.0000 0.08770  0.23838  0.17641  Biso   1.000  O
  O84      1.0000 0.08778  0.23838  0.17641  Biso   1.000  O
  C250     1.0000 0.97075  0.75813  0.87951  Biso   1.000  C
  O85      1.0000 0.91227  0.76163  0.82360  Biso   1.000  O
  N148     1.0000 0.93094  0.71655  0.94101  Biso   1.000  N
  N149     1.0000 0.93083  0.71648  0.94101  Biso   1.000  N
  O86      1.0000 0.91216  0.76157  0.82360  Biso   1.000  O
  N150     1.0000 0.93086  0.71655  0.94101  Biso   1.000  N
  O87      1.0000 0.91219  0.76163  0.82360  Biso   1.000  O
  N151     1.0000 0.08849  0.79232  0.89120  Biso   1.000  N
  N152     1.0000 0.08857  0.79232  0.89120  Biso   1.000  N
  C251     1.0000 0.97083  0.75813  0.87951  Biso   1.000  C
  C252     1.0000 0.81014  0.67462  0.94831  Biso   1.000  C
  C253     1.0000 0.81006  0.67462  0.94831  Biso   1.000  C
  C254     1.0000 0.02303  0.71720  0.99578  Biso   1.000  C
  C255     1.0000 0.02314  0.71727  0.99578  Biso   1.000  C
  C256     1.0000 0.02311  0.71720  0.99578  Biso   1.000  C
  C257     1.0000 0.13390  0.76698  0.95841  Biso   1.000  C
  C258     1.0000 0.16010  0.83058  0.83318  Biso   1.000  C
  C259     1.0000 0.13393  0.76705  0.95841  Biso   1.000  C
  C260     1.0000 0.16013  0.83064  0.83318  Biso   1.000  C
  H259     1.0000 0.76787  0.66570  0.89851  Biso   1.000  H
  H260     1.0000 0.79788  0.62009  0.96543  Biso   1.000  H
  H261     1.0000 0.76790  0.66577  0.89851  Biso   1.000  H
  H262     1.0000 0.79790  0.62015  0.96537  Biso   1.000  H
  H263     1.0000 0.76798  0.66577  0.89851  Biso   1.000  H
  H264     1.0000 0.79791  0.62015  0.96543  Biso   1.000  H
  H265     1.0000 0.79787  0.62008  0.96537  Biso   1.000  H
  N153     1.0000 0.76412  0.72049  0.00091  Biso   1.000  N
  N154     1.0000 0.76401  0.72043  0.00091  Biso   1.000  N
  H266     1.0000 0.01929  0.66028  0.00211  Biso   1.000  H
  N155     1.0000 0.03350  0.76387  0.06732  Biso   1.000  N
  H267     1.0000 0.01917  0.66022  0.00211  Biso   1.000  H
  N156     1.0000 0.03342  0.76387  0.06732  Biso   1.000  N
  H268     1.0000 0.01925  0.66022  0.00211  Biso   1.000  H
  N157     1.0000 0.03339  0.76381  0.06732  Biso   1.000  N
  H269     1.0000 0.17935  0.73257  0.94540  Biso   1.000  H
  H270     1.0000 0.17946  0.73263  0.94540  Biso   1.000  H
  H271     1.0000 0.17938  0.73263  0.94540  Biso   1.000  H
  N158     1.0000 0.19397  0.83445  0.01620  Biso   1.000  N
  N159     1.0000 0.19389  0.83445  0.01620  Biso   1.000  N
  H272     1.0000 0.21591  0.80401  0.82599  Biso   1.000  H
  H273     1.0000 0.11226  0.82041  0.78543  Biso   1.000  H
  N160     1.0000 0.22041  0.91941  0.85081  Biso   1.000  N
  H274     1.0000 0.21594  0.80407  0.82599  Biso   1.000  H
  H275     1.0000 0.11236  0.82046  0.78537  Biso   1.000  H
  N161     1.0000 0.22044  0.91947  0.85081  Biso   1.000  N
  H276     1.0000 0.11237  0.82047  0.78543  Biso   1.000  H
  H277     1.0000 0.11233  0.82040  0.78537  Biso   1.000  H
  C261     1.0000 0.69220  0.75871  0.97650  Biso   1.000  C
  C262     1.0000 0.75575  0.70755  0.08090  Biso   1.000  C
  C263     1.0000 0.75564  0.70749  0.08090  Biso   1.000  C
  C264     1.0000 0.96573  0.73246  0.13002  Biso   1.000  C
  C265     1.0000 0.96570  0.73239  0.13002  Biso   1.000  C
  C266     1.0000 0.13920  0.82949  0.08193  Biso   1.000  C
  C267     1.0000 0.13908  0.82942  0.08187  Biso   1.000  C
  C268     1.0000 0.13909  0.82942  0.08193  Biso   1.000  C
  C269     1.0000 0.31378  0.88405  0.01592  Biso   1.000  C
  C270     1.0000 0.31370  0.88405  0.01592  Biso   1.000  C
  C271     1.0000 0.19743  0.97782  0.81110  Biso   1.000  C
  C272     1.0000 0.33529  0.95358  0.89349  Biso   1.000  C
  C273     1.0000 0.33532  0.95364  0.89349  Biso   1.000  C
  O88      1.0000 0.67090  0.76912  0.91049  Biso   1.000  O
  N162     1.0000 0.64595  0.78338  0.03788  Biso   1.000  N
  N163     1.0000 0.64592  0.78332  0.03788  Biso   1.000  N
  C274     1.0000 0.67267  0.75227  0.10629  Biso   1.000  C
  H278     1.0000 0.72435  0.64776  0.08769  Biso   1.000  H
  N164     1.0000 0.86169  0.75137  0.13042  Biso   1.000  N
  N165     1.0000 0.86161  0.75137  0.13042  Biso   1.000  N
  C275     1.0000 0.67264  0.75221  0.10629  Biso   1.000  C
  N166     1.0000 0.86158  0.75131  0.13042  Biso   1.000  N
  C276     1.0000 0.67256  0.75221  0.10629  Biso   1.000  C
  H279     1.0000 0.72424  0.64769  0.08769  Biso   1.000  H
  H280     1.0000 0.94492  0.67224  0.12688  Biso   1.000  H
  H281     1.0000 0.94484  0.67224  0.12688  Biso   1.000  H
  H282     1.0000 0.01272  0.75663  0.17772  Biso   1.000  H
  O89      1.0000 0.17468  0.87587  0.14160  Biso   1.000  O
  O90      1.0000 0.17465  0.87581  0.14160  Biso   1.000  O
  O91      1.0000 0.17457  0.87581  0.14160  Biso   1.000  O
  H283     1.0000 0.35217  0.84907  0.99338  Biso   1.000  H
  N167     1.0000 0.33701  0.95750  0.97439  Biso   1.000  N
  H284     1.0000 0.35220  0.84914  0.99338  Biso   1.000  H
  N168     1.0000 0.33704  0.95756  0.97439  Biso   1.000  N
  H285     1.0000 0.34686  0.90235  0.06818  Biso   1.000  H
  H286     1.0000 0.34678  0.90235  0.06818  Biso   1.000  H
  O92      1.0000 0.11352  0.96370  0.76740  Biso   1.000  O
  O93      1.0000 0.11356  0.96376  0.76740  Biso   1.000  O
  N169     1.0000 0.28615  0.05433  0.82942  Biso   1.000  N
  N170     1.0000 0.28604  0.05427  0.82942  Biso   1.000  N
  H287     1.0000 0.38557  0.92542  0.87437  Biso   1.000  H
  H288     1.0000 0.38565  0.92542  0.87437  Biso   1.000  H
  C277     1.0000 0.37869  0.04690  0.87683  Biso   1.000  C
  C278     1.0000 0.37868  0.04689  0.87677  Biso   1.000  C
  C279     1.0000 0.37857  0.04683  0.87677  Biso   1.000  C
  C280     1.0000 0.55900  0.81934  0.02961  Biso   1.000  C
  C281     1.0000 0.55892  0.81934  0.02961  Biso   1.000  C
  H289     1.0000 0.60334  0.71326  0.12512  Biso   1.000  H
  N171     1.0000 0.74490  0.81456  0.16671  Biso   1.000  N
  N172     1.0000 0.74482  0.81456  0.16671  Biso   1.000  N
  H290     1.0000 0.60323  0.71320  0.12512  Biso   1.000  H
  N173     1.0000 0.74479  0.81450  0.16671  Biso   1.000  N
  C282     1.0000 0.85185  0.81234  0.17852  Biso   1.000  C
  C283     1.0000 0.85177  0.81234  0.17852  Biso   1.000  C
  C284     1.0000 0.37672  0.03783  0.00810  Biso   1.000  C
  C285     1.0000 0.37661  0.03776  0.00810  Biso   1.000  C
  C286     1.0000 0.29369  0.12613  0.79022  Biso   1.000  C
  C287     1.0000 0.29366  0.12607  0.79022  Biso   1.000  C
  C288     1.0000 0.29358  0.12607  0.79022  Biso   1.000  C
  H291     1.0000 0.45001  0.06203  0.85138  Biso   1.000  H
  N174     1.0000 0.39760  0.09121  0.95322  Biso   1.000  N
  H292     1.0000 0.44990  0.06196  0.85138  Biso   1.000  H
  H293     1.0000 0.44998  0.06196  0.85138  Biso   1.000  H
  N175     1.0000 0.39749  0.09115  0.95322  Biso   1.000  N
  H294     1.0000 0.52331  0.80511  0.97758  Biso   1.000  H
  H295     1.0000 0.49967  0.79475  0.06299  Biso   1.000  H
  N176     1.0000 0.60248  0.90886  0.04678  Biso   1.000  N
  H296     1.0000 0.49959  0.79475  0.06299  Biso   1.000  H
  N177     1.0000 0.60237  0.90880  0.04678  Biso   1.000  N
  C289     1.0000 0.70638  0.87394  0.20978  Biso   1.000  C
  C290     1.0000 0.70630  0.87394  0.20978  Biso   1.000  C
  O94      1.0000 0.92687  0.85743  0.22718  Biso   1.000  O
  O95      1.0000 0.92679  0.85743  0.22718  Biso   1.000  O
  O96      1.0000 0.39367  0.05819  0.07788  Biso   1.000  O
  O97      1.0000 0.39370  0.05825  0.07788  Biso   1.000  O
  H297     1.0000 0.37300  0.15443  0.77990  Biso   1.000  H
  H298     1.0000 0.24732  0.10721  0.74173  Biso   1.000  H
  N178     1.0000 0.25518  0.18551  0.83330  Biso   1.000  N
  H299     1.0000 0.37297  0.15437  0.77990  Biso   1.000  H
  H300     1.0000 0.24731  0.10721  0.74167  Biso   1.000  H
  H301     1.0000 0.37289  0.15437  0.77990  Biso   1.000  H
  H302     1.0000 0.24720  0.10715  0.74167  Biso   1.000  H
  N179     1.0000 0.25507  0.18545  0.83330  Biso   1.000  N
  C291     1.0000 0.44108  0.18073  0.97039  Biso   1.000  C
  C292     1.0000 0.44105  0.18067  0.97039  Biso   1.000  C
  C293     1.0000 0.62335  0.96224  0.99190  Biso   1.000  C
  C294     1.0000 0.62324  0.96218  0.99190  Biso   1.000  C
  C295     1.0000 0.62327  0.96224  0.99190  Biso   1.000  C
  C296     1.0000 0.62139  0.95317  0.12318  Biso   1.000  C
  C297     1.0000 0.62131  0.95317  0.12318  Biso   1.000  C
  C298     1.0000 0.62128  0.95311  0.12318  Biso   1.000  C
  H303     1.0000 0.62708  0.84564  0.22011  Biso   1.000  H
  H304     1.0000 0.75276  0.89286  0.25827  Biso   1.000  H
  N180     1.0000 0.71393  0.94574  0.17059  Biso   1.000  N
  H305     1.0000 0.62700  0.84564  0.22011  Biso   1.000  H
  H306     1.0000 0.75265  0.89279  0.25827  Biso   1.000  H
  C299     1.0000 0.14823  0.18773  0.82149  Biso   1.000  C
  C300     1.0000 0.32741  0.24780  0.89371  Biso   1.000  C
  C301     1.0000 0.14812  0.18767  0.82149  Biso   1.000  C
  C302     1.0000 0.32730  0.24774  0.89371  Biso   1.000  C
  H307     1.0000 0.50041  0.20532  0.93702  Biso   1.000  H
  N181     1.0000 0.35413  0.21669  0.96212  Biso   1.000  N
  H308     1.0000 0.50038  0.20526  0.93702  Biso   1.000  H
  N182     1.0000 0.35405  0.21669  0.96212  Biso   1.000  N
  H309     1.0000 0.50030  0.20526  0.93702  Biso   1.000  H
  H310     1.0000 0.47666  0.19489  0.02242  Biso   1.000  H
  H311     1.0000 0.47677  0.19496  0.02242  Biso   1.000  H
  O98      1.0000 0.60630  0.94182  0.92213  Biso   1.000  O
  O99      1.0000 0.60637  0.94181  0.92207  Biso   1.000  O
  O100     1.0000 0.60638  0.94182  0.92213  Biso   1.000  O
  O101     1.0000 0.60629  0.94181  0.92207  Biso   1.000  O
  N183     1.0000 0.66296  0.04250  0.02562  Biso   1.000  N
  H312     1.0000 0.55007  0.93804  0.14862  Biso   1.000  H
  H313     1.0000 0.54999  0.93804  0.14862  Biso   1.000  H
  C303     1.0000 0.66468  0.04643  0.10652  Biso   1.000  C
  C304     1.0000 0.66465  0.04637  0.10652  Biso   1.000  C
  C305     1.0000 0.80254  0.02219  0.18890  Biso   1.000  C
  C306     1.0000 0.80257  0.02225  0.18890  Biso   1.000  C
  N184     1.0000 0.13838  0.24870  0.86958  Biso   1.000  N
  O102     1.0000 0.07320  0.14264  0.77282  Biso   1.000  O
  O103     1.0000 0.07317  0.14258  0.77282  Biso   1.000  O
  N185     1.0000 0.13827  0.24863  0.86958  Biso   1.000  N
  O104     1.0000 0.07309  0.14258  0.77282  Biso   1.000  O
  H314     1.0000 0.39674  0.28681  0.87489  Biso   1.000  H
  C307     1.0000 0.24433  0.29252  0.91910  Biso   1.000  C
  H315     1.0000 0.39666  0.28681  0.87489  Biso   1.000  H
  C308     1.0000 0.24425  0.29252  0.91910  Biso   1.000  C
  C309     1.0000 0.24422  0.29246  0.91910  Biso   1.000  C
  H316     1.0000 0.39663  0.28675  0.87489  Biso   1.000  H
  C310     1.0000 0.30777  0.24129  0.02351  Biso   1.000  C
  C311     1.0000 0.30780  0.24136  0.02351  Biso   1.000  C
  C312     1.0000 0.68630  0.11602  0.98408  Biso   1.000  C
  C313     1.0000 0.68627  0.11596  0.98408  Biso   1.000  C
  C314     1.0000 0.68619  0.11596  0.98408  Biso   1.000  C
  H317     1.0000 0.61439  0.07459  0.12563  Biso   1.000  H
  N186     1.0000 0.77956  0.08060  0.14919  Biso   1.000  N
  H318     1.0000 0.61431  0.07458  0.12557  Biso   1.000  H
  H319     1.0000 0.61431  0.07459  0.12563  Biso   1.000  H
  H320     1.0000 0.61442  0.07464  0.12557  Biso   1.000  H
  O105     1.0000 0.88644  0.03631  0.23260  Biso   1.000  O
  C315     1.0000 0.03435  0.26761  0.86998  Biso   1.000  C
  C316     1.0000 0.03427  0.26761  0.86998  Biso   1.000  C
  C317     1.0000 0.03424  0.26755  0.86998  Biso   1.000  C
  H321     1.0000 0.27573  0.35231  0.91231  Biso   1.000  H
  N187     1.0000 0.23596  0.27958  0.99909  Biso   1.000  N
  H322     1.0000 0.27565  0.35231  0.91231  Biso   1.000  H
  H323     1.0000 0.27562  0.35225  0.91231  Biso   1.000  H
  O106     1.0000 0.32906  0.23088  0.08952  Biso   1.000  O
  O107     1.0000 0.32910  0.23095  0.08952  Biso   1.000  O
  H324     1.0000 0.65322  0.09772  0.93182  Biso   1.000  H
  N188     1.0000 0.80611  0.16562  0.98380  Biso   1.000  N
  H325     1.0000 0.65314  0.09772  0.93182  Biso   1.000  H
  N189     1.0000 0.80607  0.16556  0.98380  Biso   1.000  N
  H326     1.0000 0.65311  0.09766  0.93182  Biso   1.000  H
  N190     1.0000 0.80599  0.16556  0.98380  Biso   1.000  N
  H327     1.0000 0.64780  0.15093  0.00662  Biso   1.000  H
  H328     1.0000 0.64777  0.15087  0.00662  Biso   1.000  H
  C318     1.0000 0.83987  0.16943  0.16682  Biso   1.000  C
  C319     1.0000 0.83984  0.16937  0.16682  Biso   1.000  C
  H329     1.0000 0.98736  0.24344  0.82229  Biso   1.000  H
  N191     1.0000 0.96658  0.23620  0.93268  Biso   1.000  N
  H330     1.0000 0.98725  0.24337  0.82229  Biso   1.000  H
  N192     1.0000 0.96647  0.23614  0.93268  Biso   1.000  N
  H331     1.0000 0.05515  0.32783  0.87312  Biso   1.000  H
  H332     1.0000 0.05504  0.32777  0.87312  Biso   1.000  H
  C320     1.0000 0.18991  0.32539  0.05169  Biso   1.000  C
  C321     1.0000 0.18983  0.32539  0.05169  Biso   1.000  C
  C322     1.0000 0.18994  0.32545  0.05169  Biso   1.000  C
  C323     1.0000 0.86088  0.17058  0.91808  Biso   1.000  C
  C324     1.0000 0.86080  0.17058  0.91808  Biso   1.000  C
  C325     1.0000 0.86607  0.23302  0.04159  Biso   1.000  C
  C326     1.0000 0.86604  0.23296  0.04159  Biso   1.000  C
  C327     1.0000 0.86615  0.23302  0.04159  Biso   1.000  C
  H333     1.0000 0.78406  0.19600  0.17401  Biso   1.000  H
  H334     1.0000 0.88771  0.17960  0.21457  Biso   1.000  H
  N193     1.0000 0.91148  0.20768  0.10880  Biso   1.000  N
  H335     1.0000 0.88763  0.17960  0.21457  Biso   1.000  H
  H336     1.0000 0.78409  0.19606  0.17401  Biso   1.000  H
  N194     1.0000 0.91151  0.20775  0.10880  Biso   1.000  N
  C328     1.0000 0.97693  0.28280  0.00422  Biso   1.000  C
  C329     1.0000 0.97685  0.28280  0.00422  Biso   1.000  C
  H337     1.0000 0.23209  0.33430  0.10150  Biso   1.000  H
  H338     1.0000 0.20209  0.37992  0.03457  Biso   1.000  H
  N195     1.0000 0.06914  0.28352  0.05899  Biso   1.000  N
  N196     1.0000 0.06902  0.28346  0.05899  Biso   1.000  N
  H339     1.0000 0.20206  0.37986  0.03457  Biso   1.000  H
  O108     1.0000 0.82540  0.12420  0.85840  Biso   1.000  O
  O109     1.0000 0.82529  0.12413  0.85840  Biso   1.000  O
  H340     1.0000 0.82062  0.26744  0.05460  Biso   1.000  H
  H341     1.0000 0.82051  0.26738  0.05460  Biso   1.000  H
  H342     1.0000 0.82059  0.26738  0.05460  Biso   1.000  H
  C330     1.0000 0.02921  0.24188  0.12049  Biso   1.000  C
  C331     1.0000 0.02913  0.24188  0.12049  Biso   1.000  C
  C332     1.0000 0.02924  0.24194  0.12049  Biso   1.000  C
  H343     1.0000 0.98079  0.33979  0.99789  Biso   1.000  H
  H344     1.0000 0.98071  0.33979  0.99789  Biso   1.000  H
  O110     1.0000 0.08781  0.23844  0.17641  Biso   1.000  O
  O111     1.0000 0.08770  0.23838  0.17641  Biso   1.000  O
  O112     1.0000 0.08778  0.23838  0.17641  Biso   1.000  O
  C333     1.0000 0.97075  0.75813  0.87951  Biso   1.000  C
  N197     1.0000 0.93083  0.71648  0.94101  Biso   1.000  N
  N198     1.0000 0.93094  0.71655  0.94101  Biso   1.000  N
  N199     1.0000 0.93086  0.71655  0.94101  Biso   1.000  N
  O113     1.0000 0.91216  0.76157  0.82360  Biso   1.000  O
  O114     1.0000 0.91227  0.76163  0.82360  Biso   1.000  O
  O115     1.0000 0.91219  0.76163  0.82360  Biso   1.000  O
  N200     1.0000 0.08849  0.79232  0.89120  Biso   1.000  N
  N201     1.0000 0.08857  0.79232  0.89120  Biso   1.000  N
  C334     1.0000 0.81006  0.67462  0.94831  Biso   1.000  C
  C335     1.0000 0.81014  0.67462  0.94831  Biso   1.000  C
  C336     1.0000 0.97083  0.75813  0.87951  Biso   1.000  C
  C337     1.0000 0.02303  0.71720  0.99578  Biso   1.000  C
  C338     1.0000 0.02314  0.71727  0.99578  Biso   1.000  C
  C339     1.0000 0.02311  0.71720  0.99578  Biso   1.000  C
  C340     1.0000 0.13390  0.76698  0.95841  Biso   1.000  C
  C341     1.0000 0.13393  0.76705  0.95841  Biso   1.000  C
  C342     1.0000 0.16010  0.83058  0.83318  Biso   1.000  C
  C343     1.0000 0.16013  0.83064  0.83318  Biso   1.000  C
  N202     1.0000 0.76412  0.72049  0.00091  Biso   1.000  N
  N203     1.0000 0.76401  0.72043  0.00091  Biso   1.000  N
  H345     1.0000 0.76787  0.66570  0.89851  Biso   1.000  H
  H346     1.0000 0.79788  0.62009  0.96543  Biso   1.000  H
  H347     1.0000 0.76790  0.66577  0.89851  Biso   1.000  H
  H348     1.0000 0.79790  0.62015  0.96537  Biso   1.000  H
  H349     1.0000 0.76798  0.66577  0.89851  Biso   1.000  H
  H350     1.0000 0.79791  0.62015  0.96543  Biso   1.000  H
  H351     1.0000 0.79787  0.62008  0.96537  Biso   1.000  H
  H352     1.0000 0.01929  0.66028  0.00211  Biso   1.000  H
  N204     1.0000 0.03350  0.76387  0.06732  Biso   1.000  N
  H353     1.0000 0.01917  0.66022  0.00211  Biso   1.000  H
  N205     1.0000 0.03342  0.76387  0.06732  Biso   1.000  N
  H354     1.0000 0.01925  0.66022  0.00211  Biso   1.000  H
  N206     1.0000 0.03339  0.76381  0.06732  Biso   1.000  N
  H355     1.0000 0.17935  0.73257  0.94540  Biso   1.000  H
  H356     1.0000 0.17946  0.73263  0.94540  Biso   1.000  H
  H357     1.0000 0.17938  0.73263  0.94540  Biso   1.000  H
  N207     1.0000 0.19397  0.83445  0.01620  Biso   1.000  N
  N208     1.0000 0.19389  0.83445  0.01620  Biso   1.000  N
  H358     1.0000 0.21591  0.80401  0.82599  Biso   1.000  H
  H359     1.0000 0.11226  0.82041  0.78543  Biso   1.000  H
  N209     1.0000 0.22041  0.91941  0.85081  Biso   1.000  N
  H360     1.0000 0.21594  0.80407  0.82599  Biso   1.000  H
  H361     1.0000 0.11236  0.82046  0.78537  Biso   1.000  H
  N210     1.0000 0.22044  0.91947  0.85081  Biso   1.000  N
  H362     1.0000 0.11237  0.82047  0.78543  Biso   1.000  H
  H363     1.0000 0.11233  0.82040  0.78537  Biso   1.000  H
  C344     1.0000 0.69220  0.75871  0.97650  Biso   1.000  C
  C345     1.0000 0.75575  0.70755  0.08090  Biso   1.000  C
  C346     1.0000 0.75564  0.70749  0.08090  Biso   1.000  C
  C347     1.0000 0.96573  0.73246  0.13002  Biso   1.000  C
  C348     1.0000 0.96570  0.73239  0.13002  Biso   1.000  C
  C349     1.0000 0.13920  0.82949  0.08193  Biso   1.000  C
  C350     1.0000 0.13908  0.82942  0.08187  Biso   1.000  C
  C351     1.0000 0.13909  0.82942  0.08193  Biso   1.000  C
  C352     1.0000 0.31378  0.88405  0.01592  Biso   1.000  C
  C353     1.0000 0.31370  0.88405  0.01592  Biso   1.000  C
  C354     1.0000 0.19743  0.97782  0.81110  Biso   1.000  C
  C355     1.0000 0.33529  0.95358  0.89349  Biso   1.000  C
  C356     1.0000 0.33532  0.95364  0.89349  Biso   1.000  C
  O116     1.0000 0.67090  0.76912  0.91049  Biso   1.000  O
  N211     1.0000 0.64595  0.78338  0.03788  Biso   1.000  N
  N212     1.0000 0.64592  0.78332  0.03788  Biso   1.000  N
  C357     1.0000 0.67267  0.75227  0.10629  Biso   1.000  C
  C358     1.0000 0.67264  0.75221  0.10629  Biso   1.000  C
  C359     1.0000 0.67256  0.75221  0.10629  Biso   1.000  C
  H364     1.0000 0.72435  0.64776  0.08769  Biso   1.000  H
  N213     1.0000 0.86169  0.75137  0.13042  Biso   1.000  N
  N214     1.0000 0.86161  0.75137  0.13042  Biso   1.000  N
  N215     1.0000 0.86158  0.75131  0.13042  Biso   1.000  N
  H365     1.0000 0.72424  0.64769  0.08769  Biso   1.000  H
  H366     1.0000 0.94492  0.67224  0.12688  Biso   1.000  H
  H367     1.0000 0.94484  0.67224  0.12688  Biso   1.000  H
  H368     1.0000 0.01272  0.75663  0.17772  Biso   1.000  H
  O117     1.0000 0.17468  0.87587  0.14160  Biso   1.000  O
  O118     1.0000 0.17465  0.87581  0.14160  Biso   1.000  O
  O119     1.0000 0.17457  0.87581  0.14160  Biso   1.000  O
  H369     1.0000 0.35217  0.84907  0.99338  Biso   1.000  H
  N216     1.0000 0.33701  0.95750  0.97439  Biso   1.000  N
  H370     1.0000 0.35220  0.84914  0.99338  Biso   1.000  H
  N217     1.0000 0.33704  0.95756  0.97439  Biso   1.000  N
  H371     1.0000 0.34686  0.90235  0.06818  Biso   1.000  H
  H372     1.0000 0.34678  0.90235  0.06818  Biso   1.000  H
  O120     1.0000 0.11352  0.96370  0.76740  Biso   1.000  O
  O121     1.0000 0.11356  0.96376  0.76740  Biso   1.000  O
  N218     1.0000 0.28615  0.05433  0.82942  Biso   1.000  N
  N219     1.0000 0.28604  0.05427  0.82942  Biso   1.000  N
  H373     1.0000 0.38557  0.92542  0.87437  Biso   1.000  H
  H374     1.0000 0.38565  0.92542  0.87437  Biso   1.000  H
  C360     1.0000 0.37869  0.04690  0.87683  Biso   1.000  C
  C361     1.0000 0.37868  0.04689  0.87677  Biso   1.000  C
  C362     1.0000 0.37857  0.04683  0.87677  Biso   1.000  C
  C363     1.0000 0.55900  0.81934  0.02961  Biso   1.000  C
  C364     1.0000 0.55892  0.81934  0.02961  Biso   1.000  C
  H375     1.0000 0.60334  0.71326  0.12512  Biso   1.000  H
  N220     1.0000 0.74490  0.81456  0.16671  Biso   1.000  N
  N221     1.0000 0.74482  0.81456  0.16671  Biso   1.000  N
  H376     1.0000 0.60323  0.71320  0.12512  Biso   1.000  H
  N222     1.0000 0.74479  0.81450  0.16671  Biso   1.000  N
  C365     1.0000 0.85185  0.81234  0.17852  Biso   1.000  C
  C366     1.0000 0.85177  0.81234  0.17852  Biso   1.000  C
  C367     1.0000 0.37672  0.03783  0.00810  Biso   1.000  C
  C368     1.0000 0.37661  0.03776  0.00810  Biso   1.000  C
  C369     1.0000 0.29369  0.12613  0.79022  Biso   1.000  C
  C370     1.0000 0.29366  0.12607  0.79022  Biso   1.000  C
  C371     1.0000 0.29358  0.12607  0.79022  Biso   1.000  C
  H377     1.0000 0.45001  0.06203  0.85138  Biso   1.000  H
  N223     1.0000 0.39760  0.09121  0.95322  Biso   1.000  N
  H378     1.0000 0.44990  0.06196  0.85138  Biso   1.000  H
  H379     1.0000 0.44998  0.06196  0.85138  Biso   1.000  H
  N224     1.0000 0.39749  0.09115  0.95322  Biso   1.000  N
  H380     1.0000 0.52331  0.80511  0.97758  Biso   1.000  H
  H381     1.0000 0.49967  0.79475  0.06299  Biso   1.000  H
  N225     1.0000 0.60248  0.90886  0.04678  Biso   1.000  N
  H382     1.0000 0.49959  0.79475  0.06299  Biso   1.000  H
  N226     1.0000 0.60237  0.90880  0.04678  Biso   1.000  N
  C372     1.0000 0.70638  0.87394  0.20978  Biso   1.000  C
  C373     1.0000 0.70630  0.87394  0.20978  Biso   1.000  C
  O122     1.0000 0.92687  0.85743  0.22718  Biso   1.000  O
  O123     1.0000 0.92679  0.85743  0.22718  Biso   1.000  O
  O124     1.0000 0.39367  0.05819  0.07788  Biso   1.000  O
  O125     1.0000 0.39370  0.05825  0.07788  Biso   1.000  O
  H383     1.0000 0.37300  0.15443  0.77990  Biso   1.000  H
  H384     1.0000 0.24732  0.10721  0.74173  Biso   1.000  H
  N227     1.0000 0.25518  0.18551  0.83330  Biso   1.000  N
  H385     1.0000 0.37297  0.15437  0.77990  Biso   1.000  H
  H386     1.0000 0.24731  0.10721  0.74167  Biso   1.000  H
  H387     1.0000 0.37289  0.15437  0.77990  Biso   1.000  H
  H388     1.0000 0.24720  0.10715  0.74167  Biso   1.000  H
  N228     1.0000 0.25507  0.18545  0.83330  Biso   1.000  N
  C374     1.0000 0.44108  0.18073  0.97039  Biso   1.000  C
  C375     1.0000 0.44105  0.18067  0.97039  Biso   1.000  C
  C376     1.0000 0.62324  0.96218  0.99190  Biso   1.000  C
  C377     1.0000 0.62335  0.96224  0.99190  Biso   1.000  C
  C378     1.0000 0.62327  0.96224  0.99190  Biso   1.000  C
  C379     1.0000 0.62139  0.95317  0.12318  Biso   1.000  C
  C380     1.0000 0.62131  0.95317  0.12318  Biso   1.000  C
  C381     1.0000 0.62128  0.95311  0.12318  Biso   1.000  C
  H389     1.0000 0.62708  0.84564  0.22011  Biso   1.000  H
  H390     1.0000 0.75276  0.89286  0.25827  Biso   1.000  H
  N229     1.0000 0.71393  0.94574  0.17059  Biso   1.000  N
  H391     1.0000 0.62700  0.84564  0.22011  Biso   1.000  H
  H392     1.0000 0.75265  0.89279  0.25827  Biso   1.000  H
  C382     1.0000 0.14823  0.18773  0.82149  Biso   1.000  C
  C383     1.0000 0.32741  0.24780  0.89371  Biso   1.000  C
  C384     1.0000 0.14812  0.18767  0.82149  Biso   1.000  C
  C385     1.0000 0.32730  0.24774  0.89371  Biso   1.000  C
  H393     1.0000 0.50041  0.20532  0.93702  Biso   1.000  H
  N230     1.0000 0.35413  0.21669  0.96212  Biso   1.000  N
  H394     1.0000 0.50038  0.20526  0.93702  Biso   1.000  H
  N231     1.0000 0.35405  0.21669  0.96212  Biso   1.000  N
  H395     1.0000 0.50030  0.20526  0.93702  Biso   1.000  H
  H396     1.0000 0.47666  0.19489  0.02242  Biso   1.000  H
  H397     1.0000 0.47677  0.19496  0.02242  Biso   1.000  H
  O126     1.0000 0.60630  0.94182  0.92213  Biso   1.000  O
  O127     1.0000 0.60637  0.94181  0.92207  Biso   1.000  O
  O128     1.0000 0.60638  0.94182  0.92213  Biso   1.000  O
  O129     1.0000 0.60629  0.94181  0.92207  Biso   1.000  O
  N232     1.0000 0.66296  0.04250  0.02562  Biso   1.000  N
  H398     1.0000 0.55007  0.93804  0.14862  Biso   1.000  H
  H399     1.0000 0.54999  0.93804  0.14862  Biso   1.000  H
  C386     1.0000 0.66468  0.04643  0.10652  Biso   1.000  C
  C387     1.0000 0.66465  0.04637  0.10652  Biso   1.000  C
  C388     1.0000 0.80254  0.02219  0.18890  Biso   1.000  C
  C389     1.0000 0.80257  0.02225  0.18890  Biso   1.000  C
  N233     1.0000 0.13838  0.24870  0.86958  Biso   1.000  N
  N234     1.0000 0.13827  0.24863  0.86958  Biso   1.000  N
  O130     1.0000 0.07320  0.14264  0.77282  Biso   1.000  O
  O131     1.0000 0.07317  0.14258  0.77282  Biso   1.000  O
  O132     1.0000 0.07309  0.14258  0.77282  Biso   1.000  O
  C390     1.0000 0.24433  0.29252  0.91910  Biso   1.000  C
  C391     1.0000 0.24425  0.29252  0.91910  Biso   1.000  C
  C392     1.0000 0.24422  0.29246  0.91910  Biso   1.000  C
  H400     1.0000 0.39674  0.28681  0.87489  Biso   1.000  H
  H401     1.0000 0.39666  0.28681  0.87489  Biso   1.000  H
  H402     1.0000 0.39663  0.28675  0.87489  Biso   1.000  H
  C393     1.0000 0.30777  0.24129  0.02351  Biso   1.000  C
  C394     1.0000 0.30780  0.24136  0.02351  Biso   1.000  C
  C395     1.0000 0.68630  0.11602  0.98408  Biso   1.000  C
  C396     1.0000 0.68627  0.11596  0.98408  Biso   1.000  C
  C397     1.0000 0.68619  0.11596  0.98408  Biso   1.000  C
  H403     1.0000 0.61439  0.07459  0.12563  Biso   1.000  H
  N235     1.0000 0.77956  0.08060  0.14919  Biso   1.000  N
  H404     1.0000 0.61431  0.07458  0.12557  Biso   1.000  H
  H405     1.0000 0.61431  0.07459  0.12563  Biso   1.000  H
  H406     1.0000 0.61442  0.07464  0.12557  Biso   1.000  H
  O133     1.0000 0.88644  0.03631  0.23260  Biso   1.000  O
  C398     1.0000 0.03435  0.26761  0.86998  Biso   1.000  C
  C399     1.0000 0.03427  0.26761  0.86998  Biso   1.000  C
  C400     1.0000 0.03424  0.26755  0.86998  Biso   1.000  C
  N236     1.0000 0.23596  0.27958  0.99909  Biso   1.000  N
  H407     1.0000 0.27573  0.35231  0.91231  Biso   1.000  H
  H408     1.0000 0.27565  0.35231  0.91231  Biso   1.000  H
  H409     1.0000 0.27562  0.35225  0.91231  Biso   1.000  H
  O134     1.0000 0.32906  0.23088  0.08952  Biso   1.000  O
  O135     1.0000 0.32910  0.23095  0.08952  Biso   1.000  O
  H410     1.0000 0.65322  0.09772  0.93182  Biso   1.000  H
  N237     1.0000 0.80611  0.16562  0.98380  Biso   1.000  N
  H411     1.0000 0.65314  0.09772  0.93182  Biso   1.000  H
  N238     1.0000 0.80607  0.16556  0.98380  Biso   1.000  N
  H412     1.0000 0.65311  0.09766  0.93182  Biso   1.000  H
  N239     1.0000 0.80599  0.16556  0.98380  Biso   1.000  N
  H413     1.0000 0.64780  0.15093  0.00662  Biso   1.000  H
  H414     1.0000 0.64777  0.15087  0.00662  Biso   1.000  H
  C401     1.0000 0.83987  0.16943  0.16682  Biso   1.000  C
  C402     1.0000 0.83984  0.16937  0.16682  Biso   1.000  C
  N240     1.0000 0.96658  0.23620  0.93268  Biso   1.000  N
  N241     1.0000 0.96647  0.23614  0.93268  Biso   1.000  N
  H415     1.0000 0.98736  0.24344  0.82229  Biso   1.000  H
  H416     1.0000 0.98725  0.24337  0.82229  Biso   1.000  H
  H417     1.0000 0.05515  0.32783  0.87312  Biso   1.000  H
  H418     1.0000 0.05504  0.32777  0.87312  Biso   1.000  H
  C403     1.0000 0.18991  0.32539  0.05169  Biso   1.000  C
  C404     1.0000 0.18983  0.32539  0.05169  Biso   1.000  C
  C405     1.0000 0.18994  0.32545  0.05169  Biso   1.000  C
  C406     1.0000 0.86088  0.17058  0.91808  Biso   1.000  C
  C407     1.0000 0.86080  0.17058  0.91808  Biso   1.000  C
  C408     1.0000 0.86607  0.23302  0.04159  Biso   1.000  C
  C409     1.0000 0.86604  0.23296  0.04159  Biso   1.000  C
  C410     1.0000 0.86615  0.23302  0.04159  Biso   1.000  C
  H419     1.0000 0.78406  0.19600  0.17401  Biso   1.000  H
  H420     1.0000 0.88771  0.17960  0.21457  Biso   1.000  H
  N242     1.0000 0.91148  0.20768  0.10880  Biso   1.000  N
  H421     1.0000 0.88763  0.17960  0.21457  Biso   1.000  H
  H422     1.0000 0.78409  0.19606  0.17401  Biso   1.000  H
  N243     1.0000 0.91151  0.20775  0.10880  Biso   1.000  N
  C411     1.0000 0.97693  0.28280  0.00422  Biso   1.000  C
  C412     1.0000 0.97685  0.28280  0.00422  Biso   1.000  C
  N244     1.0000 0.06914  0.28352  0.05899  Biso   1.000  N
  N245     1.0000 0.06902  0.28346  0.05899  Biso   1.000  N
  H423     1.0000 0.23209  0.33430  0.10150  Biso   1.000  H
  H424     1.0000 0.20209  0.37992  0.03457  Biso   1.000  H
  H425     1.0000 0.20206  0.37986  0.03457  Biso   1.000  H
  O136     1.0000 0.82540  0.12420  0.85840  Biso   1.000  O
  O137     1.0000 0.82529  0.12413  0.85840  Biso   1.000  O
  H426     1.0000 0.82062  0.26744  0.05460  Biso   1.000  H
  H427     1.0000 0.82051  0.26738  0.05460  Biso   1.000  H
  H428     1.0000 0.82059  0.26738  0.05460  Biso   1.000  H
  C413     1.0000 0.02921  0.24188  0.12049  Biso   1.000  C
  C414     1.0000 0.02913  0.24188  0.12049  Biso   1.000  C
  C415     1.0000 0.02924  0.24194  0.12049  Biso   1.000  C
  H429     1.0000 0.98079  0.33979  0.99789  Biso   1.000  H
  H430     1.0000 0.98071  0.33979  0.99789  Biso   1.000  H
  O138     1.0000 0.08781  0.23844  0.17641  Biso   1.000  O
  O139     1.0000 0.08770  0.23838  0.17641  Biso   1.000  O
  O140     1.0000 0.08778  0.23838  0.17641  Biso   1.000  O
  C416     1.0000 0.97075  0.75813  0.87951  Biso   1.000  C
  N246     1.0000 0.93083  0.71648  0.94101  Biso   1.000  N
  N247     1.0000 0.93094  0.71655  0.94101  Biso   1.000  N
  N248     1.0000 0.93086  0.71655  0.94101  Biso   1.000  N
  O141     1.0000 0.91216  0.76157  0.82360  Biso   1.000  O
  O142     1.0000 0.91227  0.76163  0.82360  Biso   1.000  O
  O143     1.0000 0.91219  0.76163  0.82360  Biso   1.000  O
  N249     1.0000 0.08849  0.79232  0.89120  Biso   1.000  N
  N250     1.0000 0.08857  0.79232  0.89120  Biso   1.000  N
  C417     1.0000 0.81006  0.67462  0.94831  Biso   1.000  C
  C418     1.0000 0.81014  0.67462  0.94831  Biso   1.000  C
  C419     1.0000 0.97083  0.75813  0.87951  Biso   1.000  C
  C420     1.0000 0.02303  0.71720  0.99578  Biso   1.000  C
  C421     1.0000 0.02314  0.71727  0.99578  Biso   1.000  C
  C422     1.0000 0.02311  0.71720  0.99578  Biso   1.000  C
  C423     1.0000 0.13390  0.76698  0.95841  Biso   1.000  C
  C424     1.0000 0.13393  0.76705  0.95841  Biso   1.000  C
  C425     1.0000 0.16010  0.83058  0.83318  Biso   1.000  C
  C426     1.0000 0.16013  0.83064  0.83318  Biso   1.000  C
  N251     1.0000 0.76412  0.72049  0.00091  Biso   1.000  N
  N252     1.0000 0.76401  0.72043  0.00091  Biso   1.000  N
  H431     1.0000 0.76787  0.66570  0.89851  Biso   1.000  H
  H432     1.0000 0.79788  0.62009  0.96543  Biso   1.000  H
  H433     1.0000 0.76790  0.66577  0.89851  Biso   1.000  H
  H434     1.0000 0.79790  0.62015  0.96537  Biso   1.000  H
  H435     1.0000 0.76798  0.66577  0.89851  Biso   1.000  H
  H436     1.0000 0.79791  0.62015  0.96543  Biso   1.000  H
  H437     1.0000 0.79787  0.62008  0.96537  Biso   1.000  H
  H438     1.0000 0.01929  0.66028  0.00211  Biso   1.000  H
  N253     1.0000 0.03350  0.76387  0.06732  Biso   1.000  N
  H439     1.0000 0.01917  0.66022  0.00211  Biso   1.000  H
  N254     1.0000 0.03342  0.76387  0.06732  Biso   1.000  N
  H440     1.0000 0.01925  0.66022  0.00211  Biso   1.000  H
  N255     1.0000 0.03339  0.76381  0.06732  Biso   1.000  N
  H441     1.0000 0.17935  0.73257  0.94540  Biso   1.000  H
  H442     1.0000 0.17946  0.73263  0.94540  Biso   1.000  H
  H443     1.0000 0.17938  0.73263  0.94540  Biso   1.000  H
  N256     1.0000 0.19397  0.83445  0.01620  Biso   1.000  N
  N257     1.0000 0.19389  0.83445  0.01620  Biso   1.000  N
  H444     1.0000 0.21591  0.80401  0.82599  Biso   1.000  H
  H445     1.0000 0.11226  0.82041  0.78543  Biso   1.000  H
  N258     1.0000 0.22041  0.91941  0.85081  Biso   1.000  N
  H446     1.0000 0.21594  0.80407  0.82599  Biso   1.000  H
  H447     1.0000 0.11236  0.82046  0.78537  Biso   1.000  H
  N259     1.0000 0.22044  0.91947  0.85081  Biso   1.000  N
  H448     1.0000 0.11237  0.82047  0.78543  Biso   1.000  H
  H449     1.0000 0.11233  0.82040  0.78537  Biso   1.000  H
  C427     1.0000 0.69220  0.75871  0.97650  Biso   1.000  C
  C428     1.0000 0.75575  0.70755  0.08090  Biso   1.000  C
  C429     1.0000 0.75564  0.70749  0.08090  Biso   1.000  C
  C430     1.0000 0.96573  0.73246  0.13002  Biso   1.000  C
  C431     1.0000 0.96570  0.73239  0.13002  Biso   1.000  C
  C432     1.0000 0.13920  0.82949  0.08193  Biso   1.000  C
  C433     1.0000 0.13908  0.82942  0.08187  Biso   1.000  C
  C434     1.0000 0.13909  0.82942  0.08193  Biso   1.000  C
  C435     1.0000 0.31378  0.88405  0.01592  Biso   1.000  C
  C436     1.0000 0.31370  0.88405  0.01592  Biso   1.000  C
  C437     1.0000 0.19743  0.97782  0.81110  Biso   1.000  C
  C438     1.0000 0.33529  0.95358  0.89349  Biso   1.000  C
  C439     1.0000 0.33532  0.95364  0.89349  Biso   1.000  C
  O144     1.0000 0.67090  0.76912  0.91049  Biso   1.000  O
  N260     1.0000 0.64595  0.78338  0.03788  Biso   1.000  N
  N261     1.0000 0.64592  0.78332  0.03788  Biso   1.000  N
  C440     1.0000 0.67267  0.75227  0.10629  Biso   1.000  C
  C441     1.0000 0.67264  0.75221  0.10629  Biso   1.000  C
  C442     1.0000 0.67256  0.75221  0.10629  Biso   1.000  C
  H450     1.0000 0.72435  0.64776  0.08769  Biso   1.000  H
  N262     1.0000 0.86169  0.75137  0.13042  Biso   1.000  N
  N263     1.0000 0.86161  0.75137  0.13042  Biso   1.000  N
  N264     1.0000 0.86158  0.75131  0.13042  Biso   1.000  N
  H451     1.0000 0.72424  0.64769  0.08769  Biso   1.000  H
  H452     1.0000 0.94492  0.67224  0.12688  Biso   1.000  H
  H453     1.0000 0.94484  0.67224  0.12688  Biso   1.000  H
  H454     1.0000 0.01272  0.75663  0.17772  Biso   1.000  H
  O145     1.0000 0.17468  0.87587  0.14160  Biso   1.000  O
  O146     1.0000 0.17465  0.87581  0.14160  Biso   1.000  O
  O147     1.0000 0.17457  0.87581  0.14160  Biso   1.000  O
  H455     1.0000 0.35217  0.84907  0.99338  Biso   1.000  H
  N265     1.0000 0.33701  0.95750  0.97439  Biso   1.000  N
  H456     1.0000 0.35220  0.84914  0.99338  Biso   1.000  H
  N266     1.0000 0.33704  0.95756  0.97439  Biso   1.000  N
  H457     1.0000 0.34686  0.90235  0.06818  Biso   1.000  H
  H458     1.0000 0.34678  0.90235  0.06818  Biso   1.000  H
  O148     1.0000 0.11352  0.96370  0.76740  Biso   1.000  O
  O149     1.0000 0.11356  0.96376  0.76740  Biso   1.000  O
  N267     1.0000 0.28615  0.05433  0.82942  Biso   1.000  N
  N268     1.0000 0.28604  0.05427  0.82942  Biso   1.000  N
  H459     1.0000 0.38557  0.92542  0.87437  Biso   1.000  H
  H460     1.0000 0.38565  0.92542  0.87437  Biso   1.000  H
  C443     1.0000 0.37869  0.04690  0.87683  Biso   1.000  C
  C444     1.0000 0.37868  0.04689  0.87677  Biso   1.000  C
  C445     1.0000 0.37857  0.04683  0.87677  Biso   1.000  C
  C446     1.0000 0.55900  0.81934  0.02961  Biso   1.000  C
  C447     1.0000 0.55892  0.81934  0.02961  Biso   1.000  C
  H461     1.0000 0.60334  0.71326  0.12512  Biso   1.000  H
  N269     1.0000 0.74490  0.81456  0.16671  Biso   1.000  N
  N270     1.0000 0.74482  0.81456  0.16671  Biso   1.000  N
  H462     1.0000 0.60323  0.71320  0.12512  Biso   1.000  H
  N271     1.0000 0.74479  0.81450  0.16671  Biso   1.000  N
  C448     1.0000 0.85185  0.81234  0.17852  Biso   1.000  C
  C449     1.0000 0.85177  0.81234  0.17852  Biso   1.000  C
  C450     1.0000 0.37672  0.03783  0.00810  Biso   1.000  C
  C451     1.0000 0.37661  0.03776  0.00810  Biso   1.000  C
  C452     1.0000 0.29369  0.12613  0.79022  Biso   1.000  C
  C453     1.0000 0.29366  0.12607  0.79022  Biso   1.000  C
  C454     1.0000 0.29358  0.12607  0.79022  Biso   1.000  C
  H463     1.0000 0.45001  0.06203  0.85138  Biso   1.000  H
  N272     1.0000 0.39760  0.09121  0.95322  Biso   1.000  N
  H464     1.0000 0.44990  0.06196  0.85138  Biso   1.000  H
  H465     1.0000 0.44998  0.06196  0.85138  Biso   1.000  H
  N273     1.0000 0.39749  0.09115  0.95322  Biso   1.000  N
  H466     1.0000 0.52331  0.80511  0.97758  Biso   1.000  H
  H467     1.0000 0.49967  0.79475  0.06299  Biso   1.000  H
  N274     1.0000 0.60248  0.90886  0.04678  Biso   1.000  N
  H468     1.0000 0.49959  0.79475  0.06299  Biso   1.000  H
  N275     1.0000 0.60237  0.90880  0.04678  Biso   1.000  N
  C455     1.0000 0.70638  0.87394  0.20978  Biso   1.000  C
  C456     1.0000 0.70630  0.87394  0.20978  Biso   1.000  C
  O150     1.0000 0.92687  0.85743  0.22718  Biso   1.000  O
  O151     1.0000 0.92679  0.85743  0.22718  Biso   1.000  O
  O152     1.0000 0.39367  0.05819  0.07788  Biso   1.000  O
  O153     1.0000 0.39370  0.05825  0.07788  Biso   1.000  O
  H469     1.0000 0.37300  0.15443  0.77990  Biso   1.000  H
  H470     1.0000 0.24732  0.10721  0.74173  Biso   1.000  H
  N276     1.0000 0.25518  0.18551  0.83330  Biso   1.000  N
  H471     1.0000 0.37297  0.15437  0.77990  Biso   1.000  H
  H472     1.0000 0.24731  0.10721  0.74167  Biso   1.000  H
  H473     1.0000 0.37289  0.15437  0.77990  Biso   1.000  H
  H474     1.0000 0.24720  0.10715  0.74167  Biso   1.000  H
  N277     1.0000 0.25507  0.18545  0.83330  Biso   1.000  N
  C457     1.0000 0.44108  0.18073  0.97039  Biso   1.000  C
  C458     1.0000 0.44105  0.18067  0.97039  Biso   1.000  C
  C459     1.0000 0.62324  0.96218  0.99190  Biso   1.000  C
  C460     1.0000 0.62335  0.96224  0.99190  Biso   1.000  C
  C461     1.0000 0.62327  0.96224  0.99190  Biso   1.000  C
  C462     1.0000 0.62139  0.95317  0.12318  Biso   1.000  C
  C463     1.0000 0.62131  0.95317  0.12318  Biso   1.000  C
  C464     1.0000 0.62128  0.95311  0.12318  Biso   1.000  C
  H475     1.0000 0.62708  0.84564  0.22011  Biso   1.000  H
  H476     1.0000 0.75276  0.89286  0.25827  Biso   1.000  H
  N278     1.0000 0.71393  0.94574  0.17059  Biso   1.000  N
  H477     1.0000 0.62700  0.84564  0.22011  Biso   1.000  H
  H478     1.0000 0.75265  0.89279  0.25827  Biso   1.000  H
  C465     1.0000 0.14823  0.18773  0.82149  Biso   1.000  C
  C466     1.0000 0.32741  0.24780  0.89371  Biso   1.000  C
  C467     1.0000 0.14812  0.18767  0.82149  Biso   1.000  C
  C468     1.0000 0.32730  0.24774  0.89371  Biso   1.000  C
  H479     1.0000 0.50041  0.20532  0.93702  Biso   1.000  H
  N279     1.0000 0.35413  0.21669  0.96212  Biso   1.000  N
  H480     1.0000 0.50038  0.20526  0.93702  Biso   1.000  H
  N280     1.0000 0.35405  0.21669  0.96212  Biso   1.000  N
  H481     1.0000 0.50030  0.20526  0.93702  Biso   1.000  H
  H482     1.0000 0.47666  0.19489  0.02242  Biso   1.000  H
  H483     1.0000 0.47677  0.19496  0.02242  Biso   1.000  H
  O154     1.0000 0.60630  0.94182  0.92213  Biso   1.000  O
  O155     1.0000 0.60637  0.94181  0.92207  Biso   1.000  O
  O156     1.0000 0.60638  0.94182  0.92213  Biso   1.000  O
  O157     1.0000 0.60629  0.94181  0.92207  Biso   1.000  O
  N281     1.0000 0.66296  0.04250  0.02562  Biso   1.000  N
  H484     1.0000 0.55007  0.93804  0.14862  Biso   1.000  H
  H485     1.0000 0.54999  0.93804  0.14862  Biso   1.000  H
  C469     1.0000 0.66468  0.04643  0.10652  Biso   1.000  C
  C470     1.0000 0.66465  0.04637  0.10652  Biso   1.000  C
  C471     1.0000 0.80254  0.02219  0.18890  Biso   1.000  C
  C472     1.0000 0.80257  0.02225  0.18890  Biso   1.000  C
  N282     1.0000 0.13838  0.24870  0.86958  Biso   1.000  N
  N283     1.0000 0.13827  0.24863  0.86958  Biso   1.000  N
  O158     1.0000 0.07320  0.14264  0.77282  Biso   1.000  O
  O159     1.0000 0.07317  0.14258  0.77282  Biso   1.000  O
  O160     1.0000 0.07309  0.14258  0.77282  Biso   1.000  O
  C473     1.0000 0.24433  0.29252  0.91910  Biso   1.000  C
  C474     1.0000 0.24425  0.29252  0.91910  Biso   1.000  C
  C475     1.0000 0.24422  0.29246  0.91910  Biso   1.000  C
  H486     1.0000 0.39674  0.28681  0.87489  Biso   1.000  H
  H487     1.0000 0.39666  0.28681  0.87489  Biso   1.000  H
  H488     1.0000 0.39663  0.28675  0.87489  Biso   1.000  H
  C476     1.0000 0.30777  0.24129  0.02351  Biso   1.000  C
  C477     1.0000 0.30780  0.24136  0.02351  Biso   1.000  C
  C478     1.0000 0.68630  0.11602  0.98408  Biso   1.000  C
  C479     1.0000 0.68627  0.11596  0.98408  Biso   1.000  C
  C480     1.0000 0.68619  0.11596  0.98408  Biso   1.000  C
  H489     1.0000 0.61439  0.07459  0.12563  Biso   1.000  H
  N284     1.0000 0.77956  0.08060  0.14919  Biso   1.000  N
  H490     1.0000 0.61431  0.07458  0.12557  Biso   1.000  H
  H491     1.0000 0.61431  0.07459  0.12563  Biso   1.000  H
  H492     1.0000 0.61442  0.07464  0.12557  Biso   1.000  H
  O161     1.0000 0.88644  0.03631  0.23260  Biso   1.000  O
  C481     1.0000 0.03435  0.26761  0.86998  Biso   1.000  C
  C482     1.0000 0.03427  0.26761  0.86998  Biso   1.000  C
  C483     1.0000 0.03424  0.26755  0.86998  Biso   1.000  C
  N285     1.0000 0.23596  0.27958  0.99909  Biso   1.000  N
  H493     1.0000 0.27573  0.35231  0.91231  Biso   1.000  H
  H494     1.0000 0.27565  0.35231  0.91231  Biso   1.000  H
  H495     1.0000 0.27562  0.35225  0.91231  Biso   1.000  H
  O162     1.0000 0.32906  0.23088  0.08952  Biso   1.000  O
  O163     1.0000 0.32910  0.23095  0.08952  Biso   1.000  O
  H496     1.0000 0.65322  0.09772  0.93182  Biso   1.000  H
  N286     1.0000 0.80611  0.16562  0.98380  Biso   1.000  N
  H497     1.0000 0.65314  0.09772  0.93182  Biso   1.000  H
  N287     1.0000 0.80607  0.16556  0.98380  Biso   1.000  N
  H498     1.0000 0.65311  0.09766  0.93182  Biso   1.000  H
  N288     1.0000 0.80599  0.16556  0.98380  Biso   1.000  N
  H499     1.0000 0.64780  0.15093  0.00662  Biso   1.000  H
  H500     1.0000 0.64777  0.15087  0.00662  Biso   1.000  H
  C484     1.0000 0.83987  0.16943  0.16682  Biso   1.000  C
  C485     1.0000 0.83984  0.16937  0.16682  Biso   1.000  C
  N289     1.0000 0.96658  0.23620  0.93268  Biso   1.000  N
  N290     1.0000 0.96647  0.23614  0.93268  Biso   1.000  N
  H501     1.0000 0.98736  0.24344  0.82229  Biso   1.000  H
  H502     1.0000 0.98725  0.24337  0.82229  Biso   1.000  H
  H503     1.0000 0.05515  0.32783  0.87312  Biso   1.000  H
  H504     1.0000 0.05504  0.32777  0.87312  Biso   1.000  H
  C486     1.0000 0.18991  0.32539  0.05169  Biso   1.000  C
  C487     1.0000 0.18983  0.32539  0.05169  Biso   1.000  C
  C488     1.0000 0.18994  0.32545  0.05169  Biso   1.000  C
  C489     1.0000 0.86088  0.17058  0.91808  Biso   1.000  C
  C490     1.0000 0.86080  0.17058  0.91808  Biso   1.000  C
  C491     1.0000 0.86607  0.23302  0.04159  Biso   1.000  C
  C492     1.0000 0.86604  0.23296  0.04159  Biso   1.000  C
  C493     1.0000 0.86615  0.23302  0.04159  Biso   1.000  C
  H505     1.0000 0.78406  0.19600  0.17401  Biso   1.000  H
  H506     1.0000 0.88771  0.17960  0.21457  Biso   1.000  H
  N291     1.0000 0.91148  0.20768  0.10880  Biso   1.000  N
  H507     1.0000 0.88763  0.17960  0.21457  Biso   1.000  H
  H508     1.0000 0.78409  0.19606  0.17401  Biso   1.000  H
  N292     1.0000 0.91151  0.20775  0.10880  Biso   1.000  N
  C494     1.0000 0.97693  0.28280  0.00422  Biso   1.000  C
  C495     1.0000 0.97685  0.28280  0.00422  Biso   1.000  C
  N293     1.0000 0.06914  0.28352  0.05899  Biso   1.000  N
  N294     1.0000 0.06902  0.28346  0.05899  Biso   1.000  N
  H509     1.0000 0.23209  0.33430  0.10150  Biso   1.000  H
  H510     1.0000 0.20209  0.37992  0.03457  Biso   1.000  H
  H511     1.0000 0.20206  0.37986  0.03457  Biso   1.000  H
  O164     1.0000 0.82540  0.12420  0.85840  Biso   1.000  O
  O165     1.0000 0.82529  0.12413  0.85840  Biso   1.000  O
  H512     1.0000 0.82062  0.26744  0.05460  Biso   1.000  H
  H513     1.0000 0.82051  0.26738  0.05460  Biso   1.000  H
  H514     1.0000 0.82059  0.26738  0.05460  Biso   1.000  H
  C496     1.0000 0.02921  0.24188  0.12049  Biso   1.000  C
  C497     1.0000 0.02913  0.24188  0.12049  Biso   1.000  C
  C498     1.0000 0.02924  0.24194  0.12049  Biso   1.000  C
  H515     1.0000 0.98079  0.33979  0.99789  Biso   1.000  H
  H516     1.0000 0.98071  0.33979  0.99789  Biso   1.000  H
  O166     1.0000 0.08781  0.23844  0.17641  Biso   1.000  O
  O167     1.0000 0.08770  0.23838  0.17641  Biso   1.000  O
  O168     1.0000 0.08778  0.23838  0.17641  Biso   1.000  O
  C499     1.0000 0.97075  0.75813  0.87951  Biso   1.000  C
  N295     1.0000 0.93083  0.71648  0.94101  Biso   1.000  N
  N296     1.0000 0.93094  0.71655  0.94101  Biso   1.000  N
  N297     1.0000 0.93086  0.71655  0.94101  Biso   1.000  N
  O169     1.0000 0.91216  0.76157  0.82360  Biso   1.000  O
  O170     1.0000 0.91227  0.76163  0.82360  Biso   1.000  O
  O171     1.0000 0.91219  0.76163  0.82360  Biso   1.000  O
  N298     1.0000 0.08849  0.79232  0.89120  Biso   1.000  N
  N299     1.0000 0.08857  0.79232  0.89120  Biso   1.000  N
  C500     1.0000 0.81006  0.67462  0.94831  Biso   1.000  C
  C501     1.0000 0.81014  0.67462  0.94831  Biso   1.000  C
  C502     1.0000 0.97083  0.75813  0.87951  Biso   1.000  C
  C503     1.0000 0.02303  0.71720  0.99578  Biso   1.000  C
  C504     1.0000 0.02314  0.71727  0.99578  Biso   1.000  C
  C505     1.0000 0.02311  0.71720  0.99578  Biso   1.000  C
  C506     1.0000 0.13390  0.76698  0.95841  Biso   1.000  C
  C507     1.0000 0.13393  0.76705  0.95841  Biso   1.000  C
  C508     1.0000 0.16010  0.83058  0.83318  Biso   1.000  C
  C509     1.0000 0.16013  0.83064  0.83318  Biso   1.000  C
  N300     1.0000 0.76412  0.72049  0.00091  Biso   1.000  N
  N301     1.0000 0.76401  0.72043  0.00091  Biso   1.000  N
  H517     1.0000 0.76787  0.66570  0.89851  Biso   1.000  H
  H518     1.0000 0.79788  0.62009  0.96543  Biso   1.000  H
  H519     1.0000 0.76790  0.66577  0.89851  Biso   1.000  H
  H520     1.0000 0.79790  0.62015  0.96537  Biso   1.000  H
  H521     1.0000 0.76798  0.66577  0.89851  Biso   1.000  H
  H522     1.0000 0.79791  0.62015  0.96543  Biso   1.000  H
  H523     1.0000 0.79787  0.62008  0.96537  Biso   1.000  H
  H524     1.0000 0.01929  0.66028  0.00211  Biso   1.000  H
  N302     1.0000 0.03350  0.76387  0.06732  Biso   1.000  N
  H525     1.0000 0.01917  0.66022  0.00211  Biso   1.000  H
  N303     1.0000 0.03342  0.76387  0.06732  Biso   1.000  N
  H526     1.0000 0.01925  0.66022  0.00211  Biso   1.000  H
  N304     1.0000 0.03339  0.76381  0.06732  Biso   1.000  N
  H527     1.0000 0.17935  0.73257  0.94540  Biso   1.000  H
  H528     1.0000 0.17946  0.73263  0.94540  Biso   1.000  H
  H529     1.0000 0.17938  0.73263  0.94540  Biso   1.000  H
  N305     1.0000 0.19397  0.83445  0.01620  Biso   1.000  N
  N306     1.0000 0.19389  0.83445  0.01620  Biso   1.000  N
  H530     1.0000 0.21591  0.80401  0.82599  Biso   1.000  H
  H531     1.0000 0.11226  0.82041  0.78543  Biso   1.000  H
  N307     1.0000 0.22041  0.91941  0.85081  Biso   1.000  N
  H532     1.0000 0.21594  0.80407  0.82599  Biso   1.000  H
  H533     1.0000 0.11236  0.82046  0.78537  Biso   1.000  H
  N308     1.0000 0.22044  0.91947  0.85081  Biso   1.000  N
  H534     1.0000 0.11237  0.82047  0.78543  Biso   1.000  H
  H535     1.0000 0.11233  0.82040  0.78537  Biso   1.000  H
  C510     1.0000 0.69220  0.75871  0.97650  Biso   1.000  C
  C511     1.0000 0.75575  0.70755  0.08090  Biso   1.000  C
  C512     1.0000 0.75564  0.70749  0.08090  Biso   1.000  C
  C513     1.0000 0.96573  0.73246  0.13002  Biso   1.000  C
  C514     1.0000 0.96570  0.73239  0.13002  Biso   1.000  C
  C515     1.0000 0.13920  0.82949  0.08193  Biso   1.000  C
  C516     1.0000 0.13908  0.82942  0.08187  Biso   1.000  C
  C517     1.0000 0.13909  0.82942  0.08193  Biso   1.000  C
  C518     1.0000 0.31378  0.88405  0.01592  Biso   1.000  C
  C519     1.0000 0.31370  0.88405  0.01592  Biso   1.000  C
  C520     1.0000 0.19743  0.97782  0.81110  Biso   1.000  C
  C521     1.0000 0.33529  0.95358  0.89349  Biso   1.000  C
  C522     1.0000 0.33532  0.95364  0.89349  Biso   1.000  C
  O172     1.0000 0.67090  0.76912  0.91049  Biso   1.000  O
  N309     1.0000 0.64595  0.78338  0.03788  Biso   1.000  N
  N310     1.0000 0.64592  0.78332  0.03788  Biso   1.000  N
  C523     1.0000 0.67267  0.75227  0.10629  Biso   1.000  C
  C524     1.0000 0.67264  0.75221  0.10629  Biso   1.000  C
  C525     1.0000 0.67256  0.75221  0.10629  Biso   1.000  C
  H536     1.0000 0.72435  0.64776  0.08769  Biso   1.000  H
  N311     1.0000 0.86169  0.75137  0.13042  Biso   1.000  N
  N312     1.0000 0.86161  0.75137  0.13042  Biso   1.000  N
  N313     1.0000 0.86158  0.75131  0.13042  Biso   1.000  N
  H537     1.0000 0.72424  0.64769  0.08769  Biso   1.000  H
  H538     1.0000 0.94492  0.67224  0.12688  Biso   1.000  H
  H539     1.0000 0.94484  0.67224  0.12688  Biso   1.000  H
  H540     1.0000 0.01272  0.75663  0.17772  Biso   1.000  H
  O173     1.0000 0.17468  0.87587  0.14160  Biso   1.000  O
  O174     1.0000 0.17465  0.87581  0.14160  Biso   1.000  O
  O175     1.0000 0.17457  0.87581  0.14160  Biso   1.000  O
  H541     1.0000 0.35217  0.84907  0.99338  Biso   1.000  H
  N314     1.0000 0.33701  0.95750  0.97439  Biso   1.000  N
  H542     1.0000 0.35220  0.84914  0.99338  Biso   1.000  H
  N315     1.0000 0.33704  0.95756  0.97439  Biso   1.000  N
  H543     1.0000 0.34686  0.90235  0.06818  Biso   1.000  H
  H544     1.0000 0.34678  0.90235  0.06818  Biso   1.000  H
  O176     1.0000 0.11352  0.96370  0.76740  Biso   1.000  O
  O177     1.0000 0.11356  0.96376  0.76740  Biso   1.000  O
  N316     1.0000 0.28615  0.05433  0.82942  Biso   1.000  N
  N317     1.0000 0.28604  0.05427  0.82942  Biso   1.000  N
  H545     1.0000 0.38557  0.92542  0.87437  Biso   1.000  H
  H546     1.0000 0.38565  0.92542  0.87437  Biso   1.000  H
  C526     1.0000 0.37869  0.04690  0.87683  Biso   1.000  C
  C527     1.0000 0.37868  0.04689  0.87677  Biso   1.000  C
  C528     1.0000 0.37857  0.04683  0.87677  Biso   1.000  C
  C529     1.0000 0.55900  0.81934  0.02961  Biso   1.000  C
  C530     1.0000 0.55892  0.81934  0.02961  Biso   1.000  C
  H547     1.0000 0.60334  0.71326  0.12512  Biso   1.000  H
  N318     1.0000 0.74490  0.81456  0.16671  Biso   1.000  N
  N319     1.0000 0.74482  0.81456  0.16671  Biso   1.000  N
  H548     1.0000 0.60323  0.71320  0.12512  Biso   1.000  H
  N320     1.0000 0.74479  0.81450  0.16671  Biso   1.000  N
  C531     1.0000 0.85185  0.81234  0.17852  Biso   1.000  C
  C532     1.0000 0.85177  0.81234  0.17852  Biso   1.000  C
  C533     1.0000 0.37672  0.03783  0.00810  Biso   1.000  C
  C534     1.0000 0.37661  0.03776  0.00810  Biso   1.000  C
  C535     1.0000 0.29369  0.12613  0.79022  Biso   1.000  C
  C536     1.0000 0.29366  0.12607  0.79022  Biso   1.000  C
  C537     1.0000 0.29358  0.12607  0.79022  Biso   1.000  C
  H549     1.0000 0.45001  0.06203  0.85138  Biso   1.000  H
  N321     1.0000 0.39760  0.09121  0.95322  Biso   1.000  N
  H550     1.0000 0.44990  0.06196  0.85138  Biso   1.000  H
  H551     1.0000 0.44998  0.06196  0.85138  Biso   1.000  H
  N322     1.0000 0.39749  0.09115  0.95322  Biso   1.000  N
  H552     1.0000 0.52331  0.80511  0.97758  Biso   1.000  H
  H553     1.0000 0.49967  0.79475  0.06299  Biso   1.000  H
  N323     1.0000 0.60248  0.90886  0.04678  Biso   1.000  N
  H554     1.0000 0.49959  0.79475  0.06299  Biso   1.000  H
  N324     1.0000 0.60237  0.90880  0.04678  Biso   1.000  N
  C538     1.0000 0.70638  0.87394  0.20978  Biso   1.000  C
  C539     1.0000 0.70630  0.87394  0.20978  Biso   1.000  C
  O178     1.0000 0.92687  0.85743  0.22718  Biso   1.000  O
  O179     1.0000 0.92679  0.85743  0.22718  Biso   1.000  O
  O180     1.0000 0.39367  0.05819  0.07788  Biso   1.000  O
  O181     1.0000 0.39370  0.05825  0.07788  Biso   1.000  O
  H555     1.0000 0.37300  0.15443  0.77990  Biso   1.000  H
  H556     1.0000 0.24732  0.10721  0.74173  Biso   1.000  H
  N325     1.0000 0.25518  0.18551  0.83330  Biso   1.000  N
  H557     1.0000 0.37297  0.15437  0.77990  Biso   1.000  H
  H558     1.0000 0.24731  0.10721  0.74167  Biso   1.000  H
  H559     1.0000 0.37289  0.15437  0.77990  Biso   1.000  H
  H560     1.0000 0.24720  0.10715  0.74167  Biso   1.000  H
  N326     1.0000 0.25507  0.18545  0.83330  Biso   1.000  N
  C540     1.0000 0.44108  0.18073  0.97039  Biso   1.000  C
  C541     1.0000 0.44105  0.18067  0.97039  Biso   1.000  C
  C542     1.0000 0.62324  0.96218  0.99190  Biso   1.000  C
  C543     1.0000 0.62335  0.96224  0.99190  Biso   1.000  C
  C544     1.0000 0.62327  0.96224  0.99190  Biso   1.000  C
  C545     1.0000 0.62139  0.95317  0.12318  Biso   1.000  C
  C546     1.0000 0.62131  0.95317  0.12318  Biso   1.000  C
  C547     1.0000 0.62128  0.95311  0.12318  Biso   1.000  C
  H561     1.0000 0.62708  0.84564  0.22011  Biso   1.000  H
  H562     1.0000 0.75276  0.89286  0.25827  Biso   1.000  H
  N327     1.0000 0.71393  0.94574  0.17059  Biso   1.000  N
  H563     1.0000 0.62700  0.84564  0.22011  Biso   1.000  H
  H564     1.0000 0.75265  0.89279  0.25827  Biso   1.000  H
  C548     1.0000 0.14823  0.18773  0.82149  Biso   1.000  C
  C549     1.0000 0.32741  0.24780  0.89371  Biso   1.000  C
  C550     1.0000 0.14812  0.18767  0.82149  Biso   1.000  C
  C551     1.0000 0.32730  0.24774  0.89371  Biso   1.000  C
  H565     1.0000 0.50041  0.20532  0.93702  Biso   1.000  H
  N328     1.0000 0.35413  0.21669  0.96212  Biso   1.000  N
  H566     1.0000 0.50038  0.20526  0.93702  Biso   1.000  H
  N329     1.0000 0.35405  0.21669  0.96212  Biso   1.000  N
  H567     1.0000 0.50030  0.20526  0.93702  Biso   1.000  H
  H568     1.0000 0.47666  0.19489  0.02242  Biso   1.000  H
  H569     1.0000 0.47677  0.19496  0.02242  Biso   1.000  H
  O182     1.0000 0.60630  0.94182  0.92213  Biso   1.000  O
  O183     1.0000 0.60637  0.94181  0.92207  Biso   1.000  O
  O184     1.0000 0.60638  0.94182  0.92213  Biso   1.000  O
  O185     1.0000 0.60629  0.94181  0.92207  Biso   1.000  O
  N330     1.0000 0.66296  0.04250  0.02562  Biso   1.000  N
  H570     1.0000 0.55007  0.93804  0.14862  Biso   1.000  H
  H571     1.0000 0.54999  0.93804  0.14862  Biso   1.000  H
  C552     1.0000 0.66468  0.04643  0.10652  Biso   1.000  C
  C553     1.0000 0.66465  0.04637  0.10652  Biso   1.000  C
  C554     1.0000 0.80254  0.02219  0.18890  Biso   1.000  C
  C555     1.0000 0.80257  0.02225  0.18890  Biso   1.000  C
  N331     1.0000 0.13838  0.24870  0.86958  Biso   1.000  N
  N332     1.0000 0.13827  0.24863  0.86958  Biso   1.000  N
  O186     1.0000 0.07320  0.14264  0.77282  Biso   1.000  O
  O187     1.0000 0.07317  0.14258  0.77282  Biso   1.000  O
  O188     1.0000 0.07309  0.14258  0.77282  Biso   1.000  O
  C556     1.0000 0.24433  0.29252  0.91910  Biso   1.000  C
  C557     1.0000 0.24425  0.29252  0.91910  Biso   1.000  C
  C558     1.0000 0.24422  0.29246  0.91910  Biso   1.000  C
  H572     1.0000 0.39674  0.28681  0.87489  Biso   1.000  H
  H573     1.0000 0.39666  0.28681  0.87489  Biso   1.000  H
  H574     1.0000 0.39663  0.28675  0.87489  Biso   1.000  H
  C559     1.0000 0.30777  0.24129  0.02351  Biso   1.000  C
  C560     1.0000 0.30780  0.24136  0.02351  Biso   1.000  C
  C561     1.0000 0.68630  0.11602  0.98408  Biso   1.000  C
  C562     1.0000 0.68627  0.11596  0.98408  Biso   1.000  C
  C563     1.0000 0.68619  0.11596  0.98408  Biso   1.000  C
  H575     1.0000 0.61439  0.07459  0.12563  Biso   1.000  H
  N333     1.0000 0.77956  0.08060  0.14919  Biso   1.000  N
  H576     1.0000 0.61431  0.07458  0.12557  Biso   1.000  H
  H577     1.0000 0.61431  0.07459  0.12563  Biso   1.000  H
  H578     1.0000 0.61442  0.07464  0.12557  Biso   1.000  H
  O189     1.0000 0.88644  0.03631  0.23260  Biso   1.000  O
  C564     1.0000 0.03435  0.26761  0.86998  Biso   1.000  C
  C565     1.0000 0.03427  0.26761  0.86998  Biso   1.000  C
  C566     1.0000 0.03424  0.26755  0.86998  Biso   1.000  C
  N334     1.0000 0.23596  0.27958  0.99909  Biso   1.000  N
  H579     1.0000 0.27573  0.35231  0.91231  Biso   1.000  H
  H580     1.0000 0.27565  0.35231  0.91231  Biso   1.000  H
  H581     1.0000 0.27562  0.35225  0.91231  Biso   1.000  H
  O190     1.0000 0.32906  0.23088  0.08952  Biso   1.000  O
  O191     1.0000 0.32910  0.23095  0.08952  Biso   1.000  O
  H582     1.0000 0.65322  0.09772  0.93182  Biso   1.000  H
  N335     1.0000 0.80611  0.16562  0.98380  Biso   1.000  N
  H583     1.0000 0.65314  0.09772  0.93182  Biso   1.000  H
  N336     1.0000 0.80607  0.16556  0.98380  Biso   1.000  N
  H584     1.0000 0.65311  0.09766  0.93182  Biso   1.000  H
  N337     1.0000 0.80599  0.16556  0.98380  Biso   1.000  N
  H585     1.0000 0.64780  0.15093  0.00662  Biso   1.000  H
  H586     1.0000 0.64777  0.15087  0.00662  Biso   1.000  H
  C567     1.0000 0.83987  0.16943  0.16682  Biso   1.000  C
  C568     1.0000 0.83984  0.16937  0.16682  Biso   1.000  C
  N338     1.0000 0.96658  0.23620  0.93268  Biso   1.000  N
  N339     1.0000 0.96647  0.23614  0.93268  Biso   1.000  N
  H587     1.0000 0.98736  0.24344  0.82229  Biso   1.000  H
  H588     1.0000 0.98725  0.24337  0.82229  Biso   1.000  H
  H589     1.0000 0.05515  0.32783  0.87312  Biso   1.000  H
  H590     1.0000 0.05504  0.32777  0.87312  Biso   1.000  H
  C569     1.0000 0.18991  0.32539  0.05169  Biso   1.000  C
  C570     1.0000 0.18983  0.32539  0.05169  Biso   1.000  C
  C571     1.0000 0.18994  0.32545  0.05169  Biso   1.000  C
  C572     1.0000 0.86088  0.17058  0.91808  Biso   1.000  C
  C573     1.0000 0.86080  0.17058  0.91808  Biso   1.000  C
  C574     1.0000 0.86607  0.23302  0.04159  Biso   1.000  C
  C575     1.0000 0.86604  0.23296  0.04159  Biso   1.000  C
  C576     1.0000 0.86615  0.23302  0.04159  Biso   1.000  C
  H591     1.0000 0.78406  0.19600  0.17401  Biso   1.000  H
  H592     1.0000 0.88771  0.17960  0.21457  Biso   1.000  H
  N340     1.0000 0.91148  0.20768  0.10880  Biso   1.000  N
  H593     1.0000 0.88763  0.17960  0.21457  Biso   1.000  H
  H594     1.0000 0.78409  0.19606  0.17401  Biso   1.000  H
  N341     1.0000 0.91151  0.20775  0.10880  Biso   1.000  N
  C577     1.0000 0.97693  0.28280  0.00422  Biso   1.000  C
  C578     1.0000 0.97685  0.28280  0.00422  Biso   1.000  C
  N342     1.0000 0.06914  0.28352  0.05899  Biso   1.000  N
  N343     1.0000 0.06902  0.28346  0.05899  Biso   1.000  N
  H595     1.0000 0.23209  0.33430  0.10150  Biso   1.000  H
  H596     1.0000 0.20209  0.37992  0.03457  Biso   1.000  H
  H597     1.0000 0.20206  0.37986  0.03457  Biso   1.000  H
  O192     1.0000 0.82540  0.12420  0.85840  Biso   1.000  O
  O193     1.0000 0.82529  0.12413  0.85840  Biso   1.000  O
  H598     1.0000 0.82062  0.26744  0.05460  Biso   1.000  H
  H599     1.0000 0.82051  0.26738  0.05460  Biso   1.000  H
  H600     1.0000 0.82059  0.26738  0.05460  Biso   1.000  H
  C579     1.0000 0.02921  0.24188  0.12049  Biso   1.000  C
  C580     1.0000 0.02913  0.24188  0.12049  Biso   1.000  C
  C581     1.0000 0.02924  0.24194  0.12049  Biso   1.000  C
  H601     1.0000 0.98079  0.33979  0.99789  Biso   1.000  H
  H602     1.0000 0.98071  0.33979  0.99789  Biso   1.000  H
  O194     1.0000 0.08781  0.23844  0.17641  Biso   1.000  O
  O195     1.0000 0.08770  0.23838  0.17641  Biso   1.000  O
  O196     1.0000 0.08778  0.23838  0.17641  Biso   1.000  O
  C582     1.0000 0.97075  0.75813  0.87951  Biso   1.000  C
  N344     1.0000 0.93083  0.71648  0.94101  Biso   1.000  N
  N345     1.0000 0.93094  0.71655  0.94101  Biso   1.000  N
  N346     1.0000 0.93086  0.71655  0.94101  Biso   1.000  N
  O197     1.0000 0.91216  0.76157  0.82360  Biso   1.000  O
  O198     1.0000 0.91227  0.76163  0.82360  Biso   1.000  O
  O199     1.0000 0.91219  0.76163  0.82360  Biso   1.000  O
  N347     1.0000 0.08849  0.79232  0.89120  Biso   1.000  N
  N348     1.0000 0.08857  0.79232  0.89120  Biso   1.000  N
  C583     1.0000 0.81006  0.67462  0.94831  Biso   1.000  C
  C584     1.0000 0.81014  0.67462  0.94831  Biso   1.000  C
  C585     1.0000 0.97083  0.75813  0.87951  Biso   1.000  C
  C586     1.0000 0.02303  0.71720  0.99578  Biso   1.000  C
  C587     1.0000 0.02314  0.71727  0.99578  Biso   1.000  C
  C588     1.0000 0.02311  0.71720  0.99578  Biso   1.000  C
  C589     1.0000 0.13390  0.76698  0.95841  Biso   1.000  C
  C590     1.0000 0.13393  0.76705  0.95841  Biso   1.000  C
  C591     1.0000 0.16010  0.83058  0.83318  Biso   1.000  C
  C592     1.0000 0.16013  0.83064  0.83318  Biso   1.000  C
  N349     1.0000 0.76412  0.72049  0.00091  Biso   1.000  N
  N350     1.0000 0.76401  0.72043  0.00091  Biso   1.000  N
  H603     1.0000 0.76787  0.66570  0.89851  Biso   1.000  H
  H604     1.0000 0.79788  0.62009  0.96543  Biso   1.000  H
  H605     1.0000 0.76790  0.66577  0.89851  Biso   1.000  H
  H606     1.0000 0.79790  0.62015  0.96537  Biso   1.000  H
  H607     1.0000 0.76798  0.66577  0.89851  Biso   1.000  H
  H608     1.0000 0.79791  0.62015  0.96543  Biso   1.000  H
  H609     1.0000 0.79787  0.62008  0.96537  Biso   1.000  H
  H610     1.0000 0.01929  0.66028  0.00211  Biso   1.000  H
  N351     1.0000 0.03350  0.76387  0.06732  Biso   1.000  N
  H611     1.0000 0.01917  0.66022  0.00211  Biso   1.000  H
  N352     1.0000 0.03342  0.76387  0.06732  Biso   1.000  N
  H612     1.0000 0.01925  0.66022  0.00211  Biso   1.000  H
  N353     1.0000 0.03339  0.76381  0.06732  Biso   1.000  N
  H613     1.0000 0.17935  0.73257  0.94540  Biso   1.000  H
  H614     1.0000 0.17946  0.73263  0.94540  Biso   1.000  H
  H615     1.0000 0.17938  0.73263  0.94540  Biso   1.000  H
  N354     1.0000 0.19397  0.83445  0.01620  Biso   1.000  N
  N355     1.0000 0.19389  0.83445  0.01620  Biso   1.000  N
  H616     1.0000 0.21591  0.80401  0.82599  Biso   1.000  H
  H617     1.0000 0.11226  0.82041  0.78543  Biso   1.000  H
  N356     1.0000 0.22041  0.91941  0.85081  Biso   1.000  N
  H618     1.0000 0.21594  0.80407  0.82599  Biso   1.000  H
  H619     1.0000 0.11236  0.82046  0.78537  Biso   1.000  H
  N357     1.0000 0.22044  0.91947  0.85081  Biso   1.000  N
  H620     1.0000 0.11237  0.82047  0.78543  Biso   1.000  H
  H621     1.0000 0.11233  0.82040  0.78537  Biso   1.000  H
  C593     1.0000 0.69220  0.75871  0.97650  Biso   1.000  C
  C594     1.0000 0.75575  0.70755  0.08090  Biso   1.000  C
  C595     1.0000 0.75564  0.70749  0.08090  Biso   1.000  C
  C596     1.0000 0.96573  0.73246  0.13002  Biso   1.000  C
  C597     1.0000 0.96570  0.73239  0.13002  Biso   1.000  C
  C598     1.0000 0.13920  0.82949  0.08193  Biso   1.000  C
  C599     1.0000 0.13908  0.82942  0.08187  Biso   1.000  C
  C600     1.0000 0.13909  0.82942  0.08193  Biso   1.000  C
  C601     1.0000 0.31378  0.88405  0.01592  Biso   1.000  C
  C602     1.0000 0.31370  0.88405  0.01592  Biso   1.000  C
  C603     1.0000 0.19743  0.97782  0.81110  Biso   1.000  C
  C604     1.0000 0.33529  0.95358  0.89349  Biso   1.000  C
  C605     1.0000 0.33532  0.95364  0.89349  Biso   1.000  C
  O200     1.0000 0.67090  0.76912  0.91049  Biso   1.000  O
  N358     1.0000 0.64595  0.78338  0.03788  Biso   1.000  N
  N359     1.0000 0.64592  0.78332  0.03788  Biso   1.000  N
  C606     1.0000 0.67267  0.75227  0.10629  Biso   1.000  C
  C607     1.0000 0.67264  0.75221  0.10629  Biso   1.000  C
  C608     1.0000 0.67256  0.75221  0.10629  Biso   1.000  C
  H622     1.0000 0.72435  0.64776  0.08769  Biso   1.000  H
  N360     1.0000 0.86169  0.75137  0.13042  Biso   1.000  N
  N361     1.0000 0.86161  0.75137  0.13042  Biso   1.000  N
  N362     1.0000 0.86158  0.75131  0.13042  Biso   1.000  N
  H623     1.0000 0.72424  0.64769  0.08769  Biso   1.000  H
  H624     1.0000 0.94492  0.67224  0.12688  Biso   1.000  H
  H625     1.0000 0.94484  0.67224  0.12688  Biso   1.000  H
  H626     1.0000 0.01272  0.75663  0.17772  Biso   1.000  H
  O201     1.0000 0.17468  0.87587  0.14160  Biso   1.000  O
  O202     1.0000 0.17465  0.87581  0.14160  Biso   1.000  O
  O203     1.0000 0.17457  0.87581  0.14160  Biso   1.000  O
  H627     1.0000 0.35217  0.84907  0.99338  Biso   1.000  H
  N363     1.0000 0.33701  0.95750  0.97439  Biso   1.000  N
  H628     1.0000 0.35220  0.84914  0.99338  Biso   1.000  H
  N364     1.0000 0.33704  0.95756  0.97439  Biso   1.000  N
  H629     1.0000 0.34686  0.90235  0.06818  Biso   1.000  H
  H630     1.0000 0.34678  0.90235  0.06818  Biso   1.000  H
  O204     1.0000 0.11352  0.96370  0.76740  Biso   1.000  O
  O205     1.0000 0.11356  0.96376  0.76740  Biso   1.000  O
  N365     1.0000 0.28615  0.05433  0.82942  Biso   1.000  N
  N366     1.0000 0.28604  0.05427  0.82942  Biso   1.000  N
  H631     1.0000 0.38557  0.92542  0.87437  Biso   1.000  H
  H632     1.0000 0.38565  0.92542  0.87437  Biso   1.000  H
  C609     1.0000 0.37869  0.04690  0.87683  Biso   1.000  C
  C610     1.0000 0.37868  0.04689  0.87677  Biso   1.000  C
  C611     1.0000 0.37857  0.04683  0.87677  Biso   1.000  C
  C612     1.0000 0.55900  0.81934  0.02961  Biso   1.000  C
  C613     1.0000 0.55892  0.81934  0.02961  Biso   1.000  C
  H633     1.0000 0.60334  0.71326  0.12512  Biso   1.000  H
  N367     1.0000 0.74490  0.81456  0.16671  Biso   1.000  N
  N368     1.0000 0.74482  0.81456  0.16671  Biso   1.000  N
  H634     1.0000 0.60323  0.71320  0.12512  Biso   1.000  H
  N369     1.0000 0.74479  0.81450  0.16671  Biso   1.000  N
  C614     1.0000 0.85185  0.81234  0.17852  Biso   1.000  C
  C615     1.0000 0.85177  0.81234  0.17852  Biso   1.000  C
  C616     1.0000 0.37672  0.03783  0.00810  Biso   1.000  C
  C617     1.0000 0.37661  0.03776  0.00810  Biso   1.000  C
  C618     1.0000 0.29369  0.12613  0.79022  Biso   1.000  C
  C619     1.0000 0.29366  0.12607  0.79022  Biso   1.000  C
  C620     1.0000 0.29358  0.12607  0.79022  Biso   1.000  C
  H635     1.0000 0.45001  0.06203  0.85138  Biso   1.000  H
  N370     1.0000 0.39760  0.09121  0.95322  Biso   1.000  N
  H636     1.0000 0.44990  0.06196  0.85138  Biso   1.000  H
  H637     1.0000 0.44998  0.06196  0.85138  Biso   1.000  H
  N371     1.0000 0.39749  0.09115  0.95322  Biso   1.000  N
  H638     1.0000 0.52331  0.80511  0.97758  Biso   1.000  H
  H639     1.0000 0.49967  0.79475  0.06299  Biso   1.000  H
  N372     1.0000 0.60248  0.90886  0.04678  Biso   1.000  N
  H640     1.0000 0.49959  0.79475  0.06299  Biso   1.000  H
  N373     1.0000 0.60237  0.90880  0.04678  Biso   1.000  N
  C621     1.0000 0.70638  0.87394  0.20978  Biso   1.000  C
  C622     1.0000 0.70630  0.87394  0.20978  Biso   1.000  C
  O206     1.0000 0.92687  0.85743  0.22718  Biso   1.000  O
  O207     1.0000 0.92679  0.85743  0.22718  Biso   1.000  O
  O208     1.0000 0.39367  0.05819  0.07788  Biso   1.000  O
  O209     1.0000 0.39370  0.05825  0.07788  Biso   1.000  O
  H641     1.0000 0.37300  0.15443  0.77990  Biso   1.000  H
  H642     1.0000 0.24732  0.10721  0.74173  Biso   1.000  H
  N374     1.0000 0.25518  0.18551  0.83330  Biso   1.000  N
  H643     1.0000 0.37297  0.15437  0.77990  Biso   1.000  H
  H644     1.0000 0.24731  0.10721  0.74167  Biso   1.000  H
  H645     1.0000 0.37289  0.15437  0.77990  Biso   1.000  H
  H646     1.0000 0.24720  0.10715  0.74167  Biso   1.000  H
  N375     1.0000 0.25507  0.18545  0.83330  Biso   1.000  N
  C623     1.0000 0.44108  0.18073  0.97039  Biso   1.000  C
  C624     1.0000 0.44105  0.18067  0.97039  Biso   1.000  C
  C625     1.0000 0.62324  0.96218  0.99190  Biso   1.000  C
  C626     1.0000 0.62335  0.96224  0.99190  Biso   1.000  C
  C627     1.0000 0.62327  0.96224  0.99190  Biso   1.000  C
  C628     1.0000 0.62139  0.95317  0.12318  Biso   1.000  C
  C629     1.0000 0.62131  0.95317  0.12318  Biso   1.000  C
  C630     1.0000 0.62128  0.95311  0.12318  Biso   1.000  C
  H647     1.0000 0.62708  0.84564  0.22011  Biso   1.000  H
  H648     1.0000 0.75276  0.89286  0.25827  Biso   1.000  H
  N376     1.0000 0.71393  0.94574  0.17059  Biso   1.000  N
  H649     1.0000 0.62700  0.84564  0.22011  Biso   1.000  H
  H650     1.0000 0.75265  0.89279  0.25827  Biso   1.000  H
  C631     1.0000 0.14823  0.18773  0.82149  Biso   1.000  C
  C632     1.0000 0.32741  0.24780  0.89371  Biso   1.000  C
  C633     1.0000 0.14812  0.18767  0.82149  Biso   1.000  C
  C634     1.0000 0.32730  0.24774  0.89371  Biso   1.000  C
  H651     1.0000 0.50041  0.20532  0.93702  Biso   1.000  H
  N377     1.0000 0.35413  0.21669  0.96212  Biso   1.000  N
  H652     1.0000 0.50038  0.20526  0.93702  Biso   1.000  H
  N378     1.0000 0.35405  0.21669  0.96212  Biso   1.000  N
  H653     1.0000 0.50030  0.20526  0.93702  Biso   1.000  H
  H654     1.0000 0.47666  0.19489  0.02242  Biso   1.000  H
  H655     1.0000 0.47677  0.19496  0.02242  Biso   1.000  H
  O210     1.0000 0.60630  0.94182  0.92213  Biso   1.000  O
  O211     1.0000 0.60637  0.94181  0.92207  Biso   1.000  O
  O212     1.0000 0.60638  0.94182  0.92213  Biso   1.000  O
  O213     1.0000 0.60629  0.94181  0.92207  Biso   1.000  O
  N379     1.0000 0.66296  0.04250  0.02562  Biso   1.000  N
  H656     1.0000 0.55007  0.93804  0.14862  Biso   1.000  H
  H657     1.0000 0.54999  0.93804  0.14862  Biso   1.000  H
  C635     1.0000 0.66468  0.04643  0.10652  Biso   1.000  C
  C636     1.0000 0.66465  0.04637  0.10652  Biso   1.000  C
  C637     1.0000 0.80254  0.02219  0.18890  Biso   1.000  C
  C638     1.0000 0.80257  0.02225  0.18890  Biso   1.000  C
  N380     1.0000 0.13838  0.24870  0.86958  Biso   1.000  N
  N381     1.0000 0.13827  0.24863  0.86958  Biso   1.000  N
  O214     1.0000 0.07320  0.14264  0.77282  Biso   1.000  O
  O215     1.0000 0.07317  0.14258  0.77282  Biso   1.000  O
  O216     1.0000 0.07309  0.14258  0.77282  Biso   1.000  O
  C639     1.0000 0.24433  0.29252  0.91910  Biso   1.000  C
  C640     1.0000 0.24425  0.29252  0.91910  Biso   1.000  C
  C641     1.0000 0.24422  0.29246  0.91910  Biso   1.000  C
  H658     1.0000 0.39674  0.28681  0.87489  Biso   1.000  H
  H659     1.0000 0.39666  0.28681  0.87489  Biso   1.000  H
  H660     1.0000 0.39663  0.28675  0.87489  Biso   1.000  H
  C642     1.0000 0.30777  0.24129  0.02351  Biso   1.000  C
  C643     1.0000 0.30780  0.24136  0.02351  Biso   1.000  C
  C644     1.0000 0.68630  0.11602  0.98408  Biso   1.000  C
  C645     1.0000 0.68627  0.11596  0.98408  Biso   1.000  C
  C646     1.0000 0.68619  0.11596  0.98408  Biso   1.000  C
  H661     1.0000 0.61439  0.07459  0.12563  Biso   1.000  H
  N382     1.0000 0.77956  0.08060  0.14919  Biso   1.000  N
  H662     1.0000 0.61431  0.07458  0.12557  Biso   1.000  H
  H663     1.0000 0.61431  0.07459  0.12563  Biso   1.000  H
  H664     1.0000 0.61442  0.07464  0.12557  Biso   1.000  H
  O217     1.0000 0.88644  0.03631  0.23260  Biso   1.000  O
  C647     1.0000 0.03435  0.26761  0.86998  Biso   1.000  C
  C648     1.0000 0.03427  0.26761  0.86998  Biso   1.000  C
  C649     1.0000 0.03424  0.26755  0.86998  Biso   1.000  C
  N383     1.0000 0.23596  0.27958  0.99909  Biso   1.000  N
  H665     1.0000 0.27573  0.35231  0.91231  Biso   1.000  H
  H666     1.0000 0.27565  0.35231  0.91231  Biso   1.000  H
  H667     1.0000 0.27562  0.35225  0.91231  Biso   1.000  H
  O218     1.0000 0.32906  0.23088  0.08952  Biso   1.000  O
  O219     1.0000 0.32910  0.23095  0.08952  Biso   1.000  O
  H668     1.0000 0.65322  0.09772  0.93182  Biso   1.000  H
  N384     1.0000 0.80611  0.16562  0.98380  Biso   1.000  N
  H669     1.0000 0.65314  0.09772  0.93182  Biso   1.000  H
  N385     1.0000 0.80607  0.16556  0.98380  Biso   1.000  N
  H670     1.0000 0.65311  0.09766  0.93182  Biso   1.000  H
  N386     1.0000 0.80599  0.16556  0.98380  Biso   1.000  N
  H671     1.0000 0.64780  0.15093  0.00662  Biso   1.000  H
  H672     1.0000 0.64777  0.15087  0.00662  Biso   1.000  H
  C650     1.0000 0.83987  0.16943  0.16682  Biso   1.000  C
  C651     1.0000 0.83984  0.16937  0.16682  Biso   1.000  C
  N387     1.0000 0.96658  0.23620  0.93268  Biso   1.000  N
  N388     1.0000 0.96647  0.23614  0.93268  Biso   1.000  N
  H673     1.0000 0.98736  0.24344  0.82229  Biso   1.000  H
  H674     1.0000 0.98725  0.24337  0.82229  Biso   1.000  H
  H675     1.0000 0.05515  0.32783  0.87312  Biso   1.000  H
  H676     1.0000 0.05504  0.32777  0.87312  Biso   1.000  H
  C652     1.0000 0.18991  0.32539  0.05169  Biso   1.000  C
  C653     1.0000 0.18983  0.32539  0.05169  Biso   1.000  C
  C654     1.0000 0.18994  0.32545  0.05169  Biso   1.000  C
  C655     1.0000 0.86088  0.17058  0.91808  Biso   1.000  C
  C656     1.0000 0.86080  0.17058  0.91808  Biso   1.000  C
  C657     1.0000 0.86607  0.23302  0.04159  Biso   1.000  C
  C658     1.0000 0.86604  0.23296  0.04159  Biso   1.000  C
  C659     1.0000 0.86615  0.23302  0.04159  Biso   1.000  C
  H677     1.0000 0.78406  0.19600  0.17401  Biso   1.000  H
  H678     1.0000 0.88771  0.17960  0.21457  Biso   1.000  H
  N389     1.0000 0.91148  0.20768  0.10880  Biso   1.000  N
  H679     1.0000 0.88763  0.17960  0.21457  Biso   1.000  H
  H680     1.0000 0.78409  0.19606  0.17401  Biso   1.000  H
  N390     1.0000 0.91151  0.20775  0.10880  Biso   1.000  N
  C660     1.0000 0.97693  0.28280  0.00422  Biso   1.000  C
  C661     1.0000 0.97685  0.28280  0.00422  Biso   1.000  C
  N391     1.0000 0.06914  0.28352  0.05899  Biso   1.000  N
  N392     1.0000 0.06902  0.28346  0.05899  Biso   1.000  N
  H681     1.0000 0.23209  0.33430  0.10150  Biso   1.000  H
  H682     1.0000 0.20209  0.37992  0.03457  Biso   1.000  H
  H683     1.0000 0.20206  0.37986  0.03457  Biso   1.000  H
  O220     1.0000 0.82540  0.12420  0.85840  Biso   1.000  O
  O221     1.0000 0.82529  0.12413  0.85840  Biso   1.000  O
  H684     1.0000 0.82062  0.26744  0.05460  Biso   1.000  H
  H685     1.0000 0.82051  0.26738  0.05460  Biso   1.000  H
  H686     1.0000 0.82059  0.26738  0.05460  Biso   1.000  H
  C662     1.0000 0.02921  0.24188  0.12049  Biso   1.000  C
  C663     1.0000 0.02913  0.24188  0.12049  Biso   1.000  C
  C664     1.0000 0.02924  0.24194  0.12049  Biso   1.000  C
  H687     1.0000 0.98079  0.33979  0.99789  Biso   1.000  H
  H688     1.0000 0.98071  0.33979  0.99789  Biso   1.000  H
  O222     1.0000 0.08781  0.23844  0.17641  Biso   1.000  O
  O223     1.0000 0.08770  0.23838  0.17641  Biso   1.000  O
  O224     1.0000 0.08778  0.23838  0.17641  Biso   1.000  O
  O225     1.0000 0.64859  0.71874  0.70219  Biso   1.000  O
  C665     1.0000 0.68050  0.66040  0.71337  Biso   1.000  C
  N393     1.0000 0.76883  0.64529  0.68291  Biso   1.000  N
  N394     1.0000 0.63261  0.60010  0.76078  Biso   1.000  N
  C666     1.0000 0.85392  0.70682  0.64428  Biso   1.000  C
  C667     1.0000 0.79608  0.58073  0.71800  Biso   1.000  C
  C668     1.0000 0.52835  0.59110  0.79701  Biso   1.000  C
  C669     1.0000 0.69236  0.54359  0.76541  Biso   1.000  C
  N395     1.0000 0.85564  0.67921  0.56538  Biso   1.000  N
  H689     1.0000 0.92960  0.71949  0.67047  Biso   1.000  H
  H690     1.0000 0.83793  0.75810  0.64719  Biso   1.000  H
  N396     1.0000 0.79108  0.51053  0.66551  Biso   1.000  N
  H691     1.0000 0.86917  0.60384  0.75029  Biso   1.000  H
  N397     1.0000 0.42407  0.52729  0.75548  Biso   1.000  N
  H692     1.0000 0.53700  0.57620  0.84819  Biso   1.000  H
  H693     1.0000 0.51844  0.64459  0.80118  Biso   1.000  H
  N398     1.0000 0.63316  0.45850  0.72501  Biso   1.000  N
  H694     1.0000 0.71805  0.54130  0.81841  Biso   1.000  H
  C670     1.0000 0.81971  0.71352  0.50611  Biso   1.000  C
  C671     1.0000 0.92867  0.63330  0.54091  Biso   1.000  C
  C672     1.0000 0.88370  0.50990  0.62049  Biso   1.000  C
  C673     1.0000 0.69579  0.43921  0.67281  Biso   1.000  C
  C674     1.0000 0.34633  0.54753  0.71372  Biso   1.000  C
  C675     1.0000 0.37869  0.44243  0.77419  Biso   1.000  C
  C676     1.0000 0.54926  0.39338  0.76170  Biso   1.000  C
  N399     1.0000 0.85579  0.68789  0.44078  Biso   1.000  N
  O226     1.0000 0.76573  0.76040  0.51181  Biso   1.000  O
  C677     1.0000 0.92701  0.63833  0.45459  Biso   1.000  C
  N400     1.0000 0.88273  0.54592  0.54832  Biso   1.000  N
  H695     1.0000 0.00711  0.65953  0.56590  Biso   1.000  H
  H696     1.0000 0.95651  0.54099  0.65027  Biso   1.000  H
  H697     1.0000 0.87910  0.45259  0.60983  Biso   1.000  H
  O227     1.0000 0.67590  0.37069  0.63778  Biso   1.000  O
  N401     1.0000 0.24982  0.47644  0.69278  Biso   1.000  N
  O228     1.0000 0.35928  0.61849  0.69592  Biso   1.000  O
  C678     1.0000 0.25652  0.40702  0.73209  Biso   1.000  C
  N402     1.0000 0.43035  0.38629  0.74219  Biso   1.000  N
  H698     1.0000 0.37600  0.44053  0.82942  Biso   1.000  H
  H699     1.0000 0.55641  0.34012  0.74681  Biso   1.000  H
  H700     1.0000 0.56678  0.40551  0.81658  Biso   1.000  H
  C679     1.0000 0.84223  0.71821  0.36770  Biso   1.000  C
  N403     1.0000 0.87498  0.55009  0.42298  Biso   1.000  N
  H701     1.0000 0.00485  0.66501  0.43901  Biso   1.000  H
  C680     1.0000 0.85540  0.49871  0.47952  Biso   1.000  C
  C681     1.0000 0.14460  0.47883  0.65598  Biso   1.000  C
  N404     1.0000 0.25409  0.33612  0.68211  Biso   1.000  N
  H702     1.0000 0.19747  0.39038  0.76797  Biso   1.000  H
  C682     1.0000 0.35870  0.32510  0.68907  Biso   1.000  C
  N405     1.0000 0.74590  0.66389  0.31789  Biso   1.000  N
  H703     1.0000 0.83435  0.77222  0.37683  Biso   1.000  H
  H704     1.0000 0.91168  0.72679  0.34220  Biso   1.000  H
  C683     1.0000 0.85542  0.52124  0.34402  Biso   1.000  C
  O229     1.0000 0.82039  0.42122  0.46879  Biso   1.000  O
  N406     1.0000 0.12500  0.44991  0.57702  Biso   1.000  N
  H705     1.0000 0.14715  0.53593  0.66231  Biso   1.000  H
  H706     1.0000 0.08014  0.44484  0.68148  Biso   1.000  H
  C684     1.0000 0.15775  0.28180  0.63230  Biso   1.000  C
  O230     1.0000 0.38035  0.26888  0.65478  Biso   1.000  O
  C685     1.0000 0.74355  0.59298  0.26791  Biso   1.000  C
  C686     1.0000 0.64135  0.67489  0.31087  Biso   1.000  C
  N407     1.0000 0.75020  0.52363  0.30722  Biso   1.000  N
  H707     1.0000 0.85295  0.46413  0.33769  Biso   1.000  H
  H708     1.0000 0.91996  0.55523  0.31852  Biso   1.000  H
  C687     1.0000 0.07300  0.36174  0.54541  Biso   1.000  C
  C688     1.0000 0.14459  0.50129  0.52048  Biso   1.000  C
  N408     1.0000 0.14419  0.31211  0.55922  Biso   1.000  N
  H709     1.0000 0.16564  0.22779  0.62318  Biso   1.000  H
  H710     1.0000 0.08831  0.27322  0.65781  Biso   1.000  H
  C689     1.0000 0.62133  0.55763  0.22581  Biso   1.000  C
  H711     1.0000 0.80250  0.60961  0.23197  Biso   1.000  H
  N409     1.0000 0.56963  0.61372  0.25782  Biso   1.000  N
  O231     1.0000 0.61964  0.73113  0.34522  Biso   1.000  O
  C690     1.0000 0.65369  0.45253  0.28629  Biso   1.000  C
  C691     1.0000 0.07131  0.36671  0.45909  Biso   1.000  C
  H712     1.0000 0.99521  0.33499  0.56099  Biso   1.000  H
  N410     1.0000 0.11725  0.45408  0.45168  Biso   1.000  N
  O232     1.0000 0.17959  0.57878  0.53121  Biso   1.000  O
  C692     1.0000 0.18027  0.28648  0.49390  Biso   1.000  C
  N411     1.0000 0.57592  0.47271  0.24452  Biso   1.000  N
  H713     1.0000 0.62402  0.55954  0.17058  Biso   1.000  H
  C693     1.0000 0.45072  0.60662  0.23830  Biso   1.000  C
  O233     1.0000 0.64070  0.38152  0.30409  Biso   1.000  O
  N412     1.0000 0.14443  0.32079  0.43462  Biso   1.000  N
  H714     1.0000 0.99291  0.34053  0.43411  Biso   1.000  H
  C694     1.0000 0.11629  0.49011  0.37951  Biso   1.000  C
  O234     1.0000 0.23425  0.23960  0.48819  Biso   1.000  O
  C695     1.0000 0.47164  0.40891  0.20299  Biso   1.000  C
  N413     1.0000 0.36682  0.54150  0.27499  Biso   1.000  N
  H715     1.0000 0.44368  0.65994  0.25320  Biso   1.000  H
  H716     1.0000 0.43321  0.59449  0.18342  Biso   1.000  H
  C696     1.0000 0.14607  0.29319  0.35572  Biso   1.000  C
  N414     1.0000 0.20894  0.48954  0.33449  Biso   1.000  N
  H717     1.0000 0.04355  0.45901  0.34973  Biso   1.000  H
  H718     1.0000 0.12089  0.54741  0.39018  Biso   1.000  H
  N415     1.0000 0.36738  0.39991  0.23922  Biso   1.000  N
  H719     1.0000 0.46306  0.42380  0.15181  Biso   1.000  H
  H720     1.0000 0.48155  0.35542  0.19883  Biso   1.000  H
  C697     1.0000 0.30762  0.45641  0.23460  Biso   1.000  C
  C698     1.0000 0.30419  0.56079  0.32719  Biso   1.000  C
  N416     1.0000 0.23124  0.35471  0.31709  Biso   1.000  N
  H721     1.0000 0.07038  0.28050  0.32947  Biso   1.000  H
  H722     1.0000 0.16205  0.24190  0.35281  Biso   1.000  H
  C699     1.0000 0.20393  0.41933  0.28201  Biso   1.000  C
  C700     1.0000 0.31949  0.33960  0.28663  Biso   1.000  C
  H723     1.0000 0.28193  0.45870  0.18160  Biso   1.000  H
  O235     1.0000 0.32409  0.62931  0.36222  Biso   1.000  O
  H724     1.0000 0.13085  0.39622  0.24972  Biso   1.000  H
  O236     1.0000 0.35143  0.28132  0.29781  Biso   1.000  O
