data_image0
_cell_length_a       27.786
_cell_length_b       27.854
_cell_length_c       29.362
_cell_angle_alpha    111.47
_cell_angle_beta     101.32
_cell_angle_gamma    105.4

_symmetry_space_group_name_H-M    "P 1"
_symmetry_int_tables_number       1

loop_
  _symmetry_equiv_pos_as_xyz
  'x, y, z'

loop_
  _atom_site_label
  _atom_site_occupancy
  _atom_site_fract_x
  _atom_site_fract_y
  _atom_site_fract_z
  _atom_site_thermal_displace_type
  _atom_site_B_iso_or_equiv
  _atom_site_type_symbol
  C1       1.0000 0.98770  0.55996  0.70594  Biso   1.000  C
  C2       1.0000 0.99383  0.54499  0.74637  Biso   1.000  C
  C3       1.0000 0.93759  0.55066  0.67635  Biso   1.000  C
  H1       1.0000 0.01729  0.57628  0.69874  Biso   1.000  H
  B1       1.0000 0.05040  0.54867  0.77894  Biso   1.000  B
  C4       1.0000 0.94961  0.52067  0.75714  Biso   1.000  C
  B2       1.0000 0.93301  0.56687  0.63484  Biso   1.000  B
  C5       1.0000 0.89340  0.52629  0.68716  Biso   1.000  C
  O1       1.0000 0.09420  0.57258  0.76976  Biso   1.000  O
  O2       1.0000 0.05653  0.53579  0.81995  Biso   1.000  O
  C6       1.0000 0.89951  0.51126  0.72755  Biso   1.000  C
  H2       1.0000 0.95364  0.51070  0.78417  Biso   1.000  H
  O3       1.0000 0.97399  0.59216  0.61985  Biso   1.000  O
  O4       1.0000 0.88461  0.56425  0.60544  Biso   1.000  O
  H3       1.0000 0.85993  0.52007  0.66737  Biso   1.000  H
  C7       1.0000 0.13374  0.57161  0.80667  Biso   1.000  C
  C8       1.0000 0.11201  0.55159  0.83796  Biso   1.000  C
  B3       1.0000 0.84944  0.48541  0.73797  Biso   1.000  B
  C9       1.0000 0.95302  0.59927  0.57814  Biso   1.000  C
  C10      1.0000 0.89911  0.58057  0.57043  Biso   1.000  C
  C11      1.0000 0.18762  0.58669  0.81477  Biso   1.000  C
  C12      1.0000 0.14421  0.54670  0.87735  Biso   1.000  C
  O5       1.0000 0.84821  0.46728  0.77615  Biso   1.000  O
  O6       1.0000 0.79891  0.47788  0.71016  Biso   1.000  O
  C13      1.0000 0.97232  0.62016  0.54634  Biso   1.000  C
  C14      1.0000 0.86452  0.58299  0.53085  Biso   1.000  C
  C15      1.0000 0.21992  0.58169  0.85407  Biso   1.000  C
  H4       1.0000 0.20211  0.60001  0.79377  Biso   1.000  H
  C16      1.0000 0.19821  0.56178  0.88544  Biso   1.000  C
  H5       1.0000 0.12973  0.53330  0.89826  Biso   1.000  H
  C17      1.0000 0.79642  0.44667  0.77275  Biso   1.000  C
  C18      1.0000 0.76773  0.45340  0.73266  Biso   1.000  C
  C19      1.0000 0.93760  0.62256  0.50672  Biso   1.000  C
  H6       1.0000 0.00840  0.63268  0.55153  Biso   1.000  H
  C20      1.0000 0.88370  0.60396  0.49906  Biso   1.000  C
  H7       1.0000 0.82839  0.57045  0.52562  Biso   1.000  H
  C21      1.0000 0.27883  0.59878  0.86836  Biso   1.000  C
  C22      1.0000 0.23672  0.56019  0.92967  Biso   1.000  C
  C23      1.0000 0.77052  0.42330  0.79986  Biso   1.000  C
  C24      1.0000 0.71301  0.43667  0.71953  Biso   1.000  C
  C25      1.0000 0.96438  0.64575  0.47404  Biso   1.000  C
  C26      1.0000 0.85877  0.61274  0.45452  Biso   1.000  C
  C27      1.0000 0.29523  0.63798  0.92456  Biso   1.000  C
  C28      1.0000 0.28663  0.54639  0.86805  Biso   1.000  C
  H8       1.0000 0.29502  0.61367  0.84714  Biso   1.000  H
  C29      1.0000 0.27412  0.62009  0.95728  Biso   1.000  C
  C30      1.0000 0.26412  0.52708  0.89935  Biso   1.000  C
  H9       1.0000 0.22074  0.54549  0.95097  Biso   1.000  H
  C31      1.0000 0.71590  0.40659  0.78684  Biso   1.000  C
  H10      1.0000 0.78973  0.41878  0.82677  Biso   1.000  H
  C32      1.0000 0.68719  0.41318  0.74664  Biso   1.000  C
  H11      1.0000 0.69379  0.44105  0.69273  Biso   1.000  H
  C33      1.0000 0.93840  0.68928  0.47214  Biso   1.000  C
  C34      1.0000 0.93097  0.60156  0.41932  Biso   1.000  C
  H12      1.0000 0.00290  0.65777  0.48345  Biso   1.000  H
  C35      1.0000 0.88450  0.67248  0.46443  Biso   1.000  C
  C36      1.0000 0.87707  0.58265  0.41134  Biso   1.000  C
  H13      1.0000 0.82019  0.60016  0.44503  Biso   1.000  H
  C37      1.0000 0.33075  0.69213  0.94388  Biso   1.000  C
  C38      1.0000 0.31460  0.51908  0.84087  Biso   1.000  C
  C39      1.0000 0.28836  0.65630  0.00929  Biso   1.000  C
  C40      1.0000 0.26971  0.48060  0.90357  Biso   1.000  C
  C41      1.0000 0.68633  0.37961  0.81546  Biso   1.000  C
  C42      1.0000 0.62890  0.39846  0.74254  Biso   1.000  C
  C43      1.0000 0.96740  0.74416  0.48515  Biso   1.000  C
  C44      1.0000 0.95097  0.57353  0.38252  Biso   1.000  C
  C45      1.0000 0.85960  0.71046  0.46986  Biso   1.000  C
  C46      1.0000 0.84306  0.53564  0.36653  Biso   1.000  C
  C47      1.0000 0.34506  0.72841  0.99597  Biso   1.000  C
  H14      1.0000 0.34484  0.70411  0.92196  Biso   1.000  H
  C48      1.0000 0.32012  0.47258  0.84505  Biso   1.000  C
  C49      1.0000 0.33743  0.53981  0.80667  Biso   1.000  C
  C50      1.0000 0.32385  0.71039  0.02858  Biso   1.000  C
  H15      1.0000 0.27424  0.64432  0.03121  Biso   1.000  H
  C51      1.0000 0.29771  0.45339  0.87634  Biso   1.000  C
  C52      1.0000 0.25275  0.46351  0.94206  Biso   1.000  C
  C53      1.0000 0.65781  0.42437  0.83425  Biso   1.000  C
  C54      1.0000 0.64211  0.33027  0.77174  Biso   1.000  C
  H16      1.0000 0.70721  0.37327  0.84215  Biso   1.000  H
  C55      1.0000 0.62780  0.43096  0.79474  Biso   1.000  C
  C56      1.0000 0.61221  0.33758  0.73274  Biso   1.000  C
  H17      1.0000 0.60802  0.40419  0.71535  Biso   1.000  H
  C57      1.0000 0.94258  0.78214  0.49042  Biso   1.000  C
  H18      1.0000 0.00350  0.75546  0.49023  Biso   1.000  H
  C58      1.0000 0.91686  0.52655  0.33772  Biso   1.000  C
  C59      1.0000 0.00818  0.59744  0.38802  Biso   1.000  C
  C60      1.0000 0.88871  0.76536  0.48283  Biso   1.000  C
  H19      1.0000 0.82361  0.69918  0.46474  Biso   1.000  H
  C61      1.0000 0.86296  0.50765  0.32974  Biso   1.000  C
  C62      1.0000 0.78496  0.51104  0.35573  Biso   1.000  C
  O7       1.0000 0.37655  0.78480  0.02599  Biso   1.000  O
  H20      1.0000 0.33892  0.45438  0.82685  Biso   1.000  H
  H21      1.0000 0.31451  0.55510  0.79195  Biso   1.000  H
  H22      1.0000 0.33881  0.50886  0.77824  Biso   1.000  H
  C63      1.0000 0.39344  0.58469  0.83638  Biso   1.000  C
  O8       1.0000 0.33956  0.75133  0.07761  Biso   1.000  O
  H23      1.0000 0.30143  0.42229  0.87917  Biso   1.000  H
  H24      1.0000 0.25784  0.49591  0.97308  Biso   1.000  H
  H25      1.0000 0.27301  0.44319  0.95167  Biso   1.000  H
  C64      1.0000 0.19451  0.42679  0.91646  Biso   1.000  C
  C65      1.0000 0.66291  0.45569  0.88544  Biso   1.000  C
  C66      1.0000 0.63182  0.27737  0.76887  Biso   1.000  C
  C67      1.0000 0.60281  0.46887  0.80644  Biso   1.000  C
  C68      1.0000 0.57207  0.29206  0.69084  Biso   1.000  C
  O9       1.0000 0.96581  0.83816  0.50622  Biso   1.000  O
  H26      1.0000 0.93027  0.50785  0.31305  Biso   1.000  H
  H27      1.0000 0.01256  0.58677  0.35414  Biso   1.000  H
  H28      1.0000 0.02136  0.63767  0.40603  Biso   1.000  H
  C69      1.0000 0.03899  0.57426  0.41955  Biso   1.000  C
  O10      1.0000 0.87539  0.81256  0.49425  Biso   1.000  O
  H29      1.0000 0.84018  0.47614  0.29973  Biso   1.000  H
  H30      1.0000 0.77517  0.47414  0.35394  Biso   1.000  H
  H31      1.0000 0.77459  0.53395  0.38283  Biso   1.000  H
  C70      1.0000 0.75826  0.50806  0.30383  Biso   1.000  C
  B4       1.0000 0.37364  0.79410  0.07269  Biso   1.000  B
  H32      1.0000 0.40511  0.60008  0.81426  Biso   1.000  H
  H33      1.0000 0.41723  0.56840  0.84687  Biso   1.000  H
  H34      1.0000 0.39273  0.61358  0.86635  Biso   1.000  H
  H35      1.0000 0.17780  0.43940  0.89365  Biso   1.000  H
  H36      1.0000 0.17801  0.42871  0.94257  Biso   1.000  H
  H37      1.0000 0.19100  0.38920  0.89695  Biso   1.000  H
  C71      1.0000 0.63794  0.49362  0.89718  Biso   1.000  C
  H38      1.0000 0.68301  0.45127  0.91186  Biso   1.000  H
  C72      1.0000 0.59169  0.23188  0.72697  Biso   1.000  C
  C73      1.0000 0.65783  0.26929  0.81267  Biso   1.000  C
  C74      1.0000 0.60782  0.50021  0.85768  Biso   1.000  C
  H39      1.0000 0.58271  0.47338  0.78007  Biso   1.000  H
  C75      1.0000 0.56188  0.23925  0.68793  Biso   1.000  C
  C76      1.0000 0.53729  0.29858  0.64924  Biso   1.000  C
  B5       1.0000 0.92002  0.85337  0.50312  Biso   1.000  B
  H40      1.0000 0.05109  0.54867  0.39724  Biso   1.000  H
  H41      1.0000 0.06877  0.60435  0.44743  Biso   1.000  H
  H42      1.0000 0.01609  0.55547  0.43334  Biso   1.000  H
  H43      1.0000 0.76556  0.54545  0.30704  Biso   1.000  H
  H44      1.0000 0.77168  0.48875  0.27811  Biso   1.000  H
  H45      1.0000 0.72086  0.48944  0.29353  Biso   1.000  H
  C77      1.0000 0.39836  0.85501  0.11909  Biso   1.000  C
  O11      1.0000 0.63942  0.52789  0.94536  Biso   1.000  O
  H46      1.0000 0.58488  0.19656  0.72503  Biso   1.000  H
  H47      1.0000 0.66141  0.29909  0.84497  Biso   1.000  H
  H48      1.0000 0.63612  0.23457  0.81085  Biso   1.000  H
  C78      1.0000 0.71182  0.26819  0.81186  Biso   1.000  C
  O12      1.0000 0.58901  0.54039  0.87975  Biso   1.000  O
  H49      1.0000 0.53509  0.20877  0.65985  Biso   1.000  H
  H50      1.0000 0.50477  0.26616  0.63104  Biso   1.000  H
  H51      1.0000 0.52839  0.33088  0.66466  Biso   1.000  H
  C79      1.0000 0.56670  0.30537  0.61055  Biso   1.000  C
  C80      1.0000 0.92741  0.91627  0.52276  Biso   1.000  C
  C81      1.0000 0.42858  0.89854  0.11192  Biso   1.000  C
  C82      1.0000 0.39165  0.86481  0.16699  Biso   1.000  C
  B6       1.0000 0.60735  0.55662  0.93188  Biso   1.000  B
  H52      1.0000 0.73511  0.28347  0.84675  Biso   1.000  H
  H53      1.0000 0.70890  0.23057  0.79316  Biso   1.000  H
  H54      1.0000 0.72579  0.28988  0.79517  Biso   1.000  H
  H55      1.0000 0.59618  0.34006  0.62763  Biso   1.000  H
  H56      1.0000 0.57907  0.27547  0.59855  Biso   1.000  H
  H57      1.0000 0.54289  0.30467  0.58166  Biso   1.000  H
  C83      1.0000 0.97614  0.95878  0.53984  Biso   1.000  C
  C84      1.0000 0.88202  0.92849  0.52245  Biso   1.000  C
  C85      1.0000 0.45209  0.95171  0.15251  Biso   1.000  C
  H58      1.0000 0.43306  0.89191  0.07990  Biso   1.000  H
  C86      1.0000 0.41519  0.91804  0.20762  Biso   1.000  C
  H59      1.0000 0.37148  0.83573  0.17180  Biso   1.000  H
  C87      1.0000 0.60085  0.60629  0.97246  Biso   1.000  C
  C88      1.0000 0.97936  0.01348  0.55664  Biso   1.000  C
  H60      1.0000 0.00650  0.95068  0.53995  Biso   1.000  H
  C89      1.0000 0.88535  0.98319  0.53926  Biso   1.000  C
  H61      1.0000 0.84942  0.90005  0.51095  Biso   1.000  H
  B7       1.0000 0.48388  0.99871  0.14240  Biso   1.000  B
  C90      1.0000 0.44540  0.96152  0.20030  Biso   1.000  C
  B8       1.0000 0.40699  0.92643  0.25711  Biso   1.000  B
  C91      1.0000 0.62344  0.62380  0.02510  Biso   1.000  C
  C92      1.0000 0.57162  0.63360  0.95546  Biso   1.000  C
  B9       1.0000 0.03275  0.05828  0.57713  Biso   1.000  B
  C93      1.0000 0.93395  0.02566  0.55634  Biso   1.000  C
  B10      1.0000 0.83413  0.99627  0.53755  Biso   1.000  B
  O13      1.0000 0.50624  0.05532  0.18221  Biso   1.000  O
  O14      1.0000 0.49486  0.99641  0.09922  Biso   1.000  O
  H62      1.0000 0.46110  0.99715  0.22753  Biso   1.000  H
  O15      1.0000 0.42310  0.97914  0.30200  Biso   1.000  O
  O16      1.0000 0.37890  0.88685  0.26962  Biso   1.000  O
  C94      1.0000 0.61696  0.66870  0.06080  Biso   1.000  C
  H63      1.0000 0.64295  0.60552  0.03640  Biso   1.000  H
  C95      1.0000 0.56517  0.67852  0.99129  Biso   1.000  C
  H64      1.0000 0.55644  0.62190  0.92018  Biso   1.000  H
  O17      1.0000 0.08136  0.04828  0.57915  Biso   1.000  O
  O18      1.0000 0.04537  0.11486  0.59696  Biso   1.000  O
  H65      1.0000 0.93615  0.06225  0.56753  Biso   1.000  H
  O19      1.0000 0.83427  0.05047  0.55785  Biso   1.000  O
  O20      1.0000 0.78632  0.95467  0.52214  Biso   1.000  O
  C96      1.0000 0.52965  0.08293  0.15642  Biso   1.000  C
  C97      1.0000 0.52289  0.04800  0.10569  Biso   1.000  C
  C98      1.0000 0.40519  0.96695  0.33802  Biso   1.000  C
  C99      1.0000 0.37739  0.91025  0.31873  Biso   1.000  C
  B11      1.0000 0.64396  0.68960  0.11611  Biso   1.000  B
  C100     1.0000 0.58777  0.69603  0.04392  Biso   1.000  C
  B12      1.0000 0.53146  0.70729  0.97037  Biso   1.000  B
  C101     1.0000 0.11996  0.09978  0.60025  Biso   1.000  C
  C102     1.0000 0.09849  0.14078  0.61156  Biso   1.000  C
  C103     1.0000 0.78134  0.03936  0.55153  Biso   1.000  C
  C104     1.0000 0.75211  0.98296  0.53155  Biso   1.000  C
  C105     1.0000 0.55522  0.13991  0.17582  Biso   1.000  C
  C106     1.0000 0.54172  0.07010  0.07440  Biso   1.000  C
  C107     1.0000 0.40947  0.00305  0.38743  Biso   1.000  C
  C108     1.0000 0.35390  0.88982  0.34882  Biso   1.000  C
  O21      1.0000 0.67657  0.66611  0.13810  Biso   1.000  O
  O22      1.0000 0.64086  0.73372  0.15731  Biso   1.000  O
  H66      1.0000 0.58347  0.72602  0.06781  Biso   1.000  H
  O23      1.0000 0.50994  0.69060  0.91805  Biso   1.000  O
  O24      1.0000 0.52055  0.75150  0.00329  Biso   1.000  O
  C109     1.0000 0.17415  0.11427  0.61094  Biso   1.000  C
  C110     1.0000 0.13128  0.19636  0.63344  Biso   1.000  C
  C111     1.0000 0.75657  0.07747  0.56365  Biso   1.000  C
  C112     1.0000 0.69824  0.96467  0.52346  Biso   1.000  C
  C113     1.0000 0.57401  0.16206  0.14449  Biso   1.000  C
  H67      1.0000 0.55976  0.16333  0.20983  Biso   1.000  H
  C114     1.0000 0.56731  0.12719  0.09380  Biso   1.000  C
  H68      1.0000 0.53721  0.04679  0.04039  Biso   1.000  H
  C115     1.0000 0.38601  0.98254  0.41760  Biso   1.000  C
  H69      1.0000 0.42804  0.04093  0.40041  Biso   1.000  H
  C116     1.0000 0.35820  0.92595  0.39831  Biso   1.000  C
  H70      1.0000 0.33531  0.85194  0.33592  Biso   1.000  H
  C117     1.0000 0.69308  0.69732  0.19081  Biso   1.000  C
  C118     1.0000 0.67148  0.73823  0.20231  Biso   1.000  C
  C119     1.0000 0.48391  0.72558  0.91635  Biso   1.000  C
  C120     1.0000 0.49064  0.76111  0.96685  Biso   1.000  C
  C121     1.0000 0.20696  0.16987  0.63286  Biso   1.000  C
  H71      1.0000 0.18855  0.08687  0.60343  Biso   1.000  H
  C122     1.0000 0.18555  0.21085  0.64413  Biso   1.000  C
  H72      1.0000 0.11697  0.22379  0.64096  Biso   1.000  H
  C123     1.0000 0.70256  0.05918  0.55556  Biso   1.000  C
  H73      1.0000 0.77608  0.11529  0.57705  Biso   1.000  H
  C124     1.0000 0.67334  0.00276  0.53554  Biso   1.000  C
  H74      1.0000 0.67862  0.92697  0.51006  Biso   1.000  H
  C125     1.0000 0.60214  0.22312  0.15890  Biso   1.000  C
  C126     1.0000 0.58860  0.15089  0.06189  Biso   1.000  C
  C127     1.0000 0.38717  0.01673  0.47283  Biso   1.000  C
  C128     1.0000 0.33361  0.90615  0.43061  Biso   1.000  C
  C129     1.0000 0.72608  0.69362  0.23043  Biso   1.000  C
  C130     1.0000 0.68300  0.77545  0.25363  Biso   1.000  C
  C131     1.0000 0.45444  0.73000  0.87495  Biso   1.000  C
  C132     1.0000 0.46784  0.80099  0.97595  Biso   1.000  C
  C133     1.0000 0.26996  0.19316  0.64994  Biso   1.000  C
  C134     1.0000 0.22568  0.27007  0.67085  Biso   1.000  C
  C135     1.0000 0.66657  0.09394  0.56942  Biso   1.000  C
  C136     1.0000 0.61302  0.98338  0.52725  Biso   1.000  C
  C137     1.0000 0.56852  0.23021  0.11591  Biso   1.000  C
  C138     1.0000 0.65144  0.22512  0.14500  Biso   1.000  C
  H75      1.0000 0.60733  0.24921  0.19430  Biso   1.000  H
  C139     1.0000 0.56184  0.19472  0.06541  Biso   1.000  C
  C140     1.0000 0.64602  0.18791  0.09550  Biso   1.000  C
  H76      1.0000 0.58350  0.12420  0.02680  Biso   1.000  H
  C141     1.0000 0.32681  0.99735  0.46454  Biso   1.000  C
  H77      1.0000 0.40656  0.05683  0.48812  Biso   1.000  H
  C142     1.0000 0.40514  0.98718  0.50214  Biso   1.000  C
  C143     1.0000 0.29760  0.94093  0.44452  Biso   1.000  C
  C144     1.0000 0.37762  0.93026  0.48154  Biso   1.000  C
  H78      1.0000 0.31509  0.86585  0.41512  Biso   1.000  H
  C145     1.0000 0.73759  0.73071  0.28171  Biso   1.000  C
  H79      1.0000 0.74048  0.66624  0.22272  Biso   1.000  H
  C146     1.0000 0.71610  0.77161  0.29321  Biso   1.000  C
  H80      1.0000 0.66859  0.80280  0.26130  Biso   1.000  H
  C147     1.0000 0.43163  0.76990  0.88417  Biso   1.000  C
  H81      1.0000 0.44994  0.70620  0.84125  Biso   1.000  H
  C148     1.0000 0.43835  0.80539  0.93467  Biso   1.000  C
  H82      1.0000 0.47226  0.82469  0.00968  Biso   1.000  H
  C149     1.0000 0.28409  0.22850  0.70687  Biso   1.000  C
  C150     1.0000 0.28188  0.23197  0.62546  Biso   1.000  C
  H83      1.0000 0.28546  0.16458  0.64126  Biso   1.000  H
  C151     1.0000 0.26259  0.26939  0.71833  Biso   1.000  C
  C152     1.0000 0.26117  0.27337  0.63925  Biso   1.000  C
  H84      1.0000 0.21077  0.29926  0.67933  Biso   1.000  H
  C153     1.0000 0.64196  0.07416  0.60176  Biso   1.000  C
  C154     1.0000 0.62257  0.06985  0.51854  Biso   1.000  C
  H85      1.0000 0.68506  0.13427  0.58495  Biso   1.000  H
  C155     1.0000 0.61418  0.01758  0.58248  Biso   1.000  C
  H86      1.0000 0.59363  0.94328  0.51195  Biso   1.000  H
  C156     1.0000 0.59506  0.01297  0.49793  Biso   1.000  C
  C157     1.0000 0.54573  0.27009  0.12509  Biso   1.000  C
  C158     1.0000 0.70132  0.26221  0.17931  Biso   1.000  C
  C159     1.0000 0.53230  0.19911  0.02409  Biso   1.000  C
  C160     1.0000 0.69033  0.18779  0.08040  Biso   1.000  C
  C161     1.0000 0.30195  0.03544  0.47662  Biso   1.000  C
  C162     1.0000 0.44497  0.01474  0.54982  Biso   1.000  C
  C163     1.0000 0.24362  0.92264  0.43642  Biso   1.000  C
  C164     1.0000 0.39013  0.90106  0.50853  Biso   1.000  C
  C165     1.0000 0.77448  0.73004  0.32922  Biso   1.000  C
  C166     1.0000 0.73019  0.80695  0.35014  Biso   1.000  C
  C167     1.0000 0.39805  0.77700  0.84118  Biso   1.000  C
  C168     1.0000 0.41154  0.84920  0.93815  Biso   1.000  C
  C169     1.0000 0.31719  0.22466  0.74645  Biso   1.000  C
  C170     1.0000 0.31258  0.23027  0.59313  Biso   1.000  C
  C171     1.0000 0.27408  0.30649  0.76965  Biso   1.000  C
  C172     1.0000 0.27106  0.31319  0.62074  Biso   1.000  C
  C173     1.0000 0.64627  0.11033  0.65126  Biso   1.000  C
  C174     1.0000 0.61006  0.09905  0.49154  Biso   1.000  C
  C175     1.0000 0.59072  0.99706  0.61265  Biso   1.000  C
  C176     1.0000 0.55521  0.98536  0.45022  Biso   1.000  C
  C177     1.0000 0.51623  0.27451  0.08369  Biso   1.000  C
  H87      1.0000 0.55025  0.29391  0.15882  Biso   1.000  H
  C178     1.0000 0.74575  0.26213  0.16421  Biso   1.000  C
  C179     1.0000 0.70876  0.29644  0.23562  Biso   1.000  C
  C180     1.0000 0.50950  0.23898  0.03319  Biso   1.000  C
  H88      1.0000 0.52792  0.17540  0.99036  Biso   1.000  H
  C181     1.0000 0.74024  0.22491  0.11479  Biso   1.000  C
  C182     1.0000 0.68491  0.14701  0.02699  Biso   1.000  C
  C183     1.0000 0.24805  0.01715  0.46853  Biso   1.000  C
  H89      1.0000 0.32157  0.07315  0.49002  Biso   1.000  H
  C184     1.0000 0.47008  0.07604  0.57762  Biso   1.000  C
  C185     1.0000 0.45751  0.98544  0.57693  Biso   1.000  C
  C186     1.0000 0.21881  0.96075  0.44854  Biso   1.000  C
  H90      1.0000 0.22412  0.88486  0.42302  Biso   1.000  H
  C187     1.0000 0.43012  0.92867  0.55625  Biso   1.000  C
  C188     1.0000 0.35870  0.84046  0.49014  Biso   1.000  C
  C189     1.0000 0.81459  0.78924  0.35591  Biso   1.000  C
  C190     1.0000 0.73898  0.72674  0.36083  Biso   1.000  C
  H91      1.0000 0.78937  0.70083  0.32070  Biso   1.000  H
  C191     1.0000 0.79320  0.83024  0.36722  Biso   1.000  C
  C192     1.0000 0.71831  0.76814  0.37461  Biso   1.000  C
  H92      1.0000 0.71469  0.83553  0.35881  Biso   1.000  H
  C193     1.0000 0.42613  0.83803  0.85555  Biso   1.000  C
  C194     1.0000 0.34874  0.77497  0.85504  Biso   1.000  C
  H93      1.0000 0.39281  0.75088  0.80574  Biso   1.000  H
  C195     1.0000 0.43284  0.87292  0.90628  Biso   1.000  C
  C196     1.0000 0.35413  0.81220  0.90457  Biso   1.000  C
  H94      1.0000 0.41665  0.87591  0.97328  Biso   1.000  H
  C197     1.0000 0.32871  0.26188  0.79776  Biso   1.000  C
  H95      1.0000 0.33159  0.19729  0.73874  Biso   1.000  H
  C198     1.0000 0.32237  0.26996  0.57465  Biso   1.000  C
  C199     1.0000 0.33406  0.18457  0.57733  Biso   1.000  C
  C200     1.0000 0.30711  0.30279  0.80927  Biso   1.000  C
  H96      1.0000 0.25968  0.33387  0.77735  Biso   1.000  H
  C201     1.0000 0.30167  0.31139  0.58844  Biso   1.000  C
  C202     1.0000 0.25149  0.35956  0.63584  Biso   1.000  C
  C203     1.0000 0.62277  0.08986  0.68135  Biso   1.000  C
  H97      1.0000 0.66488  0.14818  0.66415  Biso   1.000  H
  C204     1.0000 0.57003  0.07144  0.44383  Biso   1.000  C
  C205     1.0000 0.64146  0.15965  0.50994  Biso   1.000  C
  C206     1.0000 0.59496  0.03316  0.66206  Biso   1.000  C
  H98      1.0000 0.57210  0.95917  0.59963  Biso   1.000  H
  C207     1.0000 0.53011  0.92408  0.42245  Biso   1.000  C
  C208     1.0000 0.54264  0.01467  0.42315  Biso   1.000  C
  O25      1.0000 0.49024  0.30949  0.08199  Biso   1.000  O
  H99      1.0000 0.77904  0.28692  0.18721  Biso   1.000  H
  H100     1.0000 0.74557  0.31012  0.25653  Biso   1.000  H
  H101     1.0000 0.68746  0.27412  0.24832  Biso   1.000  H
  C209     1.0000 0.69145  0.34472  0.23802  Biso   1.000  C
  O26      1.0000 0.47961  0.24861  0.99679  Biso   1.000  O
  H102     1.0000 0.76994  0.22483  0.10472  Biso   1.000  H
  H103     1.0000 0.71701  0.15929  0.01921  Biso   1.000  H
  H104     1.0000 0.65593  0.14580  0.00159  Biso   1.000  H
  C210     1.0000 0.67451  0.08790  0.02320  Biso   1.000  C
  O27      1.0000 0.21387  0.04545  0.47794  Biso   1.000  O
  H105     1.0000 0.48567  0.08764  0.61434  Biso   1.000  H
  H106     1.0000 0.44389  0.09247  0.57325  Biso   1.000  H
  C211     1.0000 0.51237  0.09493  0.55582  Biso   1.000  C
  H107     1.0000 0.48418  0.00396  0.60884  Biso   1.000  H
  O28      1.0000 0.16592  0.94964  0.44223  Biso   1.000  O
  H108     1.0000 0.43844  0.90906  0.57433  Biso   1.000  H
  H109     1.0000 0.32119  0.83344  0.47864  Biso   1.000  H
  H110     1.0000 0.36592  0.83033  0.51833  Biso   1.000  H
  C212     1.0000 0.37400  0.80484  0.44463  Biso   1.000  C
  C213     1.0000 0.86891  0.80375  0.36664  Biso   1.000  C
  C214     1.0000 0.72909  0.68693  0.37934  Biso   1.000  C
  C215     1.0000 0.82601  0.88585  0.38914  Biso   1.000  C
  C216     1.0000 0.68760  0.76982  0.40691  Biso   1.000  C
  C217     1.0000 0.44494  0.86020  0.82425  Biso   1.000  C
  C218     1.0000 0.29883  0.73790  0.82077  Biso   1.000  C
  C219     1.0000 0.45847  0.93001  0.92568  Biso   1.000  C
  C220     1.0000 0.30986  0.81232  0.91968  Biso   1.000  C
  O29      1.0000 0.35929  0.26639  0.84277  Biso   1.000  O
  H111     1.0000 0.34287  0.26876  0.55304  Biso   1.000  H
  H112     1.0000 0.34396  0.18196  0.54685  Biso   1.000  H
  H113     1.0000 0.30647  0.14946  0.56815  Biso   1.000  H
  C221     1.0000 0.38226  0.19406  0.62035  Biso   1.000  C
  O30      1.0000 0.32362  0.33400  0.86197  Biso   1.000  O
  H114     1.0000 0.30827  0.33798  0.57605  Biso   1.000  H
  H115     1.0000 0.21507  0.34577  0.63464  Biso   1.000  H
  H116     1.0000 0.25278  0.37595  0.61183  Biso   1.000  H
  C222     1.0000 0.28649  0.40379  0.69126  Biso   1.000  C
  O31      1.0000 0.62130  0.11330  0.73045  Biso   1.000  O
  H117     1.0000 0.56175  0.09105  0.42575  Biso   1.000  H
  H118     1.0000 0.67896  0.16667  0.52144  Biso   1.000  H
  H119     1.0000 0.63427  0.16978  0.48175  Biso   1.000  H
  C223     1.0000 0.62619  0.19527  0.55544  Biso   1.000  C
  O32      1.0000 0.57708  0.02095  0.69804  Biso   1.000  O
  H120     1.0000 0.51452  0.91247  0.38574  Biso   1.000  H
  H121     1.0000 0.55630  0.90764  0.42683  Biso   1.000  H
  C224     1.0000 0.48781  0.90517  0.44422  Biso   1.000  C
  H122     1.0000 0.51601  0.99615  0.39124  Biso   1.000  H
  B13      1.0000 0.46873  0.29282  0.02970  Biso   1.000  B
  H123     1.0000 0.70486  0.35963  0.21622  Biso   1.000  H
  H124     1.0000 0.70508  0.37324  0.27303  Biso   1.000  H
  H125     1.0000 0.65354  0.33182  0.22621  Biso   1.000  H
  H126     1.0000 0.64511  0.07729  0.03458  Biso   1.000  H
  H127     1.0000 0.70531  0.08781  0.04461  Biso   1.000  H
  H128     1.0000 0.66689  0.06229  0.98796  Biso   1.000  H
  B14      1.0000 0.16606  0.00384  0.46253  Biso   1.000  B
  H129     1.0000 0.49627  0.08656  0.52035  Biso   1.000  H
  H130     1.0000 0.53637  0.07594  0.55764  Biso   1.000  H
  H131     1.0000 0.53127  0.13427  0.57565  Biso   1.000  H
  H132     1.0000 0.35031  0.79774  0.41222  Biso   1.000  H
  H133     1.0000 0.37170  0.77024  0.44564  Biso   1.000  H
  H134     1.0000 0.40951  0.82463  0.44781  Biso   1.000  H
  C225     1.0000 0.90170  0.85934  0.38852  Biso   1.000  C
  H135     1.0000 0.88319  0.77632  0.35912  Biso   1.000  H
  C226     1.0000 0.69849  0.68876  0.41164  Biso   1.000  C
  C227     1.0000 0.74870  0.64055  0.36423  Biso   1.000  C
  C228     1.0000 0.88020  0.90034  0.39983  Biso   1.000  C
  H136     1.0000 0.81159  0.91322  0.39661  Biso   1.000  H
  C229     1.0000 0.67782  0.73016  0.42542  Biso   1.000  C
  C230     1.0000 0.66608  0.81552  0.42271  Biso   1.000  C
  C231     1.0000 0.47054  0.91718  0.84366  Biso   1.000  C
  H137     1.0000 0.44043  0.83678  0.79025  Biso   1.000  H
  C232     1.0000 0.25444  0.73799  0.83587  Biso   1.000  C
  C233     1.0000 0.29143  0.70367  0.76446  Biso   1.000  C
  C234     1.0000 0.47725  0.95210  0.89435  Biso   1.000  C
  H138     1.0000 0.46298  0.95333  0.95968  Biso   1.000  H
  C235     1.0000 0.25994  0.77518  0.88525  Biso   1.000  C
  C236     1.0000 0.31524  0.85310  0.97308  Biso   1.000  C
  B15      1.0000 0.35622  0.31051  0.88397  Biso   1.000  B
  H139     1.0000 0.41027  0.18987  0.60656  Biso   1.000  H
  H140     1.0000 0.37276  0.16737  0.63364  Biso   1.000  H
  H141     1.0000 0.39399  0.23078  0.64785  Biso   1.000  H
  H142     1.0000 0.32101  0.42189  0.69095  Biso   1.000  H
  H143     1.0000 0.28961  0.38608  0.71376  Biso   1.000  H
  H144     1.0000 0.27079  0.43069  0.70354  Biso   1.000  H
  B16      1.0000 0.59320  0.07369  0.74296  Biso   1.000  B
  H145     1.0000 0.64988  0.20237  0.58786  Biso   1.000  H
  H146     1.0000 0.62846  0.22987  0.55444  Biso   1.000  H
  H147     1.0000 0.59066  0.17546  0.55223  Biso   1.000  H
  H148     1.0000 0.50389  0.91355  0.47973  Biso   1.000  H
  H149     1.0000 0.46382  0.92417  0.44244  Biso   1.000  H
  H150     1.0000 0.46888  0.86584  0.42443  Biso   1.000  H
  C237     1.0000 0.43502  0.32159  0.00879  Biso   1.000  C
  C238     1.0000 0.11484  0.01692  0.46082  Biso   1.000  C
  O33      1.0000 0.95482  0.88525  0.40312  Biso   1.000  O
  H151     1.0000 0.69188  0.66213  0.42403  Biso   1.000  H
  H152     1.0000 0.78509  0.65434  0.36543  Biso   1.000  H
  H153     1.0000 0.74740  0.62414  0.38821  Biso   1.000  H
  C239     1.0000 0.71367  0.59632  0.30881  Biso   1.000  C
  O34      1.0000 0.91881  0.95187  0.42093  Biso   1.000  O
  H154     1.0000 0.65732  0.73135  0.44703  Biso   1.000  H
  H155     1.0000 0.65620  0.81815  0.45323  Biso   1.000  H
  H156     1.0000 0.69372  0.85065  0.43193  Biso   1.000  H
  C240     1.0000 0.61790  0.80605  0.37973  Biso   1.000  C
  O35      1.0000 0.49395  0.94480  0.81786  Biso   1.000  O
  H157     1.0000 0.22112  0.71319  0.81287  Biso   1.000  H
  H158     1.0000 0.25462  0.68999  0.74354  Biso   1.000  H
  H159     1.0000 0.31273  0.72599  0.75176  Biso   1.000  H
  C241     1.0000 0.30870  0.65539  0.76206  Biso   1.000  C
  O36      1.0000 0.50529  0.00370  0.90086  Biso   1.000  O
  H160     1.0000 0.23021  0.77528  0.89536  Biso   1.000  H
  H161     1.0000 0.28314  0.84082  0.98087  Biso   1.000  H
  H162     1.0000 0.34425  0.85430  0.99845  Biso   1.000  H
  C242     1.0000 0.32565  0.91221  0.97688  Biso   1.000  C
  C243     1.0000 0.38323  0.33141  0.93927  Biso   1.000  C
  C244     1.0000 0.58497  0.08207  0.79246  Biso   1.000  C
  C245     1.0000 0.42853  0.36651  0.04461  Biso   1.000  C
  C246     1.0000 0.41242  0.30408  0.95616  Biso   1.000  C
  C247     1.0000 0.11814  0.07163  0.47763  Biso   1.000  C
  C248     1.0000 0.06620  0.97445  0.44374  Biso   1.000  C
  B17      1.0000 0.96739  0.94182  0.42291  Biso   1.000  B
  H163     1.0000 0.67918  0.57822  0.30912  Biso   1.000  H
  H164     1.0000 0.71058  0.61403  0.28631  Biso   1.000  H
  H165     1.0000 0.72935  0.56940  0.29650  Biso   1.000  H
  H166     1.0000 0.58991  0.81024  0.39351  Biso   1.000  H
  H167     1.0000 0.62738  0.83273  0.36640  Biso   1.000  H
  H168     1.0000 0.60620  0.76933  0.35223  Biso   1.000  H
  B18      1.0000 0.51631  0.00140  0.85768  Biso   1.000  B
  H169     1.0000 0.29533  0.64048  0.78386  Biso   1.000  H
  H170     1.0000 0.29511  0.62687  0.72705  Biso   1.000  H
  H171     1.0000 0.34662  0.66829  0.77387  Biso   1.000  H
  H172     1.0000 0.35507  0.92281  0.96545  Biso   1.000  H
  H173     1.0000 0.29485  0.91230  0.95546  Biso   1.000  H
  H174     1.0000 0.33325  0.93781  0.01208  Biso   1.000  H
  C249     1.0000 0.37671  0.37631  0.97498  Biso   1.000  C
  C250     1.0000 0.60849  0.13528  0.83304  Biso   1.000  C
  C251     1.0000 0.55478  0.03857  0.79974  Biso   1.000  C
  C252     1.0000 0.39934  0.39382  0.02761  Biso   1.000  C
  H175     1.0000 0.44375  0.37821  0.07990  Biso   1.000  H
  H176     1.0000 0.41672  0.27409  0.93227  Biso   1.000  H
  C253     1.0000 0.07274  0.08384  0.47732  Biso   1.000  C
  H177     1.0000 0.15077  0.10006  0.48913  Biso   1.000  H
  C254     1.0000 0.02080  0.98667  0.44343  Biso   1.000  C
  H178     1.0000 0.06399  0.93784  0.43251  Biso   1.000  H
  C255     1.0000 0.54810  0.04840  0.84757  Biso   1.000  C
  H179     1.0000 0.35721  0.39459  0.96367  Biso   1.000  H
  C256     1.0000 0.60178  0.14508  0.88095  Biso   1.000  C
  H180     1.0000 0.62869  0.16436  0.82824  Biso   1.000  H
  H181     1.0000 0.53909  0.00296  0.77255  Biso   1.000  H
  B19      1.0000 0.39284  0.44349  0.06820  Biso   1.000  B
  B20      1.0000 0.08016  0.14672  0.49692  Biso   1.000  B
  C257     1.0000 0.02405  0.04133  0.46024  Biso   1.000  C
  C258     1.0000 0.57161  0.10157  0.88815  Biso   1.000  C
  B21      1.0000 0.62650  0.20600  0.92735  Biso   1.000  B
  O37      1.0000 0.41113  0.45970  0.12029  Biso   1.000  O
  O38      1.0000 0.36073  0.47222  0.05472  Biso   1.000  O
  O39      1.0000 0.03437  0.16194  0.49382  Biso   1.000  O
  O40      1.0000 0.12476  0.18755  0.50582  Biso   1.000  O
  H182     1.0000 0.99365  0.04943  0.46012  Biso   1.000  H
  H183     1.0000 0.56709  0.10820  0.92018  Biso   1.000  H
  O41      1.0000 0.66061  0.24881  0.92247  Biso   1.000  O
  O42      1.0000 0.62362  0.21530  0.97405  Biso   1.000  O
  C259     1.0000 0.39234  0.49991  0.14240  Biso   1.000  C
  C260     1.0000 0.36225  0.50650  0.10290  Biso   1.000  C
  C261     1.0000 0.05756  0.21795  0.50962  Biso   1.000  C
  C262     1.0000 0.11148  0.23475  0.51725  Biso   1.000  C
  C263     1.0000 0.67632  0.28970  0.97146  Biso   1.000  C
  C264     1.0000 0.65513  0.27170  0.00411  Biso   1.000  C
  C265     1.0000 0.39736  0.53122  0.19360  Biso   1.000  C
  C266     1.0000 0.33723  0.54440  0.11460  Biso   1.000  C
  C267     1.0000 0.03279  0.25595  0.51492  Biso   1.000  C
  C268     1.0000 0.14059  0.28965  0.53022  Biso   1.000  C
  C269     1.0000 0.71183  0.34381  0.99078  Biso   1.000  C
  C270     1.0000 0.66945  0.30802  0.05619  Biso   1.000  C
  C271     1.0000 0.37234  0.56913  0.20530  Biso   1.000  C
  H184     1.0000 0.41745  0.52673  0.22001  Biso   1.000  H
  C272     1.0000 0.34237  0.57572  0.16579  Biso   1.000  C
  H185     1.0000 0.31714  0.54884  0.08822  Biso   1.000  H
  C273     1.0000 0.06175  0.31083  0.52794  Biso   1.000  C
  H186     1.0000 0.99668  0.24463  0.50981  Biso   1.000  H
  C274     1.0000 0.11570  0.32767  0.53564  Biso   1.000  C
  H187     1.0000 0.17657  0.30094  0.53533  Biso   1.000  H
  C275     1.0000 0.72603  0.38002  0.04279  Biso   1.000  C
  H188     1.0000 0.72592  0.35579  0.96886  Biso   1.000  H
  C276     1.0000 0.70495  0.36213  0.07552  Biso   1.000  C
  H189     1.0000 0.65532  0.29600  0.07811  Biso   1.000  H
  C277     1.0000 0.37127  0.60163  0.25750  Biso   1.000  C
  C278     1.0000 0.31386  0.62054  0.18462  Biso   1.000  C
  C279     1.0000 0.03577  0.35436  0.52604  Biso   1.000  C
  C280     1.0000 0.14137  0.38735  0.54552  Biso   1.000  C
  C281     1.0000 0.76343  0.43992  0.07041  Biso   1.000  C
  C282     1.0000 0.72136  0.40133  0.13171  Biso   1.000  C
  C283     1.0000 0.31295  0.58691  0.25340  Biso   1.000  C
  C284     1.0000 0.38797  0.66251  0.26730  Biso   1.000  C
  H190     1.0000 0.39217  0.59592  0.28473  Biso   1.000  H
  C285     1.0000 0.28424  0.59351  0.21320  Biso   1.000  C
  C286     1.0000 0.35807  0.66982  0.22830  Biso   1.000  C
  H191     1.0000 0.29294  0.62683  0.15789  Biso   1.000  H
  C287     1.0000 0.06257  0.37753  0.49331  Biso   1.000  C
  C288     1.0000 0.06917  0.39854  0.58072  Biso   1.000  C
  H192     1.0000 0.99729  0.34234  0.51663  Biso   1.000  H
  C289     1.0000 0.11649  0.39616  0.50102  Biso   1.000  C
  C290     1.0000 0.12308  0.41746  0.58874  Biso   1.000  C
  H193     1.0000 0.17999  0.39995  0.55505  Biso   1.000  H
  C291     1.0000 0.80193  0.43831  0.11460  Biso   1.000  C
  C292     1.0000 0.73606  0.47301  0.10069  Biso   1.000  C
  H194     1.0000 0.77945  0.45462  0.04911  Biso   1.000  H
  C293     1.0000 0.78027  0.41842  0.14600  Biso   1.000  C
  C294     1.0000 0.71356  0.45372  0.13202  Biso   1.000  C
  H195     1.0000 0.70516  0.38643  0.15290  Biso   1.000  H
  C295     1.0000 0.28717  0.56342  0.28051  Biso   1.000  C
  C296     1.0000 0.42807  0.70804  0.30920  Biso   1.000  C
  C297     1.0000 0.22967  0.57682  0.20022  Biso   1.000  C
  C298     1.0000 0.36837  0.72274  0.23120  Biso   1.000  C
  C299     1.0000 0.02787  0.37995  0.45373  Biso   1.000  C
  C300     1.0000 0.04918  0.42658  0.61755  Biso   1.000  C
  C301     1.0000 0.13567  0.41712  0.46923  Biso   1.000  C
  C302     1.0000 0.15709  0.46448  0.63355  Biso   1.000  C
  C303     1.0000 0.85593  0.45339  0.12269  Biso   1.000  C
  C304     1.0000 0.73044  0.51952  0.09651  Biso   1.000  C
  C305     1.0000 0.81257  0.41342  0.18531  Biso   1.000  C
  C306     1.0000 0.68555  0.48103  0.15921  Biso   1.000  C
  C307     1.0000 0.23246  0.54671  0.26742  Biso   1.000  C
  H196     1.0000 0.30635  0.55904  0.30730  Biso   1.000  H
  C308     1.0000 0.43826  0.76084  0.31211  Biso   1.000  C
  C309     1.0000 0.46290  0.70153  0.35083  Biso   1.000  C
  C310     1.0000 0.20377  0.55344  0.22733  Biso   1.000  C
  H197     1.0000 0.21046  0.58133  0.17331  Biso   1.000  H
  C311     1.0000 0.40846  0.76823  0.27311  Biso   1.000  C
  C312     1.0000 0.34236  0.73083  0.18740  Biso   1.000  C
  C313     1.0000 0.04717  0.40084  0.42194  Biso   1.000  C
  H198     1.0000 0.99179  0.36743  0.44854  Biso   1.000  H
  C314     1.0000 0.08328  0.47354  0.66232  Biso   1.000  C
  C315     1.0000 0.99201  0.40267  0.61205  Biso   1.000  C
  C316     1.0000 0.10106  0.41953  0.42961  Biso   1.000  C
  H199     1.0000 0.17178  0.42964  0.47441  Biso   1.000  H
  C317     1.0000 0.13719  0.49246  0.67034  Biso   1.000  C
  C318     1.0000 0.21519  0.48908  0.64435  Biso   1.000  C
  C319     1.0000 0.88814  0.44852  0.16211  Biso   1.000  C
  H200     1.0000 0.87046  0.46681  0.10182  Biso   1.000  H
  C320     1.0000 0.70243  0.54671  0.12370  Biso   1.000  C
  C321     1.0000 0.74744  0.53660  0.05801  Biso   1.000  C
  C322     1.0000 0.86645  0.42850  0.19341  Biso   1.000  C
  H201     1.0000 0.79805  0.40014  0.20630  Biso   1.000  H
  C323     1.0000 0.68007  0.52753  0.15503  Biso   1.000  C
  C324     1.0000 0.66276  0.46030  0.19341  Biso   1.000  C
  O43      1.0000 0.20124  0.52223  0.28992  Biso   1.000  O
  H202     1.0000 0.46510  0.79134  0.34022  Biso   1.000  H
  H203     1.0000 0.49539  0.73395  0.36904  Biso   1.000  H
  H204     1.0000 0.47176  0.66923  0.33542  Biso   1.000  H
  C325     1.0000 0.43349  0.69474  0.38952  Biso   1.000  C
  O44      1.0000 0.15194  0.53283  0.22392  Biso   1.000  O
  H205     1.0000 0.41527  0.80354  0.27501  Biso   1.000  H
  H206     1.0000 0.33874  0.70102  0.15510  Biso   1.000  H
  H207     1.0000 0.36407  0.76554  0.18922  Biso   1.000  H
  C326     1.0000 0.28837  0.73192  0.18822  Biso   1.000  C
  O45      1.0000 0.02616  0.40795  0.38023  Biso   1.000  O
  H208     1.0000 0.06988  0.49226  0.68703  Biso   1.000  H
  H209     1.0000 0.98759  0.41334  0.64594  Biso   1.000  H
  H210     1.0000 0.97879  0.36244  0.59404  Biso   1.000  H
  C327     1.0000 0.96120  0.42585  0.58053  Biso   1.000  C
  O46      1.0000 0.11558  0.43586  0.39464  Biso   1.000  O
  H211     1.0000 0.16001  0.52397  0.70035  Biso   1.000  H
  H212     1.0000 0.22498  0.52597  0.64613  Biso   1.000  H
  H213     1.0000 0.22560  0.46617  0.61724  Biso   1.000  H
  C328     1.0000 0.24190  0.49205  0.69625  Biso   1.000  C
  O47      1.0000 0.94366  0.46432  0.18012  Biso   1.000  O
  H214     1.0000 0.69876  0.57782  0.12091  Biso   1.000  H
  H215     1.0000 0.74235  0.50420  0.02699  Biso   1.000  H
  H216     1.0000 0.72714  0.55692  0.04841  Biso   1.000  H
  C329     1.0000 0.80564  0.57332  0.08361  Biso   1.000  C
  O48      1.0000 0.90595  0.42753  0.23031  Biso   1.000  O
  H217     1.0000 0.66127  0.54573  0.17323  Biso   1.000  H
  H218     1.0000 0.68564  0.44501  0.20812  Biso   1.000  H
  H219     1.0000 0.66137  0.49123  0.22179  Biso   1.000  H
  C330     1.0000 0.60675  0.41542  0.16370  Biso   1.000  C
  B22      1.0000 0.15076  0.51474  0.26211  Biso   1.000  B
  H220     1.0000 0.40396  0.66003  0.37241  Biso   1.000  H
  H221     1.0000 0.42108  0.72464  0.40153  Biso   1.000  H
  H222     1.0000 0.45730  0.69544  0.41841  Biso   1.000  H
  H223     1.0000 0.26508  0.71664  0.15332  Biso   1.000  H
  H224     1.0000 0.29129  0.76954  0.20692  Biso   1.000  H
  H225     1.0000 0.27436  0.71023  0.20491  Biso   1.000  H
  B23      1.0000 0.06717  0.43322  0.36520  Biso   1.000  B
  H226     1.0000 0.94910  0.45144  0.60284  Biso   1.000  H
  H227     1.0000 0.93139  0.39576  0.55264  Biso   1.000  H
  H228     1.0000 0.98410  0.44464  0.56674  Biso   1.000  H
  H229     1.0000 0.23459  0.45466  0.69303  Biso   1.000  H
  H230     1.0000 0.22850  0.51134  0.72192  Biso   1.000  H
  H231     1.0000 0.27930  0.51068  0.70655  Biso   1.000  H
  B24      1.0000 0.94977  0.45143  0.22110  Biso   1.000  B
  H232     1.0000 0.82235  0.56071  0.10642  Biso   1.000  H
  H233     1.0000 0.82214  0.57140  0.05751  Biso   1.000  H
  H234     1.0000 0.80914  0.61089  0.10309  Biso   1.000  H
  H235     1.0000 0.59504  0.40003  0.18582  Biso   1.000  H
  H236     1.0000 0.58293  0.43171  0.15321  Biso   1.000  H
  H237     1.0000 0.60746  0.38653  0.13373  Biso   1.000  H
  C331     1.0000 0.10065  0.48885  0.27253  Biso   1.000  C
  C332     1.0000 0.06256  0.44945  0.32373  Biso   1.000  C
  C333     1.0000 0.00636  0.45512  0.25371  Biso   1.000  C
  C334     1.0000 0.10675  0.47382  0.31292  Biso   1.000  C
  C335     1.0000 0.05053  0.47942  0.24290  Biso   1.000  C
  C336     1.0000 0.01244  0.44013  0.29410  Biso   1.000  C
  H238     1.0000 0.14026  0.48004  0.33271  Biso   1.000  H
  H239     1.0000 0.04655  0.48941  0.21591  Biso   1.000  H
  H240     1.0000 0.98285  0.42381  0.30130  Biso   1.000  H
