data_image0
_cell_length_a       18.207
_cell_length_b       21.478
_cell_length_c       11.911
_cell_angle_alpha    101.56
_cell_angle_beta     102.57
_cell_angle_gamma    105.16

_symmetry_space_group_name_H-M    "P 1"
_symmetry_int_tables_number       1

loop_
  _symmetry_equiv_pos_as_xyz
  'x, y, z'

loop_
  _atom_site_label
  _atom_site_occupancy
  _atom_site_fract_x
  _atom_site_fract_y
  _atom_site_fract_z
  _atom_site_thermal_displace_type
  _atom_site_B_iso_or_equiv
  _atom_site_type_symbol
  C1       1.0000 0.01252  0.61490  0.73922  Biso   1.000  C
  O1       1.0000 0.96861  0.65903  0.73600  Biso   1.000  O
  O2       1.0000 0.96860  0.65898  0.73600  Biso   1.000  O
  H1       1.0000 0.97499  0.56601  0.68297  Biso   1.000  H
  O3       1.0000 0.07944  0.63432  0.69880  Biso   1.000  O
  H2       1.0000 0.03201  0.61303  0.82998  Biso   1.000  H
  O4       1.0000 0.07937  0.63428  0.69880  Biso   1.000  O
  H3       1.0000 0.03199  0.61298  0.82998  Biso   1.000  H
  C2       1.0000 0.98641  0.71041  0.84187  Biso   1.000  C
  C3       1.0000 0.01251  0.61489  0.73913  Biso   1.000  C
  C4       1.0000 0.14991  0.67179  0.79126  Biso   1.000  C
  C5       1.0000 0.93590  0.70400  0.90992  Biso   1.000  C
  C6       1.0000 0.93592  0.70401  0.91000  Biso   1.000  C
  C7       1.0000 0.05310  0.76820  0.87334  Biso   1.000  C
  C8       1.0000 0.05311  0.76821  0.87343  Biso   1.000  C
  C9       1.0000 0.16941  0.74083  0.83418  Biso   1.000  C
  C10      1.0000 0.16940  0.74078  0.83418  Biso   1.000  C
  C11      1.0000 0.20014  0.63903  0.82810  Biso   1.000  C
  C12      1.0000 0.20007  0.63898  0.82810  Biso   1.000  C
  O5       1.0000 0.87413  0.64401  0.88264  Biso   1.000  O
  O6       1.0000 0.87409  0.64402  0.88273  Biso   1.000  O
  C13      1.0000 0.95001  0.75301  0.01042  Biso   1.000  C
  C14      1.0000 0.95001  0.75298  0.01051  Biso   1.000  C
  C15      1.0000 0.06429  0.81619  0.97412  Biso   1.000  C
  C16      1.0000 0.10999  0.77300  0.79385  Biso   1.000  C
  C17      1.0000 0.06431  0.81621  0.97421  Biso   1.000  C
  C18      1.0000 0.11001  0.77301  0.79394  Biso   1.000  C
  C19      1.0000 0.24068  0.77400  0.92225  Biso   1.000  C
  C20      1.0000 0.24070  0.77401  0.92234  Biso   1.000  C
  O7       1.0000 0.18162  0.56869  0.78679  Biso   1.000  O
  C21      1.0000 0.27451  0.67211  0.91617  Biso   1.000  C
  C22      1.0000 0.80292  0.64480  0.80592  Biso   1.000  C
  C23      1.0000 0.80289  0.64481  0.80601  Biso   1.000  C
  O8       1.0000 0.89280  0.74811  0.07444  Biso   1.000  O
  O9       1.0000 0.89282  0.74812  0.07453  Biso   1.000  O
  C24      1.0000 0.01533  0.81142  0.04753  Biso   1.000  C
  C25      1.0000 0.01527  0.81139  0.04762  Biso   1.000  C
  H4       1.0000 0.11499  0.86100  0.99898  Biso   1.000  H
  H5       1.0000 0.07698  0.74599  0.70193  Biso   1.000  H
  C26      1.0000 0.14579  0.84501  0.78589  Biso   1.000  C
  H6       1.0000 0.07700  0.74601  0.70202  Biso   1.000  H
  C27      1.0000 0.29399  0.74090  0.96374  Biso   1.000  C
  H7       1.0000 0.25604  0.82700  0.95999  Biso   1.000  H
  C28      1.0000 0.29401  0.74091  0.96383  Biso   1.000  C
  H8       1.0000 0.25598  0.82700  0.95999  Biso   1.000  H
  C29      1.0000 0.19648  0.54799  0.66867  Biso   1.000  C
  O10      1.0000 0.32712  0.63912  0.94899  Biso   1.000  O
  C30      1.0000 0.74161  0.57609  0.76139  Biso   1.000  C
  H9       1.0000 0.81599  0.66099  0.72992  Biso   1.000  H
  H10      1.0000 0.77902  0.67902  0.85394  Biso   1.000  H
  H11      1.0000 0.81601  0.66100  0.73001  Biso   1.000  H
  H12      1.0000 0.77902  0.67899  0.85403  Biso   1.000  H
  C31      1.0000 0.91049  0.72652  0.17915  Biso   1.000  C
  C32      1.0000 0.91050  0.72649  0.17924  Biso   1.000  C
  C33      1.0000 0.03119  0.86370  0.15832  Biso   1.000  C
  C34      1.0000 0.03121  0.86372  0.15841  Biso   1.000  C
  H13      1.0000 0.17703  0.87703  0.87495  Biso   1.000  H
  H14      1.0000 0.18703  0.84500  0.73296  Biso   1.000  H
  C35      1.0000 0.08250  0.87163  0.72920  Biso   1.000  C
  H15      1.0000 0.17698  0.87699  0.87504  Biso   1.000  H
  H16      1.0000 0.18697  0.84500  0.73296  Biso   1.000  H
  C36      1.0000 0.08248  0.87158  0.72920  Biso   1.000  C
  C37      1.0000 0.37010  0.77650  0.06738  Biso   1.000  C
  C38      1.0000 0.17142  0.47729  0.63004  Biso   1.000  C
  C39      1.0000 0.17138  0.47731  0.63013  Biso   1.000  C
  H17      1.0000 0.25901  0.56799  0.67797  Biso   1.000  H
  H18      1.0000 0.16400  0.56699  0.60500  Biso   1.000  H
  C40      1.0000 0.32380  0.61610  0.05003  Biso   1.000  C
  C41      1.0000 0.32382  0.61612  0.05012  Biso   1.000  C
  C42      1.0000 0.77341  0.53080  0.69245  Biso   1.000  C
  C43      1.0000 0.77342  0.53081  0.69254  Biso   1.000  C
  H19      1.0000 0.73101  0.55901  0.83695  Biso   1.000  H
  H20      1.0000 0.68700  0.57802  0.70694  Biso   1.000  H
  H21      1.0000 0.73102  0.55902  0.83704  Biso   1.000  H
  H22      1.0000 0.68700  0.57799  0.70703  Biso   1.000  H
  O11      1.0000 0.95114  0.77931  0.28350  Biso   1.000  O
  H23      1.0000 0.85498  0.69799  0.19096  Biso   1.000  H
  H24      1.0000 0.94702  0.69403  0.16699  Biso   1.000  H
  O12      1.0000 0.95108  0.77931  0.28350  Biso   1.000  O
  H25      1.0000 0.85500  0.69800  0.19104  Biso   1.000  H
  H26      1.0000 0.94700  0.69398  0.16699  Biso   1.000  H
  H27      1.0000 0.97501  0.86601  0.16994  Biso   1.000  H
  H28      1.0000 0.97503  0.86603  0.17003  Biso   1.000  H
  C44      1.0000 0.07571  0.84409  0.26240  Biso   1.000  C
  C45      1.0000 0.07229  0.93633  0.15537  Biso   1.000  C
  C46      1.0000 0.07227  0.93628  0.15537  Biso   1.000  C
  H29      1.0000 0.05701  0.84298  0.63692  Biso   1.000  H
  H30      1.0000 0.03702  0.86403  0.77498  Biso   1.000  H
  C47      1.0000 0.10871  0.94399  0.73144  Biso   1.000  C
  H31      1.0000 0.05702  0.84299  0.63701  Biso   1.000  H
  H32      1.0000 0.03701  0.86398  0.77498  Biso   1.000  H
  C48      1.0000 0.10873  0.94401  0.73153  Biso   1.000  C
  C49      1.0000 0.35210  0.77012  0.18353  Biso   1.000  C
  H33      1.0000 0.41403  0.75203  0.05593  Biso   1.000  H
  C50      1.0000 0.41090  0.84928  0.06702  Biso   1.000  C
  C51      1.0000 0.35210  0.77009  0.18362  Biso   1.000  C
  H34      1.0000 0.41398  0.75199  0.05602  Biso   1.000  H
  C52      1.0000 0.41092  0.84930  0.06711  Biso   1.000  C
  C53      1.0000 0.08049  0.44442  0.61037  Biso   1.000  C
  C54      1.0000 0.08047  0.44437  0.61037  Biso   1.000  C
  H35      1.0000 0.18400  0.46302  0.54598  Biso   1.000  H
  H36      1.0000 0.20400  0.45902  0.69594  Biso   1.000  H
  H37      1.0000 0.20400  0.45899  0.69603  Biso   1.000  H
  O13      1.0000 0.38004  0.66362  0.15805  Biso   1.000  O
  H38      1.0000 0.33802  0.57002  0.03796  Biso   1.000  H
  H39      1.0000 0.26403  0.60701  0.05996  Biso   1.000  H
  O14      1.0000 0.37998  0.66358  0.15814  Biso   1.000  O
  H40      1.0000 0.33801  0.56997  0.03796  Biso   1.000  H
  H41      1.0000 0.26397  0.60701  0.05996  Biso   1.000  H
  C55      1.0000 0.70748  0.45668  0.62145  Biso   1.000  C
  C56      1.0000 0.70750  0.45670  0.62154  Biso   1.000  C
  H42      1.0000 0.82404  0.52501  0.75200  Biso   1.000  H
  H43      1.0000 0.79199  0.55302  0.62592  Biso   1.000  H
  H44      1.0000 0.82398  0.52501  0.75200  Biso   1.000  H
  H45      1.0000 0.79199  0.55299  0.62601  Biso   1.000  H
  C57      1.0000 0.03511  0.79982  0.31694  Biso   1.000  C
  C58      1.0000 0.03511  0.79978  0.31703  Biso   1.000  C
  C59      1.0000 0.15761  0.86531  0.30326  Biso   1.000  C
  H46      1.0000 0.13100  0.94001  0.14696  Biso   1.000  H
  H47      1.0000 0.03802  0.94502  0.07793  Biso   1.000  H
  C60      1.0000 0.08011  0.99069  0.26303  Biso   1.000  C
  H48      1.0000 0.03802  0.94498  0.07802  Biso   1.000  H
  C61      1.0000 0.08013  0.99070  0.26312  Biso   1.000  C
  C62      1.0000 0.10621  0.96308  0.62583  Biso   1.000  C
  C63      1.0000 0.13399  0.99269  0.84088  Biso   1.000  C
  C64      1.0000 0.10623  0.96310  0.62592  Biso   1.000  C
  C65      1.0000 0.32812  0.81703  0.25140  Biso   1.000  C
  C66      1.0000 0.35273  0.71132  0.22163  Biso   1.000  C
  C67      1.0000 0.32810  0.81699  0.25140  Biso   1.000  C
  C68      1.0000 0.35267  0.71128  0.22171  Biso   1.000  C
  H49      1.0000 0.41799  0.84998  0.97993  Biso   1.000  H
  H50      1.0000 0.41801  0.84999  0.98002  Biso   1.000  H
  H51      1.0000 0.37499  0.87999  0.08893  Biso   1.000  H
  C69      1.0000 0.49320  0.87728  0.16163  Biso   1.000  C
  H52      1.0000 0.37501  0.88000  0.08902  Biso   1.000  H
  C70      1.0000 0.49322  0.87729  0.16172  Biso   1.000  C
  C71      1.0000 0.06409  0.37001  0.57773  Biso   1.000  C
  C72      1.0000 0.06411  0.37002  0.57782  Biso   1.000  C
  H53      1.0000 0.04599  0.45800  0.53999  Biso   1.000  H
  H54      1.0000 0.06598  0.46000  0.69191  Biso   1.000  H
  H55      1.0000 0.06600  0.46001  0.69200  Biso   1.000  H
  C73      1.0000 0.70740  0.41019  0.68387  Biso   1.000  C
  H56      1.0000 0.64901  0.46201  0.59892  Biso   1.000  H
  H57      1.0000 0.72201  0.43900  0.53999  Biso   1.000  H
  H58      1.0000 0.64903  0.46203  0.59901  Biso   1.000  H
  C74      1.0000 0.07294  0.77763  0.40198  Biso   1.000  C
  C75      1.0000 0.07287  0.77758  0.40198  Biso   1.000  C
  C76      1.0000 0.19814  0.84282  0.39170  Biso   1.000  C
  H59      1.0000 0.19100  0.90103  0.26598  Biso   1.000  H
  C77      1.0000 0.19809  0.84282  0.39170  Biso   1.000  C
  H60      1.0000 0.19099  0.90098  0.26598  Biso   1.000  H
  H61      1.0000 0.11100  0.98103  0.34198  Biso   1.000  H
  H62      1.0000 0.02203  0.99101  0.26794  Biso   1.000  H
  H63      1.0000 0.11098  0.98098  0.34198  Biso   1.000  H
  H64      1.0000 0.02199  0.99102  0.26803  Biso   1.000  H
  C78      1.0000 0.12640  0.05874  0.25632  Biso   1.000  C
  C79      1.0000 0.12638  0.05880  0.25641  Biso   1.000  C
  H65      1.0000 0.08699  0.92500  0.54098  Biso   1.000  H
  C80      1.0000 0.12893  0.03090  0.62959  Biso   1.000  C
  C81      1.0000 0.12887  0.03090  0.62959  Biso   1.000  C
  H66      1.0000 0.13598  0.97801  0.92297  Biso   1.000  H
  C82      1.0000 0.15671  0.06051  0.84464  Biso   1.000  C
  C83      1.0000 0.15673  0.06053  0.84473  Biso   1.000  C
  C84      1.0000 0.31202  0.81151  0.35897  Biso   1.000  C
  H67      1.0000 0.32200  0.85900  0.21894  Biso   1.000  H
  H68      1.0000 0.32201  0.85901  0.21903  Biso   1.000  H
  C85      1.0000 0.33681  0.70601  0.32928  Biso   1.000  C
  H69      1.0000 0.48498  0.87400  0.24791  Biso   1.000  H
  H70      1.0000 0.52899  0.84702  0.13793  Biso   1.000  H
  C86      1.0000 0.53691  0.94821  0.17218  Biso   1.000  C
  H71      1.0000 0.48499  0.87401  0.24800  Biso   1.000  H
  H72      1.0000 0.52899  0.84699  0.13802  Biso   1.000  H
  C87      1.0000 0.98283  0.33303  0.57818  Biso   1.000  C
  C88      1.0000 0.98281  0.33298  0.57818  Biso   1.000  C
  H73      1.0000 0.10700  0.35798  0.64095  Biso   1.000  H
  H74      1.0000 0.07001  0.35400  0.48894  Biso   1.000  H
  H75      1.0000 0.10702  0.35800  0.64104  Biso   1.000  H
  H76      1.0000 0.07003  0.35401  0.48903  Biso   1.000  H
  O15      1.0000 0.65241  0.34537  0.62476  Biso   1.000  O
  O16      1.0000 0.65242  0.34542  0.62476  Biso   1.000  O
  H77      1.0000 0.69302  0.42903  0.76497  Biso   1.000  H
  H78      1.0000 0.76601  0.40499  0.70595  Biso   1.000  H
  H79      1.0000 0.69300  0.42898  0.76497  Biso   1.000  H
  H80      1.0000 0.76603  0.40500  0.70604  Biso   1.000  H
  O17      1.0000 0.02830  0.73721  0.45992  Biso   1.000  O
  O18      1.0000 0.02831  0.73722  0.46001  Biso   1.000  O
  C89      1.0000 0.15320  0.79802  0.44159  Biso   1.000  C
  C90      1.0000 0.15318  0.79798  0.44159  Biso   1.000  C
  C91      1.0000 0.28772  0.86280  0.43363  Biso   1.000  C
  C92      1.0000 0.28768  0.86281  0.43372  Biso   1.000  C
  C93      1.0000 0.20399  0.08834  0.33089  Biso   1.000  C
  C94      1.0000 0.09531  0.09045  0.17522  Biso   1.000  C
  C95      1.0000 0.20400  0.08839  0.33089  Biso   1.000  C
  C96      1.0000 0.09529  0.09051  0.17531  Biso   1.000  C
  C97      1.0000 0.15421  0.07960  0.73904  Biso   1.000  C
  H81      1.0000 0.12701  0.04599  0.54795  Biso   1.000  H
  C98      1.0000 0.15422  0.07961  0.73913  Biso   1.000  C
  H82      1.0000 0.12703  0.04600  0.54804  Biso   1.000  H
  H83      1.0000 0.17600  0.09803  0.92896  Biso   1.000  H
  H84      1.0000 0.17599  0.09798  0.92896  Biso   1.000  H
  C99      1.0000 0.31681  0.75438  0.39223  Biso   1.000  C
  C100     1.0000 0.31677  0.75440  0.39232  Biso   1.000  C
  O19      1.0000 0.34759  0.65462  0.37516  Biso   1.000  O
  C101     1.0000 0.60899  0.96322  0.14446  Biso   1.000  C
  C102     1.0000 0.50788  0.99971  0.21358  Biso   1.000  C
  O20      1.0000 0.97172  0.26283  0.53999  Biso   1.000  O
  O21      1.0000 0.97170  0.26278  0.53999  Biso   1.000  O
  H85      1.0000 0.93902  0.34601  0.51898  Biso   1.000  H
  H86      1.0000 0.97698  0.34601  0.66795  Biso   1.000  H
  H87      1.0000 0.97700  0.34602  0.66804  Biso   1.000  H
  C103     1.0000 0.66319  0.29398  0.67063  Biso   1.000  C
  C104     1.0000 0.66321  0.29400  0.67072  Biso   1.000  C
  C105     1.0000 0.01719  0.66701  0.42174  Biso   1.000  C
  C106     1.0000 0.01720  0.66702  0.42183  Biso   1.000  C
  O22      1.0000 0.19349  0.77661  0.53450  Biso   1.000  O
  H88      1.0000 0.30703  0.86300  0.52600  Biso   1.000  H
  C107     1.0000 0.32929  0.93659  0.43265  Biso   1.000  C
  C108     1.0000 0.32931  0.93661  0.43274  Biso   1.000  C
  C109     1.0000 0.25050  0.14964  0.32419  Biso   1.000  C
  H89      1.0000 0.22801  0.06394  0.39393  Biso   1.000  H
  C110     1.0000 0.25052  0.14969  0.32419  Biso   1.000  C
  H90      1.0000 0.22799  0.06401  0.39402  Biso   1.000  H
  C111     1.0000 0.14182  0.15186  0.16860  Biso   1.000  C
  H91      1.0000 0.03503  0.06799  0.11799  Biso   1.000  H
  C112     1.0000 0.14178  0.15191  0.16860  Biso   1.000  C
  H92      1.0000 0.03497  0.06799  0.11799  Biso   1.000  H
  H93      1.0000 0.17200  0.13200  0.74199  Biso   1.000  H
  O23      1.0000 0.30315  0.74853  0.50490  Biso   1.000  O
  O24      1.0000 0.30308  0.74849  0.50490  Biso   1.000  O
  C113     1.0000 0.29260  0.58980  0.31605  Biso   1.000  C
  C114     1.0000 0.29261  0.58981  0.31614  Biso   1.000  C
  H94      1.0000 0.63201  0.92303  0.11200  Biso   1.000  H
  H95      1.0000 0.63200  0.92298  0.11200  Biso   1.000  H
  C115     1.0000 0.65211  0.02967  0.15823  Biso   1.000  C
  C116     1.0000 0.65212  0.02969  0.15832  Biso   1.000  C
  H96      1.0000 0.45201  0.98803  0.23495  Biso   1.000  H
  H97      1.0000 0.45202  0.98799  0.23504  Biso   1.000  H
  C117     1.0000 0.55098  0.06615  0.22726  Biso   1.000  C
  C118     1.0000 0.55100  0.06620  0.22726  Biso   1.000  C
  C119     1.0000 0.92713  0.22241  0.59794  Biso   1.000  C
  C120     1.0000 0.92709  0.22242  0.59803  Biso   1.000  C
  C121     1.0000 0.64734  0.28872  0.77829  Biso   1.000  C
  C122     1.0000 0.68319  0.24561  0.60768  Biso   1.000  C
  C123     1.0000 0.64729  0.28872  0.77829  Biso   1.000  C
  C124     1.0000 0.93593  0.63003  0.42219  Biso   1.000  C
  C125     1.0000 0.93591  0.62998  0.42219  Biso   1.000  C
  H98      1.0000 0.06098  0.65398  0.48094  Biso   1.000  H
  H99      1.0000 0.02303  0.65403  0.33197  Biso   1.000  H
  H100     1.0000 0.06099  0.65400  0.48103  Biso   1.000  H
  H101     1.0000 0.02302  0.65398  0.33197  Biso   1.000  H
  C126     1.0000 0.22388  0.72548  0.50463  Biso   1.000  C
  C127     1.0000 0.22390  0.72550  0.50472  Biso   1.000  C
  H102     1.0000 0.39203  0.94500  0.45197  Biso   1.000  H
  H103     1.0000 0.30702  0.94201  0.34395  Biso   1.000  H
  C128     1.0000 0.31674  0.98973  0.52100  Biso   1.000  C
  H104     1.0000 0.39198  0.94500  0.45197  Biso   1.000  H
  H105     1.0000 0.30704  0.94203  0.34404  Biso   1.000  H
  C129     1.0000 0.31667  0.98968  0.52100  Biso   1.000  C
  C130     1.0000 0.21939  0.18134  0.24300  Biso   1.000  C
  H106     1.0000 0.31101  0.17296  0.38195  Biso   1.000  H
  C131     1.0000 0.21941  0.18139  0.24300  Biso   1.000  C
  H107     1.0000 0.31099  0.17302  0.38204  Biso   1.000  H
  H108     1.0000 0.11798  0.17598  0.10592  Biso   1.000  H
  H109     1.0000 0.11800  0.17599  0.10601  Biso   1.000  H
  C132     1.0000 0.29252  0.54331  0.37846  Biso   1.000  C
  H110     1.0000 0.30700  0.57101  0.23495  Biso   1.000  H
  H111     1.0000 0.23399  0.59500  0.29396  Biso   1.000  H
  H112     1.0000 0.30702  0.57102  0.23504  Biso   1.000  H
  C133     1.0000 0.62308  0.08117  0.19963  Biso   1.000  C
  H113     1.0000 0.70797  0.04093  0.13695  Biso   1.000  H
  C134     1.0000 0.62310  0.08118  0.19972  Biso   1.000  C
  H114     1.0000 0.70800  0.04100  0.13704  Biso   1.000  H
  H115     1.0000 0.52901  0.10599  0.25900  Biso   1.000  H
  C135     1.0000 0.84682  0.20201  0.55832  Biso   1.000  C
  C136     1.0000 0.84682  0.20198  0.55841  Biso   1.000  C
  C137     1.0000 0.96490  0.20022  0.68297  Biso   1.000  C
  O25      1.0000 0.62003  0.33642  0.84187  Biso   1.000  O
  C138     1.0000 0.64792  0.22992  0.81638  Biso   1.000  C
  O26      1.0000 0.61996  0.33637  0.84187  Biso   1.000  O
  O27      1.0000 0.69692  0.25150  0.49502  Biso   1.000  O
  C139     1.0000 0.68800  0.18852  0.64095  Biso   1.000  C
  O28      1.0000 0.69688  0.25152  0.49511  Biso   1.000  O
  C140     1.0000 0.68800  0.18849  0.64104  Biso   1.000  C
  C141     1.0000 0.91953  0.55562  0.38955  Biso   1.000  C
  C142     1.0000 0.91947  0.55558  0.38964  Biso   1.000  C
  H116     1.0000 0.89300  0.64201  0.35897  Biso   1.000  H
  H117     1.0000 0.92998  0.64599  0.51098  Biso   1.000  H
  H118     1.0000 0.18903  0.69301  0.41700  Biso   1.000  H
  H119     1.0000 0.22100  0.69698  0.56892  Biso   1.000  H
  H120     1.0000 0.18898  0.69301  0.41700  Biso   1.000  H
  H121     1.0000 0.22102  0.69699  0.56901  Biso   1.000  H
  H122     1.0000 0.33001  0.97901  0.60693  Biso   1.000  H
  H123     1.0000 0.25499  0.98600  0.49194  Biso   1.000  H
  H124     1.0000 0.33002  0.97903  0.60702  Biso   1.000  H
  H125     1.0000 0.25501  0.98601  0.49202  Biso   1.000  H
  C143     1.0000 0.36398  0.06135  0.53790  Biso   1.000  C
  C144     1.0000 0.36399  0.06139  0.53790  Biso   1.000  C
  H126     1.0000 0.25501  0.22896  0.23799  Biso   1.000  H
  H127     1.0000 0.25503  0.22901  0.23799  Biso   1.000  H
  C145     1.0000 0.22659  0.46919  0.30747  Biso   1.000  C
  H128     1.0000 0.35100  0.53803  0.40100  Biso   1.000  H
  H129     1.0000 0.27799  0.56099  0.45992  Biso   1.000  H
  H130     1.0000 0.35099  0.53798  0.40100  Biso   1.000  H
  H131     1.0000 0.27801  0.56101  0.46001  Biso   1.000  H
  H132     1.0000 0.65603  0.13297  0.21000  Biso   1.000  H
  H133     1.0000 0.65599  0.13302  0.21000  Biso   1.000  H
  O29      1.0000 0.80651  0.22338  0.46542  Biso   1.000  O
  O30      1.0000 0.80647  0.22340  0.46551  Biso   1.000  O
  C146     1.0000 0.80193  0.15722  0.60822  Biso   1.000  C
  C147     1.0000 0.80188  0.15719  0.60831  Biso   1.000  C
  C148     1.0000 0.92428  0.15590  0.73752  Biso   1.000  C
  C149     1.0000 0.92430  0.15591  0.73761  Biso   1.000  C
  O31      1.0000 0.04892  0.22068  0.71642  Biso   1.000  O
  O32      1.0000 0.04888  0.22069  0.71650  Biso   1.000  O
  C150     1.0000 0.67621  0.38393  0.94988  Biso   1.000  C
  C151     1.0000 0.67620  0.38389  0.94988  Biso   1.000  C
  C152     1.0000 0.67190  0.18300  0.74852  Biso   1.000  C
  C153     1.0000 0.62990  0.22349  0.93254  Biso   1.000  C
  C154     1.0000 0.67191  0.18302  0.74861  Biso   1.000  C
  C155     1.0000 0.62992  0.22350  0.93263  Biso   1.000  C
  C156     1.0000 0.77612  0.27451  0.49528  Biso   1.000  C
  C157     1.0000 0.71228  0.13719  0.56628  Biso   1.000  C
  C158     1.0000 0.82863  0.52270  0.36988  Biso   1.000  C
  C159     1.0000 0.82858  0.52270  0.36988  Biso   1.000  C
  H134     1.0000 0.95401  0.54199  0.45992  Biso   1.000  H
  H135     1.0000 0.93403  0.54004  0.30800  Biso   1.000  H
  H136     1.0000 0.95403  0.54200  0.46001  Biso   1.000  H
  H137     1.0000 0.93402  0.53999  0.30800  Biso   1.000  H
  C160     1.0000 0.42639  0.07855  0.48800  Biso   1.000  C
  C161     1.0000 0.34289  0.11145  0.60487  Biso   1.000  C
  C162     1.0000 0.42640  0.07859  0.48800  Biso   1.000  C
  C163     1.0000 0.34290  0.11150  0.60487  Biso   1.000  C
  C164     1.0000 0.25839  0.42390  0.23853  Biso   1.000  C
  C165     1.0000 0.25841  0.42391  0.23861  Biso   1.000  C
  H138     1.0000 0.17603  0.47502  0.24791  Biso   1.000  H
  H139     1.0000 0.20802  0.44701  0.37399  Biso   1.000  H
  H140     1.0000 0.17598  0.47499  0.24800  Biso   1.000  H
  C166     1.0000 0.84239  0.13468  0.69665  Biso   1.000  C
  C167     1.0000 0.84241  0.13470  0.69674  Biso   1.000  C
  C168     1.0000 0.96882  0.13634  0.84160  Biso   1.000  C
  C169     1.0000 0.96881  0.13629  0.84160  Biso   1.000  C
  C170     1.0000 0.08952  0.27352  0.82077  Biso   1.000  C
  H141     1.0000 0.66199  0.43002  0.96196  Biso   1.000  H
  H142     1.0000 0.73599  0.39303  0.93996  Biso   1.000  H
  H143     1.0000 0.66198  0.42997  0.96196  Biso   1.000  H
  H144     1.0000 0.73597  0.39298  0.93996  Biso   1.000  H
  O33      1.0000 0.67290  0.36092  0.05093  Biso   1.000  O
  O34      1.0000 0.67290  0.36088  0.05102  Biso   1.000  O
  H145     1.0000 0.67800  0.14099  0.78097  Biso   1.000  H
  H146     1.0000 0.58599  0.24801  0.94398  Biso   1.000  H
  C171     1.0000 0.58910  0.15071  0.93290  Biso   1.000  C
  C172     1.0000 0.70601  0.25909  0.03617  Biso   1.000  C
  H147     1.0000 0.81097  0.30698  0.58291  Biso   1.000  H
  H148     1.0000 0.77900  0.30301  0.43099  Biso   1.000  H
  H149     1.0000 0.81099  0.30700  0.58300  Biso   1.000  H
  H150     1.0000 0.69297  0.13699  0.47391  Biso   1.000  H
  C173     1.0000 0.67071  0.06340  0.56727  Biso   1.000  C
  H151     1.0000 0.69299  0.13700  0.47400  Biso   1.000  H
  C174     1.0000 0.80352  0.45200  0.33125  Biso   1.000  C
  C175     1.0000 0.80348  0.45201  0.33134  Biso   1.000  C
  H152     1.0000 0.81602  0.53702  0.45393  Biso   1.000  H
  H153     1.0000 0.79601  0.54101  0.30398  Biso   1.000  H
  H154     1.0000 0.81602  0.53698  0.45402  Biso   1.000  H
  C176     1.0000 0.46790  0.14595  0.50508  Biso   1.000  C
  H155     1.0000 0.44299  0.03994  0.43596  Biso   1.000  H
  C177     1.0000 0.46792  0.14599  0.50508  Biso   1.000  C
  H156     1.0000 0.44300  0.03999  0.43596  Biso   1.000  H
  C178     1.0000 0.38440  0.17885  0.62195  Biso   1.000  C
  H157     1.0000 0.29497  0.09795  0.64395  Biso   1.000  H
  C179     1.0000 0.38444  0.17891  0.62204  Biso   1.000  C
  H158     1.0000 0.29500  0.09801  0.64403  Biso   1.000  H
  C180     1.0000 0.19713  0.35519  0.19400  Biso   1.000  C
  C181     1.0000 0.19707  0.35519  0.19400  Biso   1.000  C
  H159     1.0000 0.26901  0.44103  0.16297  Biso   1.000  H
  H160     1.0000 0.31302  0.42201  0.29298  Biso   1.000  H
  H161     1.0000 0.26899  0.44098  0.16297  Biso   1.000  H
  H162     1.0000 0.80901  0.09901  0.73394  Biso   1.000  H
  H163     1.0000 0.80903  0.09902  0.73403  Biso   1.000  H
  C182     1.0000 0.98469  0.18862  0.95239  Biso   1.000  C
  C183     1.0000 0.92773  0.06371  0.84455  Biso   1.000  C
  C184     1.0000 0.92769  0.06372  0.84464  Biso   1.000  C
  H164     1.0000 0.02501  0.13403  0.82998  Biso   1.000  H
  H165     1.0000 0.02499  0.13398  0.82998  Biso   1.000  H
  H166     1.0000 0.14502  0.30200  0.80896  Biso   1.000  H
  H167     1.0000 0.05300  0.30601  0.83293  Biso   1.000  H
  O35      1.0000 0.10722  0.25193  0.92547  Biso   1.000  O
  H168     1.0000 0.05302  0.30603  0.83302  Biso   1.000  H
  O36      1.0000 0.10720  0.25188  0.92547  Biso   1.000  O
  C185     1.0000 0.72549  0.32788  0.08374  Biso   1.000  C
  C186     1.0000 0.72551  0.32790  0.08383  Biso   1.000  C
  H169     1.0000 0.62501  0.12000  0.91099  Biso   1.000  H
  C187     1.0000 0.50680  0.12271  0.83829  Biso   1.000  C
  H170     1.0000 0.58201  0.15001  0.01999  Biso   1.000  H
  C188     1.0000 0.75932  0.22599  0.07766  Biso   1.000  C
  H171     1.0000 0.60802  0.05499  0.54795  Biso   1.000  H
  H172     1.0000 0.69299  0.05803  0.65597  Biso   1.000  H
  C189     1.0000 0.68333  0.01031  0.47892  Biso   1.000  C
  H173     1.0000 0.60798  0.05500  0.54804  Biso   1.000  H
  H174     1.0000 0.69298  0.05798  0.65597  Biso   1.000  H
  C190     1.0000 0.68329  0.01032  0.47901  Biso   1.000  C
  O37      1.0000 0.81838  0.43130  0.21313  Biso   1.000  O
  O38      1.0000 0.81840  0.43131  0.21322  Biso   1.000  O
  H175     1.0000 0.74099  0.43200  0.32195  Biso   1.000  H
  H176     1.0000 0.83600  0.43300  0.39492  Biso   1.000  H
  H177     1.0000 0.74101  0.43201  0.32204  Biso   1.000  H
  H178     1.0000 0.83601  0.43301  0.39501  Biso   1.000  H
  C191     1.0000 0.44681  0.19605  0.57205  Biso   1.000  C
  H179     1.0000 0.51599  0.15895  0.46591  Biso   1.000  H
  C192     1.0000 0.44679  0.19611  0.57214  Biso   1.000  C
  H180     1.0000 0.51602  0.15901  0.46600  Biso   1.000  H
  H181     1.0000 0.36802  0.21798  0.67399  Biso   1.000  H
  O39      1.0000 0.12594  0.35603  0.11727  Biso   1.000  O
  O40      1.0000 0.12587  0.35598  0.11727  Biso   1.000  O
  H182     1.0000 0.18401  0.33900  0.27000  Biso   1.000  H
  H183     1.0000 0.22100  0.32102  0.14598  Biso   1.000  H
  C193     1.0000 0.93571  0.18380  0.02580  Biso   1.000  C
  C194     1.0000 0.05001  0.24702  0.98950  Biso   1.000  C
  C195     1.0000 0.04999  0.24698  0.98950  Biso   1.000  C
  H184     1.0000 0.86902  0.06003  0.85296  Biso   1.000  H
  H185     1.0000 0.96199  0.05502  0.92199  Biso   1.000  H
  C196     1.0000 0.91989  0.00930  0.73689  Biso   1.000  C
  H186     1.0000 0.86900  0.05998  0.85296  Biso   1.000  H
  C197     1.0000 0.79993  0.36101  0.17182  Biso   1.000  C
  C198     1.0000 0.79989  0.36102  0.17191  Biso   1.000  C
  H187     1.0000 0.51504  0.12604  0.75200  Biso   1.000  H
  H188     1.0000 0.47102  0.15301  0.86199  Biso   1.000  H
  C199     1.0000 0.46311  0.05182  0.82774  Biso   1.000  C
  H189     1.0000 0.51502  0.12599  0.75200  Biso   1.000  H
  C200     1.0000 0.46311  0.05179  0.82783  Biso   1.000  C
  C201     1.0000 0.83060  0.25921  0.16574  Biso   1.000  C
  H190     1.0000 0.74402  0.17299  0.03993  Biso   1.000  H
  C202     1.0000 0.83062  0.25922  0.16583  Biso   1.000  C
  H191     1.0000 0.74398  0.17300  0.04002  Biso   1.000  H
  H192     1.0000 0.67001  0.02103  0.39299  Biso   1.000  H
  H193     1.0000 0.74501  0.01399  0.50798  Biso   1.000  H
  H194     1.0000 0.66999  0.02098  0.39299  Biso   1.000  H
  C203     1.0000 0.63599  0.93855  0.46202  Biso   1.000  C
  C204     1.0000 0.63602  0.93861  0.46211  Biso   1.000  C
  H195     1.0000 0.47899  0.24795  0.58493  Biso   1.000  H
  H196     1.0000 0.47902  0.24801  0.58502  Biso   1.000  H
  C205     1.0000 0.06410  0.29599  0.09000  Biso   1.000  C
  C206     1.0000 0.94690  0.23179  0.12657  Biso   1.000  C
  H197     1.0000 0.88501  0.13899  0.00094  Biso   1.000  H
  H198     1.0000 0.88502  0.13900  0.00103  Biso   1.000  H
  H199     1.0000 0.88902  0.01901  0.65794  Biso   1.000  H
  H200     1.0000 0.97804  0.00903  0.73197  Biso   1.000  H
  H201     1.0000 0.88903  0.01903  0.65803  Biso   1.000  H
  H202     1.0000 0.97797  0.00898  0.73197  Biso   1.000  H
  C207     1.0000 0.87362  0.94116  0.74360  Biso   1.000  C
  C208     1.0000 0.87358  0.94120  0.74360  Biso   1.000  C
  C209     1.0000 0.85009  0.32820  0.20866  Biso   1.000  C
  C210     1.0000 0.39102  0.03682  0.85546  Biso   1.000  C
  C211     1.0000 0.49212  0.00028  0.78634  Biso   1.000  C
  C212     1.0000 0.39101  0.03677  0.85546  Biso   1.000  C
  C213     1.0000 0.49208  0.00030  0.78643  Biso   1.000  C
  C214     1.0000 0.89001  0.22699  0.20607  Biso   1.000  C
  C215     1.0000 0.57358  0.92135  0.51192  Biso   1.000  C
  C216     1.0000 0.65708  0.88844  0.39505  Biso   1.000  C
  C217     1.0000 0.57361  0.92141  0.51201  Biso   1.000  C
  C218     1.0000 0.65711  0.88851  0.39514  Biso   1.000  C
  C219     1.0000 0.01361  0.28963  0.15805  Biso   1.000  C
  C220     1.0000 0.01361  0.28959  0.15814  Biso   1.000  C
  C221     1.0000 0.79598  0.91155  0.66902  Biso   1.000  C
  C222     1.0000 0.90473  0.90949  0.82470  Biso   1.000  C
  C223     1.0000 0.79601  0.91161  0.66911  Biso   1.000  C
  C224     1.0000 0.90468  0.90949  0.82470  Biso   1.000  C
  O41      1.0000 0.92063  0.36571  0.30112  Biso   1.000  O
  O42      1.0000 0.92058  0.36568  0.30121  Biso   1.000  O
  H203     1.0000 0.36800  0.07701  0.88792  Biso   1.000  H
  H204     1.0000 0.36802  0.07702  0.88801  Biso   1.000  H
  C225     1.0000 0.34788  0.97027  0.84169  Biso   1.000  C
  C226     1.0000 0.34789  0.97032  0.84169  Biso   1.000  C
  H205     1.0000 0.54800  0.01201  0.76497  Biso   1.000  H
  C227     1.0000 0.44899  0.93374  0.77266  Biso   1.000  C
  C228     1.0000 0.44900  0.93379  0.77266  Biso   1.000  C
  H206     1.0000 0.92301  0.25400  0.29799  Biso   1.000  H
  C229     1.0000 0.85421  0.15498  0.21402  Biso   1.000  C
  C230     1.0000 0.85422  0.15500  0.21411  Biso   1.000  C
  C231     1.0000 0.53207  0.85395  0.49484  Biso   1.000  C
  H207     1.0000 0.55698  0.95995  0.56396  Biso   1.000  H
  C232     1.0000 0.53210  0.85401  0.49493  Biso   1.000  C
  H208     1.0000 0.55700  0.96000  0.56396  Biso   1.000  H
  C233     1.0000 0.61557  0.82105  0.37797  Biso   1.000  C
  H209     1.0000 0.70500  0.90195  0.35597  Biso   1.000  H
  C234     1.0000 0.61558  0.82109  0.37797  Biso   1.000  C
  H210     1.0000 0.70502  0.90200  0.35597  Biso   1.000  H
  O43      1.0000 0.03140  0.34101  0.26392  Biso   1.000  O
  O44      1.0000 0.03142  0.34102  0.26401  Biso   1.000  O
  C235     1.0000 0.74947  0.85025  0.67573  Biso   1.000  C
  H211     1.0000 0.77202  0.93595  0.60598  Biso   1.000  H
  C236     1.0000 0.74950  0.85031  0.67582  Biso   1.000  C
  H212     1.0000 0.77197  0.93600  0.60598  Biso   1.000  H
  C237     1.0000 0.85815  0.84803  0.83132  Biso   1.000  C
  H213     1.0000 0.96501  0.93195  0.88193  Biso   1.000  H
  C238     1.0000 0.85818  0.84810  0.83141  Biso   1.000  C
  H214     1.0000 0.96499  0.93202  0.88202  Biso   1.000  H
  C239     1.0000 0.98749  0.38510  0.26079  Biso   1.000  C
  C240     1.0000 0.37690  0.91877  0.80029  Biso   1.000  C
  H215     1.0000 0.29200  0.95896  0.86297  Biso   1.000  H
  H216     1.0000 0.29202  0.95901  0.86297  Biso   1.000  H
  H217     1.0000 0.47097  0.89396  0.74092  Biso   1.000  H
  H218     1.0000 0.47100  0.89402  0.74100  Biso   1.000  H
  H219     1.0000 0.82299  0.12301  0.12496  Biso   1.000  H
  H220     1.0000 0.81303  0.15499  0.26696  Biso   1.000  H
  C241     1.0000 0.91752  0.12840  0.27072  Biso   1.000  C
  H221     1.0000 0.81297  0.15499  0.26696  Biso   1.000  H
  C242     1.0000 0.91753  0.12842  0.27081  Biso   1.000  C
  C243     1.0000 0.55321  0.80384  0.42786  Biso   1.000  C
  H222     1.0000 0.48400  0.84099  0.53400  Biso   1.000  H
  C244     1.0000 0.55317  0.80389  0.42786  Biso   1.000  C
  H223     1.0000 0.63196  0.78196  0.32593  Biso   1.000  H
  H224     1.0000 0.63200  0.78202  0.32602  Biso   1.000  H
  C245     1.0000 0.78058  0.81855  0.75692  Biso   1.000  C
  H225     1.0000 0.68903  0.82698  0.61797  Biso   1.000  H
  C246     1.0000 0.78061  0.81861  0.75701  Biso   1.000  C
  H226     1.0000 0.68897  0.82698  0.61797  Biso   1.000  H
  H227     1.0000 0.88201  0.82397  0.89400  Biso   1.000  H
  H228     1.0000 0.88202  0.82401  0.89400  Biso   1.000  H
  H229     1.0000 0.96801  0.38701  0.16994  Biso   1.000  H
  H230     1.0000 0.96802  0.38702  0.17003  Biso   1.000  H
  H231     1.0000 0.02501  0.43398  0.31694  Biso   1.000  H
  H232     1.0000 0.02503  0.43400  0.31703  Biso   1.000  H
  H233     1.0000 0.34401  0.86697  0.78992  Biso   1.000  H
  H234     1.0000 0.34397  0.86698  0.79001  Biso   1.000  H
  H235     1.0000 0.94299  0.15701  0.36299  Biso   1.000  H
  H236     1.0000 0.96299  0.13601  0.22493  Biso   1.000  H
  C247     1.0000 0.89129  0.05599  0.26848  Biso   1.000  C
  H237     1.0000 0.96301  0.13602  0.22502  Biso   1.000  H
  H238     1.0000 0.52098  0.75195  0.41499  Biso   1.000  H
  H239     1.0000 0.52099  0.75199  0.41499  Biso   1.000  H
  H240     1.0000 0.74496  0.77093  0.76193  Biso   1.000  H
  H241     1.0000 0.74499  0.77100  0.76202  Biso   1.000  H
  C248     1.0000 0.89379  0.03691  0.37408  Biso   1.000  C
  C249     1.0000 0.86601  0.00730  0.15903  Biso   1.000  C
  C250     1.0000 0.86603  0.00731  0.15912  Biso   1.000  C
  C251     1.0000 0.87112  0.96909  0.37033  Biso   1.000  C
  C252     1.0000 0.87109  0.96910  0.37042  Biso   1.000  C
  H242     1.0000 0.91301  0.07499  0.45894  Biso   1.000  H
  H243     1.0000 0.91302  0.07500  0.45903  Biso   1.000  H
  C253     1.0000 0.84331  0.93953  0.15528  Biso   1.000  C
  C254     1.0000 0.84329  0.93948  0.15528  Biso   1.000  C
  H244     1.0000 0.86403  0.02203  0.07695  Biso   1.000  H
  H245     1.0000 0.86398  0.02199  0.07704  Biso   1.000  H
  C255     1.0000 0.84579  0.92039  0.26088  Biso   1.000  C
  H246     1.0000 0.87299  0.95400  0.45197  Biso   1.000  H
  H247     1.0000 0.82401  0.90201  0.07096  Biso   1.000  H
  H248     1.0000 0.82800  0.86799  0.25793  Biso   1.000  H
  H249     1.0000 0.82801  0.86800  0.25802  Biso   1.000  H
  C256     1.0000 0.01252  0.61490  0.73922  Biso   1.000  C
  O45      1.0000 0.96861  0.65903  0.73600  Biso   1.000  O
  O46      1.0000 0.96860  0.65898  0.73600  Biso   1.000  O
  H250     1.0000 0.97499  0.56601  0.68297  Biso   1.000  H
  O47      1.0000 0.07944  0.63432  0.69880  Biso   1.000  O
  H251     1.0000 0.03201  0.61303  0.82998  Biso   1.000  H
  O48      1.0000 0.07937  0.63428  0.69880  Biso   1.000  O
  H252     1.0000 0.03199  0.61298  0.82998  Biso   1.000  H
  C257     1.0000 0.98641  0.71041  0.84187  Biso   1.000  C
  C258     1.0000 0.01251  0.61489  0.73913  Biso   1.000  C
  C259     1.0000 0.14991  0.67179  0.79126  Biso   1.000  C
  C260     1.0000 0.93590  0.70400  0.90992  Biso   1.000  C
  C261     1.0000 0.93592  0.70401  0.91000  Biso   1.000  C
  C262     1.0000 0.05310  0.76820  0.87334  Biso   1.000  C
  C263     1.0000 0.05311  0.76821  0.87343  Biso   1.000  C
  C264     1.0000 0.16941  0.74083  0.83418  Biso   1.000  C
  C265     1.0000 0.16940  0.74078  0.83418  Biso   1.000  C
  C266     1.0000 0.20014  0.63903  0.82810  Biso   1.000  C
  C267     1.0000 0.20007  0.63898  0.82810  Biso   1.000  C
  O49      1.0000 0.87413  0.64401  0.88264  Biso   1.000  O
  O50      1.0000 0.87409  0.64402  0.88273  Biso   1.000  O
  C268     1.0000 0.95001  0.75301  0.01042  Biso   1.000  C
  C269     1.0000 0.95001  0.75298  0.01051  Biso   1.000  C
  C270     1.0000 0.06429  0.81619  0.97412  Biso   1.000  C
  C271     1.0000 0.10999  0.77300  0.79385  Biso   1.000  C
  C272     1.0000 0.06431  0.81621  0.97421  Biso   1.000  C
  C273     1.0000 0.11001  0.77301  0.79394  Biso   1.000  C
  C274     1.0000 0.24068  0.77400  0.92225  Biso   1.000  C
  C275     1.0000 0.24070  0.77401  0.92234  Biso   1.000  C
  O51      1.0000 0.18162  0.56869  0.78679  Biso   1.000  O
  C276     1.0000 0.27451  0.67211  0.91617  Biso   1.000  C
  C277     1.0000 0.80292  0.64480  0.80592  Biso   1.000  C
  C278     1.0000 0.80289  0.64481  0.80601  Biso   1.000  C
  O52      1.0000 0.89280  0.74811  0.07444  Biso   1.000  O
  O53      1.0000 0.89282  0.74812  0.07453  Biso   1.000  O
  C279     1.0000 0.01533  0.81142  0.04753  Biso   1.000  C
  C280     1.0000 0.01527  0.81139  0.04762  Biso   1.000  C
  H253     1.0000 0.11499  0.86100  0.99898  Biso   1.000  H
  H254     1.0000 0.07698  0.74599  0.70193  Biso   1.000  H
  C281     1.0000 0.14579  0.84501  0.78589  Biso   1.000  C
  H255     1.0000 0.07700  0.74601  0.70202  Biso   1.000  H
  C282     1.0000 0.29399  0.74090  0.96374  Biso   1.000  C
  H256     1.0000 0.25604  0.82700  0.95999  Biso   1.000  H
  C283     1.0000 0.29401  0.74091  0.96383  Biso   1.000  C
  H257     1.0000 0.25598  0.82700  0.95999  Biso   1.000  H
  C284     1.0000 0.19648  0.54799  0.66867  Biso   1.000  C
  O54      1.0000 0.32712  0.63912  0.94899  Biso   1.000  O
  C285     1.0000 0.74161  0.57609  0.76139  Biso   1.000  C
  H258     1.0000 0.81599  0.66099  0.72992  Biso   1.000  H
  H259     1.0000 0.77902  0.67902  0.85394  Biso   1.000  H
  H260     1.0000 0.81601  0.66100  0.73001  Biso   1.000  H
  H261     1.0000 0.77902  0.67899  0.85403  Biso   1.000  H
  C286     1.0000 0.91049  0.72652  0.17915  Biso   1.000  C
  C287     1.0000 0.91050  0.72649  0.17924  Biso   1.000  C
  C288     1.0000 0.03119  0.86370  0.15832  Biso   1.000  C
  C289     1.0000 0.03121  0.86372  0.15841  Biso   1.000  C
  H262     1.0000 0.17703  0.87703  0.87495  Biso   1.000  H
  H263     1.0000 0.18703  0.84500  0.73296  Biso   1.000  H
  C290     1.0000 0.08250  0.87163  0.72920  Biso   1.000  C
  H264     1.0000 0.17698  0.87699  0.87504  Biso   1.000  H
  H265     1.0000 0.18697  0.84500  0.73296  Biso   1.000  H
  C291     1.0000 0.08248  0.87158  0.72920  Biso   1.000  C
  C292     1.0000 0.37010  0.77650  0.06738  Biso   1.000  C
  C293     1.0000 0.17142  0.47729  0.63004  Biso   1.000  C
  C294     1.0000 0.17138  0.47731  0.63013  Biso   1.000  C
  H266     1.0000 0.25901  0.56799  0.67797  Biso   1.000  H
  H267     1.0000 0.16400  0.56699  0.60500  Biso   1.000  H
  C295     1.0000 0.32380  0.61610  0.05003  Biso   1.000  C
  C296     1.0000 0.32382  0.61612  0.05012  Biso   1.000  C
  C297     1.0000 0.77341  0.53080  0.69245  Biso   1.000  C
  C298     1.0000 0.77342  0.53081  0.69254  Biso   1.000  C
  H268     1.0000 0.73101  0.55901  0.83695  Biso   1.000  H
  H269     1.0000 0.68700  0.57802  0.70694  Biso   1.000  H
  H270     1.0000 0.73102  0.55902  0.83704  Biso   1.000  H
  H271     1.0000 0.68700  0.57799  0.70703  Biso   1.000  H
  O55      1.0000 0.95114  0.77931  0.28350  Biso   1.000  O
  H272     1.0000 0.85498  0.69799  0.19096  Biso   1.000  H
  H273     1.0000 0.94702  0.69403  0.16699  Biso   1.000  H
  O56      1.0000 0.95108  0.77931  0.28350  Biso   1.000  O
  H274     1.0000 0.85500  0.69800  0.19104  Biso   1.000  H
  H275     1.0000 0.94700  0.69398  0.16699  Biso   1.000  H
  H276     1.0000 0.97501  0.86601  0.16994  Biso   1.000  H
  H277     1.0000 0.97503  0.86603  0.17003  Biso   1.000  H
  C299     1.0000 0.07571  0.84409  0.26240  Biso   1.000  C
  C300     1.0000 0.07229  0.93633  0.15537  Biso   1.000  C
  C301     1.0000 0.07227  0.93628  0.15537  Biso   1.000  C
  H278     1.0000 0.05701  0.84298  0.63692  Biso   1.000  H
  H279     1.0000 0.03702  0.86403  0.77498  Biso   1.000  H
  C302     1.0000 0.10871  0.94399  0.73144  Biso   1.000  C
  H280     1.0000 0.05702  0.84299  0.63701  Biso   1.000  H
  H281     1.0000 0.03701  0.86398  0.77498  Biso   1.000  H
  C303     1.0000 0.10873  0.94401  0.73153  Biso   1.000  C
  C304     1.0000 0.35210  0.77012  0.18353  Biso   1.000  C
  H282     1.0000 0.41403  0.75203  0.05593  Biso   1.000  H
  C305     1.0000 0.41090  0.84928  0.06702  Biso   1.000  C
  C306     1.0000 0.35210  0.77009  0.18362  Biso   1.000  C
  H283     1.0000 0.41398  0.75199  0.05602  Biso   1.000  H
  C307     1.0000 0.41092  0.84930  0.06711  Biso   1.000  C
  C308     1.0000 0.08049  0.44442  0.61037  Biso   1.000  C
  C309     1.0000 0.08047  0.44437  0.61037  Biso   1.000  C
  H284     1.0000 0.18400  0.46302  0.54598  Biso   1.000  H
  H285     1.0000 0.20400  0.45902  0.69594  Biso   1.000  H
  H286     1.0000 0.20400  0.45899  0.69603  Biso   1.000  H
  O57      1.0000 0.38004  0.66362  0.15805  Biso   1.000  O
  H287     1.0000 0.33802  0.57002  0.03796  Biso   1.000  H
  H288     1.0000 0.26403  0.60701  0.05996  Biso   1.000  H
  O58      1.0000 0.37998  0.66358  0.15814  Biso   1.000  O
  H289     1.0000 0.33801  0.56997  0.03796  Biso   1.000  H
  H290     1.0000 0.26397  0.60701  0.05996  Biso   1.000  H
  C310     1.0000 0.70748  0.45668  0.62145  Biso   1.000  C
  C311     1.0000 0.70750  0.45670  0.62154  Biso   1.000  C
  H291     1.0000 0.82404  0.52501  0.75200  Biso   1.000  H
  H292     1.0000 0.79199  0.55302  0.62592  Biso   1.000  H
  H293     1.0000 0.82398  0.52501  0.75200  Biso   1.000  H
  H294     1.0000 0.79199  0.55299  0.62601  Biso   1.000  H
  C312     1.0000 0.03511  0.79982  0.31694  Biso   1.000  C
  C313     1.0000 0.03511  0.79978  0.31703  Biso   1.000  C
  C314     1.0000 0.15761  0.86531  0.30326  Biso   1.000  C
  H295     1.0000 0.13100  0.94001  0.14696  Biso   1.000  H
  H296     1.0000 0.03802  0.94502  0.07793  Biso   1.000  H
  C315     1.0000 0.08011  0.99069  0.26303  Biso   1.000  C
  H297     1.0000 0.03802  0.94498  0.07802  Biso   1.000  H
  C316     1.0000 0.08013  0.99070  0.26312  Biso   1.000  C
  C317     1.0000 0.10621  0.96308  0.62583  Biso   1.000  C
  C318     1.0000 0.13399  0.99269  0.84088  Biso   1.000  C
  C319     1.0000 0.10623  0.96310  0.62592  Biso   1.000  C
  C320     1.0000 0.32812  0.81703  0.25140  Biso   1.000  C
  C321     1.0000 0.35273  0.71132  0.22163  Biso   1.000  C
  C322     1.0000 0.32810  0.81699  0.25140  Biso   1.000  C
  C323     1.0000 0.35267  0.71128  0.22171  Biso   1.000  C
  H298     1.0000 0.41799  0.84998  0.97993  Biso   1.000  H
  H299     1.0000 0.41801  0.84999  0.98002  Biso   1.000  H
  H300     1.0000 0.37499  0.87999  0.08893  Biso   1.000  H
  C324     1.0000 0.49320  0.87728  0.16163  Biso   1.000  C
  H301     1.0000 0.37501  0.88000  0.08902  Biso   1.000  H
  C325     1.0000 0.49322  0.87729  0.16172  Biso   1.000  C
  C326     1.0000 0.06409  0.37001  0.57773  Biso   1.000  C
  C327     1.0000 0.06411  0.37002  0.57782  Biso   1.000  C
  H302     1.0000 0.04599  0.45800  0.53999  Biso   1.000  H
  H303     1.0000 0.06598  0.46000  0.69191  Biso   1.000  H
  H304     1.0000 0.06600  0.46001  0.69200  Biso   1.000  H
  C328     1.0000 0.70740  0.41019  0.68387  Biso   1.000  C
  H305     1.0000 0.72201  0.43900  0.53999  Biso   1.000  H
  H306     1.0000 0.64901  0.46201  0.59892  Biso   1.000  H
  H307     1.0000 0.64903  0.46203  0.59901  Biso   1.000  H
  C329     1.0000 0.07294  0.77763  0.40198  Biso   1.000  C
  C330     1.0000 0.07287  0.77758  0.40198  Biso   1.000  C
  C331     1.0000 0.19814  0.84282  0.39170  Biso   1.000  C
  H308     1.0000 0.19100  0.90103  0.26598  Biso   1.000  H
  C332     1.0000 0.19809  0.84282  0.39170  Biso   1.000  C
  H309     1.0000 0.19099  0.90098  0.26598  Biso   1.000  H
  H310     1.0000 0.11100  0.98103  0.34198  Biso   1.000  H
  H311     1.0000 0.02203  0.99101  0.26794  Biso   1.000  H
  H312     1.0000 0.11098  0.98098  0.34198  Biso   1.000  H
  H313     1.0000 0.02199  0.99102  0.26803  Biso   1.000  H
  C333     1.0000 0.12640  0.05874  0.25632  Biso   1.000  C
  C334     1.0000 0.12638  0.05880  0.25641  Biso   1.000  C
  H314     1.0000 0.08699  0.92500  0.54098  Biso   1.000  H
  C335     1.0000 0.12893  0.03090  0.62959  Biso   1.000  C
  C336     1.0000 0.12887  0.03090  0.62959  Biso   1.000  C
  H315     1.0000 0.13598  0.97801  0.92297  Biso   1.000  H
  C337     1.0000 0.15671  0.06051  0.84464  Biso   1.000  C
  C338     1.0000 0.15673  0.06053  0.84473  Biso   1.000  C
  C339     1.0000 0.31202  0.81151  0.35897  Biso   1.000  C
  H316     1.0000 0.32200  0.85900  0.21894  Biso   1.000  H
  H317     1.0000 0.32201  0.85901  0.21903  Biso   1.000  H
  C340     1.0000 0.33681  0.70601  0.32928  Biso   1.000  C
  H318     1.0000 0.48498  0.87400  0.24791  Biso   1.000  H
  H319     1.0000 0.52899  0.84702  0.13793  Biso   1.000  H
  C341     1.0000 0.53691  0.94821  0.17218  Biso   1.000  C
  H320     1.0000 0.48499  0.87401  0.24800  Biso   1.000  H
  H321     1.0000 0.52899  0.84699  0.13802  Biso   1.000  H
  C342     1.0000 0.98283  0.33303  0.57818  Biso   1.000  C
  C343     1.0000 0.98281  0.33298  0.57818  Biso   1.000  C
  H322     1.0000 0.10700  0.35798  0.64095  Biso   1.000  H
  H323     1.0000 0.07001  0.35400  0.48894  Biso   1.000  H
  H324     1.0000 0.10702  0.35800  0.64104  Biso   1.000  H
  H325     1.0000 0.07003  0.35401  0.48903  Biso   1.000  H
  O59      1.0000 0.65241  0.34537  0.62476  Biso   1.000  O
  O60      1.0000 0.65242  0.34542  0.62476  Biso   1.000  O
  H326     1.0000 0.69302  0.42903  0.76497  Biso   1.000  H
  H327     1.0000 0.76601  0.40499  0.70595  Biso   1.000  H
  H328     1.0000 0.69300  0.42898  0.76497  Biso   1.000  H
  H329     1.0000 0.76603  0.40500  0.70604  Biso   1.000  H
  C344     1.0000 0.15320  0.79802  0.44159  Biso   1.000  C
  O61      1.0000 0.02830  0.73721  0.45992  Biso   1.000  O
  C345     1.0000 0.15318  0.79798  0.44159  Biso   1.000  C
  O62      1.0000 0.02831  0.73722  0.46001  Biso   1.000  O
  C346     1.0000 0.28772  0.86280  0.43363  Biso   1.000  C
  C347     1.0000 0.28768  0.86281  0.43372  Biso   1.000  C
  C348     1.0000 0.20399  0.08834  0.33089  Biso   1.000  C
  C349     1.0000 0.09531  0.09045  0.17522  Biso   1.000  C
  C350     1.0000 0.20400  0.08839  0.33089  Biso   1.000  C
  C351     1.0000 0.09529  0.09051  0.17531  Biso   1.000  C
  C352     1.0000 0.15421  0.07960  0.73904  Biso   1.000  C
  H330     1.0000 0.12701  0.04599  0.54795  Biso   1.000  H
  C353     1.0000 0.15422  0.07961  0.73913  Biso   1.000  C
  H331     1.0000 0.12703  0.04600  0.54804  Biso   1.000  H
  H332     1.0000 0.17600  0.09803  0.92896  Biso   1.000  H
  H333     1.0000 0.17599  0.09798  0.92896  Biso   1.000  H
  C354     1.0000 0.31681  0.75438  0.39223  Biso   1.000  C
  C355     1.0000 0.31677  0.75440  0.39232  Biso   1.000  C
  O63      1.0000 0.34759  0.65462  0.37516  Biso   1.000  O
  C356     1.0000 0.60899  0.96322  0.14446  Biso   1.000  C
  C357     1.0000 0.50788  0.99971  0.21358  Biso   1.000  C
  O64      1.0000 0.97172  0.26283  0.53999  Biso   1.000  O
  O65      1.0000 0.97170  0.26278  0.53999  Biso   1.000  O
  H334     1.0000 0.93902  0.34601  0.51898  Biso   1.000  H
  H335     1.0000 0.97698  0.34601  0.66795  Biso   1.000  H
  H336     1.0000 0.97700  0.34602  0.66804  Biso   1.000  H
  C358     1.0000 0.66319  0.29398  0.67063  Biso   1.000  C
  C359     1.0000 0.66321  0.29400  0.67072  Biso   1.000  C
  O66      1.0000 0.19349  0.77661  0.53450  Biso   1.000  O
  C360     1.0000 0.01719  0.66701  0.42174  Biso   1.000  C
  C361     1.0000 0.01720  0.66702  0.42183  Biso   1.000  C
  H337     1.0000 0.30703  0.86300  0.52600  Biso   1.000  H
  C362     1.0000 0.32929  0.93659  0.43265  Biso   1.000  C
  C363     1.0000 0.32931  0.93661  0.43274  Biso   1.000  C
  C364     1.0000 0.25050  0.14964  0.32419  Biso   1.000  C
  H338     1.0000 0.22801  0.06394  0.39393  Biso   1.000  H
  C365     1.0000 0.25052  0.14969  0.32419  Biso   1.000  C
  H339     1.0000 0.22799  0.06401  0.39402  Biso   1.000  H
  C366     1.0000 0.14182  0.15186  0.16860  Biso   1.000  C
  H340     1.0000 0.03503  0.06799  0.11799  Biso   1.000  H
  C367     1.0000 0.14178  0.15191  0.16860  Biso   1.000  C
  H341     1.0000 0.03497  0.06799  0.11799  Biso   1.000  H
  H342     1.0000 0.17200  0.13200  0.74199  Biso   1.000  H
  O67      1.0000 0.30315  0.74853  0.50490  Biso   1.000  O
  O68      1.0000 0.30308  0.74849  0.50490  Biso   1.000  O
  C368     1.0000 0.29260  0.58980  0.31605  Biso   1.000  C
  C369     1.0000 0.29261  0.58981  0.31614  Biso   1.000  C
  H343     1.0000 0.63201  0.92303  0.11200  Biso   1.000  H
  H344     1.0000 0.63200  0.92298  0.11200  Biso   1.000  H
  C370     1.0000 0.65211  0.02967  0.15823  Biso   1.000  C
  C371     1.0000 0.65212  0.02969  0.15832  Biso   1.000  C
  H345     1.0000 0.45201  0.98803  0.23495  Biso   1.000  H
  H346     1.0000 0.45202  0.98799  0.23504  Biso   1.000  H
  C372     1.0000 0.55098  0.06615  0.22726  Biso   1.000  C
  C373     1.0000 0.55100  0.06620  0.22726  Biso   1.000  C
  C374     1.0000 0.92713  0.22241  0.59794  Biso   1.000  C
  C375     1.0000 0.92709  0.22242  0.59803  Biso   1.000  C
  C376     1.0000 0.68319  0.24561  0.60768  Biso   1.000  C
  C377     1.0000 0.64734  0.28872  0.77829  Biso   1.000  C
  C378     1.0000 0.64729  0.28872  0.77829  Biso   1.000  C
  C379     1.0000 0.22388  0.72548  0.50463  Biso   1.000  C
  C380     1.0000 0.22390  0.72550  0.50472  Biso   1.000  C
  C381     1.0000 0.93593  0.63003  0.42219  Biso   1.000  C
  C382     1.0000 0.93591  0.62998  0.42219  Biso   1.000  C
  H347     1.0000 0.06098  0.65398  0.48094  Biso   1.000  H
  H348     1.0000 0.02303  0.65403  0.33197  Biso   1.000  H
  H349     1.0000 0.06099  0.65400  0.48103  Biso   1.000  H
  H350     1.0000 0.02302  0.65398  0.33197  Biso   1.000  H
  H351     1.0000 0.39203  0.94500  0.45197  Biso   1.000  H
  H352     1.0000 0.30702  0.94201  0.34395  Biso   1.000  H
  C383     1.0000 0.31674  0.98973  0.52100  Biso   1.000  C
  H353     1.0000 0.39198  0.94500  0.45197  Biso   1.000  H
  H354     1.0000 0.30704  0.94203  0.34404  Biso   1.000  H
  C384     1.0000 0.31667  0.98968  0.52100  Biso   1.000  C
  C385     1.0000 0.21939  0.18134  0.24300  Biso   1.000  C
  H355     1.0000 0.31101  0.17296  0.38195  Biso   1.000  H
  C386     1.0000 0.21941  0.18139  0.24300  Biso   1.000  C
  H356     1.0000 0.31099  0.17302  0.38204  Biso   1.000  H
  H357     1.0000 0.11798  0.17598  0.10592  Biso   1.000  H
  H358     1.0000 0.11800  0.17599  0.10601  Biso   1.000  H
  C387     1.0000 0.29252  0.54331  0.37846  Biso   1.000  C
  H359     1.0000 0.30700  0.57101  0.23495  Biso   1.000  H
  H360     1.0000 0.23399  0.59500  0.29396  Biso   1.000  H
  H361     1.0000 0.30702  0.57102  0.23504  Biso   1.000  H
  C388     1.0000 0.62308  0.08117  0.19963  Biso   1.000  C
  H362     1.0000 0.70797  0.04093  0.13695  Biso   1.000  H
  C389     1.0000 0.62310  0.08118  0.19972  Biso   1.000  C
  H363     1.0000 0.70800  0.04100  0.13704  Biso   1.000  H
  H364     1.0000 0.52901  0.10599  0.25900  Biso   1.000  H
  C390     1.0000 0.84682  0.20201  0.55832  Biso   1.000  C
  C391     1.0000 0.84682  0.20198  0.55841  Biso   1.000  C
  C392     1.0000 0.96490  0.20022  0.68297  Biso   1.000  C
  O69      1.0000 0.69692  0.25150  0.49502  Biso   1.000  O
  C393     1.0000 0.68800  0.18852  0.64095  Biso   1.000  C
  O70      1.0000 0.69688  0.25152  0.49511  Biso   1.000  O
  C394     1.0000 0.68800  0.18849  0.64104  Biso   1.000  C
  C395     1.0000 0.64792  0.22992  0.81638  Biso   1.000  C
  O71      1.0000 0.62003  0.33642  0.84187  Biso   1.000  O
  O72      1.0000 0.61996  0.33637  0.84187  Biso   1.000  O
  H365     1.0000 0.18903  0.69301  0.41700  Biso   1.000  H
  H366     1.0000 0.22100  0.69698  0.56892  Biso   1.000  H
  H367     1.0000 0.18898  0.69301  0.41700  Biso   1.000  H
  H368     1.0000 0.22102  0.69699  0.56901  Biso   1.000  H
  C396     1.0000 0.91953  0.55562  0.38955  Biso   1.000  C
  C397     1.0000 0.91947  0.55558  0.38964  Biso   1.000  C
  H369     1.0000 0.89300  0.64201  0.35897  Biso   1.000  H
  H370     1.0000 0.92998  0.64599  0.51098  Biso   1.000  H
  H371     1.0000 0.33001  0.97901  0.60693  Biso   1.000  H
  H372     1.0000 0.25499  0.98600  0.49194  Biso   1.000  H
  H373     1.0000 0.33002  0.97903  0.60702  Biso   1.000  H
  H374     1.0000 0.25501  0.98601  0.49202  Biso   1.000  H
  C398     1.0000 0.36398  0.06135  0.53790  Biso   1.000  C
  C399     1.0000 0.36399  0.06139  0.53790  Biso   1.000  C
  H375     1.0000 0.25501  0.22896  0.23799  Biso   1.000  H
  H376     1.0000 0.25503  0.22901  0.23799  Biso   1.000  H
  C400     1.0000 0.22659  0.46919  0.30747  Biso   1.000  C
  H377     1.0000 0.35100  0.53803  0.40100  Biso   1.000  H
  H378     1.0000 0.27799  0.56099  0.45992  Biso   1.000  H
  H379     1.0000 0.35099  0.53798  0.40100  Biso   1.000  H
  H380     1.0000 0.27801  0.56101  0.46001  Biso   1.000  H
  H381     1.0000 0.65603  0.13297  0.21000  Biso   1.000  H
  H382     1.0000 0.65599  0.13302  0.21000  Biso   1.000  H
  O73      1.0000 0.80651  0.22338  0.46542  Biso   1.000  O
  O74      1.0000 0.80647  0.22340  0.46551  Biso   1.000  O
  C401     1.0000 0.80193  0.15722  0.60822  Biso   1.000  C
  C402     1.0000 0.80188  0.15719  0.60831  Biso   1.000  C
  C403     1.0000 0.92428  0.15590  0.73752  Biso   1.000  C
  C404     1.0000 0.92430  0.15591  0.73761  Biso   1.000  C
  O75      1.0000 0.04892  0.22068  0.71642  Biso   1.000  O
  O76      1.0000 0.04888  0.22069  0.71650  Biso   1.000  O
  C405     1.0000 0.77612  0.27451  0.49528  Biso   1.000  C
  C406     1.0000 0.71228  0.13719  0.56628  Biso   1.000  C
  C407     1.0000 0.67190  0.18300  0.74852  Biso   1.000  C
  C408     1.0000 0.67191  0.18302  0.74861  Biso   1.000  C
  C409     1.0000 0.62990  0.22349  0.93254  Biso   1.000  C
  C410     1.0000 0.62992  0.22350  0.93263  Biso   1.000  C
  C411     1.0000 0.67621  0.38393  0.94988  Biso   1.000  C
  C412     1.0000 0.67620  0.38389  0.94988  Biso   1.000  C
  C413     1.0000 0.82863  0.52270  0.36988  Biso   1.000  C
  C414     1.0000 0.82858  0.52270  0.36988  Biso   1.000  C
  H383     1.0000 0.95401  0.54199  0.45992  Biso   1.000  H
  H384     1.0000 0.93403  0.54004  0.30800  Biso   1.000  H
  H385     1.0000 0.95403  0.54200  0.46001  Biso   1.000  H
  H386     1.0000 0.93402  0.53999  0.30800  Biso   1.000  H
  C415     1.0000 0.42639  0.07855  0.48800  Biso   1.000  C
  C416     1.0000 0.34289  0.11145  0.60487  Biso   1.000  C
  C417     1.0000 0.42640  0.07859  0.48800  Biso   1.000  C
  C418     1.0000 0.34290  0.11150  0.60487  Biso   1.000  C
  C419     1.0000 0.25839  0.42390  0.23853  Biso   1.000  C
  C420     1.0000 0.25841  0.42391  0.23861  Biso   1.000  C
  H387     1.0000 0.17603  0.47502  0.24791  Biso   1.000  H
  H388     1.0000 0.20802  0.44701  0.37399  Biso   1.000  H
  H389     1.0000 0.17598  0.47499  0.24800  Biso   1.000  H
  C421     1.0000 0.84239  0.13468  0.69665  Biso   1.000  C
  C422     1.0000 0.84241  0.13470  0.69674  Biso   1.000  C
  C423     1.0000 0.96882  0.13634  0.84160  Biso   1.000  C
  C424     1.0000 0.96881  0.13629  0.84160  Biso   1.000  C
  C425     1.0000 0.08952  0.27352  0.82077  Biso   1.000  C
  H390     1.0000 0.77900  0.30301  0.43099  Biso   1.000  H
  H391     1.0000 0.81097  0.30698  0.58291  Biso   1.000  H
  H392     1.0000 0.81099  0.30700  0.58300  Biso   1.000  H
  C426     1.0000 0.67071  0.06340  0.56727  Biso   1.000  C
  H393     1.0000 0.69297  0.13699  0.47391  Biso   1.000  H
  H394     1.0000 0.69299  0.13700  0.47400  Biso   1.000  H
  H395     1.0000 0.67800  0.14099  0.78097  Biso   1.000  H
  H396     1.0000 0.58599  0.24801  0.94398  Biso   1.000  H
  C427     1.0000 0.58910  0.15071  0.93290  Biso   1.000  C
  C428     1.0000 0.70601  0.25909  0.03617  Biso   1.000  C
  H397     1.0000 0.66199  0.43002  0.96196  Biso   1.000  H
  H398     1.0000 0.73599  0.39303  0.93996  Biso   1.000  H
  H399     1.0000 0.66198  0.42997  0.96196  Biso   1.000  H
  H400     1.0000 0.73597  0.39298  0.93996  Biso   1.000  H
  O77      1.0000 0.67290  0.36092  0.05093  Biso   1.000  O
  O78      1.0000 0.67290  0.36088  0.05102  Biso   1.000  O
  C429     1.0000 0.80352  0.45200  0.33125  Biso   1.000  C
  C430     1.0000 0.80348  0.45201  0.33134  Biso   1.000  C
  H401     1.0000 0.81602  0.53702  0.45393  Biso   1.000  H
  H402     1.0000 0.79601  0.54101  0.30398  Biso   1.000  H
  H403     1.0000 0.81602  0.53698  0.45402  Biso   1.000  H
  C431     1.0000 0.46790  0.14595  0.50508  Biso   1.000  C
  H404     1.0000 0.44299  0.03994  0.43596  Biso   1.000  H
  C432     1.0000 0.46792  0.14599  0.50508  Biso   1.000  C
  H405     1.0000 0.44300  0.03999  0.43596  Biso   1.000  H
  C433     1.0000 0.38440  0.17885  0.62195  Biso   1.000  C
  H406     1.0000 0.29497  0.09795  0.64395  Biso   1.000  H
  C434     1.0000 0.38444  0.17891  0.62204  Biso   1.000  C
  H407     1.0000 0.29500  0.09801  0.64403  Biso   1.000  H
  C435     1.0000 0.19713  0.35519  0.19400  Biso   1.000  C
  C436     1.0000 0.19707  0.35519  0.19400  Biso   1.000  C
  H408     1.0000 0.26901  0.44103  0.16297  Biso   1.000  H
  H409     1.0000 0.31302  0.42201  0.29298  Biso   1.000  H
  H410     1.0000 0.26899  0.44098  0.16297  Biso   1.000  H
  H411     1.0000 0.80901  0.09901  0.73394  Biso   1.000  H
  H412     1.0000 0.80903  0.09902  0.73403  Biso   1.000  H
  C437     1.0000 0.98469  0.18862  0.95239  Biso   1.000  C
  C438     1.0000 0.92773  0.06371  0.84455  Biso   1.000  C
  C439     1.0000 0.92769  0.06372  0.84464  Biso   1.000  C
  H413     1.0000 0.02501  0.13403  0.82998  Biso   1.000  H
  H414     1.0000 0.02499  0.13398  0.82998  Biso   1.000  H
  H415     1.0000 0.14502  0.30200  0.80896  Biso   1.000  H
  H416     1.0000 0.05300  0.30601  0.83293  Biso   1.000  H
  O79      1.0000 0.10722  0.25193  0.92547  Biso   1.000  O
  H417     1.0000 0.05302  0.30603  0.83302  Biso   1.000  H
  O80      1.0000 0.10720  0.25188  0.92547  Biso   1.000  O
  H418     1.0000 0.60802  0.05499  0.54795  Biso   1.000  H
  H419     1.0000 0.69299  0.05803  0.65597  Biso   1.000  H
  C440     1.0000 0.68333  0.01031  0.47892  Biso   1.000  C
  H420     1.0000 0.60798  0.05500  0.54804  Biso   1.000  H
  H421     1.0000 0.69298  0.05798  0.65597  Biso   1.000  H
  C441     1.0000 0.68329  0.01032  0.47901  Biso   1.000  C
  H422     1.0000 0.62501  0.12000  0.91099  Biso   1.000  H
  C442     1.0000 0.50680  0.12271  0.83829  Biso   1.000  C
  H423     1.0000 0.58201  0.15001  0.01999  Biso   1.000  H
  C443     1.0000 0.75932  0.22599  0.07766  Biso   1.000  C
  C444     1.0000 0.72549  0.32788  0.08374  Biso   1.000  C
  C445     1.0000 0.72551  0.32790  0.08383  Biso   1.000  C
  O81      1.0000 0.81838  0.43130  0.21313  Biso   1.000  O
  O82      1.0000 0.81840  0.43131  0.21322  Biso   1.000  O
  H424     1.0000 0.74099  0.43200  0.32195  Biso   1.000  H
  H425     1.0000 0.83600  0.43300  0.39492  Biso   1.000  H
  H426     1.0000 0.74101  0.43201  0.32204  Biso   1.000  H
  H427     1.0000 0.83601  0.43301  0.39501  Biso   1.000  H
  C446     1.0000 0.44681  0.19605  0.57205  Biso   1.000  C
  H428     1.0000 0.51599  0.15895  0.46591  Biso   1.000  H
  C447     1.0000 0.44679  0.19611  0.57214  Biso   1.000  C
  H429     1.0000 0.51602  0.15901  0.46600  Biso   1.000  H
  H430     1.0000 0.36802  0.21798  0.67399  Biso   1.000  H
  O83      1.0000 0.12594  0.35603  0.11727  Biso   1.000  O
  O84      1.0000 0.12587  0.35598  0.11727  Biso   1.000  O
  H431     1.0000 0.18401  0.33900  0.27000  Biso   1.000  H
  H432     1.0000 0.22100  0.32102  0.14598  Biso   1.000  H
  C448     1.0000 0.93571  0.18380  0.02580  Biso   1.000  C
  C449     1.0000 0.05001  0.24702  0.98950  Biso   1.000  C
  C450     1.0000 0.04999  0.24698  0.98950  Biso   1.000  C
  H433     1.0000 0.96199  0.05502  0.92199  Biso   1.000  H
  C451     1.0000 0.91989  0.00930  0.73689  Biso   1.000  C
  H434     1.0000 0.86902  0.06003  0.85296  Biso   1.000  H
  H435     1.0000 0.86900  0.05998  0.85296  Biso   1.000  H
  H436     1.0000 0.74501  0.01399  0.50798  Biso   1.000  H
  H437     1.0000 0.67001  0.02103  0.39299  Biso   1.000  H
  H438     1.0000 0.66999  0.02098  0.39299  Biso   1.000  H
  C452     1.0000 0.63599  0.93855  0.46202  Biso   1.000  C
  C453     1.0000 0.63602  0.93861  0.46211  Biso   1.000  C
  H439     1.0000 0.47102  0.15301  0.86199  Biso   1.000  H
  H440     1.0000 0.51504  0.12604  0.75200  Biso   1.000  H
  C454     1.0000 0.46311  0.05182  0.82774  Biso   1.000  C
  H441     1.0000 0.51502  0.12599  0.75200  Biso   1.000  H
  C455     1.0000 0.46311  0.05179  0.82783  Biso   1.000  C
  C456     1.0000 0.83060  0.25921  0.16574  Biso   1.000  C
  H442     1.0000 0.74402  0.17299  0.03993  Biso   1.000  H
  C457     1.0000 0.83062  0.25922  0.16583  Biso   1.000  C
  H443     1.0000 0.74398  0.17300  0.04002  Biso   1.000  H
  C458     1.0000 0.79993  0.36101  0.17182  Biso   1.000  C
  C459     1.0000 0.79989  0.36102  0.17191  Biso   1.000  C
  H444     1.0000 0.47899  0.24795  0.58493  Biso   1.000  H
  H445     1.0000 0.47902  0.24801  0.58502  Biso   1.000  H
  C460     1.0000 0.06410  0.29599  0.09000  Biso   1.000  C
  C461     1.0000 0.94690  0.23179  0.12657  Biso   1.000  C
  H446     1.0000 0.88501  0.13899  0.00094  Biso   1.000  H
  H447     1.0000 0.88502  0.13900  0.00103  Biso   1.000  H
  H448     1.0000 0.88902  0.01901  0.65794  Biso   1.000  H
  H449     1.0000 0.97804  0.00903  0.73197  Biso   1.000  H
  H450     1.0000 0.88903  0.01903  0.65803  Biso   1.000  H
  H451     1.0000 0.97797  0.00898  0.73197  Biso   1.000  H
  C462     1.0000 0.87362  0.94116  0.74360  Biso   1.000  C
  C463     1.0000 0.87358  0.94120  0.74360  Biso   1.000  C
  C464     1.0000 0.57358  0.92135  0.51192  Biso   1.000  C
  C465     1.0000 0.65708  0.88844  0.39505  Biso   1.000  C
  C466     1.0000 0.57361  0.92141  0.51201  Biso   1.000  C
  C467     1.0000 0.65711  0.88851  0.39514  Biso   1.000  C
  C468     1.0000 0.39102  0.03682  0.85546  Biso   1.000  C
  C469     1.0000 0.49212  0.00028  0.78634  Biso   1.000  C
  C470     1.0000 0.39101  0.03677  0.85546  Biso   1.000  C
  C471     1.0000 0.49208  0.00030  0.78643  Biso   1.000  C
  C472     1.0000 0.85009  0.32820  0.20866  Biso   1.000  C
  C473     1.0000 0.89001  0.22699  0.20607  Biso   1.000  C
  C474     1.0000 0.01361  0.28963  0.15805  Biso   1.000  C
  C475     1.0000 0.01361  0.28959  0.15814  Biso   1.000  C
  C476     1.0000 0.79598  0.91155  0.66902  Biso   1.000  C
  C477     1.0000 0.90473  0.90949  0.82470  Biso   1.000  C
  C478     1.0000 0.79601  0.91161  0.66911  Biso   1.000  C
  C479     1.0000 0.90468  0.90949  0.82470  Biso   1.000  C
  C480     1.0000 0.53207  0.85395  0.49484  Biso   1.000  C
  H452     1.0000 0.55698  0.95995  0.56396  Biso   1.000  H
  C481     1.0000 0.53210  0.85401  0.49493  Biso   1.000  C
  H453     1.0000 0.55700  0.96000  0.56396  Biso   1.000  H
  C482     1.0000 0.61557  0.82105  0.37797  Biso   1.000  C
  H454     1.0000 0.70500  0.90195  0.35597  Biso   1.000  H
  C483     1.0000 0.61558  0.82109  0.37797  Biso   1.000  C
  H455     1.0000 0.70502  0.90200  0.35597  Biso   1.000  H
  H456     1.0000 0.36800  0.07701  0.88792  Biso   1.000  H
  H457     1.0000 0.36802  0.07702  0.88801  Biso   1.000  H
  C484     1.0000 0.34788  0.97027  0.84169  Biso   1.000  C
  C485     1.0000 0.34789  0.97032  0.84169  Biso   1.000  C
  H458     1.0000 0.54800  0.01201  0.76497  Biso   1.000  H
  C486     1.0000 0.44899  0.93374  0.77266  Biso   1.000  C
  C487     1.0000 0.44900  0.93379  0.77266  Biso   1.000  C
  O85      1.0000 0.92063  0.36571  0.30112  Biso   1.000  O
  O86      1.0000 0.92058  0.36568  0.30121  Biso   1.000  O
  H459     1.0000 0.92301  0.25400  0.29799  Biso   1.000  H
  C488     1.0000 0.85421  0.15498  0.21402  Biso   1.000  C
  C489     1.0000 0.85422  0.15500  0.21411  Biso   1.000  C
  O87      1.0000 0.03140  0.34101  0.26392  Biso   1.000  O
  O88      1.0000 0.03142  0.34102  0.26401  Biso   1.000  O
  C490     1.0000 0.74947  0.85025  0.67573  Biso   1.000  C
  H460     1.0000 0.77202  0.93595  0.60598  Biso   1.000  H
  C491     1.0000 0.74950  0.85031  0.67582  Biso   1.000  C
  H461     1.0000 0.77197  0.93600  0.60598  Biso   1.000  H
  C492     1.0000 0.85815  0.84803  0.83132  Biso   1.000  C
  H462     1.0000 0.96501  0.93195  0.88193  Biso   1.000  H
  C493     1.0000 0.85818  0.84810  0.83141  Biso   1.000  C
  H463     1.0000 0.96499  0.93202  0.88202  Biso   1.000  H
  C494     1.0000 0.55321  0.80384  0.42786  Biso   1.000  C
  H464     1.0000 0.48400  0.84099  0.53400  Biso   1.000  H
  C495     1.0000 0.55317  0.80389  0.42786  Biso   1.000  C
  H465     1.0000 0.63196  0.78196  0.32593  Biso   1.000  H
  H466     1.0000 0.63200  0.78202  0.32602  Biso   1.000  H
  C496     1.0000 0.37690  0.91877  0.80029  Biso   1.000  C
  H467     1.0000 0.29200  0.95896  0.86297  Biso   1.000  H
  H468     1.0000 0.29202  0.95901  0.86297  Biso   1.000  H
  H469     1.0000 0.47097  0.89396  0.74092  Biso   1.000  H
  H470     1.0000 0.47100  0.89402  0.74100  Biso   1.000  H
  C497     1.0000 0.98749  0.38510  0.26079  Biso   1.000  C
  H471     1.0000 0.82299  0.12301  0.12496  Biso   1.000  H
  H472     1.0000 0.81303  0.15499  0.26696  Biso   1.000  H
  C498     1.0000 0.91752  0.12840  0.27072  Biso   1.000  C
  H473     1.0000 0.81297  0.15499  0.26696  Biso   1.000  H
  C499     1.0000 0.91753  0.12842  0.27081  Biso   1.000  C
  C500     1.0000 0.78058  0.81855  0.75692  Biso   1.000  C
  H474     1.0000 0.68903  0.82698  0.61797  Biso   1.000  H
  C501     1.0000 0.78061  0.81861  0.75701  Biso   1.000  C
  H475     1.0000 0.68897  0.82698  0.61797  Biso   1.000  H
  H476     1.0000 0.88201  0.82397  0.89400  Biso   1.000  H
  H477     1.0000 0.88202  0.82401  0.89400  Biso   1.000  H
  H478     1.0000 0.52098  0.75195  0.41499  Biso   1.000  H
  H479     1.0000 0.52099  0.75199  0.41499  Biso   1.000  H
  H480     1.0000 0.34401  0.86697  0.78992  Biso   1.000  H
  H481     1.0000 0.34397  0.86698  0.79001  Biso   1.000  H
  H482     1.0000 0.96801  0.38701  0.16994  Biso   1.000  H
  H483     1.0000 0.96802  0.38702  0.17003  Biso   1.000  H
  H484     1.0000 0.02501  0.43398  0.31694  Biso   1.000  H
  H485     1.0000 0.02503  0.43400  0.31703  Biso   1.000  H
  H486     1.0000 0.94299  0.15701  0.36299  Biso   1.000  H
  H487     1.0000 0.96299  0.13601  0.22493  Biso   1.000  H
  C502     1.0000 0.89129  0.05599  0.26848  Biso   1.000  C
  H488     1.0000 0.96301  0.13602  0.22502  Biso   1.000  H
  H489     1.0000 0.74496  0.77093  0.76193  Biso   1.000  H
  H490     1.0000 0.74499  0.77100  0.76202  Biso   1.000  H
  C503     1.0000 0.89379  0.03691  0.37408  Biso   1.000  C
  C504     1.0000 0.86601  0.00730  0.15903  Biso   1.000  C
  C505     1.0000 0.86603  0.00731  0.15912  Biso   1.000  C
  C506     1.0000 0.87112  0.96909  0.37033  Biso   1.000  C
  C507     1.0000 0.87109  0.96910  0.37042  Biso   1.000  C
  H491     1.0000 0.91301  0.07499  0.45894  Biso   1.000  H
  H492     1.0000 0.91302  0.07500  0.45903  Biso   1.000  H
  C508     1.0000 0.84331  0.93953  0.15528  Biso   1.000  C
  C509     1.0000 0.84329  0.93948  0.15528  Biso   1.000  C
  H493     1.0000 0.86403  0.02203  0.07695  Biso   1.000  H
  H494     1.0000 0.86398  0.02199  0.07704  Biso   1.000  H
  C510     1.0000 0.84579  0.92039  0.26088  Biso   1.000  C
  H495     1.0000 0.87299  0.95400  0.45197  Biso   1.000  H
  H496     1.0000 0.82401  0.90201  0.07096  Biso   1.000  H
  H497     1.0000 0.82800  0.86799  0.25793  Biso   1.000  H
  H498     1.0000 0.82801  0.86800  0.25802  Biso   1.000  H
  C511     1.0000 0.01252  0.61490  0.73922  Biso   1.000  C
  O89      1.0000 0.96861  0.65903  0.73600  Biso   1.000  O
  O90      1.0000 0.96860  0.65898  0.73600  Biso   1.000  O
  H499     1.0000 0.97499  0.56601  0.68297  Biso   1.000  H
  O91      1.0000 0.07944  0.63432  0.69880  Biso   1.000  O
  H500     1.0000 0.03201  0.61303  0.82998  Biso   1.000  H
  O92      1.0000 0.07937  0.63428  0.69880  Biso   1.000  O
  H501     1.0000 0.03199  0.61298  0.82998  Biso   1.000  H
  C512     1.0000 0.98641  0.71041  0.84187  Biso   1.000  C
  C513     1.0000 0.01251  0.61489  0.73913  Biso   1.000  C
  C514     1.0000 0.14991  0.67179  0.79126  Biso   1.000  C
  C515     1.0000 0.93590  0.70400  0.90992  Biso   1.000  C
  C516     1.0000 0.93592  0.70401  0.91000  Biso   1.000  C
  C517     1.0000 0.05310  0.76820  0.87334  Biso   1.000  C
  C518     1.0000 0.05311  0.76821  0.87343  Biso   1.000  C
  C519     1.0000 0.20014  0.63903  0.82810  Biso   1.000  C
  C520     1.0000 0.20007  0.63898  0.82810  Biso   1.000  C
  C521     1.0000 0.16941  0.74083  0.83418  Biso   1.000  C
  C522     1.0000 0.16940  0.74078  0.83418  Biso   1.000  C
  O93      1.0000 0.87413  0.64401  0.88264  Biso   1.000  O
  O94      1.0000 0.87409  0.64402  0.88273  Biso   1.000  O
  C523     1.0000 0.95001  0.75301  0.01042  Biso   1.000  C
  C524     1.0000 0.95001  0.75298  0.01051  Biso   1.000  C
  C525     1.0000 0.06429  0.81619  0.97412  Biso   1.000  C
  C526     1.0000 0.10999  0.77300  0.79385  Biso   1.000  C
  C527     1.0000 0.06431  0.81621  0.97421  Biso   1.000  C
  C528     1.0000 0.11001  0.77301  0.79394  Biso   1.000  C
  O95      1.0000 0.18162  0.56869  0.78679  Biso   1.000  O
  C529     1.0000 0.27451  0.67211  0.91617  Biso   1.000  C
  C530     1.0000 0.24068  0.77400  0.92225  Biso   1.000  C
  C531     1.0000 0.24070  0.77401  0.92234  Biso   1.000  C
  C532     1.0000 0.80292  0.64480  0.80592  Biso   1.000  C
  C533     1.0000 0.80289  0.64481  0.80601  Biso   1.000  C
  O96      1.0000 0.89280  0.74811  0.07444  Biso   1.000  O
  O97      1.0000 0.89282  0.74812  0.07453  Biso   1.000  O
  C534     1.0000 0.01533  0.81142  0.04753  Biso   1.000  C
  C535     1.0000 0.01527  0.81139  0.04762  Biso   1.000  C
  H502     1.0000 0.11499  0.86100  0.99898  Biso   1.000  H
  H503     1.0000 0.07698  0.74599  0.70193  Biso   1.000  H
  C536     1.0000 0.14579  0.84501  0.78589  Biso   1.000  C
  H504     1.0000 0.07700  0.74601  0.70202  Biso   1.000  H
  C537     1.0000 0.19648  0.54799  0.66867  Biso   1.000  C
  O98      1.0000 0.32712  0.63912  0.94899  Biso   1.000  O
  C538     1.0000 0.29399  0.74090  0.96374  Biso   1.000  C
  C539     1.0000 0.29401  0.74091  0.96383  Biso   1.000  C
  H505     1.0000 0.25604  0.82700  0.95999  Biso   1.000  H
  H506     1.0000 0.25598  0.82700  0.95999  Biso   1.000  H
  C540     1.0000 0.74161  0.57609  0.76139  Biso   1.000  C
  H507     1.0000 0.81599  0.66099  0.72992  Biso   1.000  H
  H508     1.0000 0.77902  0.67902  0.85394  Biso   1.000  H
  H509     1.0000 0.81601  0.66100  0.73001  Biso   1.000  H
  H510     1.0000 0.77902  0.67899  0.85403  Biso   1.000  H
  C541     1.0000 0.91049  0.72652  0.17915  Biso   1.000  C
  C542     1.0000 0.91050  0.72649  0.17924  Biso   1.000  C
  C543     1.0000 0.03119  0.86370  0.15832  Biso   1.000  C
  C544     1.0000 0.03121  0.86372  0.15841  Biso   1.000  C
  H511     1.0000 0.17703  0.87703  0.87495  Biso   1.000  H
  H512     1.0000 0.18703  0.84500  0.73296  Biso   1.000  H
  C545     1.0000 0.08250  0.87163  0.72920  Biso   1.000  C
  H513     1.0000 0.17698  0.87699  0.87504  Biso   1.000  H
  H514     1.0000 0.18697  0.84500  0.73296  Biso   1.000  H
  C546     1.0000 0.08248  0.87158  0.72920  Biso   1.000  C
  C547     1.0000 0.17142  0.47729  0.63004  Biso   1.000  C
  C548     1.0000 0.17138  0.47731  0.63013  Biso   1.000  C
  H515     1.0000 0.25901  0.56799  0.67797  Biso   1.000  H
  H516     1.0000 0.16400  0.56699  0.60500  Biso   1.000  H
  C549     1.0000 0.32380  0.61610  0.05003  Biso   1.000  C
  C550     1.0000 0.32382  0.61612  0.05012  Biso   1.000  C
  C551     1.0000 0.37010  0.77650  0.06738  Biso   1.000  C
  C552     1.0000 0.77341  0.53080  0.69245  Biso   1.000  C
  C553     1.0000 0.77342  0.53081  0.69254  Biso   1.000  C
  H517     1.0000 0.73101  0.55901  0.83695  Biso   1.000  H
  H518     1.0000 0.68700  0.57802  0.70694  Biso   1.000  H
  H519     1.0000 0.73102  0.55902  0.83704  Biso   1.000  H
  H520     1.0000 0.68700  0.57799  0.70703  Biso   1.000  H
  O99      1.0000 0.95114  0.77931  0.28350  Biso   1.000  O
  H521     1.0000 0.85498  0.69799  0.19096  Biso   1.000  H
  H522     1.0000 0.94702  0.69403  0.16699  Biso   1.000  H
  O100     1.0000 0.95108  0.77931  0.28350  Biso   1.000  O
  H523     1.0000 0.85500  0.69800  0.19104  Biso   1.000  H
  H524     1.0000 0.94700  0.69398  0.16699  Biso   1.000  H
  H525     1.0000 0.97501  0.86601  0.16994  Biso   1.000  H
  H526     1.0000 0.97503  0.86603  0.17003  Biso   1.000  H
  C554     1.0000 0.07571  0.84409  0.26240  Biso   1.000  C
  C555     1.0000 0.07229  0.93633  0.15537  Biso   1.000  C
  C556     1.0000 0.07227  0.93628  0.15537  Biso   1.000  C
  H527     1.0000 0.05701  0.84298  0.63692  Biso   1.000  H
  H528     1.0000 0.03702  0.86403  0.77498  Biso   1.000  H
  C557     1.0000 0.10871  0.94399  0.73144  Biso   1.000  C
  H529     1.0000 0.05702  0.84299  0.63701  Biso   1.000  H
  H530     1.0000 0.03701  0.86398  0.77498  Biso   1.000  H
  C558     1.0000 0.10873  0.94401  0.73153  Biso   1.000  C
  C559     1.0000 0.08049  0.44442  0.61037  Biso   1.000  C
  C560     1.0000 0.08047  0.44437  0.61037  Biso   1.000  C
  H531     1.0000 0.18400  0.46302  0.54598  Biso   1.000  H
  H532     1.0000 0.20400  0.45902  0.69594  Biso   1.000  H
  H533     1.0000 0.20400  0.45899  0.69603  Biso   1.000  H
  O101     1.0000 0.38004  0.66362  0.15805  Biso   1.000  O
  H534     1.0000 0.33802  0.57002  0.03796  Biso   1.000  H
  H535     1.0000 0.26403  0.60701  0.05996  Biso   1.000  H
  O102     1.0000 0.37998  0.66358  0.15814  Biso   1.000  O
  H536     1.0000 0.33801  0.56997  0.03796  Biso   1.000  H
  H537     1.0000 0.26397  0.60701  0.05996  Biso   1.000  H
  C561     1.0000 0.35210  0.77012  0.18353  Biso   1.000  C
  H538     1.0000 0.41403  0.75203  0.05593  Biso   1.000  H
  C562     1.0000 0.41090  0.84928  0.06702  Biso   1.000  C
  C563     1.0000 0.35210  0.77009  0.18362  Biso   1.000  C
  H539     1.0000 0.41398  0.75199  0.05602  Biso   1.000  H
  C564     1.0000 0.41092  0.84930  0.06711  Biso   1.000  C
  C565     1.0000 0.70748  0.45668  0.62145  Biso   1.000  C
  C566     1.0000 0.70750  0.45670  0.62154  Biso   1.000  C
  H540     1.0000 0.82404  0.52501  0.75200  Biso   1.000  H
  H541     1.0000 0.79199  0.55302  0.62592  Biso   1.000  H
  H542     1.0000 0.82398  0.52501  0.75200  Biso   1.000  H
  H543     1.0000 0.79199  0.55299  0.62601  Biso   1.000  H
  C567     1.0000 0.03511  0.79982  0.31694  Biso   1.000  C
  C568     1.0000 0.03511  0.79978  0.31703  Biso   1.000  C
  C569     1.0000 0.15761  0.86531  0.30326  Biso   1.000  C
  H544     1.0000 0.13100  0.94001  0.14696  Biso   1.000  H
  H545     1.0000 0.03802  0.94502  0.07793  Biso   1.000  H
  C570     1.0000 0.08011  0.99069  0.26303  Biso   1.000  C
  H546     1.0000 0.03802  0.94498  0.07802  Biso   1.000  H
  C571     1.0000 0.08013  0.99070  0.26312  Biso   1.000  C
  C572     1.0000 0.10621  0.96308  0.62583  Biso   1.000  C
  C573     1.0000 0.13399  0.99269  0.84088  Biso   1.000  C
  C574     1.0000 0.10623  0.96310  0.62592  Biso   1.000  C
  C575     1.0000 0.06409  0.37001  0.57773  Biso   1.000  C
  C576     1.0000 0.06411  0.37002  0.57782  Biso   1.000  C
  H547     1.0000 0.04599  0.45800  0.53999  Biso   1.000  H
  H548     1.0000 0.06598  0.46000  0.69191  Biso   1.000  H
  H549     1.0000 0.06600  0.46001  0.69200  Biso   1.000  H
  C577     1.0000 0.35273  0.71132  0.22163  Biso   1.000  C
  C578     1.0000 0.35267  0.71128  0.22171  Biso   1.000  C
  C579     1.0000 0.32812  0.81703  0.25140  Biso   1.000  C
  C580     1.0000 0.32810  0.81699  0.25140  Biso   1.000  C
  H550     1.0000 0.41799  0.84998  0.97993  Biso   1.000  H
  H551     1.0000 0.41801  0.84999  0.98002  Biso   1.000  H
  H552     1.0000 0.37499  0.87999  0.08893  Biso   1.000  H
  C581     1.0000 0.49320  0.87728  0.16163  Biso   1.000  C
  H553     1.0000 0.37501  0.88000  0.08902  Biso   1.000  H
  C582     1.0000 0.49322  0.87729  0.16172  Biso   1.000  C
  C583     1.0000 0.70740  0.41019  0.68387  Biso   1.000  C
  H554     1.0000 0.72201  0.43900  0.53999  Biso   1.000  H
  H555     1.0000 0.64901  0.46201  0.59892  Biso   1.000  H
  H556     1.0000 0.64903  0.46203  0.59901  Biso   1.000  H
  C584     1.0000 0.07294  0.77763  0.40198  Biso   1.000  C
  C585     1.0000 0.07287  0.77758  0.40198  Biso   1.000  C
  C586     1.0000 0.19814  0.84282  0.39170  Biso   1.000  C
  H557     1.0000 0.19100  0.90103  0.26598  Biso   1.000  H
  C587     1.0000 0.19809  0.84282  0.39170  Biso   1.000  C
  H558     1.0000 0.19099  0.90098  0.26598  Biso   1.000  H
  H559     1.0000 0.11100  0.98103  0.34198  Biso   1.000  H
  H560     1.0000 0.02203  0.99101  0.26794  Biso   1.000  H
  H561     1.0000 0.11098  0.98098  0.34198  Biso   1.000  H
  H562     1.0000 0.02199  0.99102  0.26803  Biso   1.000  H
  C588     1.0000 0.12640  0.05874  0.25632  Biso   1.000  C
  C589     1.0000 0.12638  0.05880  0.25641  Biso   1.000  C
  H563     1.0000 0.08699  0.92500  0.54098  Biso   1.000  H
  C590     1.0000 0.12893  0.03090  0.62959  Biso   1.000  C
  C591     1.0000 0.12887  0.03090  0.62959  Biso   1.000  C
  H564     1.0000 0.13598  0.97801  0.92297  Biso   1.000  H
  C592     1.0000 0.15671  0.06051  0.84464  Biso   1.000  C
  C593     1.0000 0.15673  0.06053  0.84473  Biso   1.000  C
  C594     1.0000 0.98283  0.33303  0.57818  Biso   1.000  C
  C595     1.0000 0.98281  0.33298  0.57818  Biso   1.000  C
  H565     1.0000 0.10700  0.35798  0.64095  Biso   1.000  H
  H566     1.0000 0.07001  0.35400  0.48894  Biso   1.000  H
  H567     1.0000 0.10702  0.35800  0.64104  Biso   1.000  H
  H568     1.0000 0.07003  0.35401  0.48903  Biso   1.000  H
  C596     1.0000 0.33681  0.70601  0.32928  Biso   1.000  C
  C597     1.0000 0.31202  0.81151  0.35897  Biso   1.000  C
  H569     1.0000 0.32200  0.85900  0.21894  Biso   1.000  H
  H570     1.0000 0.32201  0.85901  0.21903  Biso   1.000  H
  H571     1.0000 0.48498  0.87400  0.24791  Biso   1.000  H
  H572     1.0000 0.52899  0.84702  0.13793  Biso   1.000  H
  C598     1.0000 0.53691  0.94821  0.17218  Biso   1.000  C
  H573     1.0000 0.48499  0.87401  0.24800  Biso   1.000  H
  H574     1.0000 0.52899  0.84699  0.13802  Biso   1.000  H
  O103     1.0000 0.65242  0.34542  0.62476  Biso   1.000  O
  O104     1.0000 0.65241  0.34537  0.62476  Biso   1.000  O
  H575     1.0000 0.69302  0.42903  0.76497  Biso   1.000  H
  H576     1.0000 0.76601  0.40499  0.70595  Biso   1.000  H
  H577     1.0000 0.69300  0.42898  0.76497  Biso   1.000  H
  H578     1.0000 0.76603  0.40500  0.70604  Biso   1.000  H
  O105     1.0000 0.02830  0.73721  0.45992  Biso   1.000  O
  O106     1.0000 0.02831  0.73722  0.46001  Biso   1.000  O
  C599     1.0000 0.15320  0.79802  0.44159  Biso   1.000  C
  C600     1.0000 0.15318  0.79798  0.44159  Biso   1.000  C
  C601     1.0000 0.28772  0.86280  0.43363  Biso   1.000  C
  C602     1.0000 0.28768  0.86281  0.43372  Biso   1.000  C
  C603     1.0000 0.20399  0.08834  0.33089  Biso   1.000  C
  C604     1.0000 0.09531  0.09045  0.17522  Biso   1.000  C
  C605     1.0000 0.20400  0.08839  0.33089  Biso   1.000  C
  C606     1.0000 0.09529  0.09051  0.17531  Biso   1.000  C
  C607     1.0000 0.15421  0.07960  0.73904  Biso   1.000  C
  H579     1.0000 0.12701  0.04599  0.54795  Biso   1.000  H
  C608     1.0000 0.15422  0.07961  0.73913  Biso   1.000  C
  H580     1.0000 0.12703  0.04600  0.54804  Biso   1.000  H
  H581     1.0000 0.17600  0.09803  0.92896  Biso   1.000  H
  H582     1.0000 0.17599  0.09798  0.92896  Biso   1.000  H
  O107     1.0000 0.97172  0.26283  0.53999  Biso   1.000  O
  O108     1.0000 0.97170  0.26278  0.53999  Biso   1.000  O
  H583     1.0000 0.93902  0.34601  0.51898  Biso   1.000  H
  H584     1.0000 0.97698  0.34601  0.66795  Biso   1.000  H
  H585     1.0000 0.97700  0.34602  0.66804  Biso   1.000  H
  O109     1.0000 0.34759  0.65462  0.37516  Biso   1.000  O
  C609     1.0000 0.31681  0.75438  0.39223  Biso   1.000  C
  C610     1.0000 0.31677  0.75440  0.39232  Biso   1.000  C
  C611     1.0000 0.60899  0.96322  0.14446  Biso   1.000  C
  C612     1.0000 0.50788  0.99971  0.21358  Biso   1.000  C
  C613     1.0000 0.66319  0.29398  0.67063  Biso   1.000  C
  C614     1.0000 0.66321  0.29400  0.67072  Biso   1.000  C
  C615     1.0000 0.01719  0.66701  0.42174  Biso   1.000  C
  C616     1.0000 0.01720  0.66702  0.42183  Biso   1.000  C
  O110     1.0000 0.19349  0.77661  0.53450  Biso   1.000  O
  H586     1.0000 0.30703  0.86300  0.52600  Biso   1.000  H
  C617     1.0000 0.32929  0.93659  0.43265  Biso   1.000  C
  C618     1.0000 0.32931  0.93661  0.43274  Biso   1.000  C
  C619     1.0000 0.25050  0.14964  0.32419  Biso   1.000  C
  H587     1.0000 0.22801  0.06394  0.39393  Biso   1.000  H
  C620     1.0000 0.25052  0.14969  0.32419  Biso   1.000  C
  H588     1.0000 0.22799  0.06401  0.39402  Biso   1.000  H
  C621     1.0000 0.14182  0.15186  0.16860  Biso   1.000  C
  H589     1.0000 0.03503  0.06799  0.11799  Biso   1.000  H
  C622     1.0000 0.14178  0.15191  0.16860  Biso   1.000  C
  H590     1.0000 0.03497  0.06799  0.11799  Biso   1.000  H
  H591     1.0000 0.17200  0.13200  0.74199  Biso   1.000  H
  C623     1.0000 0.92713  0.22241  0.59794  Biso   1.000  C
  C624     1.0000 0.92709  0.22242  0.59803  Biso   1.000  C
  C625     1.0000 0.29260  0.58980  0.31605  Biso   1.000  C
  C626     1.0000 0.29261  0.58981  0.31614  Biso   1.000  C
  O111     1.0000 0.30315  0.74853  0.50490  Biso   1.000  O
  O112     1.0000 0.30308  0.74849  0.50490  Biso   1.000  O
  H592     1.0000 0.63201  0.92303  0.11200  Biso   1.000  H
  H593     1.0000 0.63200  0.92298  0.11200  Biso   1.000  H
  C627     1.0000 0.65211  0.02967  0.15823  Biso   1.000  C
  C628     1.0000 0.65212  0.02969  0.15832  Biso   1.000  C
  H594     1.0000 0.45201  0.98803  0.23495  Biso   1.000  H
  H595     1.0000 0.45202  0.98799  0.23504  Biso   1.000  H
  C629     1.0000 0.55098  0.06615  0.22726  Biso   1.000  C
  C630     1.0000 0.55100  0.06620  0.22726  Biso   1.000  C
  C631     1.0000 0.68319  0.24561  0.60768  Biso   1.000  C
  C632     1.0000 0.64734  0.28872  0.77829  Biso   1.000  C
  C633     1.0000 0.64729  0.28872  0.77829  Biso   1.000  C
  C634     1.0000 0.93593  0.63003  0.42219  Biso   1.000  C
  C635     1.0000 0.93591  0.62998  0.42219  Biso   1.000  C
  H596     1.0000 0.06098  0.65398  0.48094  Biso   1.000  H
  H597     1.0000 0.02303  0.65403  0.33197  Biso   1.000  H
  H598     1.0000 0.06099  0.65400  0.48103  Biso   1.000  H
  H599     1.0000 0.02302  0.65398  0.33197  Biso   1.000  H
  C636     1.0000 0.22388  0.72548  0.50463  Biso   1.000  C
  C637     1.0000 0.22390  0.72550  0.50472  Biso   1.000  C
  H600     1.0000 0.39203  0.94500  0.45197  Biso   1.000  H
  H601     1.0000 0.30702  0.94201  0.34395  Biso   1.000  H
  C638     1.0000 0.31674  0.98973  0.52100  Biso   1.000  C
  H602     1.0000 0.39198  0.94500  0.45197  Biso   1.000  H
  H603     1.0000 0.30704  0.94203  0.34404  Biso   1.000  H
  C639     1.0000 0.31667  0.98968  0.52100  Biso   1.000  C
  C640     1.0000 0.21939  0.18134  0.24300  Biso   1.000  C
  H604     1.0000 0.31101  0.17296  0.38195  Biso   1.000  H
  C641     1.0000 0.21941  0.18139  0.24300  Biso   1.000  C
  H605     1.0000 0.31099  0.17302  0.38204  Biso   1.000  H
  H606     1.0000 0.11798  0.17598  0.10592  Biso   1.000  H
  H607     1.0000 0.11800  0.17599  0.10601  Biso   1.000  H
  C642     1.0000 0.84682  0.20201  0.55832  Biso   1.000  C
  C643     1.0000 0.84682  0.20198  0.55841  Biso   1.000  C
  C644     1.0000 0.96490  0.20022  0.68297  Biso   1.000  C
  C645     1.0000 0.29252  0.54331  0.37846  Biso   1.000  C
  H608     1.0000 0.30700  0.57101  0.23495  Biso   1.000  H
  H609     1.0000 0.23399  0.59500  0.29396  Biso   1.000  H
  H610     1.0000 0.30702  0.57102  0.23504  Biso   1.000  H
  C646     1.0000 0.62308  0.08117  0.19963  Biso   1.000  C
  H611     1.0000 0.70797  0.04093  0.13695  Biso   1.000  H
  C647     1.0000 0.62310  0.08118  0.19972  Biso   1.000  C
  H612     1.0000 0.70800  0.04100  0.13704  Biso   1.000  H
  H613     1.0000 0.52901  0.10599  0.25900  Biso   1.000  H
  O113     1.0000 0.69692  0.25150  0.49502  Biso   1.000  O
  C648     1.0000 0.68800  0.18852  0.64095  Biso   1.000  C
  O114     1.0000 0.69688  0.25152  0.49511  Biso   1.000  O
  C649     1.0000 0.68800  0.18849  0.64104  Biso   1.000  C
  C650     1.0000 0.64792  0.22992  0.81638  Biso   1.000  C
  O115     1.0000 0.62003  0.33642  0.84187  Biso   1.000  O
  O116     1.0000 0.61996  0.33637  0.84187  Biso   1.000  O
  C651     1.0000 0.91953  0.55562  0.38955  Biso   1.000  C
  C652     1.0000 0.91947  0.55558  0.38964  Biso   1.000  C
  H614     1.0000 0.89300  0.64201  0.35897  Biso   1.000  H
  H615     1.0000 0.92998  0.64599  0.51098  Biso   1.000  H
  H616     1.0000 0.18903  0.69301  0.41700  Biso   1.000  H
  H617     1.0000 0.22100  0.69698  0.56892  Biso   1.000  H
  H618     1.0000 0.18898  0.69301  0.41700  Biso   1.000  H
  H619     1.0000 0.22102  0.69699  0.56901  Biso   1.000  H
  H620     1.0000 0.33001  0.97901  0.60693  Biso   1.000  H
  H621     1.0000 0.25499  0.98600  0.49194  Biso   1.000  H
  H622     1.0000 0.33002  0.97903  0.60702  Biso   1.000  H
  H623     1.0000 0.25501  0.98601  0.49202  Biso   1.000  H
  C653     1.0000 0.36398  0.06135  0.53790  Biso   1.000  C
  C654     1.0000 0.36399  0.06139  0.53790  Biso   1.000  C
  H624     1.0000 0.25501  0.22896  0.23799  Biso   1.000  H
  H625     1.0000 0.25503  0.22901  0.23799  Biso   1.000  H
  O117     1.0000 0.80651  0.22338  0.46542  Biso   1.000  O
  O118     1.0000 0.80647  0.22340  0.46551  Biso   1.000  O
  C655     1.0000 0.80193  0.15722  0.60822  Biso   1.000  C
  C656     1.0000 0.80188  0.15719  0.60831  Biso   1.000  C
  C657     1.0000 0.92428  0.15590  0.73752  Biso   1.000  C
  C658     1.0000 0.92430  0.15591  0.73761  Biso   1.000  C
  O119     1.0000 0.04892  0.22068  0.71642  Biso   1.000  O
  O120     1.0000 0.04888  0.22069  0.71650  Biso   1.000  O
  C659     1.0000 0.22659  0.46919  0.30747  Biso   1.000  C
  H626     1.0000 0.35100  0.53803  0.40100  Biso   1.000  H
  H627     1.0000 0.27799  0.56099  0.45992  Biso   1.000  H
  H628     1.0000 0.35099  0.53798  0.40100  Biso   1.000  H
  H629     1.0000 0.27801  0.56101  0.46001  Biso   1.000  H
  H630     1.0000 0.65603  0.13297  0.21000  Biso   1.000  H
  H631     1.0000 0.65599  0.13302  0.21000  Biso   1.000  H
  C660     1.0000 0.77612  0.27451  0.49528  Biso   1.000  C
  C661     1.0000 0.71228  0.13719  0.56628  Biso   1.000  C
  C662     1.0000 0.67190  0.18300  0.74852  Biso   1.000  C
  C663     1.0000 0.67191  0.18302  0.74861  Biso   1.000  C
  C664     1.0000 0.62990  0.22349  0.93254  Biso   1.000  C
  C665     1.0000 0.62992  0.22350  0.93263  Biso   1.000  C
  C666     1.0000 0.67621  0.38393  0.94988  Biso   1.000  C
  C667     1.0000 0.67620  0.38389  0.94988  Biso   1.000  C
  C668     1.0000 0.82863  0.52270  0.36988  Biso   1.000  C
  C669     1.0000 0.82858  0.52270  0.36988  Biso   1.000  C
  H632     1.0000 0.95401  0.54199  0.45992  Biso   1.000  H
  H633     1.0000 0.93403  0.54004  0.30800  Biso   1.000  H
  H634     1.0000 0.95403  0.54200  0.46001  Biso   1.000  H
  H635     1.0000 0.93402  0.53999  0.30800  Biso   1.000  H
  C670     1.0000 0.42639  0.07855  0.48800  Biso   1.000  C
  C671     1.0000 0.34289  0.11145  0.60487  Biso   1.000  C
  C672     1.0000 0.42640  0.07859  0.48800  Biso   1.000  C
  C673     1.0000 0.34290  0.11150  0.60487  Biso   1.000  C
  C674     1.0000 0.84239  0.13468  0.69665  Biso   1.000  C
  C675     1.0000 0.84241  0.13470  0.69674  Biso   1.000  C
  C676     1.0000 0.96882  0.13634  0.84160  Biso   1.000  C
  C677     1.0000 0.96881  0.13629  0.84160  Biso   1.000  C
  C678     1.0000 0.08952  0.27352  0.82077  Biso   1.000  C
  C679     1.0000 0.25839  0.42390  0.23853  Biso   1.000  C
  C680     1.0000 0.25841  0.42391  0.23861  Biso   1.000  C
  H636     1.0000 0.17603  0.47502  0.24791  Biso   1.000  H
  H637     1.0000 0.20802  0.44701  0.37399  Biso   1.000  H
  H638     1.0000 0.17598  0.47499  0.24800  Biso   1.000  H
  H639     1.0000 0.77900  0.30301  0.43099  Biso   1.000  H
  H640     1.0000 0.81097  0.30698  0.58291  Biso   1.000  H
  H641     1.0000 0.81099  0.30700  0.58300  Biso   1.000  H
  C681     1.0000 0.67071  0.06340  0.56727  Biso   1.000  C
  H642     1.0000 0.69297  0.13699  0.47391  Biso   1.000  H
  H643     1.0000 0.69299  0.13700  0.47400  Biso   1.000  H
  H644     1.0000 0.67800  0.14099  0.78097  Biso   1.000  H
  H645     1.0000 0.58599  0.24801  0.94398  Biso   1.000  H
  C682     1.0000 0.58910  0.15071  0.93290  Biso   1.000  C
  C683     1.0000 0.70601  0.25909  0.03617  Biso   1.000  C
  H646     1.0000 0.66199  0.43002  0.96196  Biso   1.000  H
  H647     1.0000 0.73599  0.39303  0.93996  Biso   1.000  H
  H648     1.0000 0.66198  0.42997  0.96196  Biso   1.000  H
  H649     1.0000 0.73597  0.39298  0.93996  Biso   1.000  H
  O121     1.0000 0.67290  0.36092  0.05093  Biso   1.000  O
  O122     1.0000 0.67290  0.36088  0.05102  Biso   1.000  O
  C684     1.0000 0.80352  0.45200  0.33125  Biso   1.000  C
  C685     1.0000 0.80348  0.45201  0.33134  Biso   1.000  C
  H650     1.0000 0.81602  0.53702  0.45393  Biso   1.000  H
  H651     1.0000 0.79601  0.54101  0.30398  Biso   1.000  H
  H652     1.0000 0.81602  0.53698  0.45402  Biso   1.000  H
  C686     1.0000 0.46790  0.14595  0.50508  Biso   1.000  C
  H653     1.0000 0.44299  0.03994  0.43596  Biso   1.000  H
  C687     1.0000 0.46792  0.14599  0.50508  Biso   1.000  C
  H654     1.0000 0.44300  0.03999  0.43596  Biso   1.000  H
  C688     1.0000 0.38440  0.17885  0.62195  Biso   1.000  C
  H655     1.0000 0.29497  0.09795  0.64395  Biso   1.000  H
  C689     1.0000 0.38444  0.17891  0.62204  Biso   1.000  C
  H656     1.0000 0.29500  0.09801  0.64403  Biso   1.000  H
  H657     1.0000 0.80901  0.09901  0.73394  Biso   1.000  H
  H658     1.0000 0.80903  0.09902  0.73403  Biso   1.000  H
  C690     1.0000 0.98469  0.18862  0.95239  Biso   1.000  C
  C691     1.0000 0.92773  0.06371  0.84455  Biso   1.000  C
  C692     1.0000 0.92769  0.06372  0.84464  Biso   1.000  C
  H659     1.0000 0.02501  0.13403  0.82998  Biso   1.000  H
  H660     1.0000 0.02499  0.13398  0.82998  Biso   1.000  H
  H661     1.0000 0.14502  0.30200  0.80896  Biso   1.000  H
  H662     1.0000 0.05300  0.30601  0.83293  Biso   1.000  H
  O123     1.0000 0.10722  0.25193  0.92547  Biso   1.000  O
  H663     1.0000 0.05302  0.30603  0.83302  Biso   1.000  H
  O124     1.0000 0.10720  0.25188  0.92547  Biso   1.000  O
  C693     1.0000 0.19713  0.35519  0.19400  Biso   1.000  C
  C694     1.0000 0.19707  0.35519  0.19400  Biso   1.000  C
  H664     1.0000 0.26901  0.44103  0.16297  Biso   1.000  H
  H665     1.0000 0.31302  0.42201  0.29298  Biso   1.000  H
  H666     1.0000 0.26899  0.44098  0.16297  Biso   1.000  H
  H667     1.0000 0.60802  0.05499  0.54795  Biso   1.000  H
  H668     1.0000 0.69299  0.05803  0.65597  Biso   1.000  H
  C695     1.0000 0.68333  0.01031  0.47892  Biso   1.000  C
  H669     1.0000 0.60798  0.05500  0.54804  Biso   1.000  H
  H670     1.0000 0.69298  0.05798  0.65597  Biso   1.000  H
  C696     1.0000 0.68329  0.01032  0.47901  Biso   1.000  C
  H671     1.0000 0.62501  0.12000  0.91099  Biso   1.000  H
  C697     1.0000 0.50680  0.12271  0.83829  Biso   1.000  C
  H672     1.0000 0.58201  0.15001  0.01999  Biso   1.000  H
  C698     1.0000 0.75932  0.22599  0.07766  Biso   1.000  C
  C699     1.0000 0.72549  0.32788  0.08374  Biso   1.000  C
  C700     1.0000 0.72551  0.32790  0.08383  Biso   1.000  C
  O125     1.0000 0.81838  0.43130  0.21313  Biso   1.000  O
  O126     1.0000 0.81840  0.43131  0.21322  Biso   1.000  O
  H673     1.0000 0.74099  0.43200  0.32195  Biso   1.000  H
  H674     1.0000 0.83600  0.43300  0.39492  Biso   1.000  H
  H675     1.0000 0.74101  0.43201  0.32204  Biso   1.000  H
  H676     1.0000 0.83601  0.43301  0.39501  Biso   1.000  H
  C701     1.0000 0.44681  0.19605  0.57205  Biso   1.000  C
  H677     1.0000 0.51599  0.15895  0.46591  Biso   1.000  H
  C702     1.0000 0.44679  0.19611  0.57214  Biso   1.000  C
  H678     1.0000 0.51602  0.15901  0.46600  Biso   1.000  H
  H679     1.0000 0.36802  0.21798  0.67399  Biso   1.000  H
  C703     1.0000 0.93571  0.18380  0.02580  Biso   1.000  C
  C704     1.0000 0.05001  0.24702  0.98950  Biso   1.000  C
  C705     1.0000 0.04999  0.24698  0.98950  Biso   1.000  C
  H680     1.0000 0.96199  0.05502  0.92199  Biso   1.000  H
  C706     1.0000 0.91989  0.00930  0.73689  Biso   1.000  C
  H681     1.0000 0.86902  0.06003  0.85296  Biso   1.000  H
  H682     1.0000 0.86900  0.05998  0.85296  Biso   1.000  H
  O127     1.0000 0.12594  0.35603  0.11727  Biso   1.000  O
  O128     1.0000 0.12587  0.35598  0.11727  Biso   1.000  O
  H683     1.0000 0.18401  0.33900  0.27000  Biso   1.000  H
  H684     1.0000 0.22100  0.32102  0.14598  Biso   1.000  H
  H685     1.0000 0.74501  0.01399  0.50798  Biso   1.000  H
  C707     1.0000 0.63599  0.93855  0.46202  Biso   1.000  C
  C708     1.0000 0.63602  0.93861  0.46211  Biso   1.000  C
  H686     1.0000 0.67001  0.02103  0.39299  Biso   1.000  H
  H687     1.0000 0.66999  0.02098  0.39299  Biso   1.000  H
  H688     1.0000 0.47102  0.15301  0.86199  Biso   1.000  H
  H689     1.0000 0.51504  0.12604  0.75200  Biso   1.000  H
  C709     1.0000 0.46311  0.05182  0.82774  Biso   1.000  C
  H690     1.0000 0.51502  0.12599  0.75200  Biso   1.000  H
  C710     1.0000 0.46311  0.05179  0.82783  Biso   1.000  C
  C711     1.0000 0.83060  0.25921  0.16574  Biso   1.000  C
  H691     1.0000 0.74402  0.17299  0.03993  Biso   1.000  H
  C712     1.0000 0.83062  0.25922  0.16583  Biso   1.000  C
  H692     1.0000 0.74398  0.17300  0.04002  Biso   1.000  H
  C713     1.0000 0.79993  0.36101  0.17182  Biso   1.000  C
  C714     1.0000 0.79989  0.36102  0.17191  Biso   1.000  C
  H693     1.0000 0.47899  0.24795  0.58493  Biso   1.000  H
  H694     1.0000 0.47902  0.24801  0.58502  Biso   1.000  H
  H695     1.0000 0.88501  0.13899  0.00094  Biso   1.000  H
  C715     1.0000 0.94690  0.23179  0.12657  Biso   1.000  C
  H696     1.0000 0.88502  0.13900  0.00103  Biso   1.000  H
  C716     1.0000 0.06410  0.29599  0.09000  Biso   1.000  C
  C717     1.0000 0.87362  0.94116  0.74360  Biso   1.000  C
  C718     1.0000 0.87358  0.94120  0.74360  Biso   1.000  C
  H697     1.0000 0.88902  0.01901  0.65794  Biso   1.000  H
  H698     1.0000 0.97804  0.00903  0.73197  Biso   1.000  H
  H699     1.0000 0.88903  0.01903  0.65803  Biso   1.000  H
  H700     1.0000 0.97797  0.00898  0.73197  Biso   1.000  H
  C719     1.0000 0.57358  0.92135  0.51192  Biso   1.000  C
  C720     1.0000 0.65708  0.88844  0.39505  Biso   1.000  C
  C721     1.0000 0.57361  0.92141  0.51201  Biso   1.000  C
  C722     1.0000 0.65711  0.88851  0.39514  Biso   1.000  C
  C723     1.0000 0.39102  0.03682  0.85546  Biso   1.000  C
  C724     1.0000 0.49212  0.00028  0.78634  Biso   1.000  C
  C725     1.0000 0.39101  0.03677  0.85546  Biso   1.000  C
  C726     1.0000 0.49208  0.00030  0.78643  Biso   1.000  C
  C727     1.0000 0.85009  0.32820  0.20866  Biso   1.000  C
  C728     1.0000 0.89001  0.22699  0.20607  Biso   1.000  C
  C729     1.0000 0.01361  0.28963  0.15805  Biso   1.000  C
  C730     1.0000 0.01361  0.28959  0.15814  Biso   1.000  C
  C731     1.0000 0.79598  0.91155  0.66902  Biso   1.000  C
  C732     1.0000 0.90473  0.90949  0.82470  Biso   1.000  C
  C733     1.0000 0.79601  0.91161  0.66911  Biso   1.000  C
  C734     1.0000 0.90468  0.90949  0.82470  Biso   1.000  C
  C735     1.0000 0.53207  0.85395  0.49484  Biso   1.000  C
  H701     1.0000 0.55698  0.95995  0.56396  Biso   1.000  H
  C736     1.0000 0.53210  0.85401  0.49493  Biso   1.000  C
  H702     1.0000 0.55700  0.96000  0.56396  Biso   1.000  H
  C737     1.0000 0.61557  0.82105  0.37797  Biso   1.000  C
  H703     1.0000 0.70500  0.90195  0.35597  Biso   1.000  H
  C738     1.0000 0.61558  0.82109  0.37797  Biso   1.000  C
  H704     1.0000 0.70502  0.90200  0.35597  Biso   1.000  H
  C739     1.0000 0.34788  0.97027  0.84169  Biso   1.000  C
  C740     1.0000 0.34789  0.97032  0.84169  Biso   1.000  C
  H705     1.0000 0.36800  0.07701  0.88792  Biso   1.000  H
  H706     1.0000 0.36802  0.07702  0.88801  Biso   1.000  H
  H707     1.0000 0.54800  0.01201  0.76497  Biso   1.000  H
  C741     1.0000 0.44899  0.93374  0.77266  Biso   1.000  C
  C742     1.0000 0.44900  0.93379  0.77266  Biso   1.000  C
  O129     1.0000 0.92063  0.36571  0.30112  Biso   1.000  O
  O130     1.0000 0.92058  0.36568  0.30121  Biso   1.000  O
  H708     1.0000 0.92301  0.25400  0.29799  Biso   1.000  H
  C743     1.0000 0.85421  0.15498  0.21402  Biso   1.000  C
  C744     1.0000 0.85422  0.15500  0.21411  Biso   1.000  C
  O131     1.0000 0.03140  0.34101  0.26392  Biso   1.000  O
  O132     1.0000 0.03142  0.34102  0.26401  Biso   1.000  O
  C745     1.0000 0.74947  0.85025  0.67573  Biso   1.000  C
  H709     1.0000 0.77202  0.93595  0.60598  Biso   1.000  H
  C746     1.0000 0.74950  0.85031  0.67582  Biso   1.000  C
  H710     1.0000 0.77197  0.93600  0.60598  Biso   1.000  H
  C747     1.0000 0.85815  0.84803  0.83132  Biso   1.000  C
  H711     1.0000 0.96501  0.93195  0.88193  Biso   1.000  H
  C748     1.0000 0.85818  0.84810  0.83141  Biso   1.000  C
  H712     1.0000 0.96499  0.93202  0.88202  Biso   1.000  H
  C749     1.0000 0.55321  0.80384  0.42786  Biso   1.000  C
  H713     1.0000 0.48400  0.84099  0.53400  Biso   1.000  H
  C750     1.0000 0.55317  0.80389  0.42786  Biso   1.000  C
  H714     1.0000 0.63196  0.78196  0.32593  Biso   1.000  H
  H715     1.0000 0.63200  0.78202  0.32602  Biso   1.000  H
  C751     1.0000 0.37690  0.91877  0.80029  Biso   1.000  C
  H716     1.0000 0.29200  0.95896  0.86297  Biso   1.000  H
  H717     1.0000 0.29202  0.95901  0.86297  Biso   1.000  H
  H718     1.0000 0.47097  0.89396  0.74092  Biso   1.000  H
  H719     1.0000 0.47100  0.89402  0.74100  Biso   1.000  H
  C752     1.0000 0.98749  0.38510  0.26079  Biso   1.000  C
  H720     1.0000 0.82299  0.12301  0.12496  Biso   1.000  H
  H721     1.0000 0.81303  0.15499  0.26696  Biso   1.000  H
  C753     1.0000 0.91752  0.12840  0.27072  Biso   1.000  C
  H722     1.0000 0.81297  0.15499  0.26696  Biso   1.000  H
  C754     1.0000 0.91753  0.12842  0.27081  Biso   1.000  C
  C755     1.0000 0.78058  0.81855  0.75692  Biso   1.000  C
  H723     1.0000 0.68903  0.82698  0.61797  Biso   1.000  H
  C756     1.0000 0.78061  0.81861  0.75701  Biso   1.000  C
  H724     1.0000 0.68897  0.82698  0.61797  Biso   1.000  H
  H725     1.0000 0.88201  0.82397  0.89400  Biso   1.000  H
  H726     1.0000 0.88202  0.82401  0.89400  Biso   1.000  H
  H727     1.0000 0.52098  0.75195  0.41499  Biso   1.000  H
  H728     1.0000 0.52099  0.75199  0.41499  Biso   1.000  H
  H729     1.0000 0.34401  0.86697  0.78992  Biso   1.000  H
  H730     1.0000 0.34397  0.86698  0.79001  Biso   1.000  H
  H731     1.0000 0.96801  0.38701  0.16994  Biso   1.000  H
  H732     1.0000 0.96802  0.38702  0.17003  Biso   1.000  H
  H733     1.0000 0.02501  0.43398  0.31694  Biso   1.000  H
  H734     1.0000 0.02503  0.43400  0.31703  Biso   1.000  H
  H735     1.0000 0.94299  0.15701  0.36299  Biso   1.000  H
  H736     1.0000 0.96299  0.13601  0.22493  Biso   1.000  H
  C757     1.0000 0.89129  0.05599  0.26848  Biso   1.000  C
  H737     1.0000 0.96301  0.13602  0.22502  Biso   1.000  H
  H738     1.0000 0.74496  0.77093  0.76193  Biso   1.000  H
  H739     1.0000 0.74499  0.77100  0.76202  Biso   1.000  H
  C758     1.0000 0.89379  0.03691  0.37408  Biso   1.000  C
  C759     1.0000 0.86601  0.00730  0.15903  Biso   1.000  C
  C760     1.0000 0.86603  0.00731  0.15912  Biso   1.000  C
  C761     1.0000 0.87112  0.96909  0.37033  Biso   1.000  C
  C762     1.0000 0.87109  0.96910  0.37042  Biso   1.000  C
  H740     1.0000 0.91301  0.07499  0.45894  Biso   1.000  H
  H741     1.0000 0.91302  0.07500  0.45903  Biso   1.000  H
  C763     1.0000 0.84331  0.93953  0.15528  Biso   1.000  C
  C764     1.0000 0.84329  0.93948  0.15528  Biso   1.000  C
  H742     1.0000 0.86403  0.02203  0.07695  Biso   1.000  H
  H743     1.0000 0.86398  0.02199  0.07704  Biso   1.000  H
  C765     1.0000 0.84579  0.92039  0.26088  Biso   1.000  C
  H744     1.0000 0.87299  0.95400  0.45197  Biso   1.000  H
  H745     1.0000 0.82401  0.90201  0.07096  Biso   1.000  H
  H746     1.0000 0.82800  0.86799  0.25793  Biso   1.000  H
  H747     1.0000 0.82801  0.86800  0.25802  Biso   1.000  H
  C766     1.0000 0.01252  0.61490  0.73922  Biso   1.000  C
  O133     1.0000 0.96861  0.65903  0.73600  Biso   1.000  O
  O134     1.0000 0.96860  0.65898  0.73600  Biso   1.000  O
  H748     1.0000 0.97499  0.56601  0.68297  Biso   1.000  H
  O135     1.0000 0.07944  0.63432  0.69880  Biso   1.000  O
  H749     1.0000 0.03201  0.61303  0.82998  Biso   1.000  H
  O136     1.0000 0.07937  0.63428  0.69880  Biso   1.000  O
  H750     1.0000 0.03199  0.61298  0.82998  Biso   1.000  H
  C767     1.0000 0.98641  0.71041  0.84187  Biso   1.000  C
  C768     1.0000 0.01251  0.61489  0.73913  Biso   1.000  C
  C769     1.0000 0.14991  0.67179  0.79126  Biso   1.000  C
  C770     1.0000 0.93590  0.70400  0.90992  Biso   1.000  C
  C771     1.0000 0.93592  0.70401  0.91000  Biso   1.000  C
  C772     1.0000 0.05310  0.76820  0.87334  Biso   1.000  C
  C773     1.0000 0.05311  0.76821  0.87343  Biso   1.000  C
  C774     1.0000 0.20014  0.63903  0.82810  Biso   1.000  C
  C775     1.0000 0.20007  0.63898  0.82810  Biso   1.000  C
  C776     1.0000 0.16941  0.74083  0.83418  Biso   1.000  C
  C777     1.0000 0.16940  0.74078  0.83418  Biso   1.000  C
  O137     1.0000 0.87413  0.64401  0.88264  Biso   1.000  O
  O138     1.0000 0.87409  0.64402  0.88273  Biso   1.000  O
  C778     1.0000 0.95001  0.75301  0.01042  Biso   1.000  C
  C779     1.0000 0.95001  0.75298  0.01051  Biso   1.000  C
  C780     1.0000 0.06429  0.81619  0.97412  Biso   1.000  C
  C781     1.0000 0.10999  0.77300  0.79385  Biso   1.000  C
  C782     1.0000 0.06431  0.81621  0.97421  Biso   1.000  C
  C783     1.0000 0.11001  0.77301  0.79394  Biso   1.000  C
  O139     1.0000 0.18162  0.56869  0.78679  Biso   1.000  O
  C784     1.0000 0.27451  0.67211  0.91617  Biso   1.000  C
  C785     1.0000 0.24068  0.77400  0.92225  Biso   1.000  C
  C786     1.0000 0.24070  0.77401  0.92234  Biso   1.000  C
  C787     1.0000 0.80292  0.64480  0.80592  Biso   1.000  C
  C788     1.0000 0.80289  0.64481  0.80601  Biso   1.000  C
  O140     1.0000 0.89280  0.74811  0.07444  Biso   1.000  O
  O141     1.0000 0.89282  0.74812  0.07453  Biso   1.000  O
  C789     1.0000 0.01533  0.81142  0.04753  Biso   1.000  C
  C790     1.0000 0.01527  0.81139  0.04762  Biso   1.000  C
  H751     1.0000 0.11499  0.86100  0.99898  Biso   1.000  H
  H752     1.0000 0.07698  0.74599  0.70193  Biso   1.000  H
  C791     1.0000 0.14579  0.84501  0.78589  Biso   1.000  C
  H753     1.0000 0.07700  0.74601  0.70202  Biso   1.000  H
  C792     1.0000 0.19648  0.54799  0.66867  Biso   1.000  C
  O142     1.0000 0.32712  0.63912  0.94899  Biso   1.000  O
  C793     1.0000 0.29399  0.74090  0.96374  Biso   1.000  C
  C794     1.0000 0.29401  0.74091  0.96383  Biso   1.000  C
  H754     1.0000 0.25604  0.82700  0.95999  Biso   1.000  H
  H755     1.0000 0.25598  0.82700  0.95999  Biso   1.000  H
  C795     1.0000 0.74161  0.57609  0.76139  Biso   1.000  C
  H756     1.0000 0.81599  0.66099  0.72992  Biso   1.000  H
  H757     1.0000 0.77902  0.67902  0.85394  Biso   1.000  H
  H758     1.0000 0.81601  0.66100  0.73001  Biso   1.000  H
  H759     1.0000 0.77902  0.67899  0.85403  Biso   1.000  H
  C796     1.0000 0.91049  0.72652  0.17915  Biso   1.000  C
  C797     1.0000 0.91050  0.72649  0.17924  Biso   1.000  C
  C798     1.0000 0.03119  0.86370  0.15832  Biso   1.000  C
  C799     1.0000 0.03121  0.86372  0.15841  Biso   1.000  C
  H760     1.0000 0.17703  0.87703  0.87495  Biso   1.000  H
  H761     1.0000 0.18703  0.84500  0.73296  Biso   1.000  H
  C800     1.0000 0.08250  0.87163  0.72920  Biso   1.000  C
  H762     1.0000 0.17698  0.87699  0.87504  Biso   1.000  H
  H763     1.0000 0.18697  0.84500  0.73296  Biso   1.000  H
  C801     1.0000 0.08248  0.87158  0.72920  Biso   1.000  C
  C802     1.0000 0.17142  0.47729  0.63004  Biso   1.000  C
  C803     1.0000 0.17138  0.47731  0.63013  Biso   1.000  C
  H764     1.0000 0.25901  0.56799  0.67797  Biso   1.000  H
  H765     1.0000 0.16400  0.56699  0.60500  Biso   1.000  H
  C804     1.0000 0.32380  0.61610  0.05003  Biso   1.000  C
  C805     1.0000 0.32382  0.61612  0.05012  Biso   1.000  C
  C806     1.0000 0.37010  0.77650  0.06738  Biso   1.000  C
  C807     1.0000 0.77341  0.53080  0.69245  Biso   1.000  C
  C808     1.0000 0.77342  0.53081  0.69254  Biso   1.000  C
  H766     1.0000 0.73101  0.55901  0.83695  Biso   1.000  H
  H767     1.0000 0.68700  0.57802  0.70694  Biso   1.000  H
  H768     1.0000 0.73102  0.55902  0.83704  Biso   1.000  H
  H769     1.0000 0.68700  0.57799  0.70703  Biso   1.000  H
  O143     1.0000 0.95114  0.77931  0.28350  Biso   1.000  O
  H770     1.0000 0.85498  0.69799  0.19096  Biso   1.000  H
  H771     1.0000 0.94702  0.69403  0.16699  Biso   1.000  H
  O144     1.0000 0.95108  0.77931  0.28350  Biso   1.000  O
  H772     1.0000 0.85500  0.69800  0.19104  Biso   1.000  H
  H773     1.0000 0.94700  0.69398  0.16699  Biso   1.000  H
  H774     1.0000 0.97501  0.86601  0.16994  Biso   1.000  H
  H775     1.0000 0.97503  0.86603  0.17003  Biso   1.000  H
  C809     1.0000 0.07571  0.84409  0.26240  Biso   1.000  C
  C810     1.0000 0.07229  0.93633  0.15537  Biso   1.000  C
  C811     1.0000 0.07227  0.93628  0.15537  Biso   1.000  C
  H776     1.0000 0.05701  0.84298  0.63692  Biso   1.000  H
  H777     1.0000 0.03702  0.86403  0.77498  Biso   1.000  H
  C812     1.0000 0.10871  0.94399  0.73144  Biso   1.000  C
  H778     1.0000 0.05702  0.84299  0.63701  Biso   1.000  H
  H779     1.0000 0.03701  0.86398  0.77498  Biso   1.000  H
  C813     1.0000 0.10873  0.94401  0.73153  Biso   1.000  C
  C814     1.0000 0.08049  0.44442  0.61037  Biso   1.000  C
  C815     1.0000 0.08047  0.44437  0.61037  Biso   1.000  C
  H780     1.0000 0.18400  0.46302  0.54598  Biso   1.000  H
  H781     1.0000 0.20400  0.45902  0.69594  Biso   1.000  H
  H782     1.0000 0.20400  0.45899  0.69603  Biso   1.000  H
  O145     1.0000 0.38004  0.66362  0.15805  Biso   1.000  O
  H783     1.0000 0.33802  0.57002  0.03796  Biso   1.000  H
  H784     1.0000 0.26403  0.60701  0.05996  Biso   1.000  H
  O146     1.0000 0.37998  0.66358  0.15814  Biso   1.000  O
  H785     1.0000 0.33801  0.56997  0.03796  Biso   1.000  H
  H786     1.0000 0.26397  0.60701  0.05996  Biso   1.000  H
  C816     1.0000 0.35210  0.77012  0.18353  Biso   1.000  C
  H787     1.0000 0.41403  0.75203  0.05593  Biso   1.000  H
  C817     1.0000 0.41090  0.84928  0.06702  Biso   1.000  C
  C818     1.0000 0.35210  0.77009  0.18362  Biso   1.000  C
  H788     1.0000 0.41398  0.75199  0.05602  Biso   1.000  H
  C819     1.0000 0.41092  0.84930  0.06711  Biso   1.000  C
  C820     1.0000 0.70748  0.45668  0.62145  Biso   1.000  C
  C821     1.0000 0.70750  0.45670  0.62154  Biso   1.000  C
  H789     1.0000 0.82404  0.52501  0.75200  Biso   1.000  H
  H790     1.0000 0.79199  0.55302  0.62592  Biso   1.000  H
  H791     1.0000 0.82398  0.52501  0.75200  Biso   1.000  H
  H792     1.0000 0.79199  0.55299  0.62601  Biso   1.000  H
  C822     1.0000 0.03511  0.79982  0.31694  Biso   1.000  C
  C823     1.0000 0.03511  0.79978  0.31703  Biso   1.000  C
  C824     1.0000 0.15761  0.86531  0.30326  Biso   1.000  C
  H793     1.0000 0.13100  0.94001  0.14696  Biso   1.000  H
  H794     1.0000 0.03802  0.94502  0.07793  Biso   1.000  H
  C825     1.0000 0.08011  0.99069  0.26303  Biso   1.000  C
  H795     1.0000 0.03802  0.94498  0.07802  Biso   1.000  H
  C826     1.0000 0.08013  0.99070  0.26312  Biso   1.000  C
  C827     1.0000 0.10621  0.96308  0.62583  Biso   1.000  C
  C828     1.0000 0.13399  0.99269  0.84088  Biso   1.000  C
  C829     1.0000 0.10623  0.96310  0.62592  Biso   1.000  C
  C830     1.0000 0.06409  0.37001  0.57773  Biso   1.000  C
  C831     1.0000 0.06411  0.37002  0.57782  Biso   1.000  C
  H796     1.0000 0.04599  0.45800  0.53999  Biso   1.000  H
  H797     1.0000 0.06598  0.46000  0.69191  Biso   1.000  H
  H798     1.0000 0.06600  0.46001  0.69200  Biso   1.000  H
  C832     1.0000 0.35273  0.71132  0.22163  Biso   1.000  C
  C833     1.0000 0.35267  0.71128  0.22171  Biso   1.000  C
  C834     1.0000 0.32812  0.81703  0.25140  Biso   1.000  C
  C835     1.0000 0.32810  0.81699  0.25140  Biso   1.000  C
  H799     1.0000 0.41799  0.84998  0.97993  Biso   1.000  H
  H800     1.0000 0.41801  0.84999  0.98002  Biso   1.000  H
  H801     1.0000 0.37499  0.87999  0.08893  Biso   1.000  H
  C836     1.0000 0.49320  0.87728  0.16163  Biso   1.000  C
  H802     1.0000 0.37501  0.88000  0.08902  Biso   1.000  H
  C837     1.0000 0.49322  0.87729  0.16172  Biso   1.000  C
  C838     1.0000 0.70740  0.41019  0.68387  Biso   1.000  C
  H803     1.0000 0.72201  0.43900  0.53999  Biso   1.000  H
  H804     1.0000 0.64901  0.46201  0.59892  Biso   1.000  H
  H805     1.0000 0.64903  0.46203  0.59901  Biso   1.000  H
  C839     1.0000 0.07294  0.77763  0.40198  Biso   1.000  C
  C840     1.0000 0.07287  0.77758  0.40198  Biso   1.000  C
  C841     1.0000 0.19814  0.84282  0.39170  Biso   1.000  C
  H806     1.0000 0.19100  0.90103  0.26598  Biso   1.000  H
  C842     1.0000 0.19809  0.84282  0.39170  Biso   1.000  C
  H807     1.0000 0.19099  0.90098  0.26598  Biso   1.000  H
  H808     1.0000 0.11100  0.98103  0.34198  Biso   1.000  H
  H809     1.0000 0.02203  0.99101  0.26794  Biso   1.000  H
  H810     1.0000 0.11098  0.98098  0.34198  Biso   1.000  H
  H811     1.0000 0.02199  0.99102  0.26803  Biso   1.000  H
  C843     1.0000 0.12640  0.05874  0.25632  Biso   1.000  C
  C844     1.0000 0.12638  0.05880  0.25641  Biso   1.000  C
  H812     1.0000 0.08699  0.92500  0.54098  Biso   1.000  H
  C845     1.0000 0.12893  0.03090  0.62959  Biso   1.000  C
  C846     1.0000 0.12887  0.03090  0.62959  Biso   1.000  C
  H813     1.0000 0.13598  0.97801  0.92297  Biso   1.000  H
  C847     1.0000 0.15671  0.06051  0.84464  Biso   1.000  C
  C848     1.0000 0.15673  0.06053  0.84473  Biso   1.000  C
  C849     1.0000 0.98283  0.33303  0.57818  Biso   1.000  C
  C850     1.0000 0.98281  0.33298  0.57818  Biso   1.000  C
  H814     1.0000 0.10700  0.35798  0.64095  Biso   1.000  H
  H815     1.0000 0.07001  0.35400  0.48894  Biso   1.000  H
  H816     1.0000 0.10702  0.35800  0.64104  Biso   1.000  H
  H817     1.0000 0.07003  0.35401  0.48903  Biso   1.000  H
  C851     1.0000 0.33681  0.70601  0.32928  Biso   1.000  C
  C852     1.0000 0.31202  0.81151  0.35897  Biso   1.000  C
  H818     1.0000 0.32200  0.85900  0.21894  Biso   1.000  H
  H819     1.0000 0.32201  0.85901  0.21903  Biso   1.000  H
  H820     1.0000 0.48498  0.87400  0.24791  Biso   1.000  H
  H821     1.0000 0.52899  0.84702  0.13793  Biso   1.000  H
  C853     1.0000 0.53691  0.94821  0.17218  Biso   1.000  C
  H822     1.0000 0.48499  0.87401  0.24800  Biso   1.000  H
  H823     1.0000 0.52899  0.84699  0.13802  Biso   1.000  H
  O147     1.0000 0.65242  0.34542  0.62476  Biso   1.000  O
  O148     1.0000 0.65241  0.34537  0.62476  Biso   1.000  O
  H824     1.0000 0.69302  0.42903  0.76497  Biso   1.000  H
  H825     1.0000 0.76601  0.40499  0.70595  Biso   1.000  H
  H826     1.0000 0.69300  0.42898  0.76497  Biso   1.000  H
  H827     1.0000 0.76603  0.40500  0.70604  Biso   1.000  H
  O149     1.0000 0.02830  0.73721  0.45992  Biso   1.000  O
  O150     1.0000 0.02831  0.73722  0.46001  Biso   1.000  O
  C854     1.0000 0.15320  0.79802  0.44159  Biso   1.000  C
  C855     1.0000 0.15318  0.79798  0.44159  Biso   1.000  C
  C856     1.0000 0.28772  0.86280  0.43363  Biso   1.000  C
  C857     1.0000 0.28768  0.86281  0.43372  Biso   1.000  C
  C858     1.0000 0.20399  0.08834  0.33089  Biso   1.000  C
  C859     1.0000 0.09531  0.09045  0.17522  Biso   1.000  C
  C860     1.0000 0.20400  0.08839  0.33089  Biso   1.000  C
  C861     1.0000 0.09529  0.09051  0.17531  Biso   1.000  C
  C862     1.0000 0.15421  0.07960  0.73904  Biso   1.000  C
  H828     1.0000 0.12701  0.04599  0.54795  Biso   1.000  H
  C863     1.0000 0.15422  0.07961  0.73913  Biso   1.000  C
  H829     1.0000 0.12703  0.04600  0.54804  Biso   1.000  H
  H830     1.0000 0.17600  0.09803  0.92896  Biso   1.000  H
  H831     1.0000 0.17599  0.09798  0.92896  Biso   1.000  H
  O151     1.0000 0.97172  0.26283  0.53999  Biso   1.000  O
  O152     1.0000 0.97170  0.26278  0.53999  Biso   1.000  O
  H832     1.0000 0.93902  0.34601  0.51898  Biso   1.000  H
  H833     1.0000 0.97698  0.34601  0.66795  Biso   1.000  H
  H834     1.0000 0.97700  0.34602  0.66804  Biso   1.000  H
  O153     1.0000 0.34759  0.65462  0.37516  Biso   1.000  O
  C864     1.0000 0.31681  0.75438  0.39223  Biso   1.000  C
  C865     1.0000 0.31677  0.75440  0.39232  Biso   1.000  C
  C866     1.0000 0.60899  0.96322  0.14446  Biso   1.000  C
  C867     1.0000 0.50788  0.99971  0.21358  Biso   1.000  C
  C868     1.0000 0.66319  0.29398  0.67063  Biso   1.000  C
  C869     1.0000 0.66321  0.29400  0.67072  Biso   1.000  C
  C870     1.0000 0.01719  0.66701  0.42174  Biso   1.000  C
  C871     1.0000 0.01720  0.66702  0.42183  Biso   1.000  C
  O154     1.0000 0.19349  0.77661  0.53450  Biso   1.000  O
  H835     1.0000 0.30703  0.86300  0.52600  Biso   1.000  H
  C872     1.0000 0.32929  0.93659  0.43265  Biso   1.000  C
  C873     1.0000 0.32931  0.93661  0.43274  Biso   1.000  C
  C874     1.0000 0.25050  0.14964  0.32419  Biso   1.000  C
  H836     1.0000 0.22801  0.06394  0.39393  Biso   1.000  H
  C875     1.0000 0.25052  0.14969  0.32419  Biso   1.000  C
  H837     1.0000 0.22799  0.06401  0.39402  Biso   1.000  H
  C876     1.0000 0.14182  0.15186  0.16860  Biso   1.000  C
  H838     1.0000 0.03503  0.06799  0.11799  Biso   1.000  H
  C877     1.0000 0.14178  0.15191  0.16860  Biso   1.000  C
  H839     1.0000 0.03497  0.06799  0.11799  Biso   1.000  H
  H840     1.0000 0.17200  0.13200  0.74199  Biso   1.000  H
  C878     1.0000 0.92713  0.22241  0.59794  Biso   1.000  C
  C879     1.0000 0.92709  0.22242  0.59803  Biso   1.000  C
  C880     1.0000 0.29260  0.58980  0.31605  Biso   1.000  C
  C881     1.0000 0.29261  0.58981  0.31614  Biso   1.000  C
  O155     1.0000 0.30315  0.74853  0.50490  Biso   1.000  O
  O156     1.0000 0.30308  0.74849  0.50490  Biso   1.000  O
  H841     1.0000 0.63201  0.92303  0.11200  Biso   1.000  H
  H842     1.0000 0.63200  0.92298  0.11200  Biso   1.000  H
  C882     1.0000 0.65211  0.02967  0.15823  Biso   1.000  C
  C883     1.0000 0.65212  0.02969  0.15832  Biso   1.000  C
  H843     1.0000 0.45201  0.98803  0.23495  Biso   1.000  H
  H844     1.0000 0.45202  0.98799  0.23504  Biso   1.000  H
  C884     1.0000 0.55098  0.06615  0.22726  Biso   1.000  C
  C885     1.0000 0.55100  0.06620  0.22726  Biso   1.000  C
  C886     1.0000 0.68319  0.24561  0.60768  Biso   1.000  C
  C887     1.0000 0.64734  0.28872  0.77829  Biso   1.000  C
  C888     1.0000 0.64729  0.28872  0.77829  Biso   1.000  C
  C889     1.0000 0.93593  0.63003  0.42219  Biso   1.000  C
  C890     1.0000 0.93591  0.62998  0.42219  Biso   1.000  C
  H845     1.0000 0.06098  0.65398  0.48094  Biso   1.000  H
  H846     1.0000 0.02303  0.65403  0.33197  Biso   1.000  H
  H847     1.0000 0.06099  0.65400  0.48103  Biso   1.000  H
  H848     1.0000 0.02302  0.65398  0.33197  Biso   1.000  H
  C891     1.0000 0.22388  0.72548  0.50463  Biso   1.000  C
  C892     1.0000 0.22390  0.72550  0.50472  Biso   1.000  C
  H849     1.0000 0.39203  0.94500  0.45197  Biso   1.000  H
  H850     1.0000 0.30702  0.94201  0.34395  Biso   1.000  H
  C893     1.0000 0.31674  0.98973  0.52100  Biso   1.000  C
  H851     1.0000 0.39198  0.94500  0.45197  Biso   1.000  H
  H852     1.0000 0.30704  0.94203  0.34404  Biso   1.000  H
  C894     1.0000 0.31667  0.98968  0.52100  Biso   1.000  C
  C895     1.0000 0.21939  0.18134  0.24300  Biso   1.000  C
  H853     1.0000 0.31101  0.17296  0.38195  Biso   1.000  H
  C896     1.0000 0.21941  0.18139  0.24300  Biso   1.000  C
  H854     1.0000 0.31099  0.17302  0.38204  Biso   1.000  H
  H855     1.0000 0.11798  0.17598  0.10592  Biso   1.000  H
  H856     1.0000 0.11800  0.17599  0.10601  Biso   1.000  H
  C897     1.0000 0.84682  0.20201  0.55832  Biso   1.000  C
  C898     1.0000 0.84682  0.20198  0.55841  Biso   1.000  C
  C899     1.0000 0.96490  0.20022  0.68297  Biso   1.000  C
  C900     1.0000 0.29252  0.54331  0.37846  Biso   1.000  C
  H857     1.0000 0.30700  0.57101  0.23495  Biso   1.000  H
  H858     1.0000 0.23399  0.59500  0.29396  Biso   1.000  H
  H859     1.0000 0.30702  0.57102  0.23504  Biso   1.000  H
  C901     1.0000 0.62308  0.08117  0.19963  Biso   1.000  C
  H860     1.0000 0.70797  0.04093  0.13695  Biso   1.000  H
  C902     1.0000 0.62310  0.08118  0.19972  Biso   1.000  C
  H861     1.0000 0.70800  0.04100  0.13704  Biso   1.000  H
  H862     1.0000 0.52901  0.10599  0.25900  Biso   1.000  H
  O157     1.0000 0.69692  0.25150  0.49502  Biso   1.000  O
  C903     1.0000 0.68800  0.18852  0.64095  Biso   1.000  C
  O158     1.0000 0.69688  0.25152  0.49511  Biso   1.000  O
  C904     1.0000 0.68800  0.18849  0.64104  Biso   1.000  C
  C905     1.0000 0.64792  0.22992  0.81638  Biso   1.000  C
  O159     1.0000 0.62003  0.33642  0.84187  Biso   1.000  O
  O160     1.0000 0.61996  0.33637  0.84187  Biso   1.000  O
  C906     1.0000 0.91953  0.55562  0.38955  Biso   1.000  C
  C907     1.0000 0.91947  0.55558  0.38964  Biso   1.000  C
  H863     1.0000 0.89300  0.64201  0.35897  Biso   1.000  H
  H864     1.0000 0.92998  0.64599  0.51098  Biso   1.000  H
  H865     1.0000 0.18903  0.69301  0.41700  Biso   1.000  H
  H866     1.0000 0.22100  0.69698  0.56892  Biso   1.000  H
  H867     1.0000 0.18898  0.69301  0.41700  Biso   1.000  H
  H868     1.0000 0.22102  0.69699  0.56901  Biso   1.000  H
  H869     1.0000 0.33001  0.97901  0.60693  Biso   1.000  H
  H870     1.0000 0.25499  0.98600  0.49194  Biso   1.000  H
  H871     1.0000 0.33002  0.97903  0.60702  Biso   1.000  H
  H872     1.0000 0.25501  0.98601  0.49202  Biso   1.000  H
  C908     1.0000 0.36398  0.06135  0.53790  Biso   1.000  C
  C909     1.0000 0.36399  0.06139  0.53790  Biso   1.000  C
  H873     1.0000 0.25501  0.22896  0.23799  Biso   1.000  H
  H874     1.0000 0.25503  0.22901  0.23799  Biso   1.000  H
  O161     1.0000 0.80651  0.22338  0.46542  Biso   1.000  O
  O162     1.0000 0.80647  0.22340  0.46551  Biso   1.000  O
  C910     1.0000 0.80193  0.15722  0.60822  Biso   1.000  C
  C911     1.0000 0.80188  0.15719  0.60831  Biso   1.000  C
  C912     1.0000 0.92428  0.15590  0.73752  Biso   1.000  C
  C913     1.0000 0.92430  0.15591  0.73761  Biso   1.000  C
  O163     1.0000 0.04892  0.22068  0.71642  Biso   1.000  O
  O164     1.0000 0.04888  0.22069  0.71650  Biso   1.000  O
  C914     1.0000 0.22659  0.46919  0.30747  Biso   1.000  C
  H875     1.0000 0.35100  0.53803  0.40100  Biso   1.000  H
  H876     1.0000 0.27799  0.56099  0.45992  Biso   1.000  H
  H877     1.0000 0.35099  0.53798  0.40100  Biso   1.000  H
  H878     1.0000 0.27801  0.56101  0.46001  Biso   1.000  H
  H879     1.0000 0.65603  0.13297  0.21000  Biso   1.000  H
  H880     1.0000 0.65599  0.13302  0.21000  Biso   1.000  H
  C915     1.0000 0.77612  0.27451  0.49528  Biso   1.000  C
  C916     1.0000 0.71228  0.13719  0.56628  Biso   1.000  C
  C917     1.0000 0.67190  0.18300  0.74852  Biso   1.000  C
  C918     1.0000 0.67191  0.18302  0.74861  Biso   1.000  C
  C919     1.0000 0.62990  0.22349  0.93254  Biso   1.000  C
  C920     1.0000 0.62992  0.22350  0.93263  Biso   1.000  C
  C921     1.0000 0.67621  0.38393  0.94988  Biso   1.000  C
  C922     1.0000 0.67620  0.38389  0.94988  Biso   1.000  C
  C923     1.0000 0.82863  0.52270  0.36988  Biso   1.000  C
  C924     1.0000 0.82858  0.52270  0.36988  Biso   1.000  C
  H881     1.0000 0.95401  0.54199  0.45992  Biso   1.000  H
  H882     1.0000 0.93403  0.54004  0.30800  Biso   1.000  H
  H883     1.0000 0.95403  0.54200  0.46001  Biso   1.000  H
  H884     1.0000 0.93402  0.53999  0.30800  Biso   1.000  H
  C925     1.0000 0.42639  0.07855  0.48800  Biso   1.000  C
  C926     1.0000 0.34289  0.11145  0.60487  Biso   1.000  C
  C927     1.0000 0.42640  0.07859  0.48800  Biso   1.000  C
  C928     1.0000 0.34290  0.11150  0.60487  Biso   1.000  C
  C929     1.0000 0.84239  0.13468  0.69665  Biso   1.000  C
  C930     1.0000 0.84241  0.13470  0.69674  Biso   1.000  C
  C931     1.0000 0.96882  0.13634  0.84160  Biso   1.000  C
  C932     1.0000 0.96881  0.13629  0.84160  Biso   1.000  C
  C933     1.0000 0.08952  0.27352  0.82077  Biso   1.000  C
  C934     1.0000 0.25839  0.42390  0.23853  Biso   1.000  C
  C935     1.0000 0.25841  0.42391  0.23861  Biso   1.000  C
  H885     1.0000 0.17603  0.47502  0.24791  Biso   1.000  H
  H886     1.0000 0.20802  0.44701  0.37399  Biso   1.000  H
  H887     1.0000 0.17598  0.47499  0.24800  Biso   1.000  H
  H888     1.0000 0.77900  0.30301  0.43099  Biso   1.000  H
  H889     1.0000 0.81097  0.30698  0.58291  Biso   1.000  H
  H890     1.0000 0.81099  0.30700  0.58300  Biso   1.000  H
  C936     1.0000 0.67071  0.06340  0.56727  Biso   1.000  C
  H891     1.0000 0.69297  0.13699  0.47391  Biso   1.000  H
  H892     1.0000 0.69299  0.13700  0.47400  Biso   1.000  H
  H893     1.0000 0.67800  0.14099  0.78097  Biso   1.000  H
  H894     1.0000 0.58599  0.24801  0.94398  Biso   1.000  H
  C937     1.0000 0.58910  0.15071  0.93290  Biso   1.000  C
  C938     1.0000 0.70601  0.25909  0.03617  Biso   1.000  C
  H895     1.0000 0.66199  0.43002  0.96196  Biso   1.000  H
  H896     1.0000 0.73599  0.39303  0.93996  Biso   1.000  H
  H897     1.0000 0.66198  0.42997  0.96196  Biso   1.000  H
  H898     1.0000 0.73597  0.39298  0.93996  Biso   1.000  H
  O165     1.0000 0.67290  0.36092  0.05093  Biso   1.000  O
  O166     1.0000 0.67290  0.36088  0.05102  Biso   1.000  O
  C939     1.0000 0.80352  0.45200  0.33125  Biso   1.000  C
  C940     1.0000 0.80348  0.45201  0.33134  Biso   1.000  C
  H899     1.0000 0.81602  0.53702  0.45393  Biso   1.000  H
  H900     1.0000 0.79601  0.54101  0.30398  Biso   1.000  H
  H901     1.0000 0.81602  0.53698  0.45402  Biso   1.000  H
  C941     1.0000 0.46790  0.14595  0.50508  Biso   1.000  C
  H902     1.0000 0.44299  0.03994  0.43596  Biso   1.000  H
  C942     1.0000 0.46792  0.14599  0.50508  Biso   1.000  C
  H903     1.0000 0.44300  0.03999  0.43596  Biso   1.000  H
  C943     1.0000 0.38440  0.17885  0.62195  Biso   1.000  C
  H904     1.0000 0.29497  0.09795  0.64395  Biso   1.000  H
  C944     1.0000 0.38444  0.17891  0.62204  Biso   1.000  C
  H905     1.0000 0.29500  0.09801  0.64403  Biso   1.000  H
  H906     1.0000 0.80901  0.09901  0.73394  Biso   1.000  H
  H907     1.0000 0.80903  0.09902  0.73403  Biso   1.000  H
  C945     1.0000 0.98469  0.18862  0.95239  Biso   1.000  C
  C946     1.0000 0.92773  0.06371  0.84455  Biso   1.000  C
  C947     1.0000 0.92769  0.06372  0.84464  Biso   1.000  C
  H908     1.0000 0.02501  0.13403  0.82998  Biso   1.000  H
  H909     1.0000 0.02499  0.13398  0.82998  Biso   1.000  H
  H910     1.0000 0.14502  0.30200  0.80896  Biso   1.000  H
  H911     1.0000 0.05300  0.30601  0.83293  Biso   1.000  H
  O167     1.0000 0.10722  0.25193  0.92547  Biso   1.000  O
  H912     1.0000 0.05302  0.30603  0.83302  Biso   1.000  H
  O168     1.0000 0.10720  0.25188  0.92547  Biso   1.000  O
  C948     1.0000 0.19713  0.35519  0.19400  Biso   1.000  C
  C949     1.0000 0.19707  0.35519  0.19400  Biso   1.000  C
  H913     1.0000 0.26901  0.44103  0.16297  Biso   1.000  H
  H914     1.0000 0.31302  0.42201  0.29298  Biso   1.000  H
  H915     1.0000 0.26899  0.44098  0.16297  Biso   1.000  H
  H916     1.0000 0.60802  0.05499  0.54795  Biso   1.000  H
  H917     1.0000 0.69299  0.05803  0.65597  Biso   1.000  H
  C950     1.0000 0.68333  0.01031  0.47892  Biso   1.000  C
  H918     1.0000 0.60798  0.05500  0.54804  Biso   1.000  H
  H919     1.0000 0.69298  0.05798  0.65597  Biso   1.000  H
  C951     1.0000 0.68329  0.01032  0.47901  Biso   1.000  C
  H920     1.0000 0.62501  0.12000  0.91099  Biso   1.000  H
  C952     1.0000 0.50680  0.12271  0.83829  Biso   1.000  C
  H921     1.0000 0.58201  0.15001  0.01999  Biso   1.000  H
  C953     1.0000 0.75932  0.22599  0.07766  Biso   1.000  C
  C954     1.0000 0.72549  0.32788  0.08374  Biso   1.000  C
  C955     1.0000 0.72551  0.32790  0.08383  Biso   1.000  C
  O169     1.0000 0.81838  0.43130  0.21313  Biso   1.000  O
  O170     1.0000 0.81840  0.43131  0.21322  Biso   1.000  O
  H922     1.0000 0.74099  0.43200  0.32195  Biso   1.000  H
  H923     1.0000 0.83600  0.43300  0.39492  Biso   1.000  H
  H924     1.0000 0.74101  0.43201  0.32204  Biso   1.000  H
  H925     1.0000 0.83601  0.43301  0.39501  Biso   1.000  H
  C956     1.0000 0.44681  0.19605  0.57205  Biso   1.000  C
  H926     1.0000 0.51599  0.15895  0.46591  Biso   1.000  H
  C957     1.0000 0.44679  0.19611  0.57214  Biso   1.000  C
  H927     1.0000 0.51602  0.15901  0.46600  Biso   1.000  H
  H928     1.0000 0.36802  0.21798  0.67399  Biso   1.000  H
  C958     1.0000 0.93571  0.18380  0.02580  Biso   1.000  C
  C959     1.0000 0.05001  0.24702  0.98950  Biso   1.000  C
  C960     1.0000 0.04999  0.24698  0.98950  Biso   1.000  C
  H929     1.0000 0.96199  0.05502  0.92199  Biso   1.000  H
  C961     1.0000 0.91989  0.00930  0.73689  Biso   1.000  C
  H930     1.0000 0.86902  0.06003  0.85296  Biso   1.000  H
  H931     1.0000 0.86900  0.05998  0.85296  Biso   1.000  H
  O171     1.0000 0.12594  0.35603  0.11727  Biso   1.000  O
  O172     1.0000 0.12587  0.35598  0.11727  Biso   1.000  O
  H932     1.0000 0.18401  0.33900  0.27000  Biso   1.000  H
  H933     1.0000 0.22100  0.32102  0.14598  Biso   1.000  H
  H934     1.0000 0.74501  0.01399  0.50798  Biso   1.000  H
  C962     1.0000 0.63599  0.93855  0.46202  Biso   1.000  C
  C963     1.0000 0.63602  0.93861  0.46211  Biso   1.000  C
  H935     1.0000 0.67001  0.02103  0.39299  Biso   1.000  H
  H936     1.0000 0.66999  0.02098  0.39299  Biso   1.000  H
  H937     1.0000 0.47102  0.15301  0.86199  Biso   1.000  H
  H938     1.0000 0.51504  0.12604  0.75200  Biso   1.000  H
  C964     1.0000 0.46311  0.05182  0.82774  Biso   1.000  C
  H939     1.0000 0.51502  0.12599  0.75200  Biso   1.000  H
  C965     1.0000 0.46311  0.05179  0.82783  Biso   1.000  C
  C966     1.0000 0.83060  0.25921  0.16574  Biso   1.000  C
  H940     1.0000 0.74402  0.17299  0.03993  Biso   1.000  H
  C967     1.0000 0.83062  0.25922  0.16583  Biso   1.000  C
  H941     1.0000 0.74398  0.17300  0.04002  Biso   1.000  H
  C968     1.0000 0.79993  0.36101  0.17182  Biso   1.000  C
  C969     1.0000 0.79989  0.36102  0.17191  Biso   1.000  C
  H942     1.0000 0.47899  0.24795  0.58493  Biso   1.000  H
  H943     1.0000 0.47902  0.24801  0.58502  Biso   1.000  H
  H944     1.0000 0.88501  0.13899  0.00094  Biso   1.000  H
  C970     1.0000 0.94690  0.23179  0.12657  Biso   1.000  C
  H945     1.0000 0.88502  0.13900  0.00103  Biso   1.000  H
  C971     1.0000 0.06410  0.29599  0.09000  Biso   1.000  C
  C972     1.0000 0.87362  0.94116  0.74360  Biso   1.000  C
  C973     1.0000 0.87358  0.94120  0.74360  Biso   1.000  C
  H946     1.0000 0.88902  0.01901  0.65794  Biso   1.000  H
  H947     1.0000 0.97804  0.00903  0.73197  Biso   1.000  H
  H948     1.0000 0.88903  0.01903  0.65803  Biso   1.000  H
  H949     1.0000 0.97797  0.00898  0.73197  Biso   1.000  H
  C974     1.0000 0.57358  0.92135  0.51192  Biso   1.000  C
  C975     1.0000 0.65708  0.88844  0.39505  Biso   1.000  C
  C976     1.0000 0.57361  0.92141  0.51201  Biso   1.000  C
  C977     1.0000 0.65711  0.88851  0.39514  Biso   1.000  C
  C978     1.0000 0.39102  0.03682  0.85546  Biso   1.000  C
  C979     1.0000 0.49212  0.00028  0.78634  Biso   1.000  C
  C980     1.0000 0.39101  0.03677  0.85546  Biso   1.000  C
  C981     1.0000 0.49208  0.00030  0.78643  Biso   1.000  C
  C982     1.0000 0.85009  0.32820  0.20866  Biso   1.000  C
  C983     1.0000 0.89001  0.22699  0.20607  Biso   1.000  C
  C984     1.0000 0.01361  0.28963  0.15805  Biso   1.000  C
  C985     1.0000 0.01361  0.28959  0.15814  Biso   1.000  C
  C986     1.0000 0.79598  0.91155  0.66902  Biso   1.000  C
  C987     1.0000 0.90473  0.90949  0.82470  Biso   1.000  C
  C988     1.0000 0.79601  0.91161  0.66911  Biso   1.000  C
  C989     1.0000 0.90468  0.90949  0.82470  Biso   1.000  C
  C990     1.0000 0.53207  0.85395  0.49484  Biso   1.000  C
  H950     1.0000 0.55698  0.95995  0.56396  Biso   1.000  H
  C991     1.0000 0.53210  0.85401  0.49493  Biso   1.000  C
  H951     1.0000 0.55700  0.96000  0.56396  Biso   1.000  H
  C992     1.0000 0.61557  0.82105  0.37797  Biso   1.000  C
  H952     1.0000 0.70500  0.90195  0.35597  Biso   1.000  H
  C993     1.0000 0.61558  0.82109  0.37797  Biso   1.000  C
  H953     1.0000 0.70502  0.90200  0.35597  Biso   1.000  H
  C994     1.0000 0.34788  0.97027  0.84169  Biso   1.000  C
  C995     1.0000 0.34789  0.97032  0.84169  Biso   1.000  C
  H954     1.0000 0.36800  0.07701  0.88792  Biso   1.000  H
  H955     1.0000 0.36802  0.07702  0.88801  Biso   1.000  H
  H956     1.0000 0.54800  0.01201  0.76497  Biso   1.000  H
  C996     1.0000 0.44899  0.93374  0.77266  Biso   1.000  C
  C997     1.0000 0.44900  0.93379  0.77266  Biso   1.000  C
  O173     1.0000 0.92063  0.36571  0.30112  Biso   1.000  O
  O174     1.0000 0.92058  0.36568  0.30121  Biso   1.000  O
  H957     1.0000 0.92301  0.25400  0.29799  Biso   1.000  H
  C998     1.0000 0.85421  0.15498  0.21402  Biso   1.000  C
  C999     1.0000 0.85422  0.15500  0.21411  Biso   1.000  C
  O175     1.0000 0.03140  0.34101  0.26392  Biso   1.000  O
  O176     1.0000 0.03142  0.34102  0.26401  Biso   1.000  O
  C1000    1.0000 0.74947  0.85025  0.67573  Biso   1.000  C
  H958     1.0000 0.77202  0.93595  0.60598  Biso   1.000  H
  C1001    1.0000 0.74950  0.85031  0.67582  Biso   1.000  C
  H959     1.0000 0.77197  0.93600  0.60598  Biso   1.000  H
  C1002    1.0000 0.85815  0.84803  0.83132  Biso   1.000  C
  H960     1.0000 0.96501  0.93195  0.88193  Biso   1.000  H
  C1003    1.0000 0.85818  0.84810  0.83141  Biso   1.000  C
  H961     1.0000 0.96499  0.93202  0.88202  Biso   1.000  H
  C1004    1.0000 0.55321  0.80384  0.42786  Biso   1.000  C
  H962     1.0000 0.48400  0.84099  0.53400  Biso   1.000  H
  C1005    1.0000 0.55317  0.80389  0.42786  Biso   1.000  C
  H963     1.0000 0.63196  0.78196  0.32593  Biso   1.000  H
  H964     1.0000 0.63200  0.78202  0.32602  Biso   1.000  H
  C1006    1.0000 0.37690  0.91877  0.80029  Biso   1.000  C
  H965     1.0000 0.29200  0.95896  0.86297  Biso   1.000  H
  H966     1.0000 0.29202  0.95901  0.86297  Biso   1.000  H
  H967     1.0000 0.47097  0.89396  0.74092  Biso   1.000  H
  H968     1.0000 0.47100  0.89402  0.74100  Biso   1.000  H
  C1007    1.0000 0.98749  0.38510  0.26079  Biso   1.000  C
  H969     1.0000 0.82299  0.12301  0.12496  Biso   1.000  H
  H970     1.0000 0.81303  0.15499  0.26696  Biso   1.000  H
  C1008    1.0000 0.91752  0.12840  0.27072  Biso   1.000  C
  H971     1.0000 0.81297  0.15499  0.26696  Biso   1.000  H
  C1009    1.0000 0.91753  0.12842  0.27081  Biso   1.000  C
  C1010    1.0000 0.78058  0.81855  0.75692  Biso   1.000  C
  H972     1.0000 0.68903  0.82698  0.61797  Biso   1.000  H
  C1011    1.0000 0.78061  0.81861  0.75701  Biso   1.000  C
  H973     1.0000 0.68897  0.82698  0.61797  Biso   1.000  H
  H974     1.0000 0.88201  0.82397  0.89400  Biso   1.000  H
  H975     1.0000 0.88202  0.82401  0.89400  Biso   1.000  H
  H976     1.0000 0.52098  0.75195  0.41499  Biso   1.000  H
  H977     1.0000 0.52099  0.75199  0.41499  Biso   1.000  H
  H978     1.0000 0.34401  0.86697  0.78992  Biso   1.000  H
  H979     1.0000 0.34397  0.86698  0.79001  Biso   1.000  H
  H980     1.0000 0.96801  0.38701  0.16994  Biso   1.000  H
  H981     1.0000 0.96802  0.38702  0.17003  Biso   1.000  H
  H982     1.0000 0.02501  0.43398  0.31694  Biso   1.000  H
  H983     1.0000 0.02503  0.43400  0.31703  Biso   1.000  H
  H984     1.0000 0.94299  0.15701  0.36299  Biso   1.000  H
  H985     1.0000 0.96299  0.13601  0.22493  Biso   1.000  H
  C1012    1.0000 0.89129  0.05599  0.26848  Biso   1.000  C
  H986     1.0000 0.96301  0.13602  0.22502  Biso   1.000  H
  H987     1.0000 0.74496  0.77093  0.76193  Biso   1.000  H
  H988     1.0000 0.74499  0.77100  0.76202  Biso   1.000  H
  C1013    1.0000 0.89379  0.03691  0.37408  Biso   1.000  C
  C1014    1.0000 0.86601  0.00730  0.15903  Biso   1.000  C
  C1015    1.0000 0.86603  0.00731  0.15912  Biso   1.000  C
  C1016    1.0000 0.87112  0.96909  0.37033  Biso   1.000  C
  C1017    1.0000 0.87109  0.96910  0.37042  Biso   1.000  C
  H989     1.0000 0.91301  0.07499  0.45894  Biso   1.000  H
  H990     1.0000 0.91302  0.07500  0.45903  Biso   1.000  H
  C1018    1.0000 0.84331  0.93953  0.15528  Biso   1.000  C
  C1019    1.0000 0.84329  0.93948  0.15528  Biso   1.000  C
  H991     1.0000 0.86403  0.02203  0.07695  Biso   1.000  H
  H992     1.0000 0.86398  0.02199  0.07704  Biso   1.000  H
  C1020    1.0000 0.84579  0.92039  0.26088  Biso   1.000  C
  H993     1.0000 0.87299  0.95400  0.45197  Biso   1.000  H
  H994     1.0000 0.82401  0.90201  0.07096  Biso   1.000  H
  H995     1.0000 0.82800  0.86799  0.25793  Biso   1.000  H
  H996     1.0000 0.82801  0.86800  0.25802  Biso   1.000  H
