
#######################################################################
#
#                 Cambridge Crystallographic Data Centre
#                                CCDC 
#
#######################################################################
#
# If this CIF has been generated from an entry in the Cambridge 
# Structural Database, then it will include bibliographic, chemical, 
# crystal, experimental, refinement or atomic coordinate data resulting 
# from the CCDC's data processing and validation procedures.
#
#######################################################################

data_ABINUX
_chemical_formula_moiety         'C109 H97 N12'
_symmetry_cell_setting           rhombohedral
_symmetry_space_group_name_H-M   'R -3 c'
_symmetry_Int_Tables_number      167
_space_group_name_Hall           '-R 3 2"c'
loop_
_symmetry_equiv_pos_site_id
_symmetry_equiv_pos_as_xyz
1 x,y,z
2 -y,x-y,z
3 -x+y,-x,z
4 x-y,-y,1/2-z
5 -x,-x+y,1/2-z
6 y,x,1/2-z
7 2/3+x,1/3+y,1/3+z
8 2/3-y,1/3+x-y,1/3+z
9 2/3-x+y,1/3-x,1/3+z
10 2/3+x-y,1/3-y,5/6-z
11 2/3-x,1/3-x+y,5/6-z
12 2/3+y,1/3+x,5/6-z
13 1/3+x,2/3+y,2/3+z
14 1/3-y,2/3+x-y,2/3+z
15 1/3-x+y,2/3-x,2/3+z
16 1/3+x-y,2/3-y,1/6-z
17 1/3-x,2/3-x+y,1/6-z
18 1/3+y,2/3+x,1/6-z
19 -x,-y,-z
20 y,-x+y,-z
21 x-y,x,-z
22 -x+y,y,1/2+z
23 x,x-y,1/2+z
24 -y,-x,1/2+z
25 1/3-x,2/3-y,2/3-z
26 1/3+y,2/3-x+y,2/3-z
27 1/3+x-y,2/3+x,2/3-z
28 1/3-x+y,2/3+y,1/6+z
29 1/3+x,2/3+x-y,1/6+z
30 1/3-y,2/3-x,1/6+z
31 2/3-x,1/3-y,1/3-z
32 2/3+y,1/3-x+y,1/3-z
33 2/3+x-y,1/3+x,1/3-z
34 2/3-x+y,1/3+y,5/6+z
35 2/3+x,1/3+x-y,5/6+z
36 2/3-y,1/3-x,5/6+z
_cell_length_a                   22.26(4)
_cell_length_b                   22.26(4)
_cell_length_c                   42.35(8)
_cell_angle_alpha                90
_cell_angle_beta                 90
_cell_angle_gamma                120
_cell_volume                     18173.3
loop_
_atom_site_label
_atom_site_type_symbol
_atom_site_fract_x
_atom_site_fract_y
_atom_site_fract_z
N1 N 0.5235(4) 0.6116(4) 0.62668(14)
N2 N 0.5867(4) 0.7617(4) 0.61537(13)
C1 C 0.5040(5) 0.5996(5) 0.59740(17)
H1 H 0.5376 0.6157 0.5817
C2 C 0.4288(5) 0.5604(5) 0.58807(17)
C3 C 0.4138(6) 0.5560(5) 0.55557(17)
H2 H 0.4495 0.5765 0.5409
C4 C 0.3431(6) 0.5197(5) 0.54550(16)
C5 C 0.3309(5) 0.5193(5) 0.51122(17)
C6 C 0.3290(5) 0.5219(5) 0.48333(17)
C7 C 0.3314(4) 0.5248(3) 0.44940(16)
C8 C 0.3887(7) 0.5261(5) 0.4344(4)
H3 H 0.4241 0.5264 0.4463
C9 C 0.2752(6) 0.4690(6) 0.4337(4)
H4 H 0.2386 0.4333 0.4446
C10 C 0.5437(5) 0.7846(5) 0.62122(17)
H5 H 0.5339 0.7864 0.6424
C11 C 0.5087(5) 0.8080(5) 0.59878(15)
C12 C 0.4719(5) 0.8419(5) 0.60842(16)
H6 H 0.4686 0.8473 0.6300
C13 C 0.5111(5) 0.7979(5) 0.56575(17)
H7 H 0.5329 0.7746 0.5579
C14 C 0.6140(5) 0.7353(6) 0.63992(17)
H8 H 0.5890 0.7322 0.6594
C15 C 0.6942(6) 0.7867(5) 0.6468(2)
H9 H 0.7202 0.7942 0.6274
H10 H 0.7005 0.8312 0.6536
C16 C 0.7239(6) 0.7587(8) 0.6726(2)
H11 H 0.7043 0.7599 0.6928
H12 H 0.7737 0.7895 0.6739
C17 C 0.7090(6) 0.6830(7) 0.6664(2)
H13 H 0.7223 0.6664 0.6848
H14 H 0.7366 0.6831 0.6486
C18 C 0.6290(5) 0.6324(5) 0.6591(2)
H15 H 0.6221 0.5875 0.6528
H16 H 0.6024 0.6259 0.6782
C19 C 0.6017(5) 0.6599(6) 0.63303(18)
H17 H 0.6266 0.6624 0.6136
N1A N 0.3884(4) 0.9119(6) 0.62668(14)
N2A N 0.2383(4) 0.8250(6) 0.61537(13)
C1A C 0.4004(5) 0.9044(7) 0.59740(17)
H1A H 0.3843 0.9219 0.5817
C2A C 0.4396(5) 0.8684(7) 0.58807(17)
C3A C 0.4440(5) 0.8578(8) 0.55557(17)
H2A H 0.4235 0.8730 0.5409
C4A C 0.4803(5) 0.8234(8) 0.54550(16)
C5A C 0.4807(5) 0.8116(7) 0.51122(17)
C6A C 0.4781(5) 0.8071(7) 0.48333(17)
C7A C 0.4752(3) 0.8066(5) 0.44940(16)
C8A C 0.4739(5) 0.8626(9) 0.4344(4)
H3A H 0.4736 0.8977 0.4463
C9A C 0.5310(6) 0.8062(8) 0.4337(4)
H4A H 0.5667 0.8053 0.4446
C10A C 0.2154(5) 0.7591(7) 0.62122(17)
H5A H 0.2136 0.7475 0.6424
C11A C 0.1920(5) 0.7007(7) 0.59878(15)
C12A C 0.1581(5) 0.6300(7) 0.60842(16)
H6A H 0.1527 0.6213 0.6300
C13A C 0.2021(5) 0.7132(7) 0.56575(17)
H7A H 0.2254 0.7583 0.5579
C14A C 0.2647(6) 0.8787(8) 0.63992(17)
H8A H 0.2678 0.8568 0.6594
C15A C 0.2133(5) 0.9075(8) 0.6468(2)
H9A H 0.2058 0.9260 0.6274
H10A H 0.1688 0.8693 0.6536
C16A C 0.2413(8) 0.9652(10) 0.6726(2)
H11A H 0.2401 0.9444 0.6928
H12A H 0.2105 0.9842 0.6739
C17A C 0.3170(7) 1.0260(9) 0.6664(2)
H13A H 0.3336 1.0559 0.6848
H14A H 0.3169 1.0535 0.6486
C18A C 0.3676(5) 0.9966(7) 0.6591(2)
H15A H 0.4125 1.0346 0.6528
H16A H 0.3741 0.9765 0.6782
C19A C 0.3401(6) 0.9418(8) 0.63303(18)
H17A H 0.3376 0.9642 0.6136
N1B N 0.0881(6) 0.4765(4) 0.62668(14)
N2B N 0.1750(6) 0.4133(4) 0.61537(13)
C1B C 0.0956(7) 0.4960(5) 0.59740(17)
H1B H 0.0781 0.4624 0.5817
C2B C 0.1316(7) 0.5712(5) 0.58807(17)
C3B C 0.1422(8) 0.5862(6) 0.55557(17)
H2B H 0.1270 0.5505 0.5409
C4B C 0.1766(8) 0.6569(6) 0.54550(16)
C5B C 0.1884(7) 0.6691(5) 0.51122(17)
C6B C 0.1929(7) 0.6710(5) 0.48333(17)
C7B C 0.1934(5) 0.6686(4) 0.44940(16)
C8B C 0.1374(9) 0.6113(7) 0.4344(4)
H3B H 0.1023 0.5759 0.4463
C9B C 0.1938(8) 0.7248(6) 0.4337(4)
H4B H 0.1947 0.7614 0.4446
C10B C 0.2409(7) 0.4563(5) 0.62122(17)
H5B H 0.2525 0.4661 0.6424
C11B C 0.2993(7) 0.4913(5) 0.59878(15)
C12B C 0.3700(7) 0.5281(5) 0.60842(16)
H6B H 0.3787 0.5314 0.6300
C13B C 0.2868(7) 0.4889(5) 0.56575(17)
H7B H 0.2417 0.4671 0.5579
C14B C 0.1213(8) 0.3860(5) 0.63992(17)
H8B H 0.1432 0.4110 0.6594
C15B C 0.0925(8) 0.3058(6) 0.6468(2)
H9B H 0.0740 0.2798 0.6274
H10B H 0.1307 0.2995 0.6536
C16B C 0.0348(10) 0.2761(6) 0.6726(2)
H11B H 0.0556 0.2957 0.6928
H12B H 0.0158 0.2263 0.6739
C17B C -0.0260(9) 0.2910(6) 0.6664(2)
H13B H -0.0559 0.2777 0.6848
H14B H -0.0535 0.2634 0.6486
C18B C 0.0034(7) 0.3710(5) 0.6591(2)
H15B H -0.0346 0.3779 0.6528
H16B H 0.0235 0.3976 0.6782
C19B C 0.0582(8) 0.3983(5) 0.63303(18)
H17B H 0.0358 0.3734 0.6136
N1I N 0.5786(6) 0.7217(4) 0.20665(14)
N2I N 0.4917(6) 0.5716(4) 0.21796(13)
C1I C 0.5711(7) 0.7337(5) 0.23593(17)
H1I H 0.5886 0.7176 0.2516
C2I C 0.5351(7) 0.7729(5) 0.24526(17)
C3I C 0.5245(8) 0.7773(5) 0.27776(17)
H2I H 0.5397 0.7568 0.2924
C4I C 0.4901(8) 0.8136(5) 0.28783(16)
C5I C 0.4783(7) 0.8140(5) 0.32211(17)
C6I C 0.4738(7) 0.8114(5) 0.35000(17)
C7I C 0.4733(5) 0.8085(3) 0.38393(16)
C8I C 0.5293(9) 0.8072(5) 0.3989(4)
H3I H 0.5644 0.8069 0.3870
C9I C 0.4729(8) 0.8643(6) 0.3996(4)
H4I H 0.4720 0.9000 0.3887
C10I C 0.4258(7) 0.5487(5) 0.21211(17)
H5I H 0.4142 0.5469 0.1909
C11I C 0.3674(7) 0.5253(5) 0.23455(15)
C12I C 0.2967(7) 0.4914(5) 0.22491(16)
H6I H 0.2880 0.4860 0.2033
C13I C 0.3799(7) 0.5354(5) 0.26758(17)
H7I H 0.4250 0.5587 0.2754
C14I C 0.5454(8) 0.5980(6) 0.19341(17)
H8I H 0.5235 0.6011 0.1739
C15I C 0.5742(8) 0.5466(5) 0.1865(2)
H9I H 0.5927 0.5391 0.2059
H10I H 0.5360 0.5021 0.1797
C16I C 0.6319(10) 0.5746(8) 0.1607(2)
H11I H 0.6111 0.5734 0.1405
H12I H 0.6509 0.5438 0.1594
C17I C 0.6927(9) 0.6503(7) 0.1669(2)
H13I H 0.7226 0.6669 0.1485
H14I H 0.7202 0.6502 0.1847
C18I C 0.6633(7) 0.7009(5) 0.1742(2)
H15I H 0.7013 0.7458 0.1805
H16I H 0.6432 0.7074 0.1551
C19I C 0.6085(8) 0.6734(6) 0.20030(18)
H17I H 0.6309 0.6709 0.2197
N1J N 0.1432(4) 0.4214(6) 0.20665(14)
N2J N 0.0800(4) 0.5083(6) 0.21796(13)
C1J C 0.1627(5) 0.4289(7) 0.23593(17)
H1J H 0.1291 0.4114 0.2516
C2J C 0.2379(5) 0.4649(7) 0.24526(17)
C3J C 0.2529(6) 0.4755(8) 0.27776(17)
H2J H 0.2172 0.4603 0.2924
C4J C 0.3236(6) 0.5099(8) 0.28783(16)
C5J C 0.3358(5) 0.5217(7) 0.32211(17)
C6J C 0.3377(5) 0.5262(7) 0.35000(17)
C7J C 0.3353(4) 0.5267(5) 0.38393(16)
C8J C 0.2780(7) 0.4707(9) 0.3989(4)
H3J H 0.2426 0.4356 0.3870
C9J C 0.3915(6) 0.5271(8) 0.3996(4)
H4J H 0.4281 0.5280 0.3887
C10J C 0.1230(5) 0.5742(7) 0.21211(17)
H5J H 0.1328 0.5858 0.1909
C11J C 0.1580(5) 0.6326(7) 0.23455(15)
C12J C 0.1948(5) 0.7033(7) 0.22491(16)
H6J H 0.1981 0.7120 0.2033
C13J C 0.1556(5) 0.6201(7) 0.26758(17)
H7J H 0.1338 0.5750 0.2754
C14J C 0.0527(5) 0.4546(8) 0.19341(17)
H8J H 0.0777 0.4765 0.1739
C15J C -0.0275(6) 0.4258(8) 0.1865(2)
H9J H -0.0535 0.4073 0.2059
H10J H -0.0338 0.4640 0.1797
C16J C -0.0572(6) 0.3681(10) 0.1607(2)
H11J H -0.0376 0.3889 0.1405
H12J H -0.1070 0.3491 0.1594
C17J C -0.0423(6) 0.3073(9) 0.1669(2)
H13J H -0.0556 0.2774 0.1485
H14J H -0.0699 0.2798 0.1847
C18J C 0.0377(5) 0.3367(7) 0.1742(2)
H15J H 0.0446 0.2987 0.1805
H16J H 0.0643 0.3568 0.1551
C19J C 0.0650(5) 0.3915(8) 0.20030(18)
H17J H 0.0401 0.3691 0.2197
N1K N 0.2783(4) 0.8568(4) 0.20665(14)
N2K N 0.4284(4) 0.9200(4) 0.21796(13)
C1K C 0.2663(5) 0.8373(5) 0.23593(17)
H1K H 0.2824 0.8709 0.2516
C2K C 0.2271(5) 0.7621(5) 0.24526(17)
C3K C 0.2227(5) 0.7471(6) 0.27776(17)
H2K H 0.2432 0.7828 0.2924
C4K C 0.1864(5) 0.6764(6) 0.28783(16)
C5K C 0.1860(5) 0.6642(5) 0.32211(17)
C6K C 0.1886(5) 0.6623(5) 0.35000(17)
C7K C 0.1915(3) 0.6647(4) 0.38393(16)
C8K C 0.1928(5) 0.7220(7) 0.3989(4)
H3K H 0.1931 0.7574 0.3870
C9K C 0.1357(6) 0.6085(6) 0.3996(4)
H4K H 0.1000 0.5719 0.3887
C10K C 0.4513(5) 0.8770(5) 0.21211(17)
H5K H 0.4531 0.8672 0.1909
C11K C 0.4747(5) 0.8420(5) 0.23455(15)
C12K C 0.5086(5) 0.8052(5) 0.22491(16)
H6K H 0.5140 0.8019 0.2033
C13K C 0.4646(5) 0.8444(5) 0.26758(17)
H7K H 0.4413 0.8662 0.2754
C14K C 0.4020(6) 0.9473(5) 0.19341(17)
H8K H 0.3989 0.9223 0.1739
C15K C 0.4534(5) 1.0275(6) 0.1865(2)
H9K H 0.4609 1.0535 0.2059
H10K H 0.4979 1.0338 0.1797
C16K C 0.4254(8) 1.0572(6) 0.1607(2)
H11K H 0.4266 1.0376 0.1405
H12K H 0.4562 1.1070 0.1594
C17K C 0.3497(7) 1.0423(6) 0.1669(2)
H13K H 0.3331 1.0556 0.1485
H14K H 0.3498 1.0699 0.1847
C18K C 0.2991(5) 0.9623(5) 0.1742(2)
H15K H 0.2542 0.9554 0.1805
H16K H 0.2926 0.9357 0.1551
C19K C 0.3266(6) 0.9350(5) 0.20030(18)
H17K H 0.3291 0.9599 0.2197
loop_
_geom_bond_atom_site_label_1
_geom_bond_atom_site_label_2
_geom_bond_site_symmetry_1
_geom_bond_site_symmetry_2
N1 C1 1_555 1_555
N2 C10 1_555 1_555
C1 H1 1_555 1_555
C2 C1 1_555 1_555
C3 C2 1_555 1_555
H2 C3 1_555 1_555
C4 C3 1_555 1_555
C5 C4 1_555 1_555
C6 C5 1_555 1_555
C7 C6 1_555 1_555
C8 C7 1_555 1_555
H3 C8 1_555 1_555
C9 C7 1_555 1_555
H4 C9 1_555 1_555
C10 H5 1_555 1_555
C11 C10 1_555 1_555
C12 C11 1_555 1_555
H6 C12 1_555 1_555
C13 C11 1_555 1_555
H7 C13 1_555 1_555
C14 N2 1_555 1_555
H8 C14 1_555 1_555
C15 C14 1_555 1_555
H9 C15 1_555 1_555
H10 C15 1_555 1_555
C16 C15 1_555 1_555
H11 C16 1_555 1_555
H12 C16 1_555 1_555
C17 C16 1_555 1_555
H13 C17 1_555 1_555
H14 C17 1_555 1_555
C18 C17 1_555 1_555
H15 C18 1_555 1_555
H16 C18 1_555 1_555
C19 N1 1_555 1_555
H17 C19 1_555 1_555
N1A C1A 1_555 1_555
N2A C10A 1_555 1_555
C1A H1A 1_555 1_555
C2A C12 1_555 1_555
C3A C2A 1_555 1_555
H2A C3A 1_555 1_555
C4A C13 1_555 1_555
C5A C4A 1_555 1_555
C6A C5A 1_555 1_555
C7A C6A 1_555 1_555
C8A C7A 1_555 1_555
H3A C8A 1_555 1_555
C9A C7A 1_555 1_555
H4A C9A 1_555 1_555
C10A H5A 1_555 1_555
C11A C10A 1_555 1_555
C12A C11A 1_555 1_555
H6A C12A 1_555 1_555
C13A C11A 1_555 1_555
H7A C13A 1_555 1_555
C14A N2A 1_555 1_555
H8A C14A 1_555 1_555
C15A C14A 1_555 1_555
H9A C15A 1_555 1_555
H10A C15A 1_555 1_555
C16A C15A 1_555 1_555
H11A C16A 1_555 1_555
H12A C16A 1_555 1_555
C17A C16A 1_555 1_555
H13A C17A 1_555 1_555
H14A C17A 1_555 1_555
C18A C17A 1_555 1_555
H15A C18A 1_555 1_555
H16A C18A 1_555 1_555
C19A N1A 1_555 1_555
H17A C19A 1_555 1_555
N1B C1B 1_555 1_555
N2B C10B 1_555 1_555
C1B H1B 1_555 1_555
C2B C12A 1_555 1_555
C3B C2B 1_555 1_555
H2B C3B 1_555 1_555
C4B C13A 1_555 1_555
C5B C4B 1_555 1_555
C6B C5B 1_555 1_555
C7B C6B 1_555 1_555
C8B C7B 1_555 1_555
H3B C8B 1_555 1_555
C9B C7B 1_555 1_555
H4B C9B 1_555 1_555
C10B H5B 1_555 1_555
C11B C10B 1_555 1_555
C12B C2 1_555 1_555
H6B C12B 1_555 1_555
C13B C4 1_555 1_555
H7B C13B 1_555 1_555
C14B N2B 1_555 1_555
H8B C14B 1_555 1_555
C15B C14B 1_555 1_555
H9B C15B 1_555 1_555
H10B C15B 1_555 1_555
C16B C15B 1_555 1_555
H11B C16B 1_555 1_555
H12B C16B 1_555 1_555
C17B C16B 1_555 1_555
H13B C17B 1_555 1_555
H14B C17B 1_555 1_555
C18B C17B 1_555 1_555
H15B C18B 1_555 1_555
H16B C18B 1_555 1_555
C19B N1B 1_555 1_555
H17B C19B 1_555 1_555
N1I C1I 1_555 1_555
N2I C10I 1_555 1_555
C1I H1I 1_555 1_555
C2I C1I 1_555 1_555
C3I C2I 1_555 1_555
H2I C3I 1_555 1_555
C4I C3I 1_555 1_555
C5I C4I 1_555 1_555
C6I C5I 1_555 1_555
C7I C6I 1_555 1_555
C8I C9A 1_555 1_555
H3I C8I 1_555 1_555
C9I C8A 1_555 1_555
H4I C9I 1_555 1_555
C10I H5I 1_555 1_555
C11I C10I 1_555 1_555
C12I C11I 1_555 1_555
H6I C12I 1_555 1_555
C13I C11I 1_555 1_555
H7I C13I 1_555 1_555
C14I N2I 1_555 1_555
H8I C14I 1_555 1_555
C15I C14I 1_555 1_555
H9I C15I 1_555 1_555
H10I C15I 1_555 1_555
C16I C15I 1_555 1_555
H11I C16I 1_555 1_555
H12I C16I 1_555 1_555
C17I C16I 1_555 1_555
H13I C17I 1_555 1_555
H14I C17I 1_555 1_555
C18I C17I 1_555 1_555
H15I C18I 1_555 1_555
H16I C18I 1_555 1_555
C19I N1I 1_555 1_555
H17I C19I 1_555 1_555
N1J C1J 1_555 1_555
N2J C10J 1_555 1_555
C1J H1J 1_555 1_555
C2J C12I 1_555 1_555
C3J C2J 1_555 1_555
H2J C3J 1_555 1_555
C4J C13I 1_555 1_555
C5J C4J 1_555 1_555
C6J C5J 1_555 1_555
C7J C6J 1_555 1_555
C8J C9 1_555 1_555
H3J C8J 1_555 1_555
C9J C8 1_555 1_555
H4J C9J 1_555 1_555
C10J H5J 1_555 1_555
C11J C10J 1_555 1_555
C12J C11J 1_555 1_555
H6J C12J 1_555 1_555
C13J C11J 1_555 1_555
H7J C13J 1_555 1_555
C14J N2J 1_555 1_555
H8J C14J 1_555 1_555
C15J C14J 1_555 1_555
H9J C15J 1_555 1_555
H10J C15J 1_555 1_555
C16J C15J 1_555 1_555
H11J C16J 1_555 1_555
H12J C16J 1_555 1_555
C17J C16J 1_555 1_555
H13J C17J 1_555 1_555
H14J C17J 1_555 1_555
C18J C17J 1_555 1_555
H15J C18J 1_555 1_555
H16J C18J 1_555 1_555
C19J N1J 1_555 1_555
H17J C19J 1_555 1_555
N1K C1K 1_555 1_555
N2K C10K 1_555 1_555
C1K H1K 1_555 1_555
C2K C12J 1_555 1_555
C3K C2K 1_555 1_555
H2K C3K 1_555 1_555
C4K C13J 1_555 1_555
C5K C4K 1_555 1_555
C6K C5K 1_555 1_555
C7K C6K 1_555 1_555
C8K C9B 1_555 1_555
H3K C8K 1_555 1_555
C9K C8B 1_555 1_555
H4K C9K 1_555 1_555
C10K H5K 1_555 1_555
C11K C10K 1_555 1_555
C12K C2I 1_555 1_555
H6K C12K 1_555 1_555
C13K C4I 1_555 1_555
H7K C13K 1_555 1_555
C14K N2K 1_555 1_555
H8K C14K 1_555 1_555
C15K C14K 1_555 1_555
H9K C15K 1_555 1_555
H10K C15K 1_555 1_555
C16K C15K 1_555 1_555
H11K C16K 1_555 1_555
H12K C16K 1_555 1_555
C17K C16K 1_555 1_555
H13K C17K 1_555 1_555
H14K C17K 1_555 1_555
C18K C17K 1_555 1_555
H15K C18K 1_555 1_555
H16K C18K 1_555 1_555
C19K N1K 1_555 1_555
H17K C19K 1_555 1_555
C14 C19 1_555 1_555
C18 C19 1_555 1_555
C1A C2A 1_555 1_555
C3A C4A 1_555 1_555
C14A C19A 1_555 1_555
C18A C19A 1_555 1_555
C1B C2B 1_555 1_555
C3B C4B 1_555 1_555
C11B C12B 1_555 1_555
C11B C13B 1_555 1_555
C14B C19B 1_555 1_555
C18B C19B 1_555 1_555
C7I C8I 1_555 1_555
C7I C9I 1_555 1_555
C14I C19I 1_555 1_555
C18I C19I 1_555 1_555
C1J C2J 1_555 1_555
C3J C4J 1_555 1_555
C7J C8J 1_555 1_555
C7J C9J 1_555 1_555
C14J C19J 1_555 1_555
C18J C19J 1_555 1_555
C1K C2K 1_555 1_555
C3K C4K 1_555 1_555
C7K C8K 1_555 1_555
C7K C9K 1_555 1_555
C11K C12K 1_555 1_555
C11K C13K 1_555 1_555
C14K C19K 1_555 1_555
C18K C19K 1_555 1_555

#END
