
#######################################################################
#
#                 Cambridge Crystallographic Data Centre
#                                CCDC 
#
#######################################################################
#
# If this CIF has been generated from an entry in the Cambridge 
# Structural Database, then it will include bibliographic, chemical, 
# crystal, experimental, refinement or atomic coordinate data resulting 
# from the CCDC's data processing and validation procedures.
#
#######################################################################

data_TASQOW
_chemical_formula_moiety         'C66 H86 O12'
_symmetry_cell_setting           monoclinic
_symmetry_space_group_name_H-M   'P 2/n'
_symmetry_Int_Tables_number      13
_space_group_name_Hall           '-P 2yac'
loop_
_symmetry_equiv_pos_site_id
_symmetry_equiv_pos_as_xyz
1 x,y,z
2 1/2-x,y,1/2-z
3 -x,-y,-z
4 1/2+x,-y,1/2+z
_cell_length_a                   12.5845(8)
_cell_length_b                   22.7005(16)
_cell_length_c                   14.5054(10)
_cell_angle_alpha                90
_cell_angle_beta                 114.1459(17)
_cell_angle_gamma                90
_cell_volume                     3781.27
loop_
_atom_site_label
_atom_site_type_symbol
_atom_site_fract_x
_atom_site_fract_y
_atom_site_fract_z
O1 O 0.20018(12) 0.08821(7) 0.53969(10)
O2 O 0.23620(12) 0.31085(6) 0.61887(11)
O3 O 0.10517(12) 0.47266(7) 0.34438(11)
O4 O 0.47654(11) 0.03764(6) 0.33625(10)
O5 O 0.61872(12) 0.18668(6) 0.62906(11)
O6 O 0.56465(12) 0.40057(6) 0.52570(11)
C1 C 0.2500 0.50599(13) 0.2500
H1 H 0.1863 0.5315 0.2482
C2 C 0.29212(17) 0.46950(9) 0.34576(15)
C3 C 0.21972(17) 0.45448(9) 0.39242(16)
C4 C 0.26373(17) 0.42451(9) 0.48363(16)
H2 H 0.2140 0.4157 0.5155
C5 C 0.37954(17) 0.40718(8) 0.52902(15)
C6 C 0.45105(17) 0.41976(9) 0.47915(16)
C7 C 0.40755(18) 0.45115(9) 0.38986(16)
H3 H 0.4572 0.4603 0.3581
C8 C 0.42745(18) 0.37740(9) 0.63141(15)
H4 H 0.3815 0.3900 0.6685
H5 H 0.5077 0.3908 0.6695
C9 C 0.42682(17) 0.31068(9) 0.62726(14)
C10 C 0.33156(17) 0.27857(10) 0.62345(14)
C11 C 0.33537(18) 0.21753(9) 0.62677(14)
H6 H 0.2711 0.1965 0.6268
C12 C 0.43232(17) 0.18690(9) 0.63002(13)
C13 C 0.52539(17) 0.21870(9) 0.62871(14)
C14 C 0.52295(17) 0.27985(10) 0.62930(14)
H7 H 0.5881 0.3009 0.6311
C15 C 0.43409(18) 0.12010(9) 0.63520(14)
H8 H 0.5148 0.1069 0.6714
H9 H 0.3903 0.1073 0.6741
C16 C 0.38283(17) 0.09094(8) 0.53247(14)
C17 C 0.26658(17) 0.07417(9) 0.48736(14)
C18 C 0.22477(17) 0.04361(9) 0.39679(14)
H10 H 0.1466 0.0314 0.3686
C19 C 0.29510(16) 0.03047(8) 0.34634(13)
C20 C 0.41028(16) 0.05027(8) 0.38958(14)
C21 C 0.45284(17) 0.07907(8) 0.48170(14)
H11 H 0.5313 0.0909 0.5106
C22 C 0.2500 -0.00524(12) 0.2500
H12 H 0.1871 -0.0308 0.2498
C23 C -0.0905(2) 0.48258(15) 0.3187(2)
H13 H -0.1161 0.4648 0.2523
H14 H -0.0846 0.5249 0.3129
H15 H -0.1462 0.4738 0.3472
C24 C 0.0266(2) 0.45817(14) 0.3863(2)
H16 H 0.0523 0.4751 0.4541
H17 H 0.0220 0.4153 0.3915
C25 C 0.63947(18) 0.41254(11) 0.47583(18)
H18 H 0.6460 0.4551 0.4685
H19 H 0.6078 0.3947 0.4084
C26 C 0.75666(19) 0.38692(12) 0.5386(2)
H20 H 0.8099 0.3956 0.5074
H21 H 0.7498 0.3446 0.5433
H22 H 0.7862 0.4039 0.6058
C27 C 0.13418(18) 0.27975(11) 0.60974(18)
H23 H 0.1510 0.2547 0.6691
H24 H 0.1070 0.2546 0.5496
C28 C 0.0428(2) 0.32418(12) 0.6014(2)
H25 H 0.0208 0.3459 0.5387
H26 H 0.0734 0.3513 0.6579
H27 H -0.0249 0.3042 0.6022
C29 C 0.70670(19) 0.21604(11) 0.60968(18)
H28 H 0.7466 0.2447 0.6633
H29 H 0.6722 0.2372 0.5453
C30 C 0.7913(2) 0.17107(12) 0.6056(2)
H30 H 0.7534 0.1459 0.5473
H31 H 0.8185 0.1474 0.6667
H32 H 0.8570 0.1907 0.6003
C31 C 0.0817(2) 0.07563(13) 0.4978(2)
H33 H 0.0696 0.0331 0.4864
H34 H 0.0435 0.0957 0.4326
C32 C 0.0306(2) 0.09606(14) 0.5688(2)
H35 H -0.0512 0.0856 0.5420
H36 H 0.0386 0.1385 0.5764
H37 H 0.0713 0.0774 0.6340
C33 C 0.59387(18) 0.05883(10) 0.37771(16)
H38 H 0.6374 0.0415 0.4445
H39 H 0.5948 0.1018 0.3850
C34 C 0.6479(2) 0.04180(12) 0.30773(19)
H40 H 0.6071 0.0611 0.2431
H41 H 0.6430 -0.0006 0.2983
H42 H 0.7290 0.0538 0.3361
H1A H 0.3137 0.5315 0.2518
H12A H 0.3129 -0.0308 0.2502
O1A O 0.29982(12) 0.08821(7) -0.03969(10)
O2A O 0.26380(12) 0.31085(6) -0.11887(11)
O3A O 0.39483(12) 0.47266(7) 0.15562(11)
O4A O 0.02346(11) 0.03764(6) 0.16375(10)
O5A O -0.11872(12) 0.18668(6) -0.12906(11)
O6A O -0.06465(12) 0.40057(6) -0.02570(11)
C2A C 0.20788(17) 0.46950(9) 0.15424(15)
C3A C 0.28028(17) 0.45448(9) 0.10758(16)
C4A C 0.23627(17) 0.42451(9) 0.01637(16)
H2A H 0.2860 0.4157 -0.0155
C5A C 0.12046(17) 0.40718(8) -0.02902(15)
C6A C 0.04895(17) 0.41976(9) 0.02085(16)
C7A C 0.09245(18) 0.45115(9) 0.11014(16)
H3A H 0.0428 0.4603 0.1419
C8A C 0.07255(18) 0.37740(9) -0.13141(15)
H4A H 0.1185 0.3900 -0.1685
H5A H -0.0077 0.3908 -0.1695
C9A C 0.07318(17) 0.31068(9) -0.12726(14)
C10A C 0.16844(17) 0.27857(10) -0.12345(14)
C11A C 0.16463(18) 0.21753(9) -0.12677(14)
H6A H 0.2289 0.1965 -0.1268
C12A C 0.06768(17) 0.18690(9) -0.13002(13)
C13A C -0.02539(17) 0.21870(9) -0.12871(14)
C14A C -0.02295(17) 0.27985(10) -0.12930(14)
H7A H -0.0881 0.3009 -0.1311
C15A C 0.06591(18) 0.12010(9) -0.13520(14)
H8A H -0.0148 0.1069 -0.1714
H9A H 0.1097 0.1073 -0.1741
C16A C 0.11717(17) 0.09094(8) -0.03247(14)
C17A C 0.23342(17) 0.07417(9) 0.01264(14)
C18A C 0.27523(17) 0.04361(9) 0.10321(14)
H10A H 0.3534 0.0314 0.1314
C19A C 0.20490(16) 0.03047(8) 0.15366(13)
C20A C 0.08972(16) 0.05027(8) 0.11042(14)
C21A C 0.04716(17) 0.07907(8) 0.01830(14)
H11A H -0.0313 0.0909 -0.0106
C23A C 0.5905(2) 0.48258(15) 0.1813(2)
H13A H 0.6161 0.4648 0.2477
H14A H 0.5846 0.5249 0.1871
H15A H 0.6462 0.4738 0.1528
C24A C 0.4734(2) 0.45817(14) 0.1137(2)
H16A H 0.4477 0.4751 0.0459
H17A H 0.4780 0.4153 0.1085
C25A C -0.13947(18) 0.41254(11) 0.02417(18)
H18A H -0.1460 0.4551 0.0315
H19A H -0.1078 0.3947 0.0916
C26A C -0.25666(19) 0.38692(12) -0.0386(2)
H20A H -0.3099 0.3956 -0.0074
H21A H -0.2498 0.3446 -0.0433
H22A H -0.2862 0.4039 -0.1058
C27A C 0.36582(18) 0.27975(11) -0.10974(18)
H23A H 0.3490 0.2547 -0.1691
H24A H 0.3930 0.2546 -0.0496
C28A C 0.4572(2) 0.32418(12) -0.1014(2)
H25A H 0.4792 0.3459 -0.0387
H26A H 0.4266 0.3513 -0.1579
H27A H 0.5249 0.3042 -0.1022
C29A C -0.20670(19) 0.21604(11) -0.10968(18)
H28A H -0.2466 0.2447 -0.1633
H29A H -0.1722 0.2372 -0.0453
C30A C -0.2913(2) 0.17107(12) -0.1056(2)
H30A H -0.2534 0.1459 -0.0473
H31A H -0.3185 0.1474 -0.1667
H32A H -0.3570 0.1907 -0.1003
C31A C 0.4183(2) 0.07563(13) 0.0022(2)
H33A H 0.4304 0.0331 0.0136
H34A H 0.4565 0.0957 0.0674
C32A C 0.4694(2) 0.09606(14) -0.0688(2)
H35A H 0.5512 0.0856 -0.0420
H36A H 0.4614 0.1385 -0.0764
H37A H 0.4287 0.0774 -0.1340
C33A C -0.09387(18) 0.05883(10) 0.12229(16)
H38A H -0.1374 0.0415 0.0555
H39A H -0.0948 0.1018 0.1150
C34A C -0.1479(2) 0.04180(12) 0.19227(19)
H40A H -0.1071 0.0611 0.2569
H41A H -0.1430 -0.0006 0.2017
H42A H -0.2290 0.0538 0.1639
H43? H 0.1863 0.5315 0.2482
H44? H 0.1871 -0.0308 0.2498
loop_
_geom_bond_atom_site_label_1
_geom_bond_atom_site_label_2
_geom_bond_site_symmetry_1
_geom_bond_site_symmetry_2
O1 C17 1_555 1_555
O2 C10 1_555 1_555
O3 C3 1_555 1_555
O4 C20 1_555 1_555
O5 C13 1_555 1_555
O6 C6 1_555 1_555
C1 H1 1_555 1_555
C2 C1 1_555 1_555
C3 C2 1_555 1_555
C4 C3 1_555 1_555
H2 C4 1_555 1_555
C5 C4 1_555 1_555
C6 C5 1_555 1_555
C7 C2 1_555 1_555
H3 C7 1_555 1_555
C8 C5 1_555 1_555
H4 C8 1_555 1_555
H5 C8 1_555 1_555
C9 C8 1_555 1_555
C10 C9 1_555 1_555
C11 C10 1_555 1_555
H6 C11 1_555 1_555
C12 C11 1_555 1_555
C13 C12 1_555 1_555
C14 C9 1_555 1_555
H7 C14 1_555 1_555
C15 C12 1_555 1_555
H8 C15 1_555 1_555
H9 C15 1_555 1_555
C16 C15 1_555 1_555
C17 C16 1_555 1_555
C18 C17 1_555 1_555
H10 C18 1_555 1_555
C19 C18 1_555 1_555
C20 C19 1_555 1_555
C21 C16 1_555 1_555
H11 C21 1_555 1_555
C22 C19 1_555 1_555
H12 C22 1_555 1_555
C23 H13 1_555 1_555
H14 C23 1_555 1_555
H15 C23 1_555 1_555
C24 O3 1_555 1_555
H16 C24 1_555 1_555
H17 C24 1_555 1_555
C25 O6 1_555 1_555
H18 C25 1_555 1_555
H19 C25 1_555 1_555
C26 C25 1_555 1_555
H20 C26 1_555 1_555
H21 C26 1_555 1_555
H22 C26 1_555 1_555
C27 O2 1_555 1_555
H23 C27 1_555 1_555
H24 C27 1_555 1_555
C28 C27 1_555 1_555
H25 C28 1_555 1_555
H26 C28 1_555 1_555
H27 C28 1_555 1_555
C29 O5 1_555 1_555
H28 C29 1_555 1_555
H29 C29 1_555 1_555
C30 C29 1_555 1_555
H30 C30 1_555 1_555
H31 C30 1_555 1_555
H32 C30 1_555 1_555
C31 O1 1_555 1_555
H33 C31 1_555 1_555
H34 C31 1_555 1_555
C32 C31 1_555 1_555
H35 C32 1_555 1_555
H36 C32 1_555 1_555
H37 C32 1_555 1_555
C33 O4 1_555 1_555
H38 C33 1_555 1_555
H39 C33 1_555 1_555
C34 C33 1_555 1_555
H40 C34 1_555 1_555
H41 C34 1_555 1_555
H42 C34 1_555 1_555
H1A C1 1_555 1_555
H12A C22 1_555 1_555
O1A C17A 1_555 1_555
O2A C10A 1_555 1_555
O3A C3A 1_555 1_555
O4A C20A 1_555 1_555
O5A C13A 1_555 1_555
O6A C6A 1_555 1_555
C2A C1 1_555 1_555
C3A C2A 1_555 1_555
C4A C3A 1_555 1_555
H2A C4A 1_555 1_555
C5A C4A 1_555 1_555
C6A C5A 1_555 1_555
C7A C2A 1_555 1_555
H3A C7A 1_555 1_555
C8A C5A 1_555 1_555
H4A C8A 1_555 1_555
H5A C8A 1_555 1_555
C9A C8A 1_555 1_555
C10A C9A 1_555 1_555
C11A C10A 1_555 1_555
H6A C11A 1_555 1_555
C12A C11A 1_555 1_555
C13A C12A 1_555 1_555
C14A C9A 1_555 1_555
H7A C14A 1_555 1_555
C15A C12A 1_555 1_555
H8A C15A 1_555 1_555
H9A C15A 1_555 1_555
C16A C15A 1_555 1_555
C17A C16A 1_555 1_555
C18A C17A 1_555 1_555
H10A C18A 1_555 1_555
C19A C22 1_555 1_555
C20A C19A 1_555 1_555
C21A C16A 1_555 1_555
H11A C21A 1_555 1_555
C23A H13A 1_555 1_555
H14A C23A 1_555 1_555
H15A C23A 1_555 1_555
C24A O3A 1_555 1_555
H16A C24A 1_555 1_555
H17A C24A 1_555 1_555
C25A O6A 1_555 1_555
H18A C25A 1_555 1_555
H19A C25A 1_555 1_555
C26A C25A 1_555 1_555
H20A C26A 1_555 1_555
H21A C26A 1_555 1_555
H22A C26A 1_555 1_555
C27A O2A 1_555 1_555
H23A C27A 1_555 1_555
H24A C27A 1_555 1_555
C28A C27A 1_555 1_555
H25A C28A 1_555 1_555
H26A C28A 1_555 1_555
H27A C28A 1_555 1_555
C29A O5A 1_555 1_555
H28A C29A 1_555 1_555
H29A C29A 1_555 1_555
C30A C29A 1_555 1_555
H30A C30A 1_555 1_555
H31A C30A 1_555 1_555
H32A C30A 1_555 1_555
C31A O1A 1_555 1_555
H33A C31A 1_555 1_555
H34A C31A 1_555 1_555
C32A C31A 1_555 1_555
H35A C32A 1_555 1_555
H36A C32A 1_555 1_555
H37A C32A 1_555 1_555
C33A O4A 1_555 1_555
H38A C33A 1_555 1_555
H39A C33A 1_555 1_555
C34A C33A 1_555 1_555
H40A C34A 1_555 1_555
H41A C34A 1_555 1_555
H42A C34A 1_555 1_555
C6 C7 1_555 1_555
C13 C14 1_555 1_555
C20 C21 1_555 1_555
C23 C24 1_555 1_555
C6A C7A 1_555 1_555
C13A C14A 1_555 1_555
C18A C19A 1_555 1_555
C20A C21A 1_555 1_555
C23A C24A 1_555 1_555

#END
