
#######################################################################
#
#                 Cambridge Crystallographic Data Centre
#                                CCDC 
#
#######################################################################
#
# If this CIF has been generated from an entry in the Cambridge 
# Structural Database, then it will include bibliographic, chemical, 
# crystal, experimental, refinement or atomic coordinate data resulting 
# from the CCDC's data processing and validation procedures.
#
#######################################################################

data_YEZLUN
_chemical_formula_moiety         'C55 H70 O10'
_symmetry_cell_setting           triclinic
_symmetry_space_group_name_H-M   'P -1'
_symmetry_Int_Tables_number      2
_space_group_name_Hall           '-P 1'
loop_
_symmetry_equiv_pos_site_id
_symmetry_equiv_pos_as_xyz
1 x,y,z
2 -x,-y,-z
_cell_length_a                   12.6553(9)
_cell_length_b                   14.9068(10)
_cell_length_c                   15.8129(12)
_cell_angle_alpha                102.503(2)
_cell_angle_beta                 108.766(2)
_cell_angle_gamma                108.108(2)
_cell_volume                     2513.15
loop_
_atom_site_label
_atom_site_type_symbol
_atom_site_fract_x
_atom_site_fract_y
_atom_site_fract_z
O1 O -0.05240(12) 0.37489(9) 0.62262(9)
O2 O -0.14831(11) 0.00523(9) 0.52476(8)
O3 O -0.04192(12) 0.25662(11) 0.88258(9)
O4 O 0.23735(12) 0.07047(10) 0.99093(9)
O5 O 0.38864(12) 0.39908(11) 0.88290(10)
O6 O 0.53090(15) 0.18344(11) 0.82902(11)
O7 O 0.72209(13) 0.55869(10) 0.80440(9)
O8 O 0.45610(12) 0.22380(9) 0.48087(10)
O9 O 0.33309(12) 0.54682(10) 0.56707(10)
O10 O -0.00577(12) 0.17228(10) 0.30860(9)
C1 C 0.06040(14) 0.32506(13) 0.43584(11)
C2 C 0.04868(15) 0.37626(13) 0.51503(12)
H1 H 0.0996 0.4452 0.5483
C3 C -0.03679(15) 0.32745(12) 0.54568(11)
C4 C -0.11480(14) 0.22496(12) 0.49748(11)
C5 C -0.10359(15) 0.17516(12) 0.41778(11)
H2 H -0.1548 0.1064 0.3839
C6 C -0.01859(15) 0.22430(13) 0.38667(11)
C7 C -0.20774(14) 0.17082(13) 0.53088(12)
H3 H -0.2517 0.2122 0.5436
H4 H -0.2677 0.1070 0.4796
C8 C -0.15043(14) 0.14924(12) 0.61998(11)
C9 C -0.12972(14) 0.21012(12) 0.70902(12)
H5 H -0.1569 0.2622 0.7132
C10 C -0.06912(15) 0.19519(13) 0.79243(12)
C11 C -0.02589(14) 0.12043(13) 0.78793(11)
C12 C -0.05144(14) 0.05616(12) 0.69855(12)
H6 H -0.0256 0.0033 0.6945
C13 C -0.11465(14) 0.06910(12) 0.61526(11)
C14 C 0.05475(15) 0.11204(14) 0.87725(12)
H7 H 0.0401 0.0411 0.8664
H8 H 0.0329 0.1355 0.9294
C15 C 0.19048(15) 0.17397(13) 0.90648(11)
C16 C 0.22831(16) 0.25681(14) 0.87981(12)
H9 H 0.1691 0.2750 0.8433
C17 C 0.35108(16) 0.31362(14) 0.90547(12)
C18 C 0.44106(15) 0.28767(14) 0.95687(12)
C19 C 0.40346(16) 0.20537(14) 0.98589(12)
H10 H 0.4626 0.1868 1.0219
C20 C 0.28014(16) 0.15049(13) 0.96242(11)
C21 C 0.57517(16) 0.34607(17) 0.98050(13)
H11 H 0.6043 0.4130 1.0278
H12 H 0.6222 0.3113 1.0101
C22 C 0.60175(15) 0.35917(15) 0.89598(12)
C23 C 0.65469(16) 0.45401(15) 0.89273(12)
H13 H 0.6798 0.5112 0.9459
C24 C 0.67169(15) 0.46688(14) 0.81251(12)
C25 C 0.63250(14) 0.38263(13) 0.73187(12)
C26 C 0.58464(16) 0.28779(14) 0.73682(13)
H14 H 0.5610 0.2305 0.6842
C27 C 0.57079(16) 0.27544(14) 0.81821(13)
C28 C 0.63285(15) 0.39466(14) 0.63891(12)
H15 H 0.6981 0.4595 0.6527
H16 H 0.6492 0.3409 0.6050
C29 C 0.51062(14) 0.39000(12) 0.57666(11)
C30 C 0.42322(15) 0.30399(12) 0.49879(12)
C31 C 0.31185(15) 0.30223(13) 0.44352(12)
H17 H 0.2553 0.2447 0.3896
C32 C 0.28226(15) 0.38384(13) 0.46641(11)
C33 C 0.36838(15) 0.46904(12) 0.54578(12)
C34 C 0.48138(15) 0.47221(13) 0.59833(11)
H18 H 0.5398 0.5313 0.6499
C35 C 0.15851(15) 0.37936(14) 0.40706(12)
H19 H 0.1352 0.3443 0.3395
H20 H 0.1645 0.4481 0.4150
C36 C 0.02960(19) 0.47708(14) 0.67769(14)
H21 H 0.0154 0.5204 0.6407
H22 H 0.1145 0.4848 0.6960
C37 C 0.0063(3) 0.50588(17) 0.76508(17)
H23 H -0.0794 0.4931 0.7460
H24 H 0.0565 0.5769 0.8019
H25 H 0.0270 0.4662 0.8037
C38 C -0.1117(2) 0.12342(17) 0.22150(14)
H26 H -0.1735 0.0705 0.2288
H27 H -0.0909 0.0907 0.1722
C39 C -0.1649(3) 0.1909(3) 0.18905(19)
H28 H -0.2340 0.1532 0.1273
H29 H -0.1036 0.2449 0.1836
H30 H -0.1923 0.2193 0.2347
C40 C -0.1154(2) 0.30852(19) 0.89216(15)
H31 H -0.2020 0.2617 0.8591
H32 H -0.1021 0.3608 0.8636
C41 C -0.0824(3) 0.3552(2) 0.99535(16)
H33 H -0.1318 0.3920 1.0029
H34 H 0.0036 0.4011 1.0276
H35 H -0.0974 0.3029 1.0228
C42 C -0.11646(17) -0.07957(13) 0.51723(13)
H36 H -0.1410 -0.1152 0.5577
H37 H -0.0277 -0.0567 0.5386
C43 C -0.1813(2) -0.14895(16) 0.41489(15)
H38 H -0.1592 -0.1124 0.3750
H39 H -0.2691 -0.1742 0.3954
H40 H -0.1574 -0.2050 0.4082
C44 C 0.3657(2) 0.4880(2) 0.77617(19)
H41 H 0.3076 0.4955 0.7237
H42 H 0.4096 0.5512 0.8298
H43 H 0.4234 0.4698 0.7562
C45 C 0.4272(2) 0.00770(19) 0.7792(2)
H44 H 0.3879 -0.0532 0.7234
H45 H 0.3705 0.0109 0.8078
H46 H 0.4992 0.0070 0.8251
C46 C 0.75237(19) 0.64833(14) 0.87893(14)
H47 H 0.8148 0.6546 0.9386
H48 H 0.6797 0.6472 0.8892
C47 C 0.8002(3) 0.73471(17) 0.84764(17)
H49 H 0.7383 0.7265 0.7877
H50 H 0.8733 0.7359 0.8393
H51 H 0.8201 0.7975 0.8957
C48 C 0.41972(19) 0.63842(14) 0.64257(15)
H52 H 0.4895 0.6692 0.6284
H53 H 0.4500 0.6260 0.7023
C49 C 0.3198(2) 0.0515(2) 1.06066(19)
H54 H 0.3732 0.1133 1.1164
H55 H 0.3710 0.0274 1.0353
C50 C 0.2447(3) -0.0279(3) 1.0882(3)
H56 H 0.1831 -0.0843 1.0310
H57 H 0.2050 0.0006 1.1226
H58 H 0.2978 -0.0511 1.1284
C51 C 0.2993(4) 0.4080(4) 0.8048(4)
H59 H 0.2405 0.4256 0.8249
H60 H 0.2544 0.3439 0.7510
C52 C 0.4637(3) 0.09654(18) 0.7509(2)
H61 H 0.5122 0.0889 0.7147
H62 H 0.3902 0.1008 0.7095
C53 C 0.37281(18) 0.13580(14) 0.40070(17)
H63 H 0.3633 0.1502 0.3417
H64 H 0.2924 0.1119 0.4025
C54 C 0.4228(2) 0.05762(17) 0.4038(2)
H65 H 0.3666 -0.0040 0.3499
H66 H 0.4327 0.0445 0.4627
H67 H 0.5016 0.0815 0.4007
C55 C 0.3550(3) 0.70664(19) 0.6513(2)
H68 H 0.3218 0.7155 0.5907
H69 H 0.4124 0.7716 0.7001
H70 H 0.2888 0.6769 0.6685
C56? C 0.3420(10) 0.3886(5) 0.7868(4)
H71? H 0.2536 0.3472 0.7567
H72? H 0.3802 0.3542 0.7543
H73? H 0.3326 0.4791 0.7089
H74? H 0.3268 0.5216 0.8075
H75? H 0.4533 0.5287 0.8051
loop_
_geom_bond_atom_site_label_1
_geom_bond_atom_site_label_2
_geom_bond_site_symmetry_1
_geom_bond_site_symmetry_2
O1 C3 1_555 1_555
O2 C13 1_555 1_555
O3 C10 1_555 1_555
O4 C20 1_555 1_555
O5 C17 1_555 1_555
O6 C27 1_555 1_555
O7 C24 1_555 1_555
O8 C30 1_555 1_555
O9 C33 1_555 1_555
O10 C6 1_555 1_555
C1 C2 1_555 1_555
C2 H1 1_555 1_555
C3 C2 1_555 1_555
C4 C3 1_555 1_555
C5 C4 1_555 1_555
H2 C5 1_555 1_555
C6 C1 1_555 1_555
C7 C4 1_555 1_555
H3 C7 1_555 1_555
H4 C7 1_555 1_555
C8 C7 1_555 1_555
C9 C8 1_555 1_555
H5 C9 1_555 1_555
C10 C9 1_555 1_555
C11 C10 1_555 1_555
C12 C11 1_555 1_555
H6 C12 1_555 1_555
C13 C8 1_555 1_555
C14 C11 1_555 1_555
H7 C14 1_555 1_555
H8 C14 1_555 1_555
C15 C14 1_555 1_555
C16 C15 1_555 1_555
H9 C16 1_555 1_555
C17 C16 1_555 1_555
C18 C17 1_555 1_555
C19 C18 1_555 1_555
H10 C19 1_555 1_555
C20 C15 1_555 1_555
C21 C18 1_555 1_555
H11 C21 1_555 1_555
H12 C21 1_555 1_555
C22 C21 1_555 1_555
C23 C22 1_555 1_555
H13 C23 1_555 1_555
C24 C23 1_555 1_555
C25 C24 1_555 1_555
C26 C25 1_555 1_555
H14 C26 1_555 1_555
C27 C22 1_555 1_555
C28 C25 1_555 1_555
H15 C28 1_555 1_555
H16 C28 1_555 1_555
C29 C28 1_555 1_555
C30 C29 1_555 1_555
C31 C30 1_555 1_555
H17 C31 1_555 1_555
C32 C31 1_555 1_555
C33 C32 1_555 1_555
C34 C29 1_555 1_555
H18 C34 1_555 1_555
C35 C1 1_555 1_555
H19 C35 1_555 1_555
H20 C35 1_555 1_555
C36 O1 1_555 1_555
H21 C36 1_555 1_555
H22 C36 1_555 1_555
C37 C36 1_555 1_555
H23 C37 1_555 1_555
H24 C37 1_555 1_555
H25 C37 1_555 1_555
C38 O10 1_555 1_555
H26 C38 1_555 1_555
H27 C38 1_555 1_555
C39 C38 1_555 1_555
H28 C39 1_555 1_555
H29 C39 1_555 1_555
H30 C39 1_555 1_555
C40 O3 1_555 1_555
H31 C40 1_555 1_555
H32 C40 1_555 1_555
C41 C40 1_555 1_555
H33 C41 1_555 1_555
H34 C41 1_555 1_555
H35 C41 1_555 1_555
C42 O2 1_555 1_555
H36 C42 1_555 1_555
H37 C42 1_555 1_555
C43 C42 1_555 1_555
H38 C43 1_555 1_555
H39 C43 1_555 1_555
H40 C43 1_555 1_555
C44 H41 1_555 1_555
H42 C44 1_555 1_555
H43 C44 1_555 1_555
C45 H44 1_555 1_555
H45 C45 1_555 1_555
H46 C45 1_555 1_555
C46 O7 1_555 1_555
H47 C46 1_555 1_555
H48 C46 1_555 1_555
C47 C46 1_555 1_555
H49 C47 1_555 1_555
H50 C47 1_555 1_555
H51 C47 1_555 1_555
C48 O9 1_555 1_555
H52 C48 1_555 1_555
H53 C48 1_555 1_555
C49 O4 1_555 1_555
H54 C49 1_555 1_555
H55 C49 1_555 1_555
C50 C49 1_555 1_555
H56 C50 1_555 1_555
H57 C50 1_555 1_555
H58 C50 1_555 1_555
C51 O5 1_555 1_555
H59 C51 1_555 1_555
H60 C51 1_555 1_555
C52 O6 1_555 1_555
H61 C52 1_555 1_555
H62 C52 1_555 1_555
C53 O8 1_555 1_555
H63 C53 1_555 1_555
H64 C53 1_555 1_555
C54 C53 1_555 1_555
H65 C54 1_555 1_555
H66 C54 1_555 1_555
H67 C54 1_555 1_555
C55 C48 1_555 1_555
H68 C55 1_555 1_555
H69 C55 1_555 1_555
H70 C55 1_555 1_555
C5 C6 1_555 1_555
C12 C13 1_555 1_555
C19 C20 1_555 1_555
C26 C27 1_555 1_555
C32 C35 1_555 1_555
C33 C34 1_555 1_555
C44 C51 1_555 1_555
C45 C52 1_555 1_555

#END
