data_image0
_cell_length_a       19.49
_cell_length_b       19.49
_cell_length_c       26.295
_cell_angle_alpha    90
_cell_angle_beta     90
_cell_angle_gamma    120

_symmetry_space_group_name_H-M    "P 1"
_symmetry_int_tables_number       1

loop_
  _symmetry_equiv_pos_as_xyz
  'x, y, z'

loop_
  _atom_site_label
  _atom_site_occupancy
  _atom_site_fract_x
  _atom_site_fract_y
  _atom_site_fract_z
  _atom_site_thermal_displace_type
  _atom_site_B_iso_or_equiv
  _atom_site_type_symbol
  C1       1.0000 0.50349  0.49091  0.36326  Biso   1.000  C
  C2       1.0000 0.56071  0.53742  0.31930  Biso   1.000  C
  C3       1.0000 0.54673  0.47592  0.40627  Biso   1.000  C
  H1       1.0000 0.47912  0.52130  0.37646  Biso   1.000  H
  H2       1.0000 0.46049  0.43960  0.35026  Biso   1.000  H
  N1       1.0000 0.51543  0.55051  0.27967  Biso   1.000  N
  C4       1.0000 0.62772  0.61521  0.33805  Biso   1.000  C
  H3       1.0000 0.58291  0.50507  0.30485  Biso   1.000  H
  C5       1.0000 0.61569  0.55709  0.42548  Biso   1.000  C
  H4       1.0000 0.56830  0.44251  0.39388  Biso   1.000  H
  H5       1.0000 0.50957  0.44778  0.43446  Biso   1.000  H
  C6       1.0000 0.52717  0.53849  0.23415  Biso   1.000  C
  H6       1.0000 0.60639  0.64993  0.34965  Biso   1.000  H
  C7       1.0000 0.67058  0.60140  0.38228  Biso   1.000  C
  N2       1.0000 0.68350  0.65372  0.29625  Biso   1.000  N
  H7       1.0000 0.59358  0.58890  0.43986  Biso   1.000  H
  H8       1.0000 0.64543  0.54802  0.45256  Biso   1.000  H
  H9       1.0000 0.56500  0.52231  0.22776  Biso   1.000  H
  C8       1.0000 0.48591  0.54832  0.19076  Biso   1.000  C
  H10      1.0000 0.69552  0.57113  0.36988  Biso   1.000  H
  H11      1.0000 0.71320  0.65318  0.39487  Biso   1.000  H
  C9       1.0000 0.70682  0.72641  0.28678  Biso   1.000  C
  C10      1.0000 0.43598  0.57919  0.19528  Biso   1.000  C
  C11      1.0000 0.49831  0.52592  0.14246  Biso   1.000  C
  C12      1.0000 0.75998  0.76901  0.24457  Biso   1.000  C
  H12      1.0000 0.68890  0.75378  0.30785  Biso   1.000  H
  H13      1.0000 0.42846  0.59607  0.22765  Biso   1.000  H
  C13      1.0000 0.39669  0.58588  0.15326  Biso   1.000  C
  C14      1.0000 0.46118  0.53499  0.09956  Biso   1.000  C
  H14      1.0000 0.53218  0.50418  0.13896  Biso   1.000  H
  C15      1.0000 0.78178  0.72949  0.20905  Biso   1.000  C
  C16      1.0000 0.78679  0.84828  0.23837  Biso   1.000  C
  C17      1.0000 0.34479  0.61959  0.15988  Biso   1.000  C
  C18      1.0000 0.41003  0.56331  0.10515  Biso   1.000  C
  C19      1.0000 0.47890  0.51419  0.04818  Biso   1.000  C
  C20      1.0000 0.82959  0.76877  0.16756  Biso   1.000  C
  H15      1.0000 0.76351  0.67469  0.21346  Biso   1.000  H
  H16      1.0000 0.77249  0.87530  0.26248  Biso   1.000  H
  C21      1.0000 0.83570  0.89070  0.19635  Biso   1.000  C
  H17      1.0000 0.34592  0.64341  0.19167  Biso   1.000  H
  N3       1.0000 0.29800  0.61859  0.12561  Biso   1.000  N
  H18      1.0000 0.38329  0.56781  0.07625  Biso   1.000  H
  C22      1.0000 0.49190  0.56491  0.00757  Biso   1.000  C
  C23      1.0000 0.54817  0.51378  0.04073  Biso   1.000  C
  C24      1.0000 0.42601  0.49482  0.00863  Biso   1.000  C
  C25      1.0000 0.47858  0.44428  0.03837  Biso   1.000  C
  C26      1.0000 0.84611  0.72659  0.12725  Biso   1.000  C
  C27      1.0000 0.85838  0.85160  0.16235  Biso   1.000  C
  C28      1.0000 0.85700  0.97311  0.18528  Biso   1.000  C
  C29      1.0000 0.25589  0.66118  0.13615  Biso   1.000  C
  H19      1.0000 0.48642  0.61029  0.01187  Biso   1.000  H
  C30      1.0000 0.51381  0.54820  0.95927  Biso   1.000  C
  H20      1.0000 0.58519  0.52800  0.06773  Biso   1.000  H
  C31      1.0000 0.56489  0.49192  0.99243  Biso   1.000  C
  H21      1.0000 0.37678  0.49281  0.01403  Biso   1.000  H
  C32      1.0000 0.44427  0.47859  0.96163  Biso   1.000  C
  H22      1.0000 0.46661  0.40761  0.06537  Biso   1.000  H
  C33      1.0000 0.49477  0.42598  0.99137  Biso   1.000  C
  C34      1.0000 0.78249  0.65508  0.10858  Biso   1.000  C
  C35      1.0000 0.91961  0.75722  0.10356  Biso   1.000  C
  H23      1.0000 0.89362  0.88021  0.13535  Biso   1.000  H
  H24      1.0000 0.89801  0.00279  0.16136  Biso   1.000  H
  N4       1.0000 0.82180  0.00552  0.20692  Biso   1.000  N
  H25      1.0000 0.27143  0.68642  0.17045  Biso   1.000  H
  C36      1.0000 0.16613  0.60502  0.13447  Biso   1.000  C
  C37      1.0000 0.27948  0.72541  0.09557  Biso   1.000  C
  C38      1.0000 0.51420  0.47888  0.95182  Biso   1.000  C
  H26      1.0000 0.52799  0.58517  0.93227  Biso   1.000  H
  H27      1.0000 0.61032  0.48641  0.98813  Biso   1.000  H
  H28      1.0000 0.40760  0.46662  0.93463  Biso   1.000  H
  H29      1.0000 0.49281  0.37680  0.98597  Biso   1.000  H
  C39      1.0000 0.79270  0.61710  0.06728  Biso   1.000  C
  H30      1.0000 0.73210  0.63280  0.12447  Biso   1.000  H
  H31      1.0000 0.96331  0.80491  0.11588  Biso   1.000  H
  C40      1.0000 0.92979  0.71889  0.06218  Biso   1.000  C
  C41      1.0000 0.84427  0.08639  0.19095  Biso   1.000  C
  H32      1.0000 0.15061  0.56402  0.16117  Biso   1.000  H
  H33      1.0000 0.15099  0.57812  0.10108  Biso   1.000  H
  C42      1.0000 0.12272  0.65129  0.14307  Biso   1.000  C
  C43      1.0000 0.23752  0.77221  0.10428  Biso   1.000  C
  H34      1.0000 0.26463  0.69981  0.06138  Biso   1.000  H
  N5       1.0000 0.36519  0.77861  0.09736  Biso   1.000  N
  C44      1.0000 0.53503  0.46123  0.90044  Biso   1.000  C
  C45      1.0000 0.86519  0.64839  0.04297  Biso   1.000  C
  H35      1.0000 0.74931  0.56882  0.05545  Biso   1.000  H
  H36      1.0000 0.98031  0.74010  0.04666  Biso   1.000  H
  C46      1.0000 0.76999  0.08663  0.17292  Biso   1.000  C
  C47      1.0000 0.88110  0.14208  0.23613  Biso   1.000  C
  H37      1.0000 0.88361  0.10339  0.16254  Biso   1.000  H
  C48      1.0000 0.14832  0.71830  0.10458  Biso   1.000  C
  H38      1.0000 0.06491  0.61479  0.14006  Biso   1.000  H
  H39      1.0000 0.13392  0.67368  0.17787  Biso   1.000  H
  H40      1.0000 0.25459  0.80041  0.13725  Biso   1.000  H
  H41      1.0000 0.25229  0.81232  0.07705  Biso   1.000  H
  C49      1.0000 0.40529  0.77938  0.05956  Biso   1.000  C
  C50      1.0000 0.56328  0.40998  0.89485  Biso   1.000  C
  C51      1.0000 0.52592  0.49832  0.85754  Biso   1.000  C
  C52      1.0000 0.87420  0.61059  0.99616  Biso   1.000  C
  H42      1.0000 0.73003  0.06601  0.20103  Biso   1.000  H
  C53      1.0000 0.78879  0.17082  0.15973  Biso   1.000  C
  N6       1.0000 0.73603  0.03532  0.12850  Biso   1.000  N
  C54      1.0000 0.89860  0.22603  0.22274  Biso   1.000  C
  H43      1.0000 0.93090  0.14380  0.24613  Biso   1.000  H
  H44      1.0000 0.84418  0.12170  0.26545  Biso   1.000  H
  H45      1.0000 0.13040  0.69549  0.07017  Biso   1.000  H
  H46      1.0000 0.12262  0.74970  0.11295  Biso   1.000  H
  C55      1.0000 0.49139  0.83039  0.05503  Biso   1.000  C
  H47      1.0000 0.37789  0.74460  0.03217  Biso   1.000  H
  C56      1.0000 0.58589  0.39671  0.84674  Biso   1.000  C
  H48      1.0000 0.56780  0.38332  0.92375  Biso   1.000  H
  C57      1.0000 0.54827  0.48587  0.80924  Biso   1.000  C
  H49      1.0000 0.50422  0.53220  0.86104  Biso   1.000  H
  C58      1.0000 0.82627  0.52818  0.98935  Biso   1.000  C
  C59      1.0000 0.92667  0.65508  0.95786  Biso   1.000  C
  H50      1.0000 0.82680  0.19131  0.13105  Biso   1.000  H
  H51      1.0000 0.73971  0.16993  0.14893  Biso   1.000  H
  C60      1.0000 0.82400  0.22491  0.20532  Biso   1.000  C
  C61      1.0000 0.66329  0.98538  0.12892  Biso   1.000  C
  H52      1.0000 0.92031  0.26063  0.25305  Biso   1.000  H
  H53      1.0000 0.93889  0.24801  0.19544  Biso   1.000  H
  C62      1.0000 0.53741  0.88282  0.09325  Biso   1.000  C
  C63      1.0000 0.52818  0.82630  0.01065  Biso   1.000  C
  C64      1.0000 0.61961  0.34481  0.84012  Biso   1.000  C
  C65      1.0000 0.57921  0.43599  0.80472  Biso   1.000  C
  C66      1.0000 0.53852  0.52723  0.76585  Biso   1.000  C
  H54      1.0000 0.79062  0.49719  0.01548  Biso   1.000  H
  C67      1.0000 0.83040  0.49138  0.94497  Biso   1.000  C
  C68      1.0000 0.93142  0.61841  0.91238  Biso   1.000  C
  H55      1.0000 0.95982  0.71071  0.96208  Biso   1.000  H
  H56      1.0000 0.83672  0.27929  0.19604  Biso   1.000  H
  H57      1.0000 0.78488  0.20619  0.23331  Biso   1.000  H
  C69      1.0000 0.61840  0.93140  0.08762  Biso   1.000  C
  H58      1.0000 0.63480  0.98247  0.15893  Biso   1.000  H
  H59      1.0000 0.51257  0.88507  0.12375  Biso   1.000  H
  C70      1.0000 0.61061  0.87417  0.00384  Biso   1.000  C
  H60      1.0000 0.49719  0.79058  0.98452  Biso   1.000  H
  H61      1.0000 0.64338  0.34588  0.80833  Biso   1.000  H
  N7       1.0000 0.61863  0.29801  0.87439  Biso   1.000  N
  H62      1.0000 0.59610  0.42852  0.77235  Biso   1.000  H
  H63      1.0000 0.52233  0.56503  0.77224  Biso   1.000  H
  N8       1.0000 0.55051  0.51538  0.72033  Biso   1.000  N
  C71      1.0000 0.77941  0.40530  0.94044  Biso   1.000  C
  C72      1.0000 0.88282  0.53742  0.90675  Biso   1.000  C
  C73      1.0000 0.98543  0.66332  0.87108  Biso   1.000  C
  C74      1.0000 0.65510  0.92672  0.04214  Biso   1.000  C
  C75      1.0000 0.64842  0.86523  0.95703  Biso   1.000  C
  C76      1.0000 0.66119  0.25588  0.86385  Biso   1.000  C
  C77      1.0000 0.53741  0.56070  0.68070  Biso   1.000  C
  N9       1.0000 0.77859  0.36519  0.90264  Biso   1.000  N
  H64      1.0000 0.74463  0.37793  0.96783  Biso   1.000  H
  H65      1.0000 0.88508  0.51259  0.87625  Biso   1.000  H
  H66      1.0000 0.98252  0.63482  0.84107  Biso   1.000  H
  N10      1.0000 0.03532  0.73601  0.87150  Biso   1.000  N
  H67      1.0000 0.71068  0.95978  0.03792  Biso   1.000  H
  C78      1.0000 0.61708  0.79271  0.93272  Biso   1.000  C
  C79      1.0000 0.71888  0.92980  0.93782  Biso   1.000  C
  H68      1.0000 0.68640  0.27140  0.82955  Biso   1.000  H
  C80      1.0000 0.60502  0.16613  0.86553  Biso   1.000  C
  C81      1.0000 0.72539  0.27952  0.90443  Biso   1.000  C
  C82      1.0000 0.61519  0.62771  0.66195  Biso   1.000  C
  C83      1.0000 0.49088  0.50347  0.63674  Biso   1.000  C
  H69      1.0000 0.50511  0.58292  0.69515  Biso   1.000  H
  C84      1.0000 0.08660  0.77002  0.82708  Biso   1.000  C
  H70      1.0000 0.56879  0.74928  0.94455  Biso   1.000  H
  C85      1.0000 0.65509  0.78252  0.89142  Biso   1.000  C
  C86      1.0000 0.75719  0.91961  0.89644  Biso   1.000  C
  H71      1.0000 0.74011  0.98028  0.95334  Biso   1.000  H
  H72      1.0000 0.56401  0.15060  0.83883  Biso   1.000  H
  H73      1.0000 0.57813  0.15102  0.89892  Biso   1.000  H
  C87      1.0000 0.65129  0.12270  0.85693  Biso   1.000  C
  C88      1.0000 0.77222  0.23752  0.89572  Biso   1.000  C
  H74      1.0000 0.69982  0.26459  0.93862  Biso   1.000  H
  H75      1.0000 0.64988  0.60638  0.65035  Biso   1.000  H
  C89      1.0000 0.60139  0.67060  0.61772  Biso   1.000  C
  N11      1.0000 0.65371  0.68352  0.70375  Biso   1.000  N
  C90      1.0000 0.47593  0.54672  0.59373  Biso   1.000  C
  H76      1.0000 0.52129  0.47912  0.62354  Biso   1.000  H
  H77      1.0000 0.43960  0.46052  0.64974  Biso   1.000  H
  H78      1.0000 0.06599  0.73003  0.79897  Biso   1.000  H
  C91      1.0000 0.17080  0.78880  0.84027  Biso   1.000  C
  C92      1.0000 0.08639  0.84431  0.80905  Biso   1.000  C
  H79      1.0000 0.63280  0.73210  0.87553  Biso   1.000  H
  C93      1.0000 0.72658  0.84609  0.87275  Biso   1.000  C
  H80      1.0000 0.80488  0.96328  0.88412  Biso   1.000  H
  C94      1.0000 0.71827  0.14829  0.89542  Biso   1.000  C
  H81      1.0000 0.61479  0.06487  0.85994  Biso   1.000  H
  H82      1.0000 0.67372  0.13390  0.82213  Biso   1.000  H
  H83      1.0000 0.80040  0.25458  0.86275  Biso   1.000  H
  H84      1.0000 0.81231  0.25233  0.92295  Biso   1.000  H
  H85      1.0000 0.57109  0.69549  0.63012  Biso   1.000  H
  H86      1.0000 0.65321  0.71320  0.60513  Biso   1.000  H
  C95      1.0000 0.55710  0.61568  0.57452  Biso   1.000  C
  C96      1.0000 0.72641  0.70680  0.71322  Biso   1.000  C
  H87      1.0000 0.44248  0.56829  0.60612  Biso   1.000  H
  H88      1.0000 0.44781  0.50957  0.56554  Biso   1.000  H
  H89      1.0000 0.19127  0.82678  0.86895  Biso   1.000  H
  H90      1.0000 0.16989  0.73968  0.85107  Biso   1.000  H
  C97      1.0000 0.22487  0.82399  0.79468  Biso   1.000  C
  C98      1.0000 0.14209  0.88110  0.76387  Biso   1.000  C
  H91      1.0000 0.10342  0.88359  0.83746  Biso   1.000  H
  N12      1.0000 0.00551  0.82180  0.79308  Biso   1.000  N
  C99      1.0000 0.76879  0.82962  0.83244  Biso   1.000  C
  H92      1.0000 0.69552  0.13040  0.92983  Biso   1.000  H
  H93      1.0000 0.74969  0.12258  0.88705  Biso   1.000  H
  H94      1.0000 0.58889  0.59358  0.56014  Biso   1.000  H
  H95      1.0000 0.54801  0.64542  0.54744  Biso   1.000  H
  C100     1.0000 0.76902  0.76001  0.75543  Biso   1.000  C
  H96      1.0000 0.75379  0.68891  0.69215  Biso   1.000  H
  H97      1.0000 0.27932  0.83673  0.80396  Biso   1.000  H
  H98      1.0000 0.20619  0.78489  0.76669  Biso   1.000  H
  C101     1.0000 0.22600  0.89858  0.77726  Biso   1.000  C
  H99      1.0000 0.14381  0.93093  0.75387  Biso   1.000  H
  H100     1.0000 0.12169  0.84419  0.73455  Biso   1.000  H
  C102     1.0000 0.97308  0.85699  0.81472  Biso   1.000  C
  C103     1.0000 0.85163  0.85841  0.83765  Biso   1.000  C
  C104     1.0000 0.72949  0.78181  0.79095  Biso   1.000  C
  C105     1.0000 0.84829  0.78678  0.76163  Biso   1.000  C
  H101     1.0000 0.26062  0.92032  0.74695  Biso   1.000  H
  H102     1.0000 0.24802  0.93893  0.80456  Biso   1.000  H
  C106     1.0000 0.89072  0.83572  0.80365  Biso   1.000  C
  H103     1.0000 0.00282  0.89799  0.83864  Biso   1.000  H
  H104     1.0000 0.88020  0.89360  0.86465  Biso   1.000  H
  H105     1.0000 0.67472  0.76350  0.78654  Biso   1.000  H
  H106     1.0000 0.87532  0.77251  0.73752  Biso   1.000  H
  C107     1.0000 0.38941  0.26358  0.32949  Biso   1.000  C
  C108     1.0000 0.34487  0.27158  0.29120  Biso   1.000  C
  C109     1.0000 0.47179  0.29812  0.32268  Biso   1.000  C
  C110     1.0000 0.35159  0.21678  0.37631  Biso   1.000  C
  C111     1.0000 0.38159  0.31300  0.24571  Biso   1.000  C
  H107     1.0000 0.28932  0.24913  0.29542  Biso   1.000  H
  C112     1.0000 0.50860  0.33900  0.27830  Biso   1.000  C
  H108     1.0000 0.50277  0.29339  0.34881  Biso   1.000  H
  C113     1.0000 0.38288  0.17560  0.40061  Biso   1.000  C
  C114     1.0000 0.28109  0.21092  0.39551  Biso   1.000  C
  C115     1.0000 0.33669  0.32212  0.20441  Biso   1.000  C
  C116     1.0000 0.46259  0.34540  0.24008  Biso   1.000  C
  C117     1.0000 0.59468  0.37408  0.27378  Biso   1.000  C
  H109     1.0000 0.43121  0.18052  0.38878  Biso   1.000  H
  C118     1.0000 0.34491  0.12738  0.44191  Biso   1.000  C
  C119     1.0000 0.24282  0.16239  0.43689  Biso   1.000  C
  H110     1.0000 0.25991  0.24018  0.38000  Biso   1.000  H
  N13      1.0000 0.26402  0.29931  0.20483  Biso   1.000  N
  H111     1.0000 0.36519  0.34771  0.17441  Biso   1.000  H
  H112     1.0000 0.48737  0.37248  0.20958  Biso   1.000  H
  H113     1.0000 0.62207  0.36667  0.30116  Biso   1.000  H
  N14      1.0000 0.63483  0.41342  0.23598  Biso   1.000  N
  H114     1.0000 0.36720  0.09930  0.45781  Biso   1.000  H
  C120     1.0000 0.27340  0.11950  0.46058  Biso   1.000  C
  H115     1.0000 0.19512  0.15842  0.44921  Biso   1.000  H
  C121     1.0000 0.22998  0.31661  0.16041  Biso   1.000  C
  C122     1.0000 0.72048  0.44588  0.23776  Biso   1.000  C
  C123     1.0000 0.23121  0.06079  0.50089  Biso   1.000  C
  H116     1.0000 0.26999  0.33598  0.13231  Biso   1.000  H
  C124     1.0000 0.21122  0.38202  0.17361  Biso   1.000  C
  C125     1.0000 0.15567  0.24208  0.14238  Biso   1.000  C
  C126     1.0000 0.74411  0.40530  0.19719  Biso   1.000  C
  C127     1.0000 0.76247  0.53469  0.22905  Biso   1.000  C
  H117     1.0000 0.73541  0.43522  0.27195  Biso   1.000  H
  C128     1.0000 0.14840  0.00681  0.49568  Biso   1.000  C
  C129     1.0000 0.27049  0.05231  0.54238  Biso   1.000  C
  H118     1.0000 0.17321  0.36448  0.20228  Biso   1.000  H
  H119     1.0000 0.26029  0.43018  0.18441  Biso   1.000  H
  C130     1.0000 0.17598  0.40092  0.12801  Biso   1.000  C
  C131     1.0000 0.11889  0.26098  0.09720  Biso   1.000  C
  H120     1.0000 0.11642  0.21980  0.17079  Biso   1.000  H
  N15      1.0000 0.17821  0.18372  0.12641  Biso   1.000  N
  H121     1.0000 0.72860  0.41502  0.16288  Biso   1.000  H
  C132     1.0000 0.83392  0.43889  0.19886  Biso   1.000  C
  N16      1.0000 0.70200  0.32058  0.20772  Biso   1.000  N
  C133     1.0000 0.85170  0.57000  0.22875  Biso   1.000  C
  H122     1.0000 0.74538  0.54577  0.19608  Biso   1.000  H
  H123     1.0000 0.74767  0.55999  0.25628  Biso   1.000  H
  H124     1.0000 0.11978  0.01339  0.46868  Biso   1.000  H
  C134     1.0000 0.10927  0.94496  0.52968  Biso   1.000  C
  H125     1.0000 0.32532  0.08881  0.54680  Biso   1.000  H
  C135     1.0000 0.23100  0.99099  0.57790  Biso   1.000  C
  H126     1.0000 0.16333  0.44263  0.13729  Biso   1.000  H
  H127     1.0000 0.21511  0.42130  0.10002  Biso   1.000  H
  C136     1.0000 0.10141  0.32739  0.11059  Biso   1.000  C
  H128     1.0000 0.06911  0.21293  0.08720  Biso   1.000  H
  H129     1.0000 0.15579  0.27751  0.06788  Biso   1.000  H
  C137     1.0000 0.14303  0.11612  0.14805  Biso   1.000  C
  H130     1.0000 0.84940  0.41342  0.17216  Biso   1.000  H
  H131     1.0000 0.84901  0.42710  0.23225  Biso   1.000  H
  C138     1.0000 0.87728  0.52859  0.19026  Biso   1.000  C
  C139     1.0000 0.65519  0.27478  0.17346  Biso   1.000  C
  H132     1.0000 0.86961  0.56509  0.26317  Biso   1.000  H
  H133     1.0000 0.87739  0.62712  0.22038  Biso   1.000  H
  C140     1.0000 0.15170  0.93850  0.57171  Biso   1.000  C
  C141     1.0000 0.02691  0.88388  0.51862  Biso   1.000  C
  C142     1.0000 0.27357  0.98039  0.62012  Biso   1.000  C
  H134     1.0000 0.07970  0.34031  0.08028  Biso   1.000  H
  H135     1.0000 0.06111  0.30909  0.13790  Biso   1.000  H
  C143     1.0000 0.16428  0.05498  0.13698  Biso   1.000  C
  H136     1.0000 0.10202  0.10481  0.17197  Biso   1.000  H
  H137     1.0000 0.93509  0.54992  0.19327  Biso   1.000  H
  H138     1.0000 0.86610  0.53979  0.15547  Biso   1.000  H
  H139     1.0000 0.65407  0.29747  0.14166  Biso   1.000  H
  C144     1.0000 0.60331  0.18917  0.18007  Biso   1.000  C
  H140     1.0000 0.12469  0.89721  0.59582  Biso   1.000  H
  H141     1.0000 0.99721  0.89519  0.49469  Biso   1.000  H
  N17      1.0000 0.99449  0.81628  0.54025  Biso   1.000  N
  N18      1.0000 0.34630  0.02980  0.62959  Biso   1.000  N
  H142     1.0000 0.24619  0.93507  0.64119  Biso   1.000  H
  C145     1.0000 0.21320  0.06150  0.09496  Biso   1.000  C
  C146     1.0000 0.14159  0.99319  0.17098  Biso   1.000  C
  C147     1.0000 0.56400  0.14320  0.13805  Biso   1.000  C
  C148     1.0000 0.59000  0.15333  0.22818  Biso   1.000  C
  C149     1.0000 0.91356  0.75786  0.52428  Biso   1.000  C
  C150     1.0000 0.38480  0.01250  0.67138  Biso   1.000  C
  C151     1.0000 0.24001  0.00901  0.08876  Biso   1.000  C
  H143     1.0000 0.22749  0.10279  0.07085  Biso   1.000  H
  H144     1.0000 0.10639  0.98661  0.19798  Biso   1.000  H
  C152     1.0000 0.17043  0.93921  0.16577  Biso   1.000  C
  C153     1.0000 0.51411  0.06239  0.14257  Biso   1.000  C
  H145     1.0000 0.57149  0.16761  0.10569  Biso   1.000  H
  H146     1.0000 0.61672  0.18449  0.25708  Biso   1.000  H
  C154     1.0000 0.53881  0.07382  0.23377  Biso   1.000  C
  C155     1.0000 0.91337  0.68339  0.50626  Biso   1.000  C
  C156     1.0000 0.85789  0.73896  0.56946  Biso   1.000  C
  H147     1.0000 0.89662  0.78020  0.49587  Biso   1.000  H
  C157     1.0000 0.39858  0.06920  0.71561  Biso   1.000  C
  C158     1.0000 0.46259  0.02328  0.65263  Biso   1.000  C
  H148     1.0000 0.35009  0.95651  0.68298  Biso   1.000  H
  C159     1.0000 0.29318  0.01961  0.04655  Biso   1.000  C
  C160     1.0000 0.21817  0.94769  0.12428  Biso   1.000  C
  C161     1.0000 0.15390  0.88050  0.20608  Biso   1.000  C
  C162     1.0000 0.47282  0.01132  0.09918  Biso   1.000  C
  C163     1.0000 0.50170  0.02761  0.19087  Biso   1.000  C
  C164     1.0000 0.52109  0.03531  0.28515  Biso   1.000  C
  H149     1.0000 0.93401  0.66402  0.53436  Biso   1.000  H
  C165     1.0000 0.82921  0.61798  0.49306  Biso   1.000  C
  N19      1.0000 0.96471  0.70069  0.46184  Biso   1.000  N
  C166     1.0000 0.77402  0.67261  0.55608  Biso   1.000  C
  H150     1.0000 0.85618  0.78707  0.57946  Biso   1.000  H
  H151     1.0000 0.87828  0.72249  0.59878  Biso   1.000  H
  H152     1.0000 0.42891  0.12442  0.70321  Biso   1.000  H
  H153     1.0000 0.34679  0.06002  0.72820  Biso   1.000  H
  C167     1.0000 0.44289  0.05859  0.75881  Biso   1.000  C
  C168     1.0000 0.50913  0.01262  0.69660  Biso   1.000  C
  H154     1.0000 0.49487  0.07779  0.63818  Biso   1.000  H
  N20      1.0000 0.44949  0.96487  0.61301  Biso   1.000  N
  H155     1.0000 0.31109  0.06487  0.02548  Biso   1.000  H
  N21      1.0000 0.31650  0.97020  0.03708  Biso   1.000  N
  H156     1.0000 0.23651  0.91119  0.11987  Biso   1.000  H
  C169     1.0000 0.21750  0.87256  0.22476  Biso   1.000  C
  C170     1.0000 0.08042  0.83761  0.22978  Biso   1.000  C
  N22      1.0000 0.48460  0.03507  0.05366  Biso   1.000  N
  H157     1.0000 0.43498  0.95728  0.10557  Biso   1.000  H
  H158     1.0000 0.46777  0.97198  0.19437  Biso   1.000  H
  C171     1.0000 0.50807  0.07299  0.32577  Biso   1.000  C
  C172     1.0000 0.57400  0.06878  0.32470  Biso   1.000  C
  C173     1.0000 0.45180  0.96558  0.29260  Biso   1.000  C
  C174     1.0000 0.52138  0.96570  0.29496  Biso   1.000  C
  H159     1.0000 0.80870  0.63546  0.46438  Biso   1.000  H
  H160     1.0000 0.83011  0.56982  0.48226  Biso   1.000  H
  C175     1.0000 0.77507  0.59908  0.53866  Biso   1.000  C
  C176     1.0000 0.01457  0.67788  0.46226  Biso   1.000  C
  H161     1.0000 0.73939  0.65969  0.58639  Biso   1.000  H
  H162     1.0000 0.75202  0.69091  0.52877  Biso   1.000  H
  H163     1.0000 0.41111  0.00468  0.77319  Biso   1.000  H
  H164     1.0000 0.45198  0.09740  0.78589  Biso   1.000  H
  C177     1.0000 0.52411  0.07080  0.73961  Biso   1.000  C
  H165     1.0000 0.56043  0.02091  0.68359  Biso   1.000  H
  H166     1.0000 0.47870  0.95782  0.70979  Biso   1.000  H
  C178     1.0000 0.46150  0.98868  0.56748  Biso   1.000  C
  C179     1.0000 0.37230  0.98750  0.99528  Biso   1.000  C
  C180     1.0000 0.20727  0.82440  0.26606  Biso   1.000  C
  H167     1.0000 0.26790  0.90070  0.20886  Biso   1.000  H
  H168     1.0000 0.03669  0.84158  0.21746  Biso   1.000  H
  C181     1.0000 0.07017  0.78908  0.27115  Biso   1.000  C
  C182     1.0000 0.43931  0.97672  0.01403  Biso   1.000  C
  H169     1.0000 0.51361  0.12388  0.32147  Biso   1.000  H
  C183     1.0000 0.48622  0.03442  0.37406  Biso   1.000  C
  H170     1.0000 0.62321  0.11600  0.31930  Biso   1.000  H
  C184     1.0000 0.55568  0.03430  0.37171  Biso   1.000  C
  C185     1.0000 0.43508  0.92701  0.34090  Biso   1.000  C
  H171     1.0000 0.41479  0.94277  0.26560  Biso   1.000  H
  C186     1.0000 0.50522  0.93122  0.34197  Biso   1.000  C
  H172     1.0000 0.53340  0.94099  0.26796  Biso   1.000  H
  H173     1.0000 0.72071  0.55737  0.52938  Biso   1.000  H
  H174     1.0000 0.79382  0.57870  0.56669  Biso   1.000  H
  C187     1.0000 0.06859  0.68700  0.42095  Biso   1.000  C
  H175     1.0000 0.01747  0.65229  0.49226  Biso   1.000  H
  H176     1.0000 0.55750  0.12578  0.72721  Biso   1.000  H
  H177     1.0000 0.55219  0.06179  0.76779  Biso   1.000  H
  H178     1.0000 0.47769  0.04272  0.56110  Biso   1.000  H
  C188     1.0000 0.45172  0.93761  0.52409  Biso   1.000  C
  C189     1.0000 0.32938  0.93080  0.95106  Biso   1.000  C
  H179     1.0000 0.39357  0.04349  0.98369  Biso   1.000  H
  C190     1.0000 0.13481  0.78322  0.29036  Biso   1.000  C
  H180     1.0000 0.25068  0.81948  0.27789  Biso   1.000  H
  H181     1.0000 0.01972  0.75982  0.28667  Biso   1.000  H
  C191     1.0000 0.49651  0.98738  0.97007  Biso   1.000  C
  H182     1.0000 0.41708  0.92221  0.02848  Biso   1.000  H
  H183     1.0000 0.47199  0.05717  0.40106  Biso   1.000  H
  C192     1.0000 0.48578  0.96469  0.38152  Biso   1.000  C
  H184     1.0000 0.59241  0.05901  0.39871  Biso   1.000  H
  H185     1.0000 0.38973  0.87612  0.34520  Biso   1.000  H
  H186     1.0000 0.50721  0.88400  0.34737  Biso   1.000  H
  C193     1.0000 0.07329  0.72842  0.37547  Biso   1.000  C
  C194     1.0000 0.11719  0.65460  0.42658  Biso   1.000  C
  C195     1.0000 0.47409  0.97239  0.47579  Biso   1.000  C
  C196     1.0000 0.42081  0.85680  0.52862  Biso   1.000  C
  H187     1.0000 0.30449  0.87558  0.96345  Biso   1.000  H
  H188     1.0000 0.28677  0.93998  0.93847  Biso   1.000  H
  C197     1.0000 0.38430  0.94141  0.90785  Biso   1.000  C
  C198     1.0000 0.12583  0.73642  0.33717  Biso   1.000  C
  C199     1.0000 0.45331  0.92920  0.92706  Biso   1.000  C
  H189     1.0000 0.53952  0.97909  0.98308  Biso   1.000  H
  H190     1.0000 0.52089  0.04218  0.95687  Biso   1.000  H
  C200     1.0000 0.46499  0.92618  0.43290  Biso   1.000  C
  H191     1.0000 0.04019  0.75087  0.37125  Biso   1.000  H
  C201     1.0000 0.16959  0.66100  0.38836  Biso   1.000  C
  H192     1.0000 0.11486  0.62746  0.45708  Biso   1.000  H
  H193     1.0000 0.49580  0.02802  0.47230  Biso   1.000  H
  C202     1.0000 0.41411  0.81077  0.48659  Biso   1.000  C
  H194     1.0000 0.40388  0.83239  0.56098  Biso   1.000  H
  H195     1.0000 0.40643  0.99532  0.89348  Biso   1.000  H
  H196     1.0000 0.35458  0.90260  0.88078  Biso   1.000  H
  C203     1.0000 0.17367  0.70188  0.34398  Biso   1.000  C
  H197     1.0000 0.43169  0.87416  0.93946  Biso   1.000  H
  H198     1.0000 0.49040  0.93821  0.89888  Biso   1.000  H
  C204     1.0000 0.43668  0.84667  0.43849  Biso   1.000  C
  C205     1.0000 0.22058  0.62586  0.39289  Biso   1.000  C
  C206     1.0000 0.38041  0.72522  0.49321  Biso   1.000  C
  H199     1.0000 0.20939  0.70661  0.31786  Biso   1.000  H
  H200     1.0000 0.43223  0.81551  0.40958  Biso   1.000  H
  H201     1.0000 0.25537  0.63327  0.36551  Biso   1.000  H
  N23      1.0000 0.22141  0.58658  0.43069  Biso   1.000  N
  N24      1.0000 0.38139  0.67936  0.45895  Biso   1.000  N
  H202     1.0000 0.35657  0.70247  0.52500  Biso   1.000  H
  C207     1.0000 0.27460  0.55412  0.42890  Biso   1.000  C
  C208     1.0000 0.33881  0.59470  0.46948  Biso   1.000  C
  C209     1.0000 0.22778  0.46531  0.43761  Biso   1.000  C
  H203     1.0000 0.30019  0.56478  0.39471  Biso   1.000  H
  H204     1.0000 0.31358  0.58498  0.50378  Biso   1.000  H
  C210     1.0000 0.39502  0.56111  0.46781  Biso   1.000  C
  C211     1.0000 0.28170  0.43000  0.43792  Biso   1.000  C
  H205     1.0000 0.19958  0.45417  0.47058  Biso   1.000  H
  H206     1.0000 0.18768  0.44001  0.41038  Biso   1.000  H
  H207     1.0000 0.43598  0.58658  0.49450  Biso   1.000  H
  H208     1.0000 0.42190  0.57290  0.43442  Biso   1.000  H
  C212     1.0000 0.34869  0.47141  0.47640  Biso   1.000  C
  H209     1.0000 0.30453  0.43491  0.40350  Biso   1.000  H
  H210     1.0000 0.25027  0.37288  0.44628  Biso   1.000  H
  H211     1.0000 0.38517  0.45008  0.47340  Biso   1.000  H
  H212     1.0000 0.32631  0.46021  0.51120  Biso   1.000  H
  C213     1.0000 0.16239  0.24279  0.56311  Biso   1.000  C
  C214     1.0000 0.11952  0.27342  0.53942  Biso   1.000  C
  H213     1.0000 0.15840  0.19510  0.55079  Biso   1.000  H
  C215     1.0000 0.21090  0.28112  0.60449  Biso   1.000  C
  C216     1.0000 0.06079  0.23118  0.49911  Biso   1.000  C
  C217     1.0000 0.12742  0.34493  0.55809  Biso   1.000  C
  C218     1.0000 0.21681  0.35162  0.62369  Biso   1.000  C
  H214     1.0000 0.24022  0.25991  0.62000  Biso   1.000  H
  C219     1.0000 0.05229  0.27052  0.45762  Biso   1.000  C
  C220     1.0000 0.00679  0.14841  0.50432  Biso   1.000  C
  C221     1.0000 0.17560  0.38291  0.59939  Biso   1.000  C
  H215     1.0000 0.09930  0.36721  0.54219  Biso   1.000  H
  C222     1.0000 0.26362  0.38942  0.67051  Biso   1.000  C
  C223     1.0000 0.99097  0.23100  0.42210  Biso   1.000  C
  H216     1.0000 0.08883  0.32532  0.45320  Biso   1.000  H
  C224     1.0000 0.94501  0.10931  0.47032  Biso   1.000  C
  H217     1.0000 0.01341  0.11979  0.53132  Biso   1.000  H
  H218     1.0000 0.18050  0.43119  0.61122  Biso   1.000  H
  C225     1.0000 0.29807  0.47177  0.67732  Biso   1.000  C
  C226     1.0000 0.27159  0.34493  0.70880  Biso   1.000  C
  C227     1.0000 0.98041  0.27360  0.37988  Biso   1.000  C
  C228     1.0000 0.93851  0.15173  0.42829  Biso   1.000  C
  C229     1.0000 0.88390  0.02690  0.48138  Biso   1.000  C
  C230     1.0000 0.33902  0.50863  0.72170  Biso   1.000  C
  H219     1.0000 0.29343  0.50282  0.65119  Biso   1.000  H
  C231     1.0000 0.31302  0.38160  0.75429  Biso   1.000  C
  H220     1.0000 0.24911  0.28930  0.70458  Biso   1.000  H
  N25      1.0000 0.02979  0.34629  0.37041  Biso   1.000  N
  H221     1.0000 0.93512  0.24623  0.35881  Biso   1.000  H
  H222     1.0000 0.89719  0.12471  0.40418  Biso   1.000  H
  H223     1.0000 0.89522  0.99722  0.50531  Biso   1.000  H
  N26      1.0000 0.81628  0.99449  0.45975  Biso   1.000  N
  C232     1.0000 0.34541  0.46259  0.75992  Biso   1.000  C
  C233     1.0000 0.37411  0.59471  0.72622  Biso   1.000  C
  C234     1.0000 0.32212  0.33669  0.79559  Biso   1.000  C
  C235     1.0000 0.01251  0.38480  0.32862  Biso   1.000  C
  C236     1.0000 0.75789  0.91362  0.47572  Biso   1.000  C
  H224     1.0000 0.37249  0.48742  0.79042  Biso   1.000  H
  H225     1.0000 0.36671  0.62208  0.69884  Biso   1.000  H
  N27      1.0000 0.41341  0.63482  0.76402  Biso   1.000  N
  H226     1.0000 0.34771  0.36519  0.82559  Biso   1.000  H
  N28      1.0000 0.29932  0.26400  0.79517  Biso   1.000  N
  C237     1.0000 0.06918  0.39861  0.28439  Biso   1.000  C
  C238     1.0000 0.02329  0.46259  0.34737  Biso   1.000  C
  H227     1.0000 0.95647  0.35008  0.31702  Biso   1.000  H
  C239     1.0000 0.68337  0.91338  0.49374  Biso   1.000  C
  C240     1.0000 0.73899  0.85787  0.43054  Biso   1.000  C
  H228     1.0000 0.78022  0.89662  0.50413  Biso   1.000  H
  C241     1.0000 0.44588  0.72049  0.76224  Biso   1.000  C
  C242     1.0000 0.31659  0.22999  0.83959  Biso   1.000  C
  H229     1.0000 0.12439  0.42888  0.29679  Biso   1.000  H
  H230     1.0000 0.06002  0.34682  0.27180  Biso   1.000  H
  C243     1.0000 0.05861  0.44292  0.24119  Biso   1.000  C
  C244     1.0000 0.01258  0.50910  0.30340  Biso   1.000  C
  H231     1.0000 0.07781  0.49488  0.36182  Biso   1.000  H
  N29      1.0000 0.96492  0.44950  0.38699  Biso   1.000  N
  H232     1.0000 0.66402  0.93400  0.46564  Biso   1.000  H
  C245     1.0000 0.61798  0.82919  0.50694  Biso   1.000  C
  N30      1.0000 0.70071  0.96469  0.53816  Biso   1.000  N
  C246     1.0000 0.67257  0.77398  0.44392  Biso   1.000  C
  H233     1.0000 0.78711  0.85621  0.42054  Biso   1.000  H
  H234     1.0000 0.72248  0.87831  0.40122  Biso   1.000  H
  C247     1.0000 0.40531  0.74413  0.80281  Biso   1.000  C
  C248     1.0000 0.53471  0.76249  0.77095  Biso   1.000  C
  H235     1.0000 0.43523  0.73542  0.72805  Biso   1.000  H
  H236     1.0000 0.33597  0.26998  0.86769  Biso   1.000  H
  C249     1.0000 0.38200  0.21121  0.82639  Biso   1.000  C
  C250     1.0000 0.24209  0.15570  0.85762  Biso   1.000  C
  H237     1.0000 0.00468  0.41111  0.22681  Biso   1.000  H
  H238     1.0000 0.09741  0.45199  0.21411  Biso   1.000  H
  C251     1.0000 0.07082  0.52409  0.26039  Biso   1.000  C
  H239     1.0000 0.02089  0.56041  0.31641  Biso   1.000  H
  H240     1.0000 0.95782  0.47871  0.29021  Biso   1.000  H
  C252     1.0000 0.98869  0.46152  0.43252  Biso   1.000  C
  H241     1.0000 0.63549  0.80870  0.53562  Biso   1.000  H
  H242     1.0000 0.56979  0.83008  0.51774  Biso   1.000  H
  C253     1.0000 0.59910  0.77510  0.46134  Biso   1.000  C
  C254     1.0000 0.67789  0.01457  0.53774  Biso   1.000  C
  H243     1.0000 0.65968  0.73938  0.41361  Biso   1.000  H
  H244     1.0000 0.69088  0.75200  0.47123  Biso   1.000  H
  N31      1.0000 0.32063  0.70200  0.79228  Biso   1.000  N
  H245     1.0000 0.41500  0.72860  0.83712  Biso   1.000  H
  C255     1.0000 0.43890  0.83388  0.80114  Biso   1.000  C
  C256     1.0000 0.56998  0.85172  0.77125  Biso   1.000  C
  H246     1.0000 0.54580  0.74537  0.80392  Biso   1.000  H
  H247     1.0000 0.55999  0.74768  0.74372  Biso   1.000  H
  H248     1.0000 0.36447  0.17318  0.79772  Biso   1.000  H
  H249     1.0000 0.43021  0.26033  0.81559  Biso   1.000  H
  C257     1.0000 0.40089  0.17602  0.87199  Biso   1.000  C
  C258     1.0000 0.26099  0.11891  0.90280  Biso   1.000  C
  H250     1.0000 0.21983  0.11642  0.82921  Biso   1.000  H
  N32      1.0000 0.18372  0.17821  0.87359  Biso   1.000  N
  H251     1.0000 0.12580  0.55750  0.27279  Biso   1.000  H
  H252     1.0000 0.06177  0.55217  0.23221  Biso   1.000  H
  H253     1.0000 0.04270  0.47770  0.43890  Biso   1.000  H
  C259     1.0000 0.93759  0.45169  0.47591  Biso   1.000  C
  H254     1.0000 0.55743  0.72072  0.47062  Biso   1.000  H
  H255     1.0000 0.57867  0.79377  0.43335  Biso   1.000  H
  H256     1.0000 0.65230  0.01748  0.50774  Biso   1.000  H
  C260     1.0000 0.68700  0.06861  0.57905  Biso   1.000  C
  C261     1.0000 0.27480  0.65520  0.82654  Biso   1.000  C
  H257     1.0000 0.41342  0.84941  0.82784  Biso   1.000  H
  H258     1.0000 0.42711  0.84899  0.76775  Biso   1.000  H
  C262     1.0000 0.52860  0.87731  0.80974  Biso   1.000  C
  H259     1.0000 0.56513  0.86961  0.73683  Biso   1.000  H
  H260     1.0000 0.62709  0.87737  0.77962  Biso   1.000  H
  H261     1.0000 0.44260  0.16328  0.86271  Biso   1.000  H
  H262     1.0000 0.42131  0.21512  0.90002  Biso   1.000  H
  C263     1.0000 0.32742  0.10143  0.88941  Biso   1.000  C
  H263     1.0000 0.21289  0.06908  0.91280  Biso   1.000  H
  H264     1.0000 0.27750  0.15582  0.93212  Biso   1.000  H
  C264     1.0000 0.11610  0.14302  0.85195  Biso   1.000  C
  C265     1.0000 0.85679  0.42082  0.47138  Biso   1.000  C
  C266     1.0000 0.97239  0.47408  0.52421  Biso   1.000  C
  C267     1.0000 0.65459  0.11719  0.57342  Biso   1.000  C
  C268     1.0000 0.72838  0.07329  0.62453  Biso   1.000  C
  C269     1.0000 0.18918  0.60330  0.81993  Biso   1.000  C
  H265     1.0000 0.29748  0.65407  0.85834  Biso   1.000  H
  H266     1.0000 0.54989  0.93508  0.80673  Biso   1.000  H
  H267     1.0000 0.53983  0.86611  0.84453  Biso   1.000  H
  H268     1.0000 0.34030  0.07969  0.91972  Biso   1.000  H
  H269     1.0000 0.30909  0.06108  0.86210  Biso   1.000  H
  C270     1.0000 0.05500  0.16429  0.86302  Biso   1.000  C
  H270     1.0000 0.10483  0.10202  0.82803  Biso   1.000  H
  H271     1.0000 0.83237  0.40388  0.43902  Biso   1.000  H
  C271     1.0000 0.81081  0.41413  0.51341  Biso   1.000  C
  H272     1.0000 0.02801  0.49583  0.52770  Biso   1.000  H
  C272     1.0000 0.92620  0.46502  0.56710  Biso   1.000  C
  C273     1.0000 0.66100  0.16962  0.61164  Biso   1.000  C
  H273     1.0000 0.62747  0.11488  0.54292  Biso   1.000  H
  H274     1.0000 0.75090  0.04023  0.62875  Biso   1.000  H
  C274     1.0000 0.73641  0.12578  0.66283  Biso   1.000  C
  C275     1.0000 0.15330  0.59003  0.77182  Biso   1.000  C
  C276     1.0000 0.14322  0.56402  0.86195  Biso   1.000  C
  C277     1.0000 0.06151  0.21323  0.90504  Biso   1.000  C
  C278     1.0000 0.99322  0.14160  0.82902  Biso   1.000  C
  C279     1.0000 0.72520  0.38042  0.50679  Biso   1.000  C
  C280     1.0000 0.84672  0.43670  0.56151  Biso   1.000  C
  C281     1.0000 0.96471  0.48582  0.61848  Biso   1.000  C
  C282     1.0000 0.62588  0.22057  0.60711  Biso   1.000  C
  C283     1.0000 0.70189  0.17371  0.65602  Biso   1.000  C
  C284     1.0000 0.78320  0.13478  0.70964  Biso   1.000  C
  C285     1.0000 0.07380  0.53878  0.76623  Biso   1.000  C
  H275     1.0000 0.18449  0.61669  0.74292  Biso   1.000  H
  C286     1.0000 0.06237  0.51408  0.85743  Biso   1.000  C
  H276     1.0000 0.16758  0.57148  0.89431  Biso   1.000  H
  C287     1.0000 0.00902  0.24000  0.91124  Biso   1.000  C
  H277     1.0000 0.10282  0.22750  0.92915  Biso   1.000  H
  C288     1.0000 0.93917  0.17039  0.83423  Biso   1.000  C
  H278     1.0000 0.98660  0.10641  0.80202  Biso   1.000  H
  H279     1.0000 0.70252  0.35660  0.47500  Biso   1.000  H
  N33      1.0000 0.67942  0.38142  0.54105  Biso   1.000  N
  H280     1.0000 0.81548  0.43220  0.59042  Biso   1.000  H
  C289     1.0000 0.03436  0.48617  0.62594  Biso   1.000  C
  C290     1.0000 0.03430  0.55573  0.62829  Biso   1.000  C
  C291     1.0000 0.92699  0.43510  0.65910  Biso   1.000  C
  C292     1.0000 0.93120  0.50519  0.65803  Biso   1.000  C
  N34      1.0000 0.58659  0.22140  0.56931  Biso   1.000  N
  H281     1.0000 0.63330  0.25541  0.63449  Biso   1.000  H
  H282     1.0000 0.70659  0.20937  0.68214  Biso   1.000  H
  C293     1.0000 0.82438  0.20730  0.73394  Biso   1.000  C
  C294     1.0000 0.78908  0.07021  0.72885  Biso   1.000  C
  C295     1.0000 0.03532  0.52113  0.71485  Biso   1.000  C
  C296     1.0000 0.02760  0.50169  0.80913  Biso   1.000  C
  C297     1.0000 0.01130  0.47278  0.90082  Biso   1.000  C
  C298     1.0000 0.01962  0.29321  0.95345  Biso   1.000  C
  C299     1.0000 0.94769  0.21820  0.87572  Biso   1.000  C
  C300     1.0000 0.88050  0.15392  0.79392  Biso   1.000  C
  C301     1.0000 0.59471  0.33883  0.53052  Biso   1.000  C
  C302     1.0000 0.07298  0.50809  0.67423  Biso   1.000  C
  H283     1.0000 0.05720  0.47201  0.59894  Biso   1.000  H
  C303     1.0000 0.06877  0.57397  0.67530  Biso   1.000  C
  H284     1.0000 0.05900  0.59240  0.60129  Biso   1.000  H
  H285     1.0000 0.87613  0.38972  0.65480  Biso   1.000  H
  C304     1.0000 0.96562  0.45181  0.70740  Biso   1.000  C
  H286     1.0000 0.88398  0.50720  0.65263  Biso   1.000  H
  C305     1.0000 0.96569  0.52142  0.70504  Biso   1.000  C
  C306     1.0000 0.55408  0.27460  0.57110  Biso   1.000  C
  H287     1.0000 0.81951  0.25073  0.72211  Biso   1.000  H
  C307     1.0000 0.87257  0.21749  0.77524  Biso   1.000  C
  C308     1.0000 0.83758  0.08040  0.77022  Biso   1.000  C
  H288     1.0000 0.75984  0.01973  0.71333  Biso   1.000  H
  H289     1.0000 0.97202  0.46780  0.80563  Biso   1.000  H
  N35      1.0000 0.03510  0.48457  0.94634  Biso   1.000  N
  H290     1.0000 0.95731  0.43498  0.89443  Biso   1.000  H
  N36      1.0000 0.97020  0.31649  0.96292  Biso   1.000  N
  H291     1.0000 0.06489  0.31110  0.97452  Biso   1.000  H
  H292     1.0000 0.91123  0.23651  0.88013  Biso   1.000  H
  H293     1.0000 0.58501  0.31359  0.49622  Biso   1.000  H
  C309     1.0000 0.56112  0.39499  0.53219  Biso   1.000  C
  H294     1.0000 0.12391  0.51360  0.67853  Biso   1.000  H
  H295     1.0000 0.11602  0.62321  0.68070  Biso   1.000  H
  H296     1.0000 0.94279  0.41478  0.73440  Biso   1.000  H
  H297     1.0000 0.94099  0.53339  0.73204  Biso   1.000  H
  C310     1.0000 0.46531  0.22780  0.56239  Biso   1.000  C
  H298     1.0000 0.56482  0.30020  0.60529  Biso   1.000  H
  H299     1.0000 0.90071  0.26791  0.79114  Biso   1.000  H
  H300     1.0000 0.84158  0.03667  0.78254  Biso   1.000  H
  C311     1.0000 0.97671  0.43931  0.98597  Biso   1.000  C
  C312     1.0000 0.98748  0.37230  0.00472  Biso   1.000  C
  H301     1.0000 0.58659  0.43599  0.50550  Biso   1.000  H
  H302     1.0000 0.57287  0.42189  0.56558  Biso   1.000  H
  C313     1.0000 0.47144  0.34872  0.52360  Biso   1.000  C
  C314     1.0000 0.43003  0.28171  0.56208  Biso   1.000  C
  H303     1.0000 0.45419  0.19960  0.52942  Biso   1.000  H
  H304     1.0000 0.43997  0.18769  0.58962  Biso   1.000  H
  H305     1.0000 0.92219  0.41709  0.97152  Biso   1.000  H
  C315     1.0000 0.98739  0.49648  0.02993  Biso   1.000  C
  C316     1.0000 0.93079  0.32941  0.04894  Biso   1.000  C
  H306     1.0000 0.04351  0.39363  0.01631  Biso   1.000  H
  H307     1.0000 0.45012  0.38522  0.52660  Biso   1.000  H
  H308     1.0000 0.46024  0.32633  0.48880  Biso   1.000  H
  H309     1.0000 0.43492  0.30452  0.59650  Biso   1.000  H
  H310     1.0000 0.37292  0.25031  0.55372  Biso   1.000  H
  C317     1.0000 0.92921  0.45329  0.07294  Biso   1.000  C
  H311     1.0000 0.97908  0.53949  0.01692  Biso   1.000  H
  H312     1.0000 0.04218  0.52089  0.04313  Biso   1.000  H
  H313     1.0000 0.87561  0.30452  0.03655  Biso   1.000  H
  H314     1.0000 0.94002  0.28681  0.06153  Biso   1.000  H
  C318     1.0000 0.94142  0.38433  0.09215  Biso   1.000  C
  H315     1.0000 0.87420  0.43172  0.06054  Biso   1.000  H
  H316     1.0000 0.93821  0.49038  0.10112  Biso   1.000  H
  H317     1.0000 0.99531  0.40643  0.10652  Biso   1.000  H
  H318     1.0000 0.90259  0.35459  0.11922  Biso   1.000  H
