data_image0
_cell_length_a       24.469
_cell_length_b       24.469
_cell_length_c       28.928
_cell_angle_alpha    90
_cell_angle_beta     90
_cell_angle_gamma    120

_symmetry_space_group_name_H-M    "P 1"
_symmetry_int_tables_number       1

loop_
  _symmetry_equiv_pos_as_xyz
  'x, y, z'

loop_
  _atom_site_label
  _atom_site_occupancy
  _atom_site_fract_x
  _atom_site_fract_y
  _atom_site_fract_z
  _atom_site_thermal_displace_type
  _atom_site_B_iso_or_equiv
  _atom_site_type_symbol
  C1       1.0000 0.54331  0.72470  0.56271  Biso   1.000  C
  N1       1.0000 0.54080  0.70701  0.60405  Biso   1.000  N
  C2       1.0000 0.51963  0.76642  0.54826  Biso   1.000  C
  H1       1.0000 0.56129  0.71031  0.54000  Biso   1.000  H
  C3       1.0000 0.56519  0.66449  0.61466  Biso   1.000  C
  C4       1.0000 0.49419  0.79148  0.57889  Biso   1.000  C
  C5       1.0000 0.52360  0.78270  0.50142  Biso   1.000  C
  C6       1.0000 0.51109  0.60059  0.62908  Biso   1.000  C
  C7       1.0000 0.61520  0.69389  0.65158  Biso   1.000  C
  H2       1.0000 0.58489  0.65901  0.58611  Biso   1.000  H
  C8       1.0000 0.47380  0.83178  0.56485  Biso   1.000  C
  H3       1.0000 0.49072  0.78020  0.61058  Biso   1.000  H
  C9       1.0000 0.50259  0.82291  0.48635  Biso   1.000  C
  H4       1.0000 0.54079  0.76609  0.47981  Biso   1.000  H
  N2       1.0000 0.46671  0.57280  0.59074  Biso   1.000  N
  H5       1.0000 0.48859  0.60692  0.65559  Biso   1.000  H
  C10      1.0000 0.53611  0.55770  0.64491  Biso   1.000  C
  C11      1.0000 0.63811  0.65061  0.66939  Biso   1.000  C
  H6       1.0000 0.59801  0.70658  0.67789  Biso   1.000  H
  H7       1.0000 0.65159  0.73258  0.63900  Biso   1.000  H
  C12      1.0000 0.44560  0.85499  0.59911  Biso   1.000  C
  C13      1.0000 0.47862  0.84820  0.51791  Biso   1.000  C
  C14      1.0000 0.50352  0.83442  0.43736  Biso   1.000  C
  C15      1.0000 0.40940  0.55439  0.59911  Biso   1.000  C
  H8       1.0000 0.50037  0.51678  0.65532  Biso   1.000  H
  H9       1.0000 0.55681  0.54939  0.61860  Biso   1.000  H
  C16      1.0000 0.58291  0.58771  0.68408  Biso   1.000  C
  H10      1.0000 0.66221  0.64372  0.64481  Biso   1.000  H
  H11      1.0000 0.66671  0.67062  0.69600  Biso   1.000  H
  N3       1.0000 0.42722  0.89393  0.59074  Biso   1.000  N
  H12      1.0000 0.44093  0.83952  0.62981  Biso   1.000  H
  H13      1.0000 0.46532  0.87661  0.50771  Biso   1.000  H
  C17      1.0000 0.50105  0.83683  0.39598  Biso   1.000  C
  C18      1.0000 0.35801  0.52622  0.56485  Biso   1.000  C
  H14      1.0000 0.39860  0.55911  0.62981  Biso   1.000  H
  H15      1.0000 0.56157  0.59398  0.71090  Biso   1.000  H
  H16      1.0000 0.59849  0.55911  0.69358  Biso   1.000  H
  C19      1.0000 0.39938  0.91049  0.62908  Biso   1.000  C
  C20      1.0000 0.48957  0.83593  0.34700  Biso   1.000  C
  C21      1.0000 0.36962  0.52141  0.51791  Biso   1.000  C
  C22      1.0000 0.29728  0.50579  0.57889  Biso   1.000  C
  C23      1.0000 0.33552  0.90072  0.61466  Biso   1.000  C
  H17      1.0000 0.39312  0.88170  0.65559  Biso   1.000  H
  C24      1.0000 0.44228  0.97840  0.64491  Biso   1.000  C
  C25      1.0000 0.51487  0.81191  0.31544  Biso   1.000  C
  C26      1.0000 0.44935  0.85693  0.33193  Biso   1.000  C
  C27      1.0000 0.32029  0.49739  0.48635  Biso   1.000  C
  H18      1.0000 0.41129  0.53471  0.50771  Biso   1.000  H
  C28      1.0000 0.24678  0.48040  0.54826  Biso   1.000  C
  H19      1.0000 0.28950  0.50928  0.61058  Biso   1.000  H
  N4       1.0000 0.29299  0.83381  0.60405  Biso   1.000  N
  C29      1.0000 0.30609  0.92130  0.65158  Biso   1.000  C
  H20      1.0000 0.34101  0.92592  0.58611  Biso   1.000  H
  H21      1.0000 0.48321  0.98359  0.65532  Biso   1.000  H
  C30      1.0000 0.41231  0.99520  0.68408  Biso   1.000  C
  H22      1.0000 0.45056  0.00741  0.61860  Biso   1.000  H
  C31      1.0000 0.49847  0.80714  0.26849  Biso   1.000  C
  H23      1.0000 0.54326  0.79865  0.32564  Biso   1.000  H
  C32      1.0000 0.43304  0.85292  0.28509  Biso   1.000  C
  H24      1.0000 0.43279  0.87415  0.35353  Biso   1.000  H
  C33      1.0000 0.33088  0.49649  0.43736  Biso   1.000  C
  C34      1.0000 0.25908  0.47639  0.50142  Biso   1.000  C
  C35      1.0000 0.18140  0.45671  0.56271  Biso   1.000  C
  C36      1.0000 0.27530  0.81861  0.56271  Biso   1.000  C
  C37      1.0000 0.34941  0.98751  0.66939  Biso   1.000  C
  H25      1.0000 0.29337  0.89138  0.67789  Biso   1.000  H
  H26      1.0000 0.26741  0.91898  0.63900  Biso   1.000  H
  H27      1.0000 0.40598  0.96759  0.71090  Biso   1.000  H
  H28      1.0000 0.44085  0.03940  0.69358  Biso   1.000  H
  C38      1.0000 0.52167  0.77892  0.23424  Biso   1.000  C
  C39      1.0000 0.45815  0.82753  0.25446  Biso   1.000  C
  C40      1.0000 0.39137  0.87666  0.27064  Biso   1.000  C
  C41      1.0000 0.33579  0.49894  0.39598  Biso   1.000  C
  H29      1.0000 0.22531  0.45921  0.47981  Biso   1.000  H
  N5       1.0000 0.16622  0.45921  0.60405  Biso   1.000  N
  H30      1.0000 0.14901  0.43868  0.54000  Biso   1.000  H
  C42      1.0000 0.23361  0.75321  0.54826  Biso   1.000  C
  H31      1.0000 0.28969  0.85098  0.54000  Biso   1.000  H
  H32      1.0000 0.32938  0.99609  0.69600  Biso   1.000  H
  H33      1.0000 0.35630  0.01850  0.64481  Biso   1.000  H
  N6       1.0000 0.56059  0.76057  0.24257  Biso   1.000  N
  H34      1.0000 0.50617  0.77425  0.20354  Biso   1.000  H
  H35      1.0000 0.44688  0.82404  0.22273  Biso   1.000  H
  N7       1.0000 0.37369  0.87415  0.22926  Biso   1.000  N
  H36      1.0000 0.37698  0.89463  0.29335  Biso   1.000  H
  C43      1.0000 0.34634  0.51041  0.34700  Biso   1.000  C
  C44      1.0000 0.09930  0.43481  0.61466  Biso   1.000  C
  C45      1.0000 0.21731  0.74089  0.50142  Biso   1.000  C
  C46      1.0000 0.20852  0.70271  0.57889  Biso   1.000  C
  C47      1.0000 0.57716  0.73272  0.20427  Biso   1.000  C
  C48      1.0000 0.33117  0.89855  0.21868  Biso   1.000  C
  C49      1.0000 0.29708  0.48512  0.31544  Biso   1.000  C
  C50      1.0000 0.40756  0.55062  0.33193  Biso   1.000  C
  C51      1.0000 0.08952  0.48889  0.62908  Biso   1.000  C
  C52      1.0000 0.07870  0.38479  0.65158  Biso   1.000  C
  H37      1.0000 0.07411  0.41509  0.58611  Biso   1.000  H
  C53      1.0000 0.17710  0.67968  0.48635  Biso   1.000  C
  H38      1.0000 0.23388  0.77468  0.47981  Biso   1.000  H
  C54      1.0000 0.16818  0.64198  0.56485  Biso   1.000  C
  H39      1.0000 0.21981  0.71050  0.61058  Biso   1.000  H
  C55      1.0000 0.56736  0.66883  0.21868  Biso   1.000  C
  H40      1.0000 0.54836  0.72645  0.17772  Biso   1.000  H
  C56      1.0000 0.64507  0.77562  0.18843  Biso   1.000  C
  C57      1.0000 0.26728  0.84442  0.20427  Biso   1.000  C
  C58      1.0000 0.36057  0.94853  0.18173  Biso   1.000  C
  H41      1.0000 0.32568  0.91823  0.24723  Biso   1.000  H
  C59      1.0000 0.30868  0.50154  0.26849  Biso   1.000  C
  H42      1.0000 0.25539  0.45676  0.32564  Biso   1.000  H
  C60      1.0000 0.41989  0.56694  0.28509  Biso   1.000  C
  H43      1.0000 0.44136  0.56723  0.35353  Biso   1.000  H
  N8       1.0000 0.10608  0.53330  0.59074  Biso   1.000  N
  H44      1.0000 0.11830  0.51140  0.65559  Biso   1.000  H
  C61      1.0000 0.02159  0.46388  0.64491  Biso   1.000  C
  C62      1.0000 0.01249  0.36190  0.66939  Biso   1.000  C
  H45      1.0000 0.10860  0.40201  0.67789  Biso   1.000  H
  H46      1.0000 0.08098  0.34841  0.63900  Biso   1.000  H
  C63      1.0000 0.16561  0.66911  0.43736  Biso   1.000  C
  C64      1.0000 0.15182  0.63042  0.51791  Biso   1.000  C
  C65      1.0000 0.14498  0.59059  0.59911  Biso   1.000  C
  N9       1.0000 0.50045  0.62631  0.22926  Biso   1.000  N
  C66      1.0000 0.58797  0.63943  0.18173  Biso   1.000  C
  H47      1.0000 0.59256  0.67435  0.24723  Biso   1.000  H
  H48      1.0000 0.65025  0.81653  0.17803  Biso   1.000  H
  H49      1.0000 0.67408  0.78393  0.21474  Biso   1.000  H
  C67      1.0000 0.66189  0.74565  0.14927  Biso   1.000  C
  N10      1.0000 0.23944  0.80002  0.24257  Biso   1.000  N
  H50      1.0000 0.27356  0.82191  0.17772  Biso   1.000  H
  C68      1.0000 0.22437  0.86943  0.18843  Biso   1.000  C
  C69      1.0000 0.31725  0.97141  0.16392  Biso   1.000  C
  H51      1.0000 0.37327  0.93135  0.15542  Biso   1.000  H
  H52      1.0000 0.39926  0.98496  0.19434  Biso   1.000  H
  C70      1.0000 0.25727  0.47832  0.23424  Biso   1.000  C
  C71      1.0000 0.36937  0.54184  0.25446  Biso   1.000  C
  C72      1.0000 0.48527  0.60861  0.27064  Biso   1.000  C
  H53      1.0000 0.01640  0.49960  0.65532  Biso   1.000  H
  C73      1.0000 0.00479  0.41712  0.68408  Biso   1.000  C
  H54      1.0000 0.99262  0.44321  0.61860  Biso   1.000  H
  H55      1.0000 0.00392  0.33331  0.69600  Biso   1.000  H
  H56      1.0000 0.98151  0.33779  0.64481  Biso   1.000  H
  C74      1.0000 0.16318  0.66425  0.39598  Biso   1.000  C
  H57      1.0000 0.12340  0.58870  0.50771  Biso   1.000  H
  H58      1.0000 0.16048  0.60139  0.62981  Biso   1.000  H
  C75      1.0000 0.65418  0.68275  0.16392  Biso   1.000  C
  H59      1.0000 0.55809  0.62673  0.15542  Biso   1.000  H
  H60      1.0000 0.58567  0.60073  0.19434  Biso   1.000  H
  H61      1.0000 0.63425  0.73933  0.12244  Biso   1.000  H
  H62      1.0000 0.70606  0.77425  0.13973  Biso   1.000  H
  C76      1.0000 0.22105  0.74273  0.23424  Biso   1.000  C
  H63      1.0000 0.18346  0.83371  0.17803  Biso   1.000  H
  H64      1.0000 0.21609  0.89015  0.21474  Biso   1.000  H
  C77      1.0000 0.25436  0.91625  0.14927  Biso   1.000  C
  H65      1.0000 0.31038  0.99553  0.18854  Biso   1.000  H
  H66      1.0000 0.33727  0.00005  0.13734  Biso   1.000  H
  N11      1.0000 0.19998  0.43944  0.24257  Biso   1.000  N
  H67      1.0000 0.26809  0.49385  0.20354  Biso   1.000  H
  H68      1.0000 0.37718  0.55312  0.22273  Biso   1.000  H
  H69      1.0000 0.51767  0.62305  0.29335  Biso   1.000  H
  H70      1.0000 0.03239  0.43840  0.71090  Biso   1.000  H
  H71      1.0000 0.96061  0.40150  0.69358  Biso   1.000  H
  C78      1.0000 0.16408  0.65363  0.34700  Biso   1.000  C
  H72      1.0000 0.68517  0.68964  0.18854  Biso   1.000  H
  H73      1.0000 0.66277  0.66274  0.13734  Biso   1.000  H
  C79      1.0000 0.19286  0.69134  0.26849  Biso   1.000  C
  H74      1.0000 0.22574  0.73192  0.20354  Biso   1.000  H
  H75      1.0000 0.26065  0.89492  0.12244  Biso   1.000  H
  H76      1.0000 0.22577  0.93182  0.13973  Biso   1.000  H
  C80      1.0000 0.15555  0.42283  0.20427  Biso   1.000  C
  C81      1.0000 0.14308  0.59243  0.33193  Biso   1.000  C
  C82      1.0000 0.18808  0.70295  0.31544  Biso   1.000  C
  C83      1.0000 0.17249  0.63065  0.25446  Biso   1.000  C
  C84      1.0000 0.13054  0.35492  0.18843  Biso   1.000  C
  H77      1.0000 0.17807  0.45161  0.17772  Biso   1.000  H
  C85      1.0000 0.10148  0.43264  0.21868  Biso   1.000  C
  C86      1.0000 0.14706  0.58011  0.28509  Biso   1.000  C
  H78      1.0000 0.12586  0.55864  0.35353  Biso   1.000  H
  H79      1.0000 0.20136  0.74462  0.32564  Biso   1.000  H
  H80      1.0000 0.17597  0.62282  0.22273  Biso   1.000  H
  H81      1.0000 0.16628  0.34973  0.17803  Biso   1.000  H
  H82      1.0000 0.10988  0.32594  0.21474  Biso   1.000  H
  C87      1.0000 0.08377  0.33812  0.14927  Biso   1.000  C
  N12      1.0000 0.12584  0.49951  0.22926  Biso   1.000  N
  C88      1.0000 0.05145  0.41202  0.18173  Biso   1.000  C
  H83      1.0000 0.08177  0.40744  0.24723  Biso   1.000  H
  C89      1.0000 0.12337  0.51475  0.27064  Biso   1.000  C
  H84      1.0000 0.10505  0.36573  0.12244  Biso   1.000  H
  H85      1.0000 0.06818  0.29395  0.13973  Biso   1.000  H
  C90      1.0000 0.02856  0.34581  0.16392  Biso   1.000  C
  H86      1.0000 0.06865  0.44194  0.15542  Biso   1.000  H
  H87      1.0000 0.01509  0.41433  0.19434  Biso   1.000  H
  H88      1.0000 0.10536  0.48233  0.29335  Biso   1.000  H
  H89      1.0000 0.00446  0.31485  0.18854  Biso   1.000  H
  H90      1.0000 0.99995  0.33722  0.13734  Biso   1.000  H
  C91      1.0000 0.69522  0.67916  0.49727  Biso   1.000  C
  C92      1.0000 0.75042  0.67147  0.48261  Biso   1.000  C
  H91      1.0000 0.67113  0.64816  0.52188  Biso   1.000  H
  H92      1.0000 0.66665  0.67057  0.47065  Biso   1.000  H
  C93      1.0000 0.71814  0.74537  0.51507  Biso   1.000  C
  C94      1.0000 0.79724  0.68827  0.52174  Biso   1.000  C
  H93      1.0000 0.77175  0.69908  0.45575  Biso   1.000  H
  H94      1.0000 0.73481  0.62725  0.47307  Biso   1.000  H
  H95      1.0000 0.73535  0.77529  0.48877  Biso   1.000  H
  H96      1.0000 0.68174  0.74768  0.52765  Biso   1.000  H
  C95      1.0000 0.76811  0.76595  0.55203  Biso   1.000  C
  C96      1.0000 0.82224  0.75618  0.53761  Biso   1.000  C
  H97      1.0000 0.83294  0.68308  0.51137  Biso   1.000  H
  H98      1.0000 0.77652  0.65925  0.54805  Biso   1.000  H
  N13      1.0000 0.79254  0.83286  0.56260  Biso   1.000  N
  H99      1.0000 0.74844  0.74075  0.58058  Biso   1.000  H
  N14      1.0000 0.86661  0.77274  0.57591  Biso   1.000  N
  H100     1.0000 0.84473  0.78496  0.51106  Biso   1.000  H
  C97      1.0000 0.79004  0.84806  0.60398  Biso   1.000  C
  C98      1.0000 0.92392  0.81167  0.56755  Biso   1.000  C
  C99      1.0000 0.81371  0.91346  0.61840  Biso   1.000  C
  H101     1.0000 0.77206  0.81569  0.62666  Biso   1.000  H
  C100     1.0000 0.97531  0.83484  0.60184  Biso   1.000  C
  H102     1.0000 0.93473  0.82715  0.53685  Biso   1.000  H
  C101     1.0000 0.83912  0.96396  0.58780  Biso   1.000  C
  C102     1.0000 0.80974  0.92578  0.66524  Biso   1.000  C
  C103     1.0000 0.96373  0.81847  0.64878  Biso   1.000  C
  C104     1.0000 0.03600  0.87514  0.58780  Biso   1.000  C
  H103     1.0000 0.84263  0.95617  0.55607  Biso   1.000  H
  C105     1.0000 0.85953  0.02468  0.60184  Biso   1.000  C
  C106     1.0000 0.83074  0.98699  0.68031  Biso   1.000  C
  H104     1.0000 0.79253  0.89194  0.68688  Biso   1.000  H
  H105     1.0000 0.92202  0.79006  0.65898  Biso   1.000  H
  C107     1.0000 0.01304  0.84376  0.68031  Biso   1.000  C
  H106     1.0000 0.04383  0.88647  0.55607  Biso   1.000  H
  C108     1.0000 0.08652  0.90025  0.61840  Biso   1.000  C
  C109     1.0000 0.85475  0.03629  0.64878  Biso   1.000  C
  C110     1.0000 0.88772  0.07607  0.56755  Biso   1.000  C
  C111     1.0000 0.82981  0.99756  0.72929  Biso   1.000  C
  C112     1.0000 0.00242  0.83225  0.72929  Biso   1.000  C
  C113     1.0000 0.07425  0.88397  0.66524  Biso   1.000  C
  C114     1.0000 0.15193  0.94197  0.60398  Biso   1.000  C
  H107     1.0000 0.86803  0.07796  0.65898  Biso   1.000  H
  N15      1.0000 0.90615  0.13336  0.57591  Biso   1.000  N
  H108     1.0000 0.89241  0.06526  0.53685  Biso   1.000  H
  C115     1.0000 0.83228  0.00245  0.77071  Biso   1.000  C
  C116     1.0000 0.99758  0.82984  0.77071  Biso   1.000  C
  H109     1.0000 0.10802  0.90058  0.68688  Biso   1.000  H
  N16      1.0000 0.16715  0.95966  0.56260  Biso   1.000  N
  H110     1.0000 0.18434  0.95636  0.62666  Biso   1.000  H
  C117     1.0000 0.93399  0.17777  0.53761  Biso   1.000  C
  C118     1.0000 0.84373  0.01302  0.81969  Biso   1.000  C
  C119     1.0000 0.98695  0.83074  0.81969  Biso   1.000  C
  C120     1.0000 0.23403  0.00217  0.55203  Biso   1.000  C
  H111     1.0000 0.94027  0.15526  0.51106  Biso   1.000  H
  C121     1.0000 0.89108  0.20278  0.52174  Biso   1.000  C
  C122     1.0000 0.99781  0.23185  0.55203  Biso   1.000  C
  C123     1.0000 0.81845  0.96372  0.85122  Biso   1.000  C
  C124     1.0000 0.88402  0.07423  0.83476  Biso   1.000  C
  C125     1.0000 0.92577  0.80974  0.83476  Biso   1.000  C
  C126     1.0000 0.03625  0.85471  0.85122  Biso   1.000  C
  C127     1.0000 0.25463  0.97278  0.51507  Biso   1.000  C
  C128     1.0000 0.24383  0.06607  0.53761  Biso   1.000  C
  H112     1.0000 0.25917  0.00764  0.58058  Biso   1.000  H
  H113     1.0000 0.85017  0.16705  0.51137  Biso   1.000  H
  H114     1.0000 0.88270  0.22345  0.54805  Biso   1.000  H
  C129     1.0000 0.92099  0.24959  0.48261  Biso   1.000  C
  H115     1.0000 0.99239  0.25157  0.58058  Biso   1.000  H
  N17      1.0000 0.04034  0.20745  0.56260  Biso   1.000  N
  C130     1.0000 0.02724  0.28187  0.51507  Biso   1.000  C
  H116     1.0000 0.79010  0.92205  0.84102  Biso   1.000  H
  C131     1.0000 0.83488  0.97533  0.89816  Biso   1.000  C
  C132     1.0000 0.90028  0.08655  0.88160  Biso   1.000  C
  H117     1.0000 0.90051  0.10802  0.81312  Biso   1.000  H
  C133     1.0000 0.91348  0.81375  0.88160  Biso   1.000  C
  H118     1.0000 0.89195  0.79251  0.81312  Biso   1.000  H
  H119     1.0000 0.07797  0.86802  0.84102  Biso   1.000  H
  C134     1.0000 0.02468  0.85952  0.89816  Biso   1.000  C
  H120     1.0000 0.22474  0.96009  0.48877  Biso   1.000  H
  H121     1.0000 0.25236  0.93409  0.52765  Biso   1.000  H
  C135     1.0000 0.32083  0.01604  0.49727  Biso   1.000  C
  N18      1.0000 0.22724  0.09386  0.57591  Biso   1.000  N
  H122     1.0000 0.21503  0.05979  0.51106  Biso   1.000  H
  C136     1.0000 0.31175  0.10896  0.52174  Biso   1.000  C
  H123     1.0000 0.92732  0.22826  0.45575  Biso   1.000  H
  H124     1.0000 0.89248  0.26516  0.47307  Biso   1.000  H
  C137     1.0000 0.98396  0.30476  0.49727  Biso   1.000  C
  C138     1.0000 0.05798  0.20995  0.60398  Biso   1.000  C
  H125     1.0000 0.03988  0.26464  0.48877  Biso   1.000  H
  H126     1.0000 0.06591  0.31825  0.52765  Biso   1.000  H
  C139     1.0000 0.81168  0.92394  0.93245  Biso   1.000  C
  C140     1.0000 0.87519  0.03605  0.91220  Biso   1.000  C
  C141     1.0000 0.94201  0.15195  0.89602  Biso   1.000  C
  C142     1.0000 0.96397  0.83914  0.91220  Biso   1.000  C
  C143     1.0000 0.84807  0.79001  0.89602  Biso   1.000  C
  C144     1.0000 0.07606  0.88774  0.93245  Biso   1.000  C
  H127     1.0000 0.32944  0.99605  0.47065  Biso   1.000  H
  C145     1.0000 0.32853  0.07895  0.48261  Biso   1.000  C
  H128     1.0000 0.35180  0.02298  0.52188  Biso   1.000  H
  C146     1.0000 0.18838  0.11227  0.56755  Biso   1.000  C
  H129     1.0000 0.31688  0.14988  0.51137  Biso   1.000  H
  H130     1.0000 0.34071  0.11727  0.54805  Biso   1.000  H
  H131     1.0000 0.97705  0.32887  0.52188  Biso   1.000  H
  H132     1.0000 0.00390  0.33335  0.47065  Biso   1.000  H
  C147     1.0000 0.09975  0.18626  0.61840  Biso   1.000  C
  H133     1.0000 0.04365  0.22798  0.62666  Biso   1.000  H
  N19      1.0000 0.77278  0.86665  0.92409  Biso   1.000  N
  H134     1.0000 0.82718  0.93475  0.96315  Biso   1.000  H
  H135     1.0000 0.88652  0.04384  0.94393  Biso   1.000  H
  N20      1.0000 0.95970  0.16715  0.93740  Biso   1.000  N
  H136     1.0000 0.95636  0.18433  0.87334  Biso   1.000  H
  H137     1.0000 0.95616  0.84263  0.94393  Biso   1.000  H
  N21      1.0000 0.83285  0.79251  0.93740  Biso   1.000  N
  H138     1.0000 0.81566  0.77203  0.87334  Biso   1.000  H
  N22      1.0000 0.13334  0.90610  0.92409  Biso   1.000  N
  H139     1.0000 0.06528  0.89242  0.96315  Biso   1.000  H
  H140     1.0000 0.30092  0.07267  0.45575  Biso   1.000  H
  H141     1.0000 0.37267  0.10755  0.47307  Biso   1.000  H
  C148     1.0000 0.16510  0.14049  0.60184  Biso   1.000  C
  H142     1.0000 0.17286  0.10755  0.53685  Biso   1.000  H
  C149     1.0000 0.12478  0.16087  0.58780  Biso   1.000  C
  C150     1.0000 0.11598  0.19027  0.66524  Biso   1.000  C
  C151     1.0000 0.75617  0.82224  0.96239  Biso   1.000  C
  C152     1.0000 0.00221  0.23402  0.94797  Biso   1.000  C
  C153     1.0000 0.76597  0.76812  0.94797  Biso   1.000  C
  C154     1.0000 0.17779  0.93394  0.96239  Biso   1.000  C
  C155     1.0000 0.18150  0.14525  0.64878  Biso   1.000  C
  H143     1.0000 0.11359  0.15738  0.55607  Biso   1.000  H
  C156     1.0000 0.15620  0.16927  0.68031  Biso   1.000  C
  H144     1.0000 0.09947  0.20745  0.68688  Biso   1.000  H
  H145     1.0000 0.78496  0.84475  0.98894  Biso   1.000  H
  C157     1.0000 0.68825  0.79723  0.97826  Biso   1.000  C
  C158     1.0000 0.97276  0.25464  0.98493  Biso   1.000  C
  C159     1.0000 0.06601  0.24383  0.96239  Biso   1.000  C
  H146     1.0000 0.00766  0.25922  0.91942  Biso   1.000  H
  C160     1.0000 0.74536  0.71814  0.98493  Biso   1.000  C
  H147     1.0000 0.74076  0.74844  0.91942  Biso   1.000  H
  H148     1.0000 0.15526  0.94022  0.98894  Biso   1.000  H
  C161     1.0000 0.20277  0.89105  0.97826  Biso   1.000  C
  C162     1.0000 0.23189  0.99784  0.94797  Biso   1.000  C
  H149     1.0000 0.20995  0.13194  0.65898  Biso   1.000  H
  C163     1.0000 0.16776  0.17017  0.72929  Biso   1.000  C
  H150     1.0000 0.68306  0.83296  0.98863  Biso   1.000  H
  H151     1.0000 0.65925  0.77652  0.95195  Biso   1.000  H
  C164     1.0000 0.67146  0.75042  0.01739  Biso   1.000  C
  H152     1.0000 0.93408  0.25233  0.97235  Biso   1.000  H
  H153     1.0000 0.96005  0.22472  0.01123  Biso   1.000  H
  C165     1.0000 0.01608  0.32085  0.00273  Biso   1.000  C
  N23      1.0000 0.09391  0.22722  0.92409  Biso   1.000  N
  H154     1.0000 0.05975  0.21505  0.98894  Biso   1.000  H
  C166     1.0000 0.10895  0.31174  0.97826  Biso   1.000  C
  H155     1.0000 0.74766  0.68171  0.97235  Biso   1.000  H
  C167     1.0000 0.67919  0.69526  0.00273  Biso   1.000  C
  H156     1.0000 0.77528  0.73532  0.01123  Biso   1.000  H
  H157     1.0000 0.16707  0.85013  0.98863  Biso   1.000  H
  H158     1.0000 0.22346  0.88274  0.95195  Biso   1.000  H
  C168     1.0000 0.24955  0.92101  0.01739  Biso   1.000  C
  H159     1.0000 0.25156  0.99232  0.91942  Biso   1.000  H
  N24      1.0000 0.20747  0.04035  0.93740  Biso   1.000  N
  C169     1.0000 0.28191  0.02723  0.98493  Biso   1.000  C
  C170     1.0000 0.17021  0.16771  0.77071  Biso   1.000  C
  H160     1.0000 0.69909  0.77175  0.04425  Biso   1.000  H
  H161     1.0000 0.62726  0.73485  0.02693  Biso   1.000  H
  H162     1.0000 0.99601  0.32944  0.02935  Biso   1.000  H
  H163     1.0000 0.02296  0.35185  0.97812  Biso   1.000  H
  C171     1.0000 0.07898  0.32854  0.01739  Biso   1.000  C
  C172     1.0000 0.11231  0.18834  0.93245  Biso   1.000  C
  H164     1.0000 0.14988  0.31693  0.98863  Biso   1.000  H
  H165     1.0000 0.11723  0.34071  0.95195  Biso   1.000  H
  H166     1.0000 0.64817  0.67114  0.97812  Biso   1.000  H
  H167     1.0000 0.67055  0.66661  0.02935  Biso   1.000  H
  H168     1.0000 0.22827  0.92734  0.04425  Biso   1.000  H
  H169     1.0000 0.26516  0.89242  0.02693  Biso   1.000  H
  C173     1.0000 0.30474  0.98392  0.00273  Biso   1.000  C
  C174     1.0000 0.21003  0.05804  0.89602  Biso   1.000  C
  H170     1.0000 0.31826  0.06592  0.97235  Biso   1.000  H
  H171     1.0000 0.26472  0.03992  0.01123  Biso   1.000  H
  C175     1.0000 0.16922  0.15625  0.81969  Biso   1.000  C
  H172     1.0000 0.07269  0.30093  0.04425  Biso   1.000  H
  H173     1.0000 0.10754  0.37276  0.02693  Biso   1.000  H
  C176     1.0000 0.14051  0.16512  0.89816  Biso   1.000  C
  H174     1.0000 0.10758  0.17281  0.96315  Biso   1.000  H
  H175     1.0000 0.32888  0.97703  0.97812  Biso   1.000  H
  H176     1.0000 0.33332  0.00392  0.02935  Biso   1.000  H
  C177     1.0000 0.18627  0.09971  0.88160  Biso   1.000  C
  H177     1.0000 0.22800  0.04365  0.87334  Biso   1.000  H
  C178     1.0000 0.14529  0.18154  0.85122  Biso   1.000  C
  C179     1.0000 0.19023  0.11604  0.83476  Biso   1.000  C
  C180     1.0000 0.16086  0.12482  0.91220  Biso   1.000  C
  H178     1.0000 0.13199  0.20995  0.84102  Biso   1.000  H
  H179     1.0000 0.20747  0.09943  0.81312  Biso   1.000  H
  H180     1.0000 0.15739  0.11354  0.94393  Biso   1.000  H
  C181     1.0000 0.46391  0.44232  0.35509  Biso   1.000  C
  C182     1.0000 0.41711  0.41230  0.31592  Biso   1.000  C
  C183     1.0000 0.48889  0.39942  0.37092  Biso   1.000  C
  H181     1.0000 0.49959  0.48318  0.34468  Biso   1.000  H
  H182     1.0000 0.44322  0.45062  0.38140  Biso   1.000  H
  C184     1.0000 0.36192  0.34940  0.33061  Biso   1.000  C
  H183     1.0000 0.43839  0.40598  0.28910  Biso   1.000  H
  H184     1.0000 0.40150  0.44090  0.30642  Biso   1.000  H
  C185     1.0000 0.43479  0.33552  0.38534  Biso   1.000  C
  N25      1.0000 0.53332  0.42721  0.40926  Biso   1.000  N
  H185     1.0000 0.51140  0.39310  0.34441  Biso   1.000  H
  H186     1.0000 0.33777  0.35629  0.35519  Biso   1.000  H
  H187     1.0000 0.33327  0.32939  0.30400  Biso   1.000  H
  C186     1.0000 0.38480  0.30608  0.34842  Biso   1.000  C
  N26      1.0000 0.45918  0.29300  0.39595  Biso   1.000  N
  H188     1.0000 0.41509  0.34100  0.41389  Biso   1.000  H
  C187     1.0000 0.59062  0.44562  0.40089  Biso   1.000  C
  H189     1.0000 0.40199  0.29338  0.32211  Biso   1.000  H
  H190     1.0000 0.34837  0.26738  0.36100  Biso   1.000  H
  C188     1.0000 0.45671  0.27531  0.43729  Biso   1.000  C
  C189     1.0000 0.64198  0.47379  0.43515  Biso   1.000  C
  H191     1.0000 0.60138  0.44090  0.37019  Biso   1.000  H
  C190     1.0000 0.48040  0.23359  0.45174  Biso   1.000  C
  H192     1.0000 0.43869  0.28970  0.46000  Biso   1.000  H
  C191     1.0000 0.63041  0.47860  0.48209  Biso   1.000  C
  C192     1.0000 0.70269  0.49418  0.42111  Biso   1.000  C
  C193     1.0000 0.50581  0.20849  0.42111  Biso   1.000  C
  C194     1.0000 0.47639  0.21731  0.49858  Biso   1.000  C
  C195     1.0000 0.67971  0.50258  0.51365  Biso   1.000  C
  H193     1.0000 0.58869  0.46530  0.49229  Biso   1.000  H
  H194     1.0000 0.71050  0.49069  0.38942  Biso   1.000  H
  C196     1.0000 0.75321  0.51961  0.45174  Biso   1.000  C
  C197     1.0000 0.52620  0.16819  0.43515  Biso   1.000  C
  H195     1.0000 0.50931  0.21981  0.38942  Biso   1.000  H
  C198     1.0000 0.49740  0.17711  0.51365  Biso   1.000  C
  H196     1.0000 0.45923  0.23392  0.52019  Biso   1.000  H
  C199     1.0000 0.66910  0.50352  0.56264  Biso   1.000  C
  C200     1.0000 0.74088  0.52358  0.49858  Biso   1.000  C
  C201     1.0000 0.81859  0.54330  0.43729  Biso   1.000  C
  C202     1.0000 0.52141  0.15181  0.48209  Biso   1.000  C
  C203     1.0000 0.55442  0.14502  0.40089  Biso   1.000  C
  C204     1.0000 0.49650  0.16559  0.56264  Biso   1.000  C
  C205     1.0000 0.66424  0.50107  0.60402  Biso   1.000  C
  H197     1.0000 0.77471  0.54080  0.52019  Biso   1.000  H
  N27      1.0000 0.83381  0.54080  0.39595  Biso   1.000  N
  H198     1.0000 0.85100  0.56128  0.46000  Biso   1.000  H
  H199     1.0000 0.53471  0.12340  0.49229  Biso   1.000  H
  N28      1.0000 0.57280  0.10608  0.40926  Biso   1.000  N
  H200     1.0000 0.55910  0.16049  0.37019  Biso   1.000  H
  C206     1.0000 0.49894  0.16318  0.60402  Biso   1.000  C
  C207     1.0000 0.65362  0.48955  0.65300  Biso   1.000  C
  C208     1.0000 0.90069  0.56520  0.38534  Biso   1.000  C
  C209     1.0000 0.60061  0.08952  0.37092  Biso   1.000  C
  C210     1.0000 0.51046  0.16408  0.65300  Biso   1.000  C
  C211     1.0000 0.70293  0.51485  0.68456  Biso   1.000  C
  C212     1.0000 0.59240  0.44935  0.66807  Biso   1.000  C
  C213     1.0000 0.91051  0.51112  0.37092  Biso   1.000  C
  C214     1.0000 0.92133  0.61522  0.34842  Biso   1.000  C
  H201     1.0000 0.92589  0.58488  0.41389  Biso   1.000  H
  H202     1.0000 0.60691  0.11831  0.34441  Biso   1.000  H
  C215     1.0000 0.55770  0.02161  0.35509  Biso   1.000  C
  C216     1.0000 0.66450  0.09929  0.38534  Biso   1.000  C
  C217     1.0000 0.48513  0.18805  0.68456  Biso   1.000  C
  C218     1.0000 0.55064  0.14308  0.66807  Biso   1.000  C
  H203     1.0000 0.74463  0.54326  0.67436  Biso   1.000  H
  C219     1.0000 0.69135  0.49847  0.73151  Biso   1.000  C
  C220     1.0000 0.58014  0.43307  0.71491  Biso   1.000  C
  H204     1.0000 0.55866  0.43278  0.64647  Biso   1.000  H
  N29      1.0000 0.89391  0.46671  0.40926  Biso   1.000  N
  H205     1.0000 0.88172  0.48861  0.34441  Biso   1.000  H
  C221     1.0000 0.97841  0.53608  0.35509  Biso   1.000  C
  C222     1.0000 0.98749  0.63811  0.33061  Biso   1.000  C
  H206     1.0000 0.89138  0.59800  0.32211  Biso   1.000  H
  H207     1.0000 0.91900  0.65160  0.36100  Biso   1.000  H
  H208     1.0000 0.51681  0.01642  0.34468  Biso   1.000  H
  C223     1.0000 0.58772  0.00481  0.31592  Biso   1.000  C
  H209     1.0000 0.54939  0.99260  0.38140  Biso   1.000  H
  N30      1.0000 0.70699  0.16620  0.39595  Biso   1.000  N
  C224     1.0000 0.69390  0.07871  0.34842  Biso   1.000  C
  H210     1.0000 0.65897  0.07409  0.41389  Biso   1.000  H
  H211     1.0000 0.45672  0.20136  0.67436  Biso   1.000  H
  C225     1.0000 0.50152  0.19287  0.73151  Biso   1.000  C
  C226     1.0000 0.56692  0.14705  0.71491  Biso   1.000  C
  H212     1.0000 0.56724  0.12586  0.64647  Biso   1.000  H
  C227     1.0000 0.63065  0.45817  0.74554  Biso   1.000  C
  C228     1.0000 0.74276  0.52169  0.76576  Biso   1.000  C
  C229     1.0000 0.51473  0.39135  0.72936  Biso   1.000  C
  C230     1.0000 0.85500  0.40942  0.40089  Biso   1.000  C
  H213     1.0000 0.98362  0.50041  0.34468  Biso   1.000  H
  C231     1.0000 0.99520  0.58290  0.31592  Biso   1.000  C
  H214     1.0000 0.00740  0.55680  0.38140  Biso   1.000  H
  H215     1.0000 0.99611  0.66671  0.30400  Biso   1.000  H
  H216     1.0000 0.01851  0.66222  0.35519  Biso   1.000  H
  H217     1.0000 0.59400  0.03242  0.28910  Biso   1.000  H
  C232     1.0000 0.65062  0.01251  0.33061  Biso   1.000  C
  H218     1.0000 0.55906  0.96061  0.30642  Biso   1.000  H
  C233     1.0000 0.72469  0.18140  0.43729  Biso   1.000  C
  H219     1.0000 0.70659  0.10858  0.32211  Biso   1.000  H
  H220     1.0000 0.73259  0.08098  0.36100  Biso   1.000  H
  C234     1.0000 0.54184  0.17248  0.74554  Biso   1.000  C
  C235     1.0000 0.47836  0.22109  0.76576  Biso   1.000  C
  C236     1.0000 0.60861  0.12336  0.72936  Biso   1.000  C
  H221     1.0000 0.62283  0.44685  0.77727  Biso   1.000  H
  N31      1.0000 0.80005  0.56057  0.75743  Biso   1.000  N
  H222     1.0000 0.73193  0.50616  0.79646  Biso   1.000  H
  N32      1.0000 0.49951  0.37365  0.77074  Biso   1.000  N
  H223     1.0000 0.48232  0.37696  0.70665  Biso   1.000  H
  C237     1.0000 0.83178  0.35799  0.43515  Biso   1.000  C
  H224     1.0000 0.83951  0.39862  0.37019  Biso   1.000  H
  H225     1.0000 0.96759  0.56161  0.28910  Biso   1.000  H
  H226     1.0000 0.03942  0.59852  0.30642  Biso   1.000  H
  H227     1.0000 0.67060  0.00392  0.30400  Biso   1.000  H
  H228     1.0000 0.64373  0.98151  0.35519  Biso   1.000  H
  C238     1.0000 0.76642  0.24681  0.45174  Biso   1.000  C
  H229     1.0000 0.71027  0.14898  0.46000  Biso   1.000  H
  H230     1.0000 0.55315  0.17597  0.77727  Biso   1.000  H
  N33      1.0000 0.43943  0.23944  0.75743  Biso   1.000  N
  H231     1.0000 0.49381  0.22576  0.79646  Biso   1.000  H
  N34      1.0000 0.62634  0.12586  0.77074  Biso   1.000  N
  H232     1.0000 0.62304  0.10538  0.70665  Biso   1.000  H
  C239     1.0000 0.84444  0.57719  0.79573  Biso   1.000  C
  C240     1.0000 0.43262  0.33118  0.78132  Biso   1.000  C
  C241     1.0000 0.79150  0.29730  0.42111  Biso   1.000  C
  C242     1.0000 0.84821  0.36959  0.48209  Biso   1.000  C
  C243     1.0000 0.78271  0.25912  0.49858  Biso   1.000  C
  C244     1.0000 0.42283  0.26729  0.79573  Biso   1.000  C
  C245     1.0000 0.66882  0.10146  0.78132  Biso   1.000  C
  H233     1.0000 0.82193  0.54835  0.82228  Biso   1.000  H
  C246     1.0000 0.86942  0.64504  0.81157  Biso   1.000  C
  C247     1.0000 0.89854  0.56737  0.78132  Biso   1.000  C
  C248     1.0000 0.41205  0.36058  0.81827  Biso   1.000  C
  H234     1.0000 0.40743  0.32566  0.75277  Biso   1.000  H
  H235     1.0000 0.78021  0.28951  0.38942  Biso   1.000  H
  C249     1.0000 0.82290  0.32028  0.51365  Biso   1.000  C
  H236     1.0000 0.87659  0.41131  0.49229  Biso   1.000  H
  H237     1.0000 0.76608  0.22529  0.52019  Biso   1.000  H
  H238     1.0000 0.45163  0.27356  0.82228  Biso   1.000  H
  C250     1.0000 0.35495  0.22439  0.81157  Biso   1.000  C
  C251     1.0000 0.73274  0.15559  0.79573  Biso   1.000  C
  C252     1.0000 0.63946  0.05148  0.81827  Biso   1.000  C
  H239     1.0000 0.67435  0.08178  0.75277  Biso   1.000  H
  H240     1.0000 0.83374  0.65028  0.82197  Biso   1.000  H
  H241     1.0000 0.89014  0.67407  0.78526  Biso   1.000  H
  C253     1.0000 0.91623  0.66184  0.85073  Biso   1.000  C
  N35      1.0000 0.87412  0.50045  0.77074  Biso   1.000  N
  C254     1.0000 0.94851  0.58794  0.81827  Biso   1.000  C
  H242     1.0000 0.91821  0.59257  0.75277  Biso   1.000  H
  C255     1.0000 0.34585  0.31726  0.83608  Biso   1.000  C
  H243     1.0000 0.44194  0.37328  0.84458  Biso   1.000  H
  H244     1.0000 0.41432  0.39928  0.80566  Biso   1.000  H
  C256     1.0000 0.83442  0.33090  0.56264  Biso   1.000  C
  H245     1.0000 0.34974  0.18348  0.82197  Biso   1.000  H
  H246     1.0000 0.32595  0.21608  0.78526  Biso   1.000  H
  C257     1.0000 0.33814  0.25436  0.85073  Biso   1.000  C
  N36      1.0000 0.76052  0.19995  0.75743  Biso   1.000  N
  H247     1.0000 0.72644  0.17805  0.82228  Biso   1.000  H
  C258     1.0000 0.77566  0.13058  0.81157  Biso   1.000  C
  C259     1.0000 0.68271  0.02855  0.83608  Biso   1.000  C
  H248     1.0000 0.62671  0.06866  0.84458  Biso   1.000  H
  H249     1.0000 0.60073  0.01505  0.80566  Biso   1.000  H
  H250     1.0000 0.89494  0.63429  0.87756  Biso   1.000  H
  H251     1.0000 0.93184  0.70606  0.86027  Biso   1.000  H
  C260     1.0000 0.97144  0.65415  0.83608  Biso   1.000  C
  C261     1.0000 0.87662  0.48526  0.72936  Biso   1.000  C
  H252     1.0000 0.93133  0.55807  0.84458  Biso   1.000  H
  H253     1.0000 0.98494  0.58568  0.80566  Biso   1.000  H
  H254     1.0000 0.31482  0.31037  0.81146  Biso   1.000  H
  H255     1.0000 0.33722  0.33727  0.86266  Biso   1.000  H
  C262     1.0000 0.83685  0.33576  0.60402  Biso   1.000  C
  H256     1.0000 0.36574  0.26068  0.87756  Biso   1.000  H
  H257     1.0000 0.29392  0.22576  0.86027  Biso   1.000  H
  C263     1.0000 0.77893  0.25728  0.76576  Biso   1.000  C
  H258     1.0000 0.81654  0.16625  0.82197  Biso   1.000  H
  H259     1.0000 0.78393  0.10986  0.78526  Biso   1.000  H
  C264     1.0000 0.74563  0.08376  0.85073  Biso   1.000  C
  H260     1.0000 0.68964  0.00448  0.81146  Biso   1.000  H
  H261     1.0000 0.66268  0.99996  0.86266  Biso   1.000  H
  H262     1.0000 0.99553  0.68516  0.81146  Biso   1.000  H
  H263     1.0000 0.00004  0.66279  0.86266  Biso   1.000  H
  C265     1.0000 0.85294  0.41985  0.71491  Biso   1.000  C
  H264     1.0000 0.89462  0.51768  0.70665  Biso   1.000  H
  C266     1.0000 0.83595  0.34638  0.65300  Biso   1.000  C
  C267     1.0000 0.80712  0.30867  0.73151  Biso   1.000  C
  H265     1.0000 0.77424  0.26809  0.79646  Biso   1.000  H
  H266     1.0000 0.73931  0.10505  0.87756  Biso   1.000  H
  H267     1.0000 0.77426  0.06819  0.86027  Biso   1.000  H
  C268     1.0000 0.85694  0.40758  0.66807  Biso   1.000  C
  C269     1.0000 0.82753  0.36936  0.74554  Biso   1.000  C
  C270     1.0000 0.81194  0.29706  0.68456  Biso   1.000  C
  H268     1.0000 0.87412  0.44137  0.64647  Biso   1.000  H
  H269     1.0000 0.82403  0.37715  0.77727  Biso   1.000  H
  H270     1.0000 0.79860  0.25535  0.67436  Biso   1.000  H
  C271     1.0000 0.68271  0.65415  0.33608  Biso   1.000  C
  C272     1.0000 0.63943  0.58794  0.31827  Biso   1.000  C
  C273     1.0000 0.74561  0.66184  0.35073  Biso   1.000  C
  H271     1.0000 0.68963  0.68516  0.31146  Biso   1.000  H
  H272     1.0000 0.66275  0.66279  0.36266  Biso   1.000  H
  C274     1.0000 0.66883  0.56737  0.28132  Biso   1.000  C
  H273     1.0000 0.62674  0.55807  0.34458  Biso   1.000  H
  H274     1.0000 0.60074  0.58568  0.30566  Biso   1.000  H
  C275     1.0000 0.77563  0.64504  0.31157  Biso   1.000  C
  H275     1.0000 0.73935  0.63429  0.37756  Biso   1.000  H
  H276     1.0000 0.77422  0.70606  0.36027  Biso   1.000  H
  N37      1.0000 0.62634  0.50045  0.27074  Biso   1.000  N
  C276     1.0000 0.73275  0.57719  0.29573  Biso   1.000  C
  H277     1.0000 0.67435  0.59257  0.25277  Biso   1.000  H
  H278     1.0000 0.81654  0.65028  0.32197  Biso   1.000  H
  H279     1.0000 0.78393  0.67407  0.28526  Biso   1.000  H
  C277     1.0000 0.60864  0.48526  0.22936  Biso   1.000  C
  N38      1.0000 0.76053  0.56057  0.25743  Biso   1.000  N
  H280     1.0000 0.72642  0.54835  0.32228  Biso   1.000  H
  C278     1.0000 0.56691  0.41985  0.21491  Biso   1.000  C
  H281     1.0000 0.62305  0.51768  0.20665  Biso   1.000  H
  C279     1.0000 0.77893  0.52169  0.26576  Biso   1.000  C
  C280     1.0000 0.54183  0.36936  0.24554  Biso   1.000  C
  C281     1.0000 0.55064  0.40758  0.16807  Biso   1.000  C
  C282     1.0000 0.80713  0.49847  0.23151  Biso   1.000  C
  H282     1.0000 0.77423  0.50616  0.29646  Biso   1.000  H
  C283     1.0000 0.50155  0.30867  0.23151  Biso   1.000  C
  H283     1.0000 0.55312  0.37715  0.27727  Biso   1.000  H
  C284     1.0000 0.51043  0.34638  0.15300  Biso   1.000  C
  H284     1.0000 0.56725  0.44137  0.14647  Biso   1.000  H
  C285     1.0000 0.81192  0.51485  0.18456  Biso   1.000  C
  C286     1.0000 0.82752  0.45817  0.24554  Biso   1.000  C
  C287     1.0000 0.47835  0.25728  0.26576  Biso   1.000  C
  C288     1.0000 0.48512  0.29706  0.18456  Biso   1.000  C
  C289     1.0000 0.49891  0.33576  0.10402  Biso   1.000  C
  C290     1.0000 0.83593  0.48955  0.15300  Biso   1.000  C
  H285     1.0000 0.79862  0.54326  0.17436  Biso   1.000  H
  C291     1.0000 0.85293  0.43307  0.21491  Biso   1.000  C
  H286     1.0000 0.82402  0.44685  0.27727  Biso   1.000  H
  N39      1.0000 0.43942  0.19995  0.25743  Biso   1.000  N
  H287     1.0000 0.49385  0.26809  0.29646  Biso   1.000  H
  H288     1.0000 0.45674  0.25535  0.17436  Biso   1.000  H
  C292     1.0000 0.49648  0.33090  0.06264  Biso   1.000  C
  C293     1.0000 0.85694  0.44935  0.16807  Biso   1.000  C
  C294     1.0000 0.83683  0.50107  0.10402  Biso   1.000  C
  C295     1.0000 0.87662  0.39135  0.22936  Biso   1.000  C
  C296     1.0000 0.42284  0.15559  0.29573  Biso   1.000  C
  C297     1.0000 0.49738  0.32028  0.01365  Biso   1.000  C
  H289     1.0000 0.87412  0.43278  0.14647  Biso   1.000  H
  C298     1.0000 0.83442  0.50352  0.06264  Biso   1.000  C
  N40      1.0000 0.87415  0.37365  0.27074  Biso   1.000  N
  H290     1.0000 0.89464  0.37696  0.20665  Biso   1.000  H
  C299     1.0000 0.35492  0.13058  0.31157  Biso   1.000  C
  H291     1.0000 0.45161  0.17805  0.32228  Biso   1.000  H
  C300     1.0000 0.43264  0.10146  0.28132  Biso   1.000  C
  C301     1.0000 0.52139  0.36959  0.98209  Biso   1.000  C
  C302     1.0000 0.47641  0.25912  0.99858  Biso   1.000  C
  C303     1.0000 0.82287  0.50258  0.01365  Biso   1.000  C
  C304     1.0000 0.89856  0.33118  0.28132  Biso   1.000  C
  H292     1.0000 0.34971  0.16625  0.32197  Biso   1.000  H
  H293     1.0000 0.32593  0.10986  0.28526  Biso   1.000  H
  C305     1.0000 0.33813  0.08376  0.35073  Biso   1.000  C
  N41      1.0000 0.49952  0.12586  0.27074  Biso   1.000  N
  C306     1.0000 0.41203  0.05148  0.31827  Biso   1.000  C
  H294     1.0000 0.40744  0.08178  0.25277  Biso   1.000  H
  H295     1.0000 0.53472  0.41131  0.99229  Biso   1.000  H
  C307     1.0000 0.52621  0.35799  0.93515  Biso   1.000  C
  H296     1.0000 0.45920  0.22529  0.02019  Biso   1.000  H
  C308     1.0000 0.48039  0.24681  0.95174  Biso   1.000  C
  C309     1.0000 0.78269  0.52358  0.99858  Biso   1.000  C
  C310     1.0000 0.84820  0.47860  0.98209  Biso   1.000  C
  C311     1.0000 0.84446  0.26729  0.29573  Biso   1.000  C
  C312     1.0000 0.94853  0.36058  0.31827  Biso   1.000  C
  H297     1.0000 0.91824  0.32566  0.25277  Biso   1.000  H
  H298     1.0000 0.36574  0.10505  0.37756  Biso   1.000  H
  H299     1.0000 0.29393  0.06819  0.36027  Biso   1.000  H
  C313     1.0000 0.34584  0.02855  0.33608  Biso   1.000  C
  C314     1.0000 0.51474  0.12336  0.22936  Biso   1.000  C
  H300     1.0000 0.44195  0.06866  0.34458  Biso   1.000  H
  H301     1.0000 0.41433  0.01505  0.30566  Biso   1.000  H
  C315     1.0000 0.50580  0.29730  0.92111  Biso   1.000  C
  C316     1.0000 0.55442  0.40942  0.90089  Biso   1.000  C
  C317     1.0000 0.45671  0.18140  0.93729  Biso   1.000  C
  C318     1.0000 0.76641  0.51961  0.95174  Biso   1.000  C
  H302     1.0000 0.76609  0.54080  0.02019  Biso   1.000  H
  C319     1.0000 0.83181  0.47379  0.93515  Biso   1.000  C
  H303     1.0000 0.87661  0.46530  0.99229  Biso   1.000  H
  N42      1.0000 0.80001  0.23944  0.25743  Biso   1.000  N
  H304     1.0000 0.82193  0.27356  0.32228  Biso   1.000  H
  C320     1.0000 0.86944  0.22439  0.31157  Biso   1.000  C
  C321     1.0000 0.97141  0.31726  0.33608  Biso   1.000  C
  H305     1.0000 0.93134  0.37328  0.34458  Biso   1.000  H
  H306     1.0000 0.98496  0.39928  0.30566  Biso   1.000  H
  H307     1.0000 0.31484  0.00448  0.31146  Biso   1.000  H
  H308     1.0000 0.33725  0.99996  0.36266  Biso   1.000  H
  C322     1.0000 0.58012  0.14705  0.21491  Biso   1.000  C
  H309     1.0000 0.48233  0.10538  0.20665  Biso   1.000  H
  H310     1.0000 0.50930  0.28951  0.88942  Biso   1.000  H
  N43      1.0000 0.57281  0.46671  0.90926  Biso   1.000  N
  H311     1.0000 0.55911  0.39862  0.87019  Biso   1.000  H
  N44      1.0000 0.45921  0.16620  0.89595  Biso   1.000  N
  H312     1.0000 0.43871  0.14898  0.96000  Biso   1.000  H
  C323     1.0000 0.72471  0.54330  0.93729  Biso   1.000  C
  C324     1.0000 0.79149  0.49418  0.92111  Biso   1.000  C
  C325     1.0000 0.85500  0.44562  0.90089  Biso   1.000  C
  C326     1.0000 0.74273  0.22109  0.26576  Biso   1.000  C
  H313     1.0000 0.83374  0.18348  0.32197  Biso   1.000  H
  H314     1.0000 0.89013  0.21608  0.28526  Biso   1.000  H
  C327     1.0000 0.91622  0.25436  0.35073  Biso   1.000  C
  H315     1.0000 0.99555  0.31037  0.31146  Biso   1.000  H
  H316     1.0000 0.00005  0.33727  0.36266  Biso   1.000  H
  C328     1.0000 0.63064  0.17248  0.24554  Biso   1.000  C
  C329     1.0000 0.59244  0.14308  0.16807  Biso   1.000  C
  C330     1.0000 0.60061  0.51112  0.87092  Biso   1.000  C
  C331     1.0000 0.43478  0.09929  0.88534  Biso   1.000  C
  N45      1.0000 0.70699  0.54080  0.89595  Biso   1.000  N
  H317     1.0000 0.71029  0.56128  0.96000  Biso   1.000  H
  H318     1.0000 0.78018  0.49069  0.88942  Biso   1.000  H
  N46      1.0000 0.89390  0.42721  0.90926  Biso   1.000  N
  H319     1.0000 0.83952  0.44090  0.87019  Biso   1.000  H
  C332     1.0000 0.69135  0.19287  0.23151  Biso   1.000  C
  H320     1.0000 0.73195  0.22576  0.29646  Biso   1.000  H
  H321     1.0000 0.89494  0.26068  0.37756  Biso   1.000  H
  H322     1.0000 0.93183  0.22576  0.36027  Biso   1.000  H
  H323     1.0000 0.62283  0.17597  0.27727  Biso   1.000  H
  C333     1.0000 0.65362  0.16408  0.15300  Biso   1.000  C
  H324     1.0000 0.55862  0.12586  0.14647  Biso   1.000  H
  H325     1.0000 0.60689  0.48861  0.84441  Biso   1.000  H
  C334     1.0000 0.55767  0.53608  0.85509  Biso   1.000  C
  C335     1.0000 0.66451  0.56520  0.88534  Biso   1.000  C
  C336     1.0000 0.48891  0.08952  0.87092  Biso   1.000  C
  C337     1.0000 0.38481  0.07871  0.84842  Biso   1.000  C
  H326     1.0000 0.41511  0.07409  0.91389  Biso   1.000  H
  C338     1.0000 0.91053  0.39942  0.87092  Biso   1.000  C
  C339     1.0000 0.70292  0.18805  0.18456  Biso   1.000  C
  C340     1.0000 0.66425  0.16318  0.10402  Biso   1.000  C
  H327     1.0000 0.51679  0.50041  0.84468  Biso   1.000  H
  H328     1.0000 0.54940  0.55680  0.88140  Biso   1.000  H
  C341     1.0000 0.58770  0.58290  0.81592  Biso   1.000  C
  C342     1.0000 0.69389  0.61522  0.84842  Biso   1.000  C
  H329     1.0000 0.65898  0.58488  0.91389  Biso   1.000  H
  N47      1.0000 0.53328  0.10608  0.90926  Biso   1.000  N
  H330     1.0000 0.51140  0.11831  0.84441  Biso   1.000  H
  C343     1.0000 0.46391  0.02161  0.85509  Biso   1.000  C
  C344     1.0000 0.36189  0.01251  0.83061  Biso   1.000  C
  H331     1.0000 0.40200  0.10858  0.82211  Biso   1.000  H
  H332     1.0000 0.34839  0.08098  0.86100  Biso   1.000  H
  C345     1.0000 0.90073  0.33552  0.88534  Biso   1.000  C
  H333     1.0000 0.88170  0.39310  0.84441  Biso   1.000  H
  C346     1.0000 0.97840  0.44232  0.85509  Biso   1.000  C
  H334     1.0000 0.74464  0.20136  0.17436  Biso   1.000  H
  C347     1.0000 0.66909  0.16559  0.06264  Biso   1.000  C
  H335     1.0000 0.59402  0.56161  0.78910  Biso   1.000  H
  H336     1.0000 0.55910  0.59852  0.80642  Biso   1.000  H
  C348     1.0000 0.65062  0.63811  0.83061  Biso   1.000  C
  H337     1.0000 0.70662  0.59800  0.82211  Biso   1.000  H
  H338     1.0000 0.73260  0.65160  0.86100  Biso   1.000  H
  C349     1.0000 0.59059  0.14502  0.90089  Biso   1.000  C
  H339     1.0000 0.44321  0.99260  0.88140  Biso   1.000  H
  H340     1.0000 0.49961  0.01642  0.84468  Biso   1.000  H
  C350     1.0000 0.41709  0.00481  0.81592  Biso   1.000  C
  H341     1.0000 0.33779  0.98151  0.85519  Biso   1.000  H
  H342     1.0000 0.33332  0.00392  0.80400  Biso   1.000  H
  N48      1.0000 0.83382  0.29300  0.89595  Biso   1.000  N
  C351     1.0000 0.92128  0.30608  0.84842  Biso   1.000  C
  H343     1.0000 0.92590  0.34100  0.91389  Biso   1.000  H
  H344     1.0000 0.98359  0.48318  0.84468  Biso   1.000  H
  C352     1.0000 0.99519  0.41230  0.81592  Biso   1.000  C
  H345     1.0000 0.00740  0.45062  0.88140  Biso   1.000  H
  C353     1.0000 0.67971  0.17711  0.01365  Biso   1.000  C
  H346     1.0000 0.64371  0.66222  0.85519  Biso   1.000  H
  H347     1.0000 0.67060  0.66671  0.80400  Biso   1.000  H
  C354     1.0000 0.64198  0.16819  0.93515  Biso   1.000  C
  H348     1.0000 0.60140  0.16049  0.87019  Biso   1.000  H
  H349     1.0000 0.40147  0.96061  0.80642  Biso   1.000  H
  H350     1.0000 0.43842  0.03242  0.78910  Biso   1.000  H
  C355     1.0000 0.81860  0.27531  0.93729  Biso   1.000  C
  C356     1.0000 0.98748  0.34940  0.83061  Biso   1.000  C
  H351     1.0000 0.89139  0.29338  0.82211  Biso   1.000  H
  H352     1.0000 0.91901  0.26738  0.86100  Biso   1.000  H
  H353     1.0000 0.96759  0.40598  0.78910  Biso   1.000  H
  H354     1.0000 0.03940  0.44090  0.80642  Biso   1.000  H
  C357     1.0000 0.63040  0.15181  0.98209  Biso   1.000  C
  C358     1.0000 0.74093  0.21731  0.99858  Biso   1.000  C
  C359     1.0000 0.70267  0.20849  0.92111  Biso   1.000  C
  C360     1.0000 0.75319  0.23359  0.95174  Biso   1.000  C
  H355     1.0000 0.85101  0.28970  0.96000  Biso   1.000  H
  H356     1.0000 0.99611  0.32939  0.80400  Biso   1.000  H
  H357     1.0000 0.01851  0.35629  0.85519  Biso   1.000  H
  H358     1.0000 0.58869  0.12340  0.99229  Biso   1.000  H
  H359     1.0000 0.77469  0.23392  0.02019  Biso   1.000  H
  H360     1.0000 0.71050  0.21981  0.88942  Biso   1.000  H
  C361     1.0000 0.52168  0.74273  0.73424  Biso   1.000  C
  C362     1.0000 0.49847  0.69134  0.76849  Biso   1.000  C
  N49      1.0000 0.56058  0.80002  0.74257  Biso   1.000  N
  H361     1.0000 0.50618  0.73192  0.70354  Biso   1.000  H
  C363     1.0000 0.45816  0.63065  0.75446  Biso   1.000  C
  C364     1.0000 0.51486  0.70295  0.81544  Biso   1.000  C
  C365     1.0000 0.57714  0.84442  0.70427  Biso   1.000  C
  C366     1.0000 0.43305  0.58011  0.78509  Biso   1.000  C
  H362     1.0000 0.44685  0.62282  0.72273  Biso   1.000  H
  C367     1.0000 0.48955  0.65363  0.84700  Biso   1.000  C
  H363     1.0000 0.54326  0.74462  0.82564  Biso   1.000  H
  H364     1.0000 0.54836  0.82191  0.67772  Biso   1.000  H
  C368     1.0000 0.64507  0.86943  0.68843  Biso   1.000  C
  C369     1.0000 0.56738  0.89855  0.71868  Biso   1.000  C
  C370     1.0000 0.39138  0.51475  0.77064  Biso   1.000  C
  C371     1.0000 0.44935  0.59243  0.83193  Biso   1.000  C
  C372     1.0000 0.50107  0.66425  0.89598  Biso   1.000  C
  H365     1.0000 0.65025  0.83371  0.67803  Biso   1.000  H
  H366     1.0000 0.67406  0.89015  0.71474  Biso   1.000  H
  C373     1.0000 0.66189  0.91625  0.64927  Biso   1.000  C
  N50      1.0000 0.50046  0.87415  0.72926  Biso   1.000  N
  C374     1.0000 0.58796  0.94853  0.68173  Biso   1.000  C
  H367     1.0000 0.59255  0.91823  0.74723  Biso   1.000  H
  N51      1.0000 0.37367  0.49951  0.72926  Biso   1.000  N
  H368     1.0000 0.37697  0.48233  0.79335  Biso   1.000  H
  H369     1.0000 0.43278  0.55864  0.85353  Biso   1.000  H
  C375     1.0000 0.50350  0.66911  0.93736  Biso   1.000  C
  H370     1.0000 0.63427  0.89492  0.62244  Biso   1.000  H
  H371     1.0000 0.70605  0.93182  0.63973  Biso   1.000  H
  C376     1.0000 0.65416  0.97141  0.66392  Biso   1.000  C
  C377     1.0000 0.48528  0.87666  0.77064  Biso   1.000  C
  H372     1.0000 0.55808  0.93135  0.65542  Biso   1.000  H
  H373     1.0000 0.58570  0.98496  0.69434  Biso   1.000  H
  C378     1.0000 0.33116  0.43264  0.71868  Biso   1.000  C
  C379     1.0000 0.50258  0.67968  0.98635  Biso   1.000  C
  H374     1.0000 0.68514  0.99553  0.68854  Biso   1.000  H
  H375     1.0000 0.66278  0.00005  0.63734  Biso   1.000  H
  C380     1.0000 0.41988  0.85292  0.78509  Biso   1.000  C
  H376     1.0000 0.51765  0.89463  0.79335  Biso   1.000  H
  C381     1.0000 0.26728  0.42283  0.70427  Biso   1.000  C
  C382     1.0000 0.36057  0.41202  0.68173  Biso   1.000  C
  H377     1.0000 0.32567  0.40744  0.74723  Biso   1.000  H
  C383     1.0000 0.47860  0.63042  0.01791  Biso   1.000  C
  C384     1.0000 0.52358  0.74089  0.00142  Biso   1.000  C
  C385     1.0000 0.36938  0.82753  0.75446  Biso   1.000  C
  C386     1.0000 0.40758  0.85693  0.83193  Biso   1.000  C
  C387     1.0000 0.22438  0.35492  0.68843  Biso   1.000  C
  N52      1.0000 0.23946  0.43944  0.74257  Biso   1.000  N
  H378     1.0000 0.27354  0.45161  0.67772  Biso   1.000  H
  C388     1.0000 0.31725  0.34581  0.66392  Biso   1.000  C
  H379     1.0000 0.37328  0.44194  0.65542  Biso   1.000  H
  H380     1.0000 0.39925  0.41433  0.69434  Biso   1.000  H
  H381     1.0000 0.46530  0.58870  0.00771  Biso   1.000  H
  C389     1.0000 0.47379  0.64198  0.06485  Biso   1.000  C
  H382     1.0000 0.54080  0.77468  0.97981  Biso   1.000  H
  C390     1.0000 0.51960  0.75321  0.04826  Biso   1.000  C
  C391     1.0000 0.30868  0.80714  0.76849  Biso   1.000  C
  H383     1.0000 0.37716  0.82404  0.72273  Biso   1.000  H
  C392     1.0000 0.34636  0.83593  0.84700  Biso   1.000  C
  H384     1.0000 0.44137  0.87415  0.85353  Biso   1.000  H
  C393     1.0000 0.25435  0.33812  0.64927  Biso   1.000  C
  H385     1.0000 0.18345  0.34973  0.67803  Biso   1.000  H
  H386     1.0000 0.21606  0.32594  0.71474  Biso   1.000  H
  C394     1.0000 0.22106  0.47832  0.73424  Biso   1.000  C
  H387     1.0000 0.31040  0.31485  0.68854  Biso   1.000  H
  H388     1.0000 0.33727  0.33722  0.63734  Biso   1.000  H
  C395     1.0000 0.49419  0.70271  0.07889  Biso   1.000  C
  C396     1.0000 0.44561  0.59059  0.09911  Biso   1.000  C
  C397     1.0000 0.54331  0.81861  0.06271  Biso   1.000  C
  C398     1.0000 0.25725  0.77892  0.73424  Biso   1.000  C
  C399     1.0000 0.29704  0.81191  0.81544  Biso   1.000  C
  C400     1.0000 0.33578  0.83683  0.89598  Biso   1.000  C
  H389     1.0000 0.26068  0.36573  0.62244  Biso   1.000  H
  H390     1.0000 0.22577  0.29395  0.63973  Biso   1.000  H
  C401     1.0000 0.19286  0.50154  0.76849  Biso   1.000  C
  H391     1.0000 0.22575  0.49385  0.70354  Biso   1.000  H
  H392     1.0000 0.49069  0.71050  0.11058  Biso   1.000  H
  N53      1.0000 0.42722  0.53330  0.09074  Biso   1.000  N
  H393     1.0000 0.44092  0.60139  0.12981  Biso   1.000  H
  N54      1.0000 0.54081  0.83381  0.10405  Biso   1.000  N
  H394     1.0000 0.56130  0.85098  0.04000  Biso   1.000  H
  N55      1.0000 0.19997  0.76057  0.74257  Biso   1.000  N
  H395     1.0000 0.26808  0.77425  0.70354  Biso   1.000  H
  H396     1.0000 0.25539  0.79865  0.82564  Biso   1.000  H
  C402     1.0000 0.33090  0.83442  0.93736  Biso   1.000  C
  C403     1.0000 0.18804  0.48512  0.81544  Biso   1.000  C
  C404     1.0000 0.17247  0.54184  0.75446  Biso   1.000  C
  C405     1.0000 0.39938  0.48889  0.12908  Biso   1.000  C
  C406     1.0000 0.56520  0.90072  0.11466  Biso   1.000  C
  C407     1.0000 0.15556  0.73272  0.70427  Biso   1.000  C
  C408     1.0000 0.32032  0.82291  0.98635  Biso   1.000  C
  C409     1.0000 0.16407  0.51041  0.84700  Biso   1.000  C
  H397     1.0000 0.20136  0.45676  0.82564  Biso   1.000  H
  H398     1.0000 0.17594  0.55312  0.72273  Biso   1.000  H
  C410     1.0000 0.14705  0.56694  0.78509  Biso   1.000  C
  C411     1.0000 0.33551  0.43481  0.11466  Biso   1.000  C
  H399     1.0000 0.39310  0.51140  0.15559  Biso   1.000  H
  C412     1.0000 0.44229  0.46388  0.14491  Biso   1.000  C
  C413     1.0000 0.51111  0.91049  0.12908  Biso   1.000  C
  C414     1.0000 0.61521  0.92130  0.15158  Biso   1.000  C
  H400     1.0000 0.58491  0.92592  0.08611  Biso   1.000  H
  C415     1.0000 0.10147  0.66883  0.71868  Biso   1.000  C
  H401     1.0000 0.17809  0.72645  0.67772  Biso   1.000  H
  C416     1.0000 0.13055  0.77562  0.68843  Biso   1.000  C
  C417     1.0000 0.25910  0.78270  0.00142  Biso   1.000  C
  C418     1.0000 0.36958  0.84820  0.01791  Biso   1.000  C
  C419     1.0000 0.16316  0.49894  0.89598  Biso   1.000  C
  C420     1.0000 0.14306  0.55062  0.83193  Biso   1.000  C
  C421     1.0000 0.12334  0.60861  0.77064  Biso   1.000  C
  N56      1.0000 0.29299  0.45921  0.10405  Biso   1.000  N
  C422     1.0000 0.30609  0.38479  0.15158  Biso   1.000  C
  H402     1.0000 0.34098  0.41509  0.08611  Biso   1.000  H
  H403     1.0000 0.48320  0.49960  0.15532  Biso   1.000  H
  H404     1.0000 0.45059  0.44321  0.11860  Biso   1.000  H
  C423     1.0000 0.41233  0.41712  0.18408  Biso   1.000  C
  N57      1.0000 0.46670  0.89393  0.09074  Biso   1.000  N
  H405     1.0000 0.48859  0.88170  0.15559  Biso   1.000  H
  C424     1.0000 0.53612  0.97840  0.14491  Biso   1.000  C
  C425     1.0000 0.63810  0.98751  0.16939  Biso   1.000  C
  H406     1.0000 0.59800  0.89138  0.17789  Biso   1.000  H
  H407     1.0000 0.65157  0.91898  0.13900  Biso   1.000  H
  N58      1.0000 0.12586  0.62631  0.72926  Biso   1.000  N
  C426     1.0000 0.05146  0.63943  0.68173  Biso   1.000  C
  H408     1.0000 0.08179  0.67435  0.74723  Biso   1.000  H
  H409     1.0000 0.16629  0.81653  0.67803  Biso   1.000  H
  H410     1.0000 0.10985  0.78393  0.71474  Biso   1.000  H
  C427     1.0000 0.08377  0.74565  0.64927  Biso   1.000  C
  C428     1.0000 0.24679  0.76642  0.04826  Biso   1.000  C
  H411     1.0000 0.22529  0.76609  0.97981  Biso   1.000  H
  C429     1.0000 0.35798  0.83178  0.06485  Biso   1.000  C
  H412     1.0000 0.41129  0.87661  0.00771  Biso   1.000  H
  C430     1.0000 0.16561  0.49649  0.93736  Biso   1.000  C
  H413     1.0000 0.12586  0.56723  0.85353  Biso   1.000  H
  H414     1.0000 0.10539  0.62305  0.79335  Biso   1.000  H
  C431     1.0000 0.27531  0.45671  0.06271  Biso   1.000  C
  C432     1.0000 0.34941  0.36190  0.16939  Biso   1.000  C
  H415     1.0000 0.29341  0.40201  0.17789  Biso   1.000  H
  H416     1.0000 0.26742  0.34841  0.13900  Biso   1.000  H
  H417     1.0000 0.40601  0.43840  0.21090  Biso   1.000  H
  H418     1.0000 0.44089  0.40150  0.19358  Biso   1.000  H
  C433     1.0000 0.40939  0.85499  0.09911  Biso   1.000  C
  H419     1.0000 0.50038  0.98359  0.15532  Biso   1.000  H
  C434     1.0000 0.58289  0.99520  0.18408  Biso   1.000  C
  H420     1.0000 0.55685  0.00741  0.11860  Biso   1.000  H
  H421     1.0000 0.66671  0.99609  0.19600  Biso   1.000  H
  H422     1.0000 0.66220  0.01850  0.14481  Biso   1.000  H
  C435     1.0000 0.02857  0.68275  0.66392  Biso   1.000  C
  H423     1.0000 0.06865  0.62673  0.65542  Biso   1.000  H
  H424     1.0000 0.01507  0.60073  0.69434  Biso   1.000  H
  H425     1.0000 0.10509  0.73933  0.62244  Biso   1.000  H
  H426     1.0000 0.06819  0.77425  0.63973  Biso   1.000  H
  C436     1.0000 0.18139  0.72470  0.06271  Biso   1.000  C
  C437     1.0000 0.29729  0.79148  0.07889  Biso   1.000  C
  C438     1.0000 0.17709  0.49739  0.98635  Biso   1.000  C
  C439     1.0000 0.23362  0.48040  0.04826  Biso   1.000  C
  H427     1.0000 0.28967  0.43868  0.04000  Biso   1.000  H
  H428     1.0000 0.35627  0.33779  0.14481  Biso   1.000  H
  H429     1.0000 0.32939  0.33331  0.19600  Biso   1.000  H
  H430     1.0000 0.39859  0.83952  0.12981  Biso   1.000  H
  H431     1.0000 0.56161  0.96759  0.21090  Biso   1.000  H
  H432     1.0000 0.59856  0.03940  0.19358  Biso   1.000  H
  H433     1.0000 0.00447  0.68964  0.68854  Biso   1.000  H
  H434     1.0000 0.99997  0.66274  0.63734  Biso   1.000  H
  N59      1.0000 0.16620  0.70701  0.10405  Biso   1.000  N
  H435     1.0000 0.14902  0.71031  0.04000  Biso   1.000  H
  H436     1.0000 0.28948  0.78020  0.11058  Biso   1.000  H
  C440     1.0000 0.15179  0.52141  0.01791  Biso   1.000  C
  C441     1.0000 0.21731  0.47639  0.00142  Biso   1.000  C
  C442     1.0000 0.20851  0.50579  0.07889  Biso   1.000  C
  C443     1.0000 0.09930  0.66449  0.11466  Biso   1.000  C
  H437     1.0000 0.12342  0.53471  0.00771  Biso   1.000  H
  C444     1.0000 0.16821  0.52622  0.06485  Biso   1.000  C
  H438     1.0000 0.23390  0.45921  0.97981  Biso   1.000  H
  H439     1.0000 0.21978  0.50928  0.11058  Biso   1.000  H
  C445     1.0000 0.08950  0.60059  0.12908  Biso   1.000  C
  C446     1.0000 0.07869  0.69389  0.15158  Biso   1.000  C
  H440     1.0000 0.07412  0.65901  0.08611  Biso   1.000  H
  C447     1.0000 0.14499  0.55439  0.09911  Biso   1.000  C
  N60      1.0000 0.10609  0.57280  0.09074  Biso   1.000  N
  H441     1.0000 0.11833  0.60692  0.15559  Biso   1.000  H
  C448     1.0000 0.02158  0.55770  0.14491  Biso   1.000  C
  C449     1.0000 0.01250  0.65061  0.16939  Biso   1.000  C
  H442     1.0000 0.10857  0.70658  0.17789  Biso   1.000  H
  H443     1.0000 0.08099  0.73258  0.13900  Biso   1.000  H
  H444     1.0000 0.16051  0.55911  0.12981  Biso   1.000  H
  H445     1.0000 0.99258  0.54939  0.11860  Biso   1.000  H
  H446     1.0000 0.01641  0.51678  0.15532  Biso   1.000  H
  C450     1.0000 0.00479  0.58771  0.18408  Biso   1.000  C
  H447     1.0000 0.98151  0.64372  0.14481  Biso   1.000  H
  H448     1.0000 0.00391  0.67062  0.19600  Biso   1.000  H
  H449     1.0000 0.96062  0.55911  0.19358  Biso   1.000  H
  H450     1.0000 0.03241  0.59398  0.21090  Biso   1.000  H
  C451     1.0000 0.07896  0.75042  0.51739  Biso   1.000  C
  C452     1.0000 0.01607  0.69526  0.50273  Biso   1.000  C
  C453     1.0000 0.10899  0.79723  0.47826  Biso   1.000  C
  H451     1.0000 0.07266  0.77175  0.54425  Biso   1.000  H
  H452     1.0000 0.10759  0.73485  0.52693  Biso   1.000  H
  H453     1.0000 0.02297  0.67114  0.47812  Biso   1.000  H
  H454     1.0000 0.99606  0.66661  0.52935  Biso   1.000  H
  C454     1.0000 0.97279  0.71814  0.48493  Biso   1.000  C
  C455     1.0000 0.06607  0.82224  0.46239  Biso   1.000  C
  H455     1.0000 0.14990  0.83296  0.48863  Biso   1.000  H
  H456     1.0000 0.11726  0.77652  0.45195  Biso   1.000  H
  C456     1.0000 0.00215  0.76812  0.44797  Biso   1.000  C
  H457     1.0000 0.96004  0.73532  0.51123  Biso   1.000  H
  H458     1.0000 0.93406  0.68171  0.47235  Biso   1.000  H
  N61      1.0000 0.09388  0.86665  0.42409  Biso   1.000  N
  H459     1.0000 0.05980  0.84475  0.48894  Biso   1.000  H
  H460     1.0000 0.00767  0.74844  0.41942  Biso   1.000  H
  N62      1.0000 0.95966  0.79251  0.43740  Biso   1.000  N
  C457     1.0000 0.11226  0.92394  0.43245  Biso   1.000  C
  C458     1.0000 0.94194  0.79001  0.39602  Biso   1.000  C
  C459     1.0000 0.14045  0.97533  0.39816  Biso   1.000  C
  H461     1.0000 0.10757  0.93475  0.46315  Biso   1.000  H
  C460     1.0000 0.90027  0.81375  0.38160  Biso   1.000  C
  H462     1.0000 0.95637  0.77203  0.37334  Biso   1.000  H
  C461     1.0000 0.14527  0.96372  0.35122  Biso   1.000  C
  C462     1.0000 0.16090  0.03605  0.41220  Biso   1.000  C
  C463     1.0000 0.87517  0.83914  0.41220  Biso   1.000  C
  C464     1.0000 0.88397  0.80974  0.33476  Biso   1.000  C
  H463     1.0000 0.13196  0.92205  0.34102  Biso   1.000  H
  C465     1.0000 0.16925  0.01302  0.31969  Biso   1.000  C
  H464     1.0000 0.15732  0.04384  0.44393  Biso   1.000  H
  C466     1.0000 0.18627  0.08655  0.38160  Biso   1.000  C
  C467     1.0000 0.83485  0.85952  0.39816  Biso   1.000  C
  H465     1.0000 0.88648  0.84263  0.44393  Biso   1.000  H
  C468     1.0000 0.84379  0.83074  0.31969  Biso   1.000  C
  H466     1.0000 0.90057  0.79251  0.31312  Biso   1.000  H
  C469     1.0000 0.17018  0.00245  0.27071  Biso   1.000  C
  C470     1.0000 0.19021  0.07423  0.33476  Biso   1.000  C
  C471     1.0000 0.20998  0.15195  0.39602  Biso   1.000  C
  C472     1.0000 0.81846  0.85471  0.35122  Biso   1.000  C
  C473     1.0000 0.81168  0.88774  0.43245  Biso   1.000  C
  C474     1.0000 0.83227  0.82984  0.27071  Biso   1.000  C
  C475     1.0000 0.16775  0.99756  0.22929  Biso   1.000  C
  H467     1.0000 0.20747  0.10802  0.31312  Biso   1.000  H
  N63      1.0000 0.20745  0.16715  0.43740  Biso   1.000  N
  H468     1.0000 0.22793  0.18433  0.37334  Biso   1.000  H
  H469     1.0000 0.79005  0.86802  0.34102  Biso   1.000  H
  N64      1.0000 0.77276  0.90610  0.42409  Biso   1.000  N
  H470     1.0000 0.82714  0.89242  0.46315  Biso   1.000  H
  C476     1.0000 0.82983  0.83225  0.22929  Biso   1.000  C
  C477     1.0000 0.15625  0.98699  0.18031  Biso   1.000  C
  C478     1.0000 0.23181  0.23402  0.44797  Biso   1.000  C
  C479     1.0000 0.75615  0.93394  0.46239  Biso   1.000  C
  C480     1.0000 0.83073  0.84376  0.18031  Biso   1.000  C
  C481     1.0000 0.11604  0.92578  0.16524  Biso   1.000  C
  C482     1.0000 0.18154  0.03629  0.14878  Biso   1.000  C
  C483     1.0000 0.17782  0.24383  0.46239  Biso   1.000  C
  C484     1.0000 0.28188  0.25464  0.48493  Biso   1.000  C
  H471     1.0000 0.25152  0.25922  0.41942  Biso   1.000  H
  H472     1.0000 0.78496  0.94022  0.48894  Biso   1.000  H
  C485     1.0000 0.68828  0.89105  0.47826  Biso   1.000  C
  C486     1.0000 0.76595  0.99784  0.44797  Biso   1.000  C
  C487     1.0000 0.85474  0.81847  0.14878  Biso   1.000  C
  C488     1.0000 0.80972  0.88397  0.16524  Biso   1.000  C
  C489     1.0000 0.09975  0.91346  0.11840  Biso   1.000  C
  H473     1.0000 0.09941  0.89194  0.18688  Biso   1.000  H
  H474     1.0000 0.20993  0.07796  0.15898  Biso   1.000  H
  C490     1.0000 0.16515  0.02468  0.10184  Biso   1.000  C
  N65      1.0000 0.13331  0.22722  0.42409  Biso   1.000  N
  H475     1.0000 0.15526  0.21505  0.48894  Biso   1.000  H
  C491     1.0000 0.20279  0.31174  0.47826  Biso   1.000  C
  C492     1.0000 0.30473  0.32085  0.50273  Biso   1.000  C
  H476     1.0000 0.26468  0.22472  0.51123  Biso   1.000  H
  H477     1.0000 0.31824  0.25233  0.47235  Biso   1.000  H
  H478     1.0000 0.68307  0.85013  0.48863  Biso   1.000  H
  H479     1.0000 0.65928  0.88274  0.45195  Biso   1.000  H
  C493     1.0000 0.67147  0.92101  0.51739  Biso   1.000  C
  H480     1.0000 0.74075  0.99232  0.41942  Biso   1.000  H
  N66      1.0000 0.83288  0.04035  0.43740  Biso   1.000  N
  C494     1.0000 0.74532  0.02723  0.48493  Biso   1.000  C
  H481     1.0000 0.86804  0.79006  0.15898  Biso   1.000  H
  C495     1.0000 0.85953  0.83484  0.10184  Biso   1.000  C
  C496     1.0000 0.81373  0.90025  0.11840  Biso   1.000  C
  H482     1.0000 0.79256  0.90058  0.18688  Biso   1.000  H
  C497     1.0000 0.12483  0.96396  0.08780  Biso   1.000  C
  C498     1.0000 0.05801  0.84806  0.10398  Biso   1.000  C
  C499     1.0000 0.18835  0.07607  0.06755  Biso   1.000  C
  C500     1.0000 0.07602  0.18834  0.43245  Biso   1.000  C
  H483     1.0000 0.16705  0.31693  0.48863  Biso   1.000  H
  H484     1.0000 0.22349  0.34071  0.45195  Biso   1.000  H
  C501     1.0000 0.24956  0.32854  0.51739  Biso   1.000  C
  H485     1.0000 0.32889  0.35185  0.47812  Biso   1.000  H
  H486     1.0000 0.33342  0.32944  0.52935  Biso   1.000  H
  H487     1.0000 0.69907  0.92734  0.54425  Biso   1.000  H
  H488     1.0000 0.62725  0.89242  0.52693  Biso   1.000  H
  C502     1.0000 0.67918  0.98392  0.50273  Biso   1.000  C
  C503     1.0000 0.84802  0.05804  0.39602  Biso   1.000  C
  H489     1.0000 0.77524  0.03992  0.51123  Biso   1.000  H
  H490     1.0000 0.74766  0.06592  0.47235  Biso   1.000  H
  C504     1.0000 0.83914  0.87514  0.08780  Biso   1.000  C
  C505     1.0000 0.88775  0.81167  0.06755  Biso   1.000  C
  C506     1.0000 0.79004  0.94197  0.10398  Biso   1.000  C
  H491     1.0000 0.11354  0.95617  0.05607  Biso   1.000  H
  N67      1.0000 0.04032  0.83286  0.06260  Biso   1.000  N
  H492     1.0000 0.04363  0.81569  0.12666  Biso   1.000  H
  N68      1.0000 0.22725  0.13336  0.07591  Biso   1.000  N
  H493     1.0000 0.17289  0.06526  0.03685  Biso   1.000  H
  C507     1.0000 0.02461  0.16512  0.39816  Biso   1.000  C
  H494     1.0000 0.06524  0.17281  0.46315  Biso   1.000  H
  H495     1.0000 0.22824  0.30093  0.54425  Biso   1.000  H
  H496     1.0000 0.26521  0.37276  0.52693  Biso   1.000  H
  H497     1.0000 0.64814  0.97703  0.47812  Biso   1.000  H
  H498     1.0000 0.67060  0.00392  0.52935  Biso   1.000  H
  C508     1.0000 0.91344  0.09971  0.38160  Biso   1.000  C
  H499     1.0000 0.81565  0.04365  0.37334  Biso   1.000  H
  H500     1.0000 0.84264  0.88647  0.05607  Biso   1.000  H
  N69      1.0000 0.90613  0.77274  0.07591  Biso   1.000  N
  H501     1.0000 0.89243  0.82715  0.03685  Biso   1.000  H
  N70      1.0000 0.79251  0.95966  0.06260  Biso   1.000  N
  H502     1.0000 0.77202  0.95636  0.12666  Biso   1.000  H
  C509     1.0000 0.99783  0.76595  0.05203  Biso   1.000  C
  C510     1.0000 0.24377  0.17777  0.03761  Biso   1.000  C
  C511     1.0000 0.96396  0.12482  0.41220  Biso   1.000  C
  C512     1.0000 0.03625  0.18154  0.35122  Biso   1.000  C
  C513     1.0000 0.92581  0.11604  0.33476  Biso   1.000  C
  C514     1.0000 0.93394  0.75618  0.03761  Biso   1.000  C
  C515     1.0000 0.76814  0.00217  0.05203  Biso   1.000  C
  C516     1.0000 0.02723  0.74537  0.01507  Biso   1.000  C
  H503     1.0000 0.99230  0.74075  0.08058  Biso   1.000  H
  H504     1.0000 0.21499  0.15526  0.01106  Biso   1.000  H
  C517     1.0000 0.31170  0.20278  0.02174  Biso   1.000  C
  C518     1.0000 0.23403  0.23185  0.05203  Biso   1.000  C
  H505     1.0000 0.95615  0.11354  0.44393  Biso   1.000  H
  C519     1.0000 0.98699  0.15625  0.31969  Biso   1.000  C
  H506     1.0000 0.07796  0.20995  0.34102  Biso   1.000  H
  H507     1.0000 0.89196  0.09943  0.31312  Biso   1.000  H
  H508     1.0000 0.94024  0.78496  0.01106  Biso   1.000  H
  C520     1.0000 0.89103  0.68827  0.02174  Biso   1.000  C
  C521     1.0000 0.71815  0.97278  0.01507  Biso   1.000  C
  C522     1.0000 0.82224  0.06607  0.03761  Biso   1.000  C
  H509     1.0000 0.74844  0.00764  0.08058  Biso   1.000  H
  H510     1.0000 0.06594  0.74768  0.02765  Biso   1.000  H
  C523     1.0000 0.98395  0.67916  0.99727  Biso   1.000  C
  H511     1.0000 0.03994  0.77529  0.98877  Biso   1.000  H
  C524     1.0000 0.32860  0.24959  0.98261  Biso   1.000  C
  H512     1.0000 0.31692  0.16705  0.01137  Biso   1.000  H
  H513     1.0000 0.34071  0.22345  0.04805  Biso   1.000  H
  N71      1.0000 0.16711  0.20745  0.06260  Biso   1.000  N
  C525     1.0000 0.25459  0.28187  0.01507  Biso   1.000  C
  H514     1.0000 0.25918  0.25157  0.08058  Biso   1.000  H
  C526     1.0000 0.99750  0.16771  0.27071  Biso   1.000  C
  C527     1.0000 0.92105  0.67147  0.98261  Biso   1.000  C
  H515     1.0000 0.85014  0.68308  0.01137  Biso   1.000  H
  H516     1.0000 0.88273  0.65925  0.04805  Biso   1.000  H
  H517     1.0000 0.73535  0.96009  0.98877  Biso   1.000  H
  H518     1.0000 0.68172  0.93409  0.02765  Biso   1.000  H
  C528     1.0000 0.69518  0.01604  0.99727  Biso   1.000  C
  N72      1.0000 0.86666  0.09386  0.07591  Biso   1.000  N
  H519     1.0000 0.84476  0.05979  0.01106  Biso   1.000  H
  C529     1.0000 0.79722  0.10896  0.02174  Biso   1.000  C
  H520     1.0000 0.97703  0.64816  0.02188  Biso   1.000  H
  H521     1.0000 0.00393  0.67057  0.97065  Biso   1.000  H
  H522     1.0000 0.30094  0.22826  0.95575  Biso   1.000  H
  H523     1.0000 0.37272  0.26516  0.97307  Biso   1.000  H
  C530     1.0000 0.32079  0.30476  0.99727  Biso   1.000  C
  C531     1.0000 0.15197  0.20995  0.10398  Biso   1.000  C
  H524     1.0000 0.22477  0.26464  0.98877  Biso   1.000  H
  H525     1.0000 0.25235  0.31825  0.02765  Biso   1.000  H
  C532     1.0000 0.00241  0.17017  0.22929  Biso   1.000  C
  H526     1.0000 0.92733  0.69908  0.95575  Biso   1.000  H
  H527     1.0000 0.89244  0.62725  0.97307  Biso   1.000  H
  H528     1.0000 0.66660  0.99605  0.97065  Biso   1.000  H
  C533     1.0000 0.75042  0.07895  0.98261  Biso   1.000  C
  H529     1.0000 0.67118  0.02298  0.02188  Biso   1.000  H
  C534     1.0000 0.92388  0.11227  0.06755  Biso   1.000  C
  H530     1.0000 0.83296  0.14988  0.01137  Biso   1.000  H
  H531     1.0000 0.77656  0.11727  0.04805  Biso   1.000  H
  H532     1.0000 0.32945  0.33335  0.97065  Biso   1.000  H
  H533     1.0000 0.35181  0.32887  0.02188  Biso   1.000  H
  C535     1.0000 0.08655  0.18626  0.11840  Biso   1.000  C
  H534     1.0000 0.18432  0.22798  0.12666  Biso   1.000  H
  C536     1.0000 0.01308  0.16927  0.18031  Biso   1.000  C
  H535     1.0000 0.77176  0.07267  0.95575  Biso   1.000  H
  H536     1.0000 0.73484  0.10755  0.97307  Biso   1.000  H
  C537     1.0000 0.97535  0.14049  0.10184  Biso   1.000  C
  H537     1.0000 0.93468  0.10755  0.03685  Biso   1.000  H
  C538     1.0000 0.07429  0.19027  0.16524  Biso   1.000  C
  C539     1.0000 0.03609  0.16087  0.08780  Biso   1.000  C
  C540     1.0000 0.96375  0.14525  0.14878  Biso   1.000  C
  H538     1.0000 0.10797  0.20745  0.18688  Biso   1.000  H
  H539     1.0000 0.04379  0.15738  0.05607  Biso   1.000  H
  H540     1.0000 0.92203  0.13194  0.15898  Biso   1.000  H
  Ne1      1.0000 0.33333  0.66667  0.41667  Biso   1.000  Ne
  He1      1.0000 0.33333  0.66665  0.58300  Biso   1.000  He
  He2      1.0000 0.48060  0.63771  0.44114  Biso   1.000  He
  He3      1.0000 0.18327  0.48746  0.39204  Biso   1.000  He
  He4      1.0000 0.36222  0.84194  0.44109  Biso   1.000  He
  He5      1.0000 0.33334  0.66667  0.24851  Biso   1.000  He
  Ar1      1.0000 0.33333  0.66666  0.41667  Biso   1.000  Ar
  Ne2      1.0000 1.00000  0.00000  0.25000  Biso   1.000  Ne
  He6      1.0000 0.00001  0.00001  0.41817  Biso   1.000  He
  He7      1.0000 0.09705  0.09992  0.25206  Biso   1.000  He
  He8      1.0000 0.99575  0.89590  0.24687  Biso   1.000  He
  He9      1.0000 0.89154  0.99416  0.25429  Biso   1.000  He
  He10     1.0000 0.00000  1.00000  0.08378  Biso   1.000  He
  Ar2      1.0000 0.00001  0.00002  0.25000  Biso   1.000  Ar
  Ne3      1.0000 0.66667  0.33333  0.58333  Biso   1.000  Ne
  He11     1.0000 0.66667  0.33333  0.75151  Biso   1.000  He
  He12     1.0000 0.76380  0.43326  0.58537  Biso   1.000  He
  He13     1.0000 0.66240  0.22924  0.58019  Biso   1.000  He
  He14     1.0000 0.55821  0.32748  0.58762  Biso   1.000  He
  He15     1.0000 0.66667  0.33332  0.41709  Biso   1.000  He
  Ar3      1.0000 0.66669  0.33334  0.58333  Biso   1.000  Ar
  Ne4      1.0000 0.66667  0.33333  0.08333  Biso   1.000  Ne
  He16     1.0000 0.66666  0.33334  0.24966  Biso   1.000  He
  He17     1.0000 0.81392  0.30439  0.10780  Biso   1.000  He
  He18     1.0000 0.51658  0.15409  0.05870  Biso   1.000  He
  He19     1.0000 0.69556  0.50860  0.10774  Biso   1.000  He
  He20     1.0000 0.66665  0.33332  0.91517  Biso   1.000  He
  Ar4      1.0000 0.66665  0.33334  0.08333  Biso   1.000  Ar
  Ne5      1.0000 0.33333  0.66667  0.91667  Biso   1.000  Ne
  He21     1.0000 0.33332  0.66665  0.08486  Biso   1.000  He
  He22     1.0000 0.43050  0.76659  0.91870  Biso   1.000  He
  He23     1.0000 0.32909  0.56260  0.91356  Biso   1.000  He
  He24     1.0000 0.22490  0.66086  0.92093  Biso   1.000  He
  He25     1.0000 0.33332  0.66667  0.75043  Biso   1.000  He
  Ar5      1.0000 0.33333  0.66666  0.91667  Biso   1.000  Ar
  Ne6      1.0000 0.00001  0.00000  0.75000  Biso   1.000  Ne
  He26     1.0000 0.00003  0.00000  0.91631  Biso   1.000  He
  He27     1.0000 0.14730  0.97105  0.77448  Biso   1.000  He
  He28     1.0000 0.84991  0.82076  0.72537  Biso   1.000  He
  He29     1.0000 0.02886  0.17520  0.77442  Biso   1.000  He
  He30     1.0000 1.00000  1.00000  0.58186  Biso   1.000  He
  Ar6      1.0000 0.00001  0.00002  0.75000  Biso   1.000  Ar
