data_image0
_cell_length_a       19.614
_cell_length_b       19.614
_cell_length_c       26.18
_cell_angle_alpha    90
_cell_angle_beta     90
_cell_angle_gamma    120

_symmetry_space_group_name_H-M    "P 1"
_symmetry_int_tables_number       1

loop_
  _symmetry_equiv_pos_as_xyz
  'x, y, z'

loop_
  _atom_site_label
  _atom_site_occupancy
  _atom_site_fract_x
  _atom_site_fract_y
  _atom_site_fract_z
  _atom_site_thermal_displace_type
  _atom_site_B_iso_or_equiv
  _atom_site_type_symbol
  C1       1.0000 0.49870  0.50429  0.63782  Biso   1.000  C
  C2       1.0000 0.48330  0.54609  0.59393  Biso   1.000  C
  H1       1.0000 0.44880  0.46302  0.65103  Biso   1.000  H
  H2       1.0000 0.52781  0.47980  0.62513  Biso   1.000  H
  C3       1.0000 0.54502  0.56093  0.68071  Biso   1.000  C
  C4       1.0000 0.55958  0.61391  0.57445  Biso   1.000  C
  H3       1.0000 0.45671  0.50912  0.56642  Biso   1.000  H
  H4       1.0000 0.44930  0.56558  0.60561  Biso   1.000  H
  C5       1.0000 0.62169  0.62892  0.66012  Biso   1.000  C
  H5       1.0000 0.51340  0.58212  0.69534  Biso   1.000  H
  N1       1.0000 0.56093  0.51913  0.72028  Biso   1.000  N
  C6       1.0000 0.60473  0.66842  0.61623  Biso   1.000  C
  H6       1.0000 0.59088  0.59372  0.55894  Biso   1.000  H
  H7       1.0000 0.54840  0.64223  0.54843  Biso   1.000  H
  H8       1.0000 0.65521  0.60838  0.64794  Biso   1.000  H
  N2       1.0000 0.66132  0.68350  0.70199  Biso   1.000  N
  C7       1.0000 0.54599  0.52972  0.76543  Biso   1.000  C
  H9       1.0000 0.57532  0.69250  0.62914  Biso   1.000  H
  H10      1.0000 0.65412  0.70999  0.60271  Biso   1.000  H
  C8       1.0000 0.73032  0.70251  0.71203  Biso   1.000  C
  C9       1.0000 0.55667  0.48869  0.80966  Biso   1.000  C
  H11      1.0000 0.52770  0.56452  0.77124  Biso   1.000  H
  C10      1.0000 0.77353  0.75232  0.75573  Biso   1.000  C
  H12      1.0000 0.75598  0.68450  0.69083  Biso   1.000  H
  C11      1.0000 0.58399  0.43718  0.80542  Biso   1.000  C
  C12      1.0000 0.53700  0.50400  0.85783  Biso   1.000  C
  C13      1.0000 0.85179  0.77598  0.76474  Biso   1.000  C
  C14      1.0000 0.73450  0.77592  0.79041  Biso   1.000  C
  H13      1.0000 0.59669  0.42658  0.77322  Biso   1.000  H
  C15      1.0000 0.59330  0.40032  0.84782  Biso   1.000  C
  C16      1.0000 0.54688  0.46879  0.90138  Biso   1.000  C
  H14      1.0000 0.51700  0.53802  0.86104  Biso   1.000  H
  H15      1.0000 0.87850  0.76138  0.74183  Biso   1.000  H
  C17      1.0000 0.89117  0.82078  0.80672  Biso   1.000  C
  C18      1.0000 0.77341  0.82172  0.83163  Biso   1.000  C
  H16      1.0000 0.68172  0.76020  0.78533  Biso   1.000  H
  C19      1.0000 0.57351  0.41693  0.89591  Biso   1.000  C
  C20      1.0000 0.62592  0.34769  0.84183  Biso   1.000  C
  C21      1.0000 0.52508  0.48628  0.95252  Biso   1.000  C
  C22      1.0000 0.85108  0.84368  0.83961  Biso   1.000  C
  C23      1.0000 0.97262  0.83950  0.81952  Biso   1.000  C
  C24      1.0000 0.72889  0.83762  0.87212  Biso   1.000  C
  H17      1.0000 0.57879  0.39220  0.92464  Biso   1.000  H
  H18      1.0000 0.64577  0.34528  0.81012  Biso   1.000  H
  N3       1.0000 0.62841  0.30607  0.87693  Biso   1.000  N
  C25      1.0000 0.52959  0.55710  0.96238  Biso   1.000  C
  C26      1.0000 0.57317  0.50517  0.99102  Biso   1.000  C
  C27      1.0000 0.48723  0.43312  0.98827  Biso   1.000  C
  C28      1.0000 0.45352  0.46950  0.96524  Biso   1.000  C
  H19      1.0000 0.87719  0.87471  0.86784  Biso   1.000  H
  H20      1.0000 0.99878  0.87418  0.84622  Biso   1.000  H
  N4       1.0000 0.00712  0.81030  0.79584  Biso   1.000  N
  C29      1.0000 0.75868  0.91197  0.89374  Biso   1.000  C
  C30      1.0000 0.65810  0.78157  0.88843  Biso   1.000  C
  C31      1.0000 0.66960  0.26262  0.86753  Biso   1.000  C
  H21      1.0000 0.54949  0.59578  0.93724  Biso   1.000  H
  C32      1.0000 0.50523  0.57323  0.00898  Biso   1.000  C
  H22      1.0000 0.61889  0.50229  0.98762  Biso   1.000  H
  C33      1.0000 0.55709  0.52961  0.03762  Biso   1.000  C
  H23      1.0000 0.47218  0.38078  0.98197  Biso   1.000  H
  C34      1.0000 0.46948  0.45349  0.03476  Biso   1.000  C
  H24      1.0000 0.41381  0.44371  0.94121  Biso   1.000  H
  C35      1.0000 0.43312  0.48722  0.01173  Biso   1.000  C
  C36      1.0000 0.08629  0.83150  0.81291  Biso   1.000  C
  C37      1.0000 0.71780  0.92198  0.93358  Biso   1.000  C
  H25      1.0000 0.80528  0.95430  0.88174  Biso   1.000  H
  C38      1.0000 0.61879  0.79117  0.92815  Biso   1.000  C
  H26      1.0000 0.63432  0.73330  0.87162  Biso   1.000  H
  C39      1.0000 0.72871  0.28082  0.91024  Biso   1.000  C
  C40      1.0000 0.61299  0.17479  0.86494  Biso   1.000  C
  H27      1.0000 0.69792  0.28011  0.83503  Biso   1.000  H
  C41      1.0000 0.48631  0.52507  0.04748  Biso   1.000  C
  H28      1.0000 0.50233  0.61891  0.01238  Biso   1.000  H
  H29      1.0000 0.59580  0.54950  0.06272  Biso   1.000  H
  H30      1.0000 0.44372  0.41381  0.05875  Biso   1.000  H
  H31      1.0000 0.38080  0.47221  0.01803  Biso   1.000  H
  C42      1.0000 0.08501  0.75950  0.83342  Biso   1.000  C
  C43      1.0000 0.14278  0.86729  0.76814  Biso   1.000  C
  H32      1.0000 0.10232  0.87059  0.84022  Biso   1.000  H
  C44      1.0000 0.65008  0.86170  0.95306  Biso   1.000  C
  H33      1.0000 0.73760  0.97208  0.94744  Biso   1.000  H
  H34      1.0000 0.57048  0.74961  0.93846  Biso   1.000  H
  H35      1.0000 0.70092  0.26469  0.94301  Biso   1.000  H
  C45      1.0000 0.77269  0.23601  0.90153  Biso   1.000  C
  N5       1.0000 0.78392  0.36441  0.91123  Biso   1.000  N
  C46      1.0000 0.65490  0.12910  0.85772  Biso   1.000  C
  H36      1.0000 0.58251  0.15777  0.89622  Biso   1.000  H
  H37      1.0000 0.57671  0.16372  0.83682  Biso   1.000  H
  C47      1.0000 0.46883  0.54691  0.09862  Biso   1.000  C
  H38      1.0000 0.06542  0.71941  0.80653  Biso   1.000  H
  C48      1.0000 0.16861  0.77792  0.84832  Biso   1.000  C
  N6       1.0000 0.03351  0.72818  0.87662  Biso   1.000  N
  C49      1.0000 0.22578  0.88401  0.78384  Biso   1.000  C
  H39      1.0000 0.14530  0.91598  0.75764  Biso   1.000  H
  H40      1.0000 0.12402  0.83120  0.73934  Biso   1.000  H
  C50      1.0000 0.60859  0.86988  0.99905  Biso   1.000  C
  H41      1.0000 0.81040  0.24791  0.92884  Biso   1.000  H
  H42      1.0000 0.80137  0.25279  0.86952  Biso   1.000  H
  C51      1.0000 0.71519  0.14712  0.89992  Biso   1.000  C
  C52      1.0000 0.77793  0.40362  0.94824  Biso   1.000  C
  H43      1.0000 0.68118  0.14212  0.82483  Biso   1.000  H
  H44      1.0000 0.61668  0.07318  0.85772  Biso   1.000  H
  C53      1.0000 0.41692  0.57352  0.10405  Biso   1.000  C
  C54      1.0000 0.50401  0.53702  0.14213  Biso   1.000  C
  H45      1.0000 0.18751  0.81460  0.87674  Biso   1.000  H
  H46      1.0000 0.16699  0.72983  0.85913  Biso   1.000  H
  C55      1.0000 0.22458  0.81319  0.80332  Biso   1.000  C
  C56      1.0000 0.98538  0.65518  0.87804  Biso   1.000  C
  H47      1.0000 0.26049  0.90367  0.75443  Biso   1.000  H
  H48      1.0000 0.24659  0.92451  0.80993  Biso   1.000  H
  C57      1.0000 0.52801  0.82261  0.00435  Biso   1.000  C
  C58      1.0000 0.65079  0.92369  0.03648  Biso   1.000  C
  H49      1.0000 0.74370  0.11939  0.89332  Biso   1.000  H
  H50      1.0000 0.68859  0.12940  0.93254  Biso   1.000  H
  C59      1.0000 0.82872  0.48940  0.95252  Biso   1.000  C
  H51      1.0000 0.74009  0.37689  0.97322  Biso   1.000  H
  C60      1.0000 0.40030  0.59330  0.15218  Biso   1.000  C
  H52      1.0000 0.39219  0.57882  0.07536  Biso   1.000  H
  C61      1.0000 0.48870  0.55669  0.19034  Biso   1.000  C
  H53      1.0000 0.53800  0.51701  0.13896  Biso   1.000  H
  H54      1.0000 0.27724  0.82673  0.81402  Biso   1.000  H
  H55      1.0000 0.20851  0.77451  0.77624  Biso   1.000  H
  C62      1.0000 0.93060  0.61361  0.91902  Biso   1.000  C
  H56      1.0000 0.98507  0.62539  0.85023  Biso   1.000  H
  H57      1.0000 0.49909  0.78628  0.97895  Biso   1.000  H
  C63      1.0000 0.48938  0.82867  0.04748  Biso   1.000  C
  H58      1.0000 0.70488  0.95630  0.03247  Biso   1.000  H
  C64      1.0000 0.61360  0.93058  0.08098  Biso   1.000  C
  C65      1.0000 0.88301  0.53302  0.91474  Biso   1.000  C
  C66      1.0000 0.82259  0.52802  0.99561  Biso   1.000  C
  C67      1.0000 0.43720  0.58400  0.19458  Biso   1.000  C
  C68      1.0000 0.34773  0.62592  0.15817  Biso   1.000  C
  C69      1.0000 0.52969  0.54597  0.23457  Biso   1.000  C
  C70      1.0000 0.92371  0.65082  0.96352  Biso   1.000  C
  C71      1.0000 0.53302  0.88301  0.08526  Biso   1.000  C
  C72      1.0000 0.40359  0.77792  0.05176  Biso   1.000  C
  C73      1.0000 0.65518  0.98539  0.12196  Biso   1.000  C
  H59      1.0000 0.88739  0.50753  0.88602  Biso   1.000  H
  H60      1.0000 0.78631  0.49911  0.02105  Biso   1.000  H
  C74      1.0000 0.86992  0.60861  0.00092  Biso   1.000  C
  H61      1.0000 0.42658  0.59672  0.22678  Biso   1.000  H
  H62      1.0000 0.34529  0.64582  0.18988  Biso   1.000  H
  N7       1.0000 0.30609  0.62839  0.12303  Biso   1.000  N
  H63      1.0000 0.56451  0.52772  0.22876  Biso   1.000  H
  N8       1.0000 0.51912  0.56093  0.27968  Biso   1.000  N
  H64      1.0000 0.95632  0.70492  0.96753  Biso   1.000  H
  H65      1.0000 0.50749  0.88743  0.11398  Biso   1.000  H
  H66      1.0000 0.37690  0.74013  0.02678  Biso   1.000  H
  N9       1.0000 0.36440  0.78387  0.08877  Biso   1.000  N
  H67      1.0000 0.62541  0.98509  0.14977  Biso   1.000  H
  N10      1.0000 0.72817  0.03348  0.12338  Biso   1.000  N
  C75      1.0000 0.86172  0.65012  0.04694  Biso   1.000  C
  C76      1.0000 0.26261  0.66960  0.13247  Biso   1.000  C
  C77      1.0000 0.56090  0.54497  0.31925  Biso   1.000  C
  C78      1.0000 0.28079  0.72871  0.08976  Biso   1.000  C
  C79      1.0000 0.75949  0.08500  0.16658  Biso   1.000  C
  C80      1.0000 0.79120  0.61880  0.07185  Biso   1.000  C
  C81      1.0000 0.92203  0.71782  0.06642  Biso   1.000  C
  C82      1.0000 0.17482  0.61303  0.13506  Biso   1.000  C
  H68      1.0000 0.28013  0.69792  0.16497  Biso   1.000  H
  C83      1.0000 0.62888  0.62168  0.33988  Biso   1.000  C
  C84      1.0000 0.50432  0.49870  0.36215  Biso   1.000  C
  H69      1.0000 0.58209  0.51342  0.30466  Biso   1.000  H
  H70      1.0000 0.26471  0.70092  0.05695  Biso   1.000  H
  C85      1.0000 0.23599  0.77269  0.09847  Biso   1.000  C
  H71      1.0000 0.71940  0.06539  0.19347  Biso   1.000  H
  C86      1.0000 0.77788  0.16859  0.15168  Biso   1.000  C
  C87      1.0000 0.83151  0.08629  0.18705  Biso   1.000  C
  H72      1.0000 0.74962  0.57052  0.06154  Biso   1.000  H
  C88      1.0000 0.78159  0.65812  0.11157  Biso   1.000  C
  H73      1.0000 0.97209  0.73760  0.05252  Biso   1.000  H
  C89      1.0000 0.91197  0.75867  0.10626  Biso   1.000  C
  C90      1.0000 0.12911  0.65488  0.14228  Biso   1.000  C
  H74      1.0000 0.15781  0.58247  0.10378  Biso   1.000  H
  H75      1.0000 0.16370  0.57670  0.16318  Biso   1.000  H
  H76      1.0000 0.60841  0.65518  0.35206  Biso   1.000  H
  C91      1.0000 0.66843  0.60473  0.38377  Biso   1.000  C
  N11      1.0000 0.68351  0.66130  0.29801  Biso   1.000  N
  C92      1.0000 0.54606  0.48327  0.40607  Biso   1.000  C
  H77      1.0000 0.46299  0.44878  0.34897  Biso   1.000  H
  H78      1.0000 0.47981  0.52778  0.37487  Biso   1.000  H
  H79      1.0000 0.24793  0.81042  0.07116  Biso   1.000  H
  H80      1.0000 0.25280  0.80141  0.13048  Biso   1.000  H
  C93      1.0000 0.14710  0.71523  0.10008  Biso   1.000  C
  H81      1.0000 0.81461  0.18749  0.12326  Biso   1.000  H
  H82      1.0000 0.72983  0.16700  0.14087  Biso   1.000  H
  C94      1.0000 0.81317  0.22458  0.19668  Biso   1.000  C
  C95      1.0000 0.86732  0.14281  0.23186  Biso   1.000  C
  H83      1.0000 0.87062  0.10231  0.15978  Biso   1.000  H
  N12      1.0000 0.81033  0.00711  0.20416  Biso   1.000  N
  C96      1.0000 0.83757  0.72888  0.12788  Biso   1.000  C
  H84      1.0000 0.73327  0.63428  0.12838  Biso   1.000  H
  H85      1.0000 0.95430  0.80530  0.11826  Biso   1.000  H
  H86      1.0000 0.14212  0.68120  0.17517  Biso   1.000  H
  H87      1.0000 0.07320  0.61668  0.14228  Biso   1.000  H
  H88      1.0000 0.69251  0.57529  0.37086  Biso   1.000  H
  H89      1.0000 0.71000  0.65412  0.39725  Biso   1.000  H
  C97      1.0000 0.61388  0.55957  0.42555  Biso   1.000  C
  C98      1.0000 0.70251  0.73030  0.28797  Biso   1.000  C
  H90      1.0000 0.50913  0.45672  0.43358  Biso   1.000  H
  H91      1.0000 0.56558  0.44931  0.39435  Biso   1.000  H
  H92      1.0000 0.11939  0.74372  0.10668  Biso   1.000  H
  H93      1.0000 0.12941  0.68862  0.06746  Biso   1.000  H
  H94      1.0000 0.82669  0.27721  0.18598  Biso   1.000  H
  H95      1.0000 0.77449  0.20851  0.22376  Biso   1.000  H
  C99      1.0000 0.88396  0.22576  0.21616  Biso   1.000  C
  H96      1.0000 0.91597  0.14528  0.24236  Biso   1.000  H
  H97      1.0000 0.83118  0.12397  0.26066  Biso   1.000  H
  C100     1.0000 0.83952  0.97261  0.18048  Biso   1.000  C
  C101     1.0000 0.82169  0.77339  0.16837  Biso   1.000  C
  H98      1.0000 0.59370  0.59089  0.44106  Biso   1.000  H
  H99      1.0000 0.64220  0.54839  0.45157  Biso   1.000  H
  C102     1.0000 0.75231  0.77351  0.24427  Biso   1.000  C
  H100     1.0000 0.68453  0.75602  0.30917  Biso   1.000  H
  H101     1.0000 0.90367  0.26049  0.24557  Biso   1.000  H
  H102     1.0000 0.92451  0.24660  0.19007  Biso   1.000  H
  C103     1.0000 0.82079  0.89119  0.19328  Biso   1.000  C
  H103     1.0000 0.87419  0.99881  0.15378  Biso   1.000  H
  C104     1.0000 0.84372  0.85110  0.16035  Biso   1.000  C
  C105     1.0000 0.77588  0.73448  0.20955  Biso   1.000  C
  C106     1.0000 0.77601  0.85181  0.23526  Biso   1.000  C
  H104     1.0000 0.87471  0.87718  0.13216  Biso   1.000  H
  H105     1.0000 0.76021  0.68173  0.21467  Biso   1.000  H
  H106     1.0000 0.76141  0.87848  0.25817  Biso   1.000  H
  C107     1.0000 0.27291  0.34922  0.70313  Biso   1.000  C
  C108     1.0000 0.26130  0.39138  0.66574  Biso   1.000  C
  H107     1.0000 0.25142  0.29512  0.69912  Biso   1.000  H
  C109     1.0000 0.31698  0.38637  0.74763  Biso   1.000  C
  C110     1.0000 0.21159  0.34987  0.61971  Biso   1.000  C
  C111     1.0000 0.29457  0.47197  0.67105  Biso   1.000  C
  C112     1.0000 0.35001  0.46703  0.75191  Biso   1.000  C
  C113     1.0000 0.33020  0.34481  0.78862  Biso   1.000  C
  C114     1.0000 0.20423  0.28223  0.60023  Biso   1.000  C
  C115     1.0000 0.17239  0.38119  0.59484  Biso   1.000  C
  C116     1.0000 0.33932  0.51059  0.71413  Biso   1.000  C
  H108     1.0000 0.28720  0.50088  0.64565  Biso   1.000  H
  H109     1.0000 0.37989  0.49252  0.78063  Biso   1.000  H
  H110     1.0000 0.35968  0.37460  0.81642  Biso   1.000  H
  N13      1.0000 0.30532  0.27181  0.79003  Biso   1.000  N
  C117     1.0000 0.15329  0.24131  0.56039  Biso   1.000  C
  H111     1.0000 0.23449  0.26239  0.61413  Biso   1.000  H
  C118     1.0000 0.12350  0.34192  0.55508  Biso   1.000  C
  H112     1.0000 0.17912  0.42952  0.60512  Biso   1.000  H
  C119     1.0000 0.37433  0.59642  0.71841  Biso   1.000  C
  C120     1.0000 0.32551  0.24049  0.83323  Biso   1.000  C
  C121     1.0000 0.10868  0.27110  0.53881  Biso   1.000  C
  H113     1.0000 0.14899  0.19469  0.54840  Biso   1.000  H
  H114     1.0000 0.09899  0.36571  0.53831  Biso   1.000  H
  H115     1.0000 0.36319  0.62309  0.69343  Biso   1.000  H
  N14      1.0000 0.41950  0.63557  0.75542  Biso   1.000  N
  H116     1.0000 0.34601  0.28058  0.86012  Biso   1.000  H
  C122     1.0000 0.39071  0.22212  0.81833  Biso   1.000  C
  C123     1.0000 0.25479  0.16849  0.85374  Biso   1.000  C
  C124     1.0000 0.04829  0.22660  0.49828  Biso   1.000  C
  C125     1.0000 0.44789  0.71917  0.75642  Biso   1.000  C
  H117     1.0000 0.37290  0.18539  0.78992  Biso   1.000  H
  H118     1.0000 0.43719  0.27022  0.80752  Biso   1.000  H
  C126     1.0000 0.41139  0.18680  0.86333  Biso   1.000  C
  C127     1.0000 0.27548  0.13270  0.89851  Biso   1.000  C
  H119     1.0000 0.23172  0.12940  0.82643  Biso   1.000  H
  N15      1.0000 0.19681  0.18968  0.87082  Biso   1.000  N
  C128     1.0000 0.04139  0.26551  0.45710  Biso   1.000  C
  C129     1.0000 0.99261  0.14889  0.50630  Biso   1.000  C
  C130     1.0000 0.40700  0.73742  0.79912  Biso   1.000  C
  H120     1.0000 0.43622  0.73530  0.72364  Biso   1.000  H
  C131     1.0000 0.53667  0.76397  0.76513  Biso   1.000  C
  H121     1.0000 0.45053  0.17332  0.85264  Biso   1.000  H
  H122     1.0000 0.43399  0.22548  0.89041  Biso   1.000  H
  C132     1.0000 0.34177  0.11598  0.88281  Biso   1.000  C
  H123     1.0000 0.22932  0.08401  0.90901  Biso   1.000  H
  H124     1.0000 0.29281  0.16878  0.92731  Biso   1.000  H
  C133     1.0000 0.13311  0.16048  0.84714  Biso   1.000  C
  C134     1.0000 0.97879  0.22648  0.42238  Biso   1.000  C
  H125     1.0000 0.07850  0.31832  0.45199  Biso   1.000  H
  C135     1.0000 0.92959  0.10879  0.47341  Biso   1.000  C
  H126     1.0000 0.99752  0.12281  0.53449  Biso   1.000  H
  N16      1.0000 0.32233  0.69392  0.78972  Biso   1.000  N
  C136     1.0000 0.43819  0.82520  0.80172  Biso   1.000  C
  H127     1.0000 0.41781  0.71988  0.83163  Biso   1.000  H
  H128     1.0000 0.56249  0.75208  0.73782  Biso   1.000  H
  H129     1.0000 0.54857  0.74719  0.79714  Biso   1.000  H
  C137     1.0000 0.56810  0.85293  0.76673  Biso   1.000  C
  H130     1.0000 0.35681  0.09631  0.91222  Biso   1.000  H
  H131     1.0000 0.32207  0.07547  0.85672  Biso   1.000  H
  C138     1.0000 0.07038  0.17920  0.85993  Biso   1.000  C
  H132     1.0000 0.12459  0.12581  0.82044  Biso   1.000  H
  C139     1.0000 0.97221  0.26969  0.37869  Biso   1.000  C
  C140     1.0000 0.92420  0.14818  0.43140  Biso   1.000  C
  C141     1.0000 0.86690  0.02738  0.48621  Biso   1.000  C
  C142     1.0000 0.27822  0.65229  0.82483  Biso   1.000  C
  C143     1.0000 0.52578  0.87088  0.80894  Biso   1.000  C
  H133     1.0000 0.42473  0.84221  0.77044  Biso   1.000  H
  H134     1.0000 0.41301  0.83632  0.82983  Biso   1.000  H
  H135     1.0000 0.62430  0.88060  0.77334  Biso   1.000  H
  H136     1.0000 0.55919  0.87059  0.73411  Biso   1.000  H
  C144     1.0000 0.07580  0.22401  0.90191  Biso   1.000  C
  C145     1.0000 0.00739  0.15630  0.82704  Biso   1.000  C
  N17      1.0000 0.02220  0.33869  0.36864  Biso   1.000  N
  H137     1.0000 0.92853  0.24402  0.35749  Biso   1.000  H
  H138     1.0000 0.88292  0.12151  0.40848  Biso   1.000  H
  N18      1.0000 0.80324  0.99294  0.46249  Biso   1.000  N
  H139     1.0000 0.87537  0.00118  0.51291  Biso   1.000  H
  C146     1.0000 0.19300  0.59972  0.81883  Biso   1.000  C
  H140     1.0000 0.30048  0.65471  0.85653  Biso   1.000  H
  H141     1.0000 0.53906  0.85787  0.84183  Biso   1.000  H
  H142     1.0000 0.54350  0.92681  0.80894  Biso   1.000  H
  C147     1.0000 0.02120  0.24767  0.91092  Biso   1.000  C
  H143     1.0000 0.11711  0.23861  0.92483  Biso   1.000  H
  C148     1.0000 0.95171  0.17832  0.83503  Biso   1.000  C
  H144     1.0000 0.00248  0.12528  0.79882  Biso   1.000  H
  C149     1.0000 0.00719  0.37831  0.32681  Biso   1.000  C
  C150     1.0000 0.74521  0.91369  0.47960  Biso   1.000  C
  C151     1.0000 0.15661  0.58312  0.77074  Biso   1.000  C
  C152     1.0000 0.14681  0.56281  0.86123  Biso   1.000  C
  C153     1.0000 0.02780  0.29748  0.95462  Biso   1.000  C
  C154     1.0000 0.95860  0.22412  0.87624  Biso   1.000  C
  C155     1.0000 0.89130  0.16243  0.79454  Biso   1.000  C
  C156     1.0000 0.06373  0.39532  0.28289  Biso   1.000  C
  C157     1.0000 0.01592  0.45502  0.34740  Biso   1.000  C
  H145     1.0000 0.95322  0.34481  0.31459  Biso   1.000  H
  C158     1.0000 0.67448  0.91499  0.50011  Biso   1.000  C
  C159     1.0000 0.72453  0.85724  0.43480  Biso   1.000  C
  H146     1.0000 0.76834  0.89774  0.50691  Biso   1.000  H
  C160     1.0000 0.07808  0.53120  0.76528  Biso   1.000  C
  H147     1.0000 0.18658  0.60779  0.74202  Biso   1.000  H
  C161     1.0000 0.06798  0.51130  0.85699  Biso   1.000  C
  H148     1.0000 0.17010  0.57341  0.89343  Biso   1.000  H
  N19      1.0000 0.97781  0.31649  0.96467  Biso   1.000  N
  H149     1.0000 0.07148  0.31549  0.97582  Biso   1.000  H
  H150     1.0000 0.92151  0.23978  0.88132  Biso   1.000  H
  C162     1.0000 0.87652  0.21841  0.77823  Biso   1.000  C
  C163     1.0000 0.84670  0.08801  0.77292  Biso   1.000  C
  H151     1.0000 0.11721  0.42470  0.29580  Biso   1.000  H
  H152     1.0000 0.05590  0.34593  0.26940  Biso   1.000  H
  C164     1.0000 0.05431  0.44042  0.24110  Biso   1.000  C
  C165     1.0000 0.00562  0.50129  0.30451  Biso   1.000  C
  H153     1.0000 0.06867  0.48657  0.36199  Biso   1.000  H
  N20      1.0000 0.95822  0.43912  0.38697  Biso   1.000  N
  H154     1.0000 0.65400  0.93459  0.47319  Biso   1.000  H
  C166     1.0000 0.60928  0.83139  0.51501  Biso   1.000  C
  N21      1.0000 0.69468  0.96650  0.54328  Biso   1.000  N
  C167     1.0000 0.65820  0.77423  0.45050  Biso   1.000  C
  H155     1.0000 0.77068  0.85471  0.42429  Biso   1.000  H
  H156     1.0000 0.70720  0.87602  0.40600  Biso   1.000  H
  C168     1.0000 0.03880  0.51371  0.71413  Biso   1.000  C
  C169     1.0000 0.03300  0.49599  0.80882  Biso   1.000  C
  C170     1.0000 0.01629  0.47032  0.90122  Biso   1.000  C
  C171     1.0000 0.99279  0.37112  0.00653  Biso   1.000  C
  C172     1.0000 0.82762  0.20882  0.73850  Biso   1.000  C
  H157     1.0000 0.90101  0.26669  0.79503  Biso   1.000  H
  C173     1.0000 0.79581  0.07800  0.73308  Biso   1.000  C
  H158     1.0000 0.85098  0.04568  0.78491  Biso   1.000  H
  H159     1.0000 0.00280  0.40910  0.22559  Biso   1.000  H
  H160     1.0000 0.09380  0.45160  0.21509  Biso   1.000  H
  C174     1.0000 0.06278  0.51671  0.26058  Biso   1.000  C
  H161     1.0000 0.01421  0.55121  0.31769  Biso   1.000  H
  H162     1.0000 0.95202  0.47221  0.29179  Biso   1.000  H
  C175     1.0000 0.98371  0.45402  0.43209  Biso   1.000  C
  H163     1.0000 0.62711  0.81250  0.54339  Biso   1.000  H
  H164     1.0000 0.56284  0.83304  0.52578  Biso   1.000  H
  C176     1.0000 0.58858  0.77541  0.47002  Biso   1.000  C
  C177     1.0000 0.66979  0.01460  0.54469  Biso   1.000  C
  H165     1.0000 0.64317  0.73949  0.42108  Biso   1.000  H
  H166     1.0000 0.67791  0.75339  0.47659  Biso   1.000  H
  C178     1.0000 0.06799  0.49481  0.67563  Biso   1.000  C
  C179     1.0000 0.05411  0.56687  0.67838  Biso   1.000  C
  C180     1.0000 0.97249  0.44289  0.70428  Biso   1.000  C
  C181     1.0000 0.98402  0.53049  0.70141  Biso   1.000  C
  H167     1.0000 0.97900  0.46202  0.80561  Biso   1.000  H
  N22      1.0000 0.04183  0.48092  0.94637  Biso   1.000  N
  H168     1.0000 0.96317  0.43547  0.89542  Biso   1.000  H
  C182     1.0000 0.98412  0.43912  0.98594  Biso   1.000  C
  C183     1.0000 0.93633  0.33162  0.05042  Biso   1.000  C
  H169     1.0000 0.04683  0.39161  0.01872  Biso   1.000  H
  C184     1.0000 0.78838  0.13829  0.71360  Biso   1.000  C
  H170     1.0000 0.82087  0.25038  0.72819  Biso   1.000  H
  H171     1.0000 0.76551  0.02790  0.71921  Biso   1.000  H
  H172     1.0000 0.05243  0.54332  0.23312  Biso   1.000  H
  H173     1.0000 0.11627  0.55068  0.27231  Biso   1.000  H
  H174     1.0000 0.03681  0.47232  0.43789  Biso   1.000  H
  C185     1.0000 0.93201  0.44330  0.47632  Biso   1.000  C
  H175     1.0000 0.54950  0.72283  0.48071  Biso   1.000  H
  H176     1.0000 0.56600  0.79154  0.44290  Biso   1.000  H
  C186     1.0000 0.68302  0.06941  0.58571  Biso   1.000  C
  H177     1.0000 0.64031  0.01489  0.51688  Biso   1.000  H
  C187     1.0000 0.02748  0.47038  0.62903  Biso   1.000  C
  H178     1.0000 0.11660  0.49770  0.67903  Biso   1.000  H
  C188     1.0000 0.01599  0.54650  0.63189  Biso   1.000  C
  H179     1.0000 0.09139  0.61921  0.68468  Biso   1.000  H
  C189     1.0000 0.93203  0.42682  0.65768  Biso   1.000  C
  H180     1.0000 0.95371  0.40421  0.72941  Biso   1.000  H
  C190     1.0000 0.94592  0.51283  0.65493  Biso   1.000  C
  H181     1.0000 0.97009  0.55627  0.72544  Biso   1.000  H
  H182     1.0000 0.93130  0.41793  0.97131  Biso   1.000  H
  C191     1.0000 0.99441  0.49570  0.02884  Biso   1.000  C
  H183     1.0000 0.88281  0.30748  0.03755  Biso   1.000  H
  H184     1.0000 0.94412  0.29000  0.06394  Biso   1.000  H
  C192     1.0000 0.94566  0.38608  0.09225  Biso   1.000  C
  C193     1.0000 0.73870  0.13011  0.66761  Biso   1.000  C
  C194     1.0000 0.85319  0.41598  0.47208  Biso   1.000  C
  C195     1.0000 0.96701  0.46302  0.52452  Biso   1.000  C
  C196     1.0000 0.65000  0.11698  0.58140  Biso   1.000  C
  C197     1.0000 0.72710  0.07630  0.63021  Biso   1.000  C
  C198     1.0000 0.96123  0.47491  0.61921  Biso   1.000  C
  H185     1.0000 0.04629  0.45048  0.60393  Biso   1.000  H
  H186     1.0000 0.02991  0.58618  0.60791  Biso   1.000  H
  H187     1.0000 0.88341  0.38107  0.65428  Biso   1.000  H
  H188     1.0000 0.90858  0.52778  0.64862  Biso   1.000  H
  C199     1.0000 0.93721  0.45390  0.07273  Biso   1.000  C
  H189     1.0000 0.98581  0.53702  0.01562  Biso   1.000  H
  H190     1.0000 0.04800  0.52019  0.04152  Biso   1.000  H
  H191     1.0000 0.99719  0.40633  0.10772  Biso   1.000  H
  H192     1.0000 0.90620  0.35782  0.11822  Biso   1.000  H
  C200     1.0000 0.70539  0.17738  0.66230  Biso   1.000  C
  H193     1.0000 0.82989  0.40333  0.43988  Biso   1.000  H
  C201     1.0000 0.80699  0.40668  0.51451  Biso   1.000  C
  H194     1.0000 0.02098  0.48298  0.52769  Biso   1.000  H
  C202     1.0000 0.92191  0.45307  0.56803  Biso   1.000  C
  C203     1.0000 0.66071  0.17132  0.61921  Biso   1.000  C
  H195     1.0000 0.62009  0.11262  0.55271  Biso   1.000  H
  H196     1.0000 0.74857  0.04368  0.63419  Biso   1.000  H
  H197     1.0000 0.94762  0.49093  0.10023  Biso   1.000  H
  H198     1.0000 0.88372  0.43441  0.06104  Biso   1.000  H
  H199     1.0000 0.71280  0.21370  0.68770  Biso   1.000  H
  C204     1.0000 0.84342  0.42652  0.56261  Biso   1.000  C
  C205     1.0000 0.72183  0.37413  0.50848  Biso   1.000  C
  C206     1.0000 0.62569  0.22212  0.61490  Biso   1.000  C
  H200     1.0000 0.81340  0.42122  0.59129  Biso   1.000  H
  H201     1.0000 0.69950  0.35423  0.47681  Biso   1.000  H
  N23      1.0000 0.67769  0.37160  0.54362  Biso   1.000  N
  N24      1.0000 0.58053  0.21612  0.57788  Biso   1.000  N
  H202     1.0000 0.63679  0.25992  0.63988  Biso   1.000  H
  C207     1.0000 0.59300  0.33039  0.53419  Biso   1.000  C
  C208     1.0000 0.55208  0.27128  0.57689  Biso   1.000  C
  C209     1.0000 0.56182  0.38702  0.53159  Biso   1.000  C
  H203     1.0000 0.58224  0.30213  0.50168  Biso   1.000  H
  H204     1.0000 0.56381  0.29912  0.60970  Biso   1.000  H
  C210     1.0000 0.46330  0.22730  0.56818  Biso   1.000  C
  C211     1.0000 0.47422  0.34510  0.52441  Biso   1.000  C
  H205     1.0000 0.57533  0.41751  0.56291  Biso   1.000  H
  H206     1.0000 0.58699  0.42328  0.50351  Biso   1.000  H
  H207     1.0000 0.43753  0.18962  0.59549  Biso   1.000  H
  H208     1.0000 0.45138  0.19857  0.53621  Biso   1.000  H
  C212     1.0000 0.43190  0.28482  0.56658  Biso   1.000  C
  H209     1.0000 0.46091  0.31879  0.49148  Biso   1.000  H
  H210     1.0000 0.45652  0.38331  0.52441  Biso   1.000  H
  H211     1.0000 0.37569  0.25633  0.56001  Biso   1.000  H
  H212     1.0000 0.44082  0.31143  0.59920  Biso   1.000  H
  C213     1.0000 0.26552  0.04139  0.54290  Biso   1.000  C
  C214     1.0000 0.22659  0.04827  0.50168  Biso   1.000  C
  H213     1.0000 0.31827  0.07848  0.54801  Biso   1.000  H
  C215     1.0000 0.22648  0.97881  0.57758  Biso   1.000  C
  C216     1.0000 0.27107  0.10868  0.46119  Biso   1.000  C
  C217     1.0000 0.14892  0.99264  0.49370  Biso   1.000  C
  C218     1.0000 0.14821  0.92423  0.56860  Biso   1.000  C
  C219     1.0000 0.26973  0.97221  0.62131  Biso   1.000  C
  C220     1.0000 0.34191  0.12351  0.44488  Biso   1.000  C
  C221     1.0000 0.24128  0.15330  0.43961  Biso   1.000  C
  C222     1.0000 0.10877  0.92959  0.52659  Biso   1.000  C
  H214     1.0000 0.12281  0.99753  0.46551  Biso   1.000  H
  H215     1.0000 0.12153  0.88291  0.59148  Biso   1.000  H
  N25      1.0000 0.33872  0.02219  0.63132  Biso   1.000  N
  H216     1.0000 0.24401  0.92853  0.64251  Biso   1.000  H
  C223     1.0000 0.38118  0.17237  0.40516  Biso   1.000  C
  H217     1.0000 0.36571  0.09902  0.46169  Biso   1.000  H
  C224     1.0000 0.28219  0.20422  0.39977  Biso   1.000  C
  H218     1.0000 0.19472  0.14900  0.45160  Biso   1.000  H
  C225     1.0000 0.02741  0.86689  0.51379  Biso   1.000  C
  C226     1.0000 0.37827  0.00718  0.67319  Biso   1.000  C
  C227     1.0000 0.34990  0.21158  0.38025  Biso   1.000  C
  H219     1.0000 0.42950  0.17909  0.39488  Biso   1.000  H
  H220     1.0000 0.26239  0.23448  0.38587  Biso   1.000  H
  N26      1.0000 0.99291  0.80319  0.53751  Biso   1.000  N
  H221     1.0000 0.00119  0.87543  0.48709  Biso   1.000  H
  C228     1.0000 0.39531  0.06370  0.71711  Biso   1.000  C
  C229     1.0000 0.45498  0.01590  0.65260  Biso   1.000  C
  H222     1.0000 0.34481  0.95320  0.68541  Biso   1.000  H
  C230     1.0000 0.39137  0.26127  0.33426  Biso   1.000  C
  C231     1.0000 0.91370  0.74521  0.52040  Biso   1.000  C
  H223     1.0000 0.42472  0.11721  0.70420  Biso   1.000  H
  H224     1.0000 0.34590  0.05593  0.73060  Biso   1.000  H
  C232     1.0000 0.44036  0.05428  0.75890  Biso   1.000  C
  C233     1.0000 0.50132  0.00559  0.69549  Biso   1.000  C
  H225     1.0000 0.48658  0.06870  0.63801  Biso   1.000  H
  N27      1.0000 0.43908  0.95820  0.61303  Biso   1.000  N
  C234     1.0000 0.34922  0.27293  0.29687  Biso   1.000  C
  C235     1.0000 0.47201  0.29459  0.32895  Biso   1.000  C
  C236     1.0000 0.91500  0.67450  0.49989  Biso   1.000  C
  C237     1.0000 0.85722  0.72454  0.56520  Biso   1.000  C
  H226     1.0000 0.89773  0.76834  0.49309  Biso   1.000  H
  H227     1.0000 0.40913  0.00283  0.77441  Biso   1.000  H
  H228     1.0000 0.45160  0.09378  0.78491  Biso   1.000  H
  C238     1.0000 0.51672  0.06282  0.73938  Biso   1.000  C
  H229     1.0000 0.55120  0.01419  0.68228  Biso   1.000  H
  H230     1.0000 0.47219  0.95202  0.70821  Biso   1.000  H
  C239     1.0000 0.45402  0.98369  0.56791  Biso   1.000  C
  C240     1.0000 0.38641  0.31702  0.25237  Biso   1.000  C
  H231     1.0000 0.29511  0.25138  0.30088  Biso   1.000  H
  C241     1.0000 0.51057  0.33927  0.28587  Biso   1.000  C
  H232     1.0000 0.50088  0.28717  0.35435  Biso   1.000  H
  H233     1.0000 0.93458  0.65401  0.52681  Biso   1.000  H
  C242     1.0000 0.83143  0.60933  0.48499  Biso   1.000  C
  N28      1.0000 0.96650  0.69469  0.45668  Biso   1.000  N
  C243     1.0000 0.77419  0.65819  0.54950  Biso   1.000  C
  H234     1.0000 0.85471  0.77070  0.57571  Biso   1.000  H
  H235     1.0000 0.87600  0.70723  0.59400  Biso   1.000  H
  H236     1.0000 0.54328  0.05240  0.76688  Biso   1.000  H
  H237     1.0000 0.55069  0.11627  0.72769  Biso   1.000  H
  H238     1.0000 0.47231  0.03679  0.56211  Biso   1.000  H
  C244     1.0000 0.44331  0.93200  0.52368  Biso   1.000  C
  C245     1.0000 0.34482  0.33021  0.21138  Biso   1.000  C
  C246     1.0000 0.46698  0.34999  0.24805  Biso   1.000  C
  C247     1.0000 0.59640  0.37430  0.28155  Biso   1.000  C
  H239     1.0000 0.81248  0.62711  0.45661  Biso   1.000  H
  H240     1.0000 0.83301  0.56282  0.47418  Biso   1.000  H
  C248     1.0000 0.77539  0.58861  0.52998  Biso   1.000  C
  C249     1.0000 0.01461  0.66979  0.45531  Biso   1.000  C
  H241     1.0000 0.73954  0.64324  0.57888  Biso   1.000  H
  H242     1.0000 0.75341  0.67792  0.52341  Biso   1.000  H
  C250     1.0000 0.46302  0.96703  0.47548  Biso   1.000  C
  C251     1.0000 0.41601  0.85323  0.52788  Biso   1.000  C
  N29      1.0000 0.27180  0.30531  0.20997  Biso   1.000  N
  H243     1.0000 0.37461  0.35970  0.18358  Biso   1.000  H
  H244     1.0000 0.49249  0.37990  0.21937  Biso   1.000  H
  H245     1.0000 0.62311  0.36318  0.30657  Biso   1.000  H
  N30      1.0000 0.63563  0.41952  0.24458  Biso   1.000  N
  H246     1.0000 0.72281  0.54952  0.51929  Biso   1.000  H
  H247     1.0000 0.79151  0.56600  0.55710  Biso   1.000  H
  C252     1.0000 0.06942  0.68304  0.41429  Biso   1.000  C
  H248     1.0000 0.01491  0.64030  0.48308  Biso   1.000  H
  C253     1.0000 0.45312  0.92194  0.43197  Biso   1.000  C
  H249     1.0000 0.48303  0.02102  0.47231  Biso   1.000  H
  C254     1.0000 0.40672  0.80702  0.48549  Biso   1.000  C
  H250     1.0000 0.40329  0.82992  0.56008  Biso   1.000  H
  C255     1.0000 0.24050  0.32550  0.16677  Biso   1.000  C
  C256     1.0000 0.71920  0.44789  0.24358  Biso   1.000  C
  C257     1.0000 0.07632  0.72713  0.36979  Biso   1.000  C
  C258     1.0000 0.11699  0.65001  0.41860  Biso   1.000  C
  C259     1.0000 0.47489  0.96120  0.38079  Biso   1.000  C
  C260     1.0000 0.42649  0.84340  0.43739  Biso   1.000  C
  C261     1.0000 0.37412  0.72183  0.49148  Biso   1.000  C
  H251     1.0000 0.28057  0.34599  0.13988  Biso   1.000  H
  C262     1.0000 0.22213  0.39073  0.18167  Biso   1.000  C
  C263     1.0000 0.16849  0.25479  0.14626  Biso   1.000  C
  H252     1.0000 0.73527  0.43618  0.27636  Biso   1.000  H
  C264     1.0000 0.76403  0.53673  0.23487  Biso   1.000  C
  C265     1.0000 0.73739  0.40698  0.20088  Biso   1.000  C
  C266     1.0000 0.13010  0.73873  0.33239  Biso   1.000  C
  H253     1.0000 0.04373  0.74862  0.36581  Biso   1.000  H
  C267     1.0000 0.17129  0.66073  0.38079  Biso   1.000  C
  H254     1.0000 0.11259  0.62010  0.44729  Biso   1.000  H
  C268     1.0000 0.47041  0.02749  0.37097  Biso   1.000  C
  C269     1.0000 0.54650  0.01601  0.36811  Biso   1.000  C
  C270     1.0000 0.42680  0.93200  0.34228  Biso   1.000  C
  C271     1.0000 0.51282  0.94590  0.34507  Biso   1.000  C
  H255     1.0000 0.42120  0.81344  0.40871  Biso   1.000  H
  N31      1.0000 0.37160  0.67774  0.45638  Biso   1.000  N
  H256     1.0000 0.35420  0.69952  0.52319  Biso   1.000  H
  H257     1.0000 0.18537  0.37289  0.21008  Biso   1.000  H
  H258     1.0000 0.27018  0.43718  0.19248  Biso   1.000  H
  C272     1.0000 0.18678  0.41139  0.13667  Biso   1.000  C
  C273     1.0000 0.13271  0.27552  0.10145  Biso   1.000  C
  H259     1.0000 0.12942  0.23172  0.17357  Biso   1.000  H
  N32      1.0000 0.18972  0.19681  0.12918  Biso   1.000  N
  H260     1.0000 0.75209  0.56251  0.26215  Biso   1.000  H
  H261     1.0000 0.74719  0.54862  0.20286  Biso   1.000  H
  C274     1.0000 0.85288  0.56811  0.23327  Biso   1.000  C
  C275     1.0000 0.82519  0.43818  0.19828  Biso   1.000  C
  H262     1.0000 0.71992  0.41781  0.16837  Biso   1.000  H
  N33      1.0000 0.69389  0.32232  0.21028  Biso   1.000  N
  C276     1.0000 0.13832  0.78842  0.28640  Biso   1.000  C
  C277     1.0000 0.17742  0.70541  0.33770  Biso   1.000  C
  C278     1.0000 0.22210  0.62570  0.38510  Biso   1.000  C
  C279     1.0000 0.49479  0.06800  0.32437  Biso   1.000  C
  H263     1.0000 0.45048  0.04627  0.39607  Biso   1.000  H
  C280     1.0000 0.56692  0.05410  0.32158  Biso   1.000  C
  H264     1.0000 0.58618  0.02991  0.39209  Biso   1.000  H
  C281     1.0000 0.44292  0.97251  0.29568  Biso   1.000  C
  H265     1.0000 0.38110  0.88343  0.34568  Biso   1.000  H
  C282     1.0000 0.53049  0.98399  0.29855  Biso   1.000  C
  H266     1.0000 0.52783  0.90863  0.35138  Biso   1.000  H
  C283     1.0000 0.33042  0.59302  0.46581  Biso   1.000  C
  H267     1.0000 0.17329  0.45048  0.14736  Biso   1.000  H
  H268     1.0000 0.22551  0.43400  0.10955  Biso   1.000  H
  C284     1.0000 0.11599  0.34181  0.11715  Biso   1.000  C
  H269     1.0000 0.08401  0.22930  0.09095  Biso   1.000  H
  H270     1.0000 0.16879  0.29283  0.07265  Biso   1.000  H
  C285     1.0000 0.16052  0.13311  0.15286  Biso   1.000  C
  H271     1.0000 0.88061  0.62427  0.22666  Biso   1.000  H
  H272     1.0000 0.87062  0.55922  0.26585  Biso   1.000  H
  C286     1.0000 0.87087  0.52578  0.19106  Biso   1.000  C
  H273     1.0000 0.84220  0.42470  0.22956  Biso   1.000  H
  H274     1.0000 0.83630  0.41298  0.17017  Biso   1.000  H
  C287     1.0000 0.65232  0.27823  0.17517  Biso   1.000  C
  C288     1.0000 0.07799  0.79583  0.26688  Biso   1.000  C
  C289     1.0000 0.20881  0.82763  0.26150  Biso   1.000  C
  H275     1.0000 0.21371  0.71283  0.31230  Biso   1.000  H
  H276     1.0000 0.25993  0.63682  0.36008  Biso   1.000  H
  N34      1.0000 0.21614  0.58054  0.42208  Biso   1.000  N
  C290     1.0000 0.51369  0.03880  0.28587  Biso   1.000  C
  H277     1.0000 0.49769  0.11662  0.32097  Biso   1.000  H
  H278     1.0000 0.61923  0.09143  0.31528  Biso   1.000  H
  H279     1.0000 0.40421  0.95373  0.27059  Biso   1.000  H
  H280     1.0000 0.55627  0.97009  0.27456  Biso   1.000  H
  C291     1.0000 0.27131  0.55211  0.42311  Biso   1.000  C
  C292     1.0000 0.38701  0.56182  0.46841  Biso   1.000  C
  H281     1.0000 0.30211  0.58219  0.49828  Biso   1.000  H
  H282     1.0000 0.09633  0.35682  0.08778  Biso   1.000  H
  H283     1.0000 0.07549  0.32208  0.14328  Biso   1.000  H
  C293     1.0000 0.17918  0.07041  0.14007  Biso   1.000  C
  H284     1.0000 0.12576  0.12457  0.17956  Biso   1.000  H
  H285     1.0000 0.85790  0.53908  0.15817  Biso   1.000  H
  H286     1.0000 0.92679  0.54350  0.19106  Biso   1.000  H
  C294     1.0000 0.59970  0.19298  0.18117  Biso   1.000  C
  H287     1.0000 0.65468  0.30048  0.14347  Biso   1.000  H
  C295     1.0000 0.08798  0.84670  0.22708  Biso   1.000  C
  H288     1.0000 0.02791  0.76552  0.28079  Biso   1.000  H
  C296     1.0000 0.21840  0.87649  0.22177  Biso   1.000  C
  H289     1.0000 0.25042  0.82091  0.27181  Biso   1.000  H
  C297     1.0000 0.53121  0.07812  0.23468  Biso   1.000  C
  H290     1.0000 0.29909  0.56382  0.39030  Biso   1.000  H
  C298     1.0000 0.22733  0.46333  0.43178  Biso   1.000  C
  C299     1.0000 0.34509  0.47422  0.47559  Biso   1.000  C
  H291     1.0000 0.41751  0.57530  0.43709  Biso   1.000  H
  H292     1.0000 0.42331  0.58702  0.49649  Biso   1.000  H
  C300     1.0000 0.22400  0.07583  0.09805  Biso   1.000  C
  C301     1.0000 0.15630  0.00742  0.17296  Biso   1.000  C
  C302     1.0000 0.56281  0.14682  0.13877  Biso   1.000  C
  C303     1.0000 0.58309  0.15660  0.22926  Biso   1.000  C
  C304     1.0000 0.16239  0.89132  0.20546  Biso   1.000  C
  H293     1.0000 0.04572  0.85100  0.21505  Biso   1.000  H
  H294     1.0000 0.26672  0.90104  0.20497  Biso   1.000  H
  C305     1.0000 0.49602  0.03303  0.19118  Biso   1.000  C
  H295     1.0000 0.18958  0.43749  0.40451  Biso   1.000  H
  H296     1.0000 0.19860  0.45144  0.46379  Biso   1.000  H
  C306     1.0000 0.28477  0.43189  0.43338  Biso   1.000  C
  H297     1.0000 0.31881  0.46092  0.50848  Biso   1.000  H
  H298     1.0000 0.38329  0.45650  0.47559  Biso   1.000  H
  H299     1.0000 0.23862  0.11709  0.07517  Biso   1.000  H
  C307     1.0000 0.24767  0.02119  0.08908  Biso   1.000  C
  H300     1.0000 0.12528  0.00247  0.20118  Biso   1.000  H
  C308     1.0000 0.17832  0.95173  0.16497  Biso   1.000  C
  C309     1.0000 0.51131  0.06800  0.14301  Biso   1.000  C
  H301     1.0000 0.57336  0.17008  0.10657  Biso   1.000  H
  H302     1.0000 0.60779  0.18662  0.25798  Biso   1.000  H
  H303     1.0000 0.46204  0.97904  0.19435  Biso   1.000  H
  H304     1.0000 0.25634  0.37573  0.43999  Biso   1.000  H
  H305     1.0000 0.31143  0.44084  0.40080  Biso   1.000  H
  C310     1.0000 0.29752  0.02779  0.04538  Biso   1.000  C
  C311     1.0000 0.22413  0.95861  0.12376  Biso   1.000  C
  C312     1.0000 0.47032  0.01631  0.09878  Biso   1.000  C
  H306     1.0000 0.31551  0.07153  0.02418  Biso   1.000  H
  N35      1.0000 0.31653  0.97781  0.03533  Biso   1.000  N
  H307     1.0000 0.23980  0.92152  0.11868  Biso   1.000  H
  N36      1.0000 0.48088  0.04180  0.05363  Biso   1.000  N
  H308     1.0000 0.43551  0.96321  0.10458  Biso   1.000  H
  C313     1.0000 0.37109  0.99282  0.99347  Biso   1.000  C
  C314     1.0000 0.43908  0.98410  0.01406  Biso   1.000  C
  C315     1.0000 0.33162  0.93630  0.94954  Biso   1.000  C
  H309     1.0000 0.39161  0.04680  0.98125  Biso   1.000  H
  C316     1.0000 0.49573  0.99441  0.97116  Biso   1.000  C
  H310     1.0000 0.41788  0.93130  0.02865  Biso   1.000  H
  H311     1.0000 0.30751  0.88279  0.96245  Biso   1.000  H
  H312     1.0000 0.29000  0.94413  0.93606  Biso   1.000  H
  C317     1.0000 0.38609  0.94572  0.90775  Biso   1.000  C
  C318     1.0000 0.45391  0.93718  0.92727  Biso   1.000  C
  H313     1.0000 0.53701  0.98581  0.98438  Biso   1.000  H
  H314     1.0000 0.52017  0.04798  0.95844  Biso   1.000  H
  H315     1.0000 0.40634  0.99723  0.89225  Biso   1.000  H
  H316     1.0000 0.35782  0.90622  0.88174  Biso   1.000  H
  H317     1.0000 0.49088  0.94760  0.89977  Biso   1.000  H
  H318     1.0000 0.43442  0.88373  0.93896  Biso   1.000  H
