data_image0
_cell_length_a       28.157
_cell_length_b       22.837
_cell_length_c       18.131
_cell_angle_alpha    90
_cell_angle_beta     94.16
_cell_angle_gamma    90

_symmetry_space_group_name_H-M    "P 1"
_symmetry_int_tables_number       1

loop_
  _symmetry_equiv_pos_as_xyz
  'x, y, z'

loop_
  _atom_site_label
  _atom_site_occupancy
  _atom_site_fract_x
  _atom_site_fract_y
  _atom_site_fract_z
  _atom_site_thermal_displace_type
  _atom_site_B_iso_or_equiv
  _atom_site_type_symbol
  C1       1.0000 0.34317  0.47598  0.48559  Biso   1.000  C
  C2       1.0000 0.35129  0.41332  0.50881  Biso   1.000  C
  C3       1.0000 0.32500  0.47988  0.40457  Biso   1.000  C
  H1       1.0000 0.31980  0.49420  0.51672  Biso   1.000  H
  H2       1.0000 0.37350  0.49801  0.49322  Biso   1.000  H
  C4       1.0000 0.38488  0.38219  0.45921  Biso   1.000  C
  N1       1.0000 0.36947  0.40929  0.58563  Biso   1.000  N
  H3       1.0000 0.31990  0.39270  0.50373  Biso   1.000  H
  C5       1.0000 0.35860  0.45269  0.35657  Biso   1.000  C
  H4       1.0000 0.32030  0.52148  0.39058  Biso   1.000  H
  H5       1.0000 0.29378  0.45991  0.39761  Biso   1.000  H
  C6       1.0000 0.36778  0.38911  0.37748  Biso   1.000  C
  N2       1.0000 0.38658  0.32040  0.47829  Biso   1.000  N
  H6       1.0000 0.41749  0.39940  0.46773  Biso   1.000  H
  C7       1.0000 0.34040  0.39659  0.63230  Biso   1.000  C
  H7       1.0000 0.34551  0.45492  0.30448  Biso   1.000  H
  H8       1.0000 0.38899  0.47458  0.36089  Biso   1.000  H
  H9       1.0000 0.33821  0.36629  0.36719  Biso   1.000  H
  H10      1.0000 0.39229  0.37290  0.34651  Biso   1.000  H
  C8       1.0000 0.42578  0.30052  0.50771  Biso   1.000  C
  C9       1.0000 0.35189  0.39138  0.71259  Biso   1.000  C
  H11      1.0000 0.30838  0.38981  0.61438  Biso   1.000  H
  C10      1.0000 0.43100  0.23930  0.53281  Biso   1.000  C
  H12      1.0000 0.45248  0.32579  0.51363  Biso   1.000  H
  C11      1.0000 0.31528  0.37921  0.75750  Biso   1.000  C
  C12      1.0000 0.39937  0.39629  0.74362  Biso   1.000  C
  C13      1.0000 0.47338  0.22240  0.57180  Biso   1.000  C
  C14      1.0000 0.39489  0.19919  0.52380  Biso   1.000  C
  C15      1.0000 0.32447  0.37229  0.83569  Biso   1.000  C
  H13      1.0000 0.28370  0.37540  0.73599  Biso   1.000  H
  C16      1.0000 0.40869  0.38998  0.82071  Biso   1.000  C
  H14      1.0000 0.42457  0.40360  0.71282  Biso   1.000  H
  C17      1.0000 0.47890  0.16758  0.60470  Biso   1.000  C
  H15      1.0000 0.49930  0.24920  0.57611  Biso   1.000  H
  H16      1.0000 0.36589  0.21010  0.49742  Biso   1.000  H
  C18      1.0000 0.39998  0.14192  0.55300  Biso   1.000  C
  C19      1.0000 0.37169  0.37671  0.86489  Biso   1.000  C
  C20      1.0000 0.28767  0.36130  0.88198  Biso   1.000  C
  C21      1.0000 0.45859  0.39322  0.85659  Biso   1.000  C
  C22      1.0000 0.52150  0.15278  0.65447  Biso   1.000  C
  C23      1.0000 0.44177  0.12782  0.59447  Biso   1.000  C
  C24      1.0000 0.35970  0.10190  0.54680  Biso   1.000  C
  H17      1.0000 0.37878  0.37041  0.91632  Biso   1.000  H
  N3       1.0000 0.24398  0.35762  0.86041  Biso   1.000  N
  H18      1.0000 0.29607  0.35631  0.93330  Biso   1.000  H
  C25      1.0000 0.47177  0.35990  0.91892  Biso   1.000  C
  C26      1.0000 0.49248  0.42641  0.82330  Biso   1.000  C
  C27      1.0000 0.56617  0.17498  0.64142  Biso   1.000  C
  C28      1.0000 0.51759  0.12261  0.71912  Biso   1.000  C
  H19      1.0000 0.44510  0.09012  0.61637  Biso   1.000  H
  N4       1.0000 0.36307  0.05001  0.57020  Biso   1.000  N
  H20      1.0000 0.33008  0.11521  0.52457  Biso   1.000  H
  C29      1.0000 0.21147  0.34098  0.91411  Biso   1.000  C
  H21      1.0000 0.44868  0.33722  0.94170  Biso   1.000  H
  C30      1.0000 0.51887  0.35990  0.94801  Biso   1.000  C
  C31      1.0000 0.53959  0.42641  0.85239  Biso   1.000  C
  H22      1.0000 0.48350  0.44918  0.78072  Biso   1.000  H
  C32      1.0000 0.60548  0.16701  0.69158  Biso   1.000  C
  H23      1.0000 0.56999  0.19609  0.59707  Biso   1.000  H
  H24      1.0000 0.48758  0.10641  0.72891  Biso   1.000  H
  C33      1.0000 0.55569  0.11468  0.77060  Biso   1.000  C
  C34      1.0000 0.32028  0.01388  0.56649  Biso   1.000  C
  H25      1.0000 0.22788  0.34589  0.96448  Biso   1.000  H
  C35      1.0000 0.16717  0.38079  0.90791  Biso   1.000  C
  C36      1.0000 0.19870  0.27679  0.90299  Biso   1.000  C
  H26      1.0000 0.52789  0.33708  0.99059  Biso   1.000  H
  C37      1.0000 0.55280  0.39309  0.91471  Biso   1.000  C
  H27      1.0000 0.56267  0.44910  0.82961  Biso   1.000  H
  C38      1.0000 0.60010  0.13820  0.75882  Biso   1.000  C
  H28      1.0000 0.63589  0.18098  0.68030  Biso   1.000  H
  H29      1.0000 0.55159  0.09292  0.81440  Biso   1.000  H
  H30      1.0000 0.29218  0.03880  0.55040  Biso   1.000  H
  C39      1.0000 0.31398  0.99072  0.64380  Biso   1.000  C
  C40      1.0000 0.32399  0.96331  0.51130  Biso   1.000  C
  H31      1.0000 0.17649  0.42160  0.92030  Biso   1.000  H
  H32      1.0000 0.15259  0.38008  0.85648  Biso   1.000  H
  C41      1.0000 0.13087  0.35920  0.96100  Biso   1.000  C
  N5       1.0000 0.24236  0.24119  0.91101  Biso   1.000  N
  C42      1.0000 0.16369  0.25700  0.95879  Biso   1.000  C
  H33      1.0000 0.18349  0.27149  0.85189  Biso   1.000  H
  C43      1.0000 0.60429  0.38801  0.94270  Biso   1.000  C
  C44      1.0000 0.64048  0.13509  0.81739  Biso   1.000  C
  N6       1.0000 0.30718  0.03902  0.69512  Biso   1.000  N
  H34      1.0000 0.34349  0.96909  0.66128  Biso   1.000  H
  C45      1.0000 0.27228  0.94890  0.64369  Biso   1.000  C
  C46      1.0000 0.28190  0.92350  0.51280  Biso   1.000  C
  H35      1.0000 0.35360  0.94089  0.52402  Biso   1.000  H
  H36      1.0000 0.32568  0.97942  0.46081  Biso   1.000  H
  H37      1.0000 0.10146  0.38289  0.95331  Biso   1.000  H
  C47      1.0000 0.11819  0.29562  0.95099  Biso   1.000  C
  H38      1.0000 0.14399  0.36559  0.01250  Biso   1.000  H
  C48      1.0000 0.25300  0.21259  0.85427  Biso   1.000  C
  H39      1.0000 0.15500  0.21548  0.94977  Biso   1.000  H
  H40      1.0000 0.17881  0.26041  0.00968  Biso   1.000  H
  C49      1.0000 0.63926  0.37689  0.89619  Biso   1.000  C
  C50      1.0000 0.61749  0.39751  0.01720  Biso   1.000  C
  C51      1.0000 0.67909  0.17301  0.81822  Biso   1.000  C
  C52      1.0000 0.64009  0.09292  0.87357  Biso   1.000  C
  C53      1.0000 0.34078  0.05009  0.74312  Biso   1.000  C
  H41      1.0000 0.24247  0.97079  0.63119  Biso   1.000  H
  H42      1.0000 0.27069  0.93252  0.69401  Biso   1.000  H
  C54      1.0000 0.27598  0.89911  0.58911  Biso   1.000  C
  H43      1.0000 0.25280  0.94531  0.49571  Biso   1.000  H
  H44      1.0000 0.28568  0.89062  0.47812  Biso   1.000  H
  H45      1.0000 0.09629  0.28379  0.98860  Biso   1.000  H
  H46      1.0000 0.10167  0.28962  0.90150  Biso   1.000  H
  C55      1.0000 0.29648  0.17752  0.85151  Biso   1.000  C
  H47      1.0000 0.23150  0.21391  0.81141  Biso   1.000  H
  H48      1.0000 0.63058  0.37260  0.84487  Biso   1.000  H
  C56      1.0000 0.68727  0.37141  0.92041  Biso   1.000  C
  C57      1.0000 0.66529  0.39362  0.04369  Biso   1.000  C
  H49      1.0000 0.59389  0.40671  0.05032  Biso   1.000  H
  C58      1.0000 0.71717  0.16920  0.87158  Biso   1.000  C
  H50      1.0000 0.67960  0.20239  0.78122  Biso   1.000  H
  H51      1.0000 0.61426  0.06621  0.87418  Biso   1.000  H
  C59      1.0000 0.67719  0.08981  0.92882  Biso   1.000  C
  C60      1.0000 0.33879  0.09831  0.79632  Biso   1.000  C
  H52      1.0000 0.36850  0.02619  0.74489  Biso   1.000  H
  H53      1.0000 0.24689  0.87481  0.58822  Biso   1.000  H
  H54      1.0000 0.30360  0.87402  0.60470  Biso   1.000  H
  C61      1.0000 0.29869  0.13452  0.79842  Biso   1.000  C
  C62      1.0000 0.33659  0.18689  0.90122  Biso   1.000  C
  C63      1.0000 0.69939  0.38030  0.99650  Biso   1.000  C
  C64      1.0000 0.72279  0.35850  0.86799  Biso   1.000  C
  C65      1.0000 0.67829  0.40141  0.12371  Biso   1.000  C
  C66      1.0000 0.71516  0.12839  0.92749  Biso   1.000  C
  C67      1.0000 0.75939  0.20730  0.87142  Biso   1.000  C
  C68      1.0000 0.67468  0.04589  0.98760  Biso   1.000  C
  C69      1.0000 0.37757  0.10881  0.84647  Biso   1.000  C
  H55      1.0000 0.27259  0.12931  0.76281  Biso   1.000  H
  C70      1.0000 0.37698  0.15418  0.89918  Biso   1.000  C
  H56      1.0000 0.33547  0.21702  0.93728  Biso   1.000  H
  H57      1.0000 0.73168  0.37702  0.01521  Biso   1.000  H
  N7       1.0000 0.76726  0.35171  0.88408  Biso   1.000  N
  H58      1.0000 0.71180  0.35469  0.81739  Biso   1.000  H
  N8       1.0000 0.65119  0.42199  0.16761  Biso   1.000  N
  H59      1.0000 0.70938  0.38989  0.14229  Biso   1.000  H
  H60      1.0000 0.74018  0.12668  0.96570  Biso   1.000  H
  N9       1.0000 0.76918  0.23839  0.81722  Biso   1.000  N
  H61      1.0000 0.78048  0.20852  0.91471  Biso   1.000  H
  H62      1.0000 0.64737  0.02150  0.98760  Biso   1.000  H
  N10      1.0000 0.70751  0.03941  0.03821  Biso   1.000  N
  H63      1.0000 0.40508  0.08482  0.84542  Biso   1.000  H
  C71      1.0000 0.41939  0.16421  0.95182  Biso   1.000  C
  C72      1.0000 0.79719  0.33989  0.82452  Biso   1.000  C
  C73      1.0000 0.66778  0.42278  0.24608  Biso   1.000  C
  C74      1.0000 0.81298  0.27390  0.82651  Biso   1.000  C
  C75      1.0000 0.70000  0.99781  0.09727  Biso   1.000  C
  C76      1.0000 0.46489  0.15120  0.93357  Biso   1.000  C
  C77      1.0000 0.41401  0.18728  0.02218  Biso   1.000  C
  C78      1.0000 0.84250  0.37820  0.83121  Biso   1.000  C
  H64      1.0000 0.77899  0.34821  0.77619  Biso   1.000  H
  H65      1.0000 0.69779  0.39931  0.25289  Biso   1.000  H
  C79      1.0000 0.67850  0.48618  0.27191  Biso   1.000  C
  C80      1.0000 0.63080  0.39519  0.29010  Biso   1.000  C
  H66      1.0000 0.82967  0.26510  0.87589  Biso   1.000  H
  C81      1.0000 0.84548  0.26072  0.76811  Biso   1.000  C
  C82      1.0000 0.74239  0.95700  0.10839  Biso   1.000  C
  H67      1.0000 0.67048  0.97452  0.08422  Biso   1.000  H
  C83      1.0000 0.69339  0.03398  0.16701  Biso   1.000  C
  C84      1.0000 0.50389  0.16140  0.98229  Biso   1.000  C
  H68      1.0000 0.46947  0.13500  0.88640  Biso   1.000  H
  H69      1.0000 0.38308  0.19600  0.03689  Biso   1.000  H
  C85      1.0000 0.45329  0.19740  0.07012  Biso   1.000  C
  C86      1.0000 0.87579  0.36458  0.77530  Biso   1.000  C
  H70      1.0000 0.85878  0.37260  0.88087  Biso   1.000  H
  H71      1.0000 0.83308  0.41989  0.82651  Biso   1.000  H
  H72      1.0000 0.70339  0.50370  0.24288  Biso   1.000  H
  H73      1.0000 0.64939  0.51062  0.26522  Biso   1.000  H
  C87      1.0000 0.69620  0.48281  0.35580  Biso   1.000  C
  N11      1.0000 0.62569  0.33319  0.26649  Biso   1.000  N
  C88      1.0000 0.64520  0.39620  0.37327  Biso   1.000  C
  H74      1.0000 0.59980  0.41599  0.28020  Biso   1.000  H
  H75      1.0000 0.85530  0.21912  0.77138  Biso   1.000  H
  H76      1.0000 0.82869  0.26729  0.71890  Biso   1.000  H
  C89      1.0000 0.89009  0.30052  0.77729  Biso   1.000  C
  C90      1.0000 0.73808  0.91680  0.17801  Biso   1.000  C
  H77      1.0000 0.74429  0.93222  0.06393  Biso   1.000  H
  H78      1.0000 0.77199  0.98038  0.11480  Biso   1.000  H
  C91      1.0000 0.68920  0.99409  0.23408  Biso   1.000  C
  N12      1.0000 0.65109  0.07142  0.15561  Biso   1.000  N
  H79      1.0000 0.72189  0.05960  0.17657  Biso   1.000  H
  H80      1.0000 0.53477  0.15182  0.96830  Biso   1.000  H
  C92      1.0000 0.49860  0.18540  0.05171  Biso   1.000  C
  H81      1.0000 0.44890  0.21329  0.11751  Biso   1.000  H
  H82      1.0000 0.86090  0.37422  0.72559  Biso   1.000  H
  H83      1.0000 0.90468  0.38911  0.78388  Biso   1.000  H
  H84      1.0000 0.70540  0.52231  0.37410  Biso   1.000  H
  H85      1.0000 0.72448  0.45711  0.36199  Biso   1.000  H
  C93      1.0000 0.65760  0.45899  0.39987  Biso   1.000  C
  C94      1.0000 0.59050  0.32088  0.22092  Biso   1.000  C
  H86      1.0000 0.61867  0.38079  0.40070  Biso   1.000  H
  H87      1.0000 0.67319  0.37041  0.38400  Biso   1.000  H
  H88      1.0000 0.91109  0.29242  0.73709  Biso   1.000  H
  H89      1.0000 0.90809  0.29172  0.82502  Biso   1.000  H
  C95      1.0000 0.73218  0.95582  0.24481  Biso   1.000  C
  H90      1.0000 0.76710  0.89241  0.18653  Biso   1.000  H
  H91      1.0000 0.71029  0.89040  0.16999  Biso   1.000  H
  H92      1.0000 0.66029  0.96948  0.22651  Biso   1.000  H
  H93      1.0000 0.68618  0.01822  0.27888  Biso   1.000  H
  C96      1.0000 0.65580  0.12458  0.17292  Biso   1.000  C
  C97      1.0000 0.54130  0.19692  0.10380  Biso   1.000  C
  H94      1.0000 0.66850  0.45851  0.45307  Biso   1.000  H
  H95      1.0000 0.62898  0.48421  0.39329  Biso   1.000  H
  C98      1.0000 0.58508  0.26291  0.18708  Biso   1.000  C
  H96      1.0000 0.56729  0.35009  0.20848  Biso   1.000  H
  H97      1.0000 0.76090  0.98060  0.25372  Biso   1.000  H
  H98      1.0000 0.72938  0.93090  0.28911  Biso   1.000  H
  C99      1.0000 0.61771  0.16640  0.16192  Biso   1.000  C
  H99      1.0000 0.68570  0.13780  0.19399  Biso   1.000  H
  C100     1.0000 0.57721  0.15589  0.11442  Biso   1.000  C
  C101     1.0000 0.54540  0.25051  0.14057  Biso   1.000  C
  C102     1.0000 0.62119  0.22131  0.19681  Biso   1.000  C
  H100     1.0000 0.57420  0.11959  0.08881  Biso   1.000  H
  H101     1.0000 0.52060  0.27871  0.13349  Biso   1.000  H
  H102     1.0000 0.64888  0.23042  0.22778  Biso   1.000  H
  C103     1.0000 0.24240  0.54298  0.60841  Biso   1.000  C
  C104     1.0000 0.19997  0.50221  0.59729  Biso   1.000  C
  C105     1.0000 0.23808  0.58322  0.67798  Biso   1.000  C
  H103     1.0000 0.24430  0.56781  0.56389  Biso   1.000  H
  H104     1.0000 0.27200  0.51960  0.61482  Biso   1.000  H
  N13      1.0000 0.20747  0.46061  0.53818  Biso   1.000  N
  C106     1.0000 0.19339  0.46600  0.66697  Biso   1.000  C
  H105     1.0000 0.17049  0.52551  0.58419  Biso   1.000  H
  C107     1.0000 0.23218  0.54420  0.74478  Biso   1.000  C
  H106     1.0000 0.26707  0.60761  0.68649  Biso   1.000  H
  H107     1.0000 0.21029  0.60958  0.67001  Biso   1.000  H
  C108     1.0000 0.17467  0.45409  0.48758  Biso   1.000  C
  N14      1.0000 0.15109  0.42860  0.65558  Biso   1.000  N
  H108     1.0000 0.22189  0.44038  0.67659  Biso   1.000  H
  C109     1.0000 0.18917  0.50589  0.73411  Biso   1.000  C
  H109     1.0000 0.26087  0.51942  0.75368  Biso   1.000  H
  H110     1.0000 0.22939  0.56912  0.78907  Biso   1.000  H
  C110     1.0000 0.17718  0.41021  0.42880  Biso   1.000  C
  H111     1.0000 0.14740  0.47852  0.48758  Biso   1.000  H
  C111     1.0000 0.15577  0.37540  0.67289  Biso   1.000  C
  H112     1.0000 0.16030  0.53050  0.72647  Biso   1.000  H
  H113     1.0000 0.18619  0.48181  0.77890  Biso   1.000  H
  C112     1.0000 0.21520  0.37159  0.42752  Biso   1.000  C
  C113     1.0000 0.14009  0.40710  0.37361  Biso   1.000  C
  C114     1.0000 0.11768  0.33358  0.66188  Biso   1.000  C
  H114     1.0000 0.18570  0.36222  0.69401  Biso   1.000  H
  C115     1.0000 0.21720  0.33078  0.37161  Biso   1.000  C
  H115     1.0000 0.24021  0.37330  0.46568  Biso   1.000  H
  C116     1.0000 0.14048  0.36489  0.31742  Biso   1.000  C
  H116     1.0000 0.11429  0.43381  0.37421  Biso   1.000  H
  C117     1.0000 0.07718  0.34409  0.61438  Biso   1.000  C
  C118     1.0000 0.12119  0.27871  0.69678  Biso   1.000  C
  C119     1.0000 0.25938  0.29268  0.37139  Biso   1.000  C
  C120     1.0000 0.17909  0.32701  0.31820  Biso   1.000  C
  C121     1.0000 0.10010  0.36178  0.25880  Biso   1.000  C
  H117     1.0000 0.07417  0.38039  0.58878  Biso   1.000  H
  C122     1.0000 0.04127  0.30310  0.60382  Biso   1.000  C
  C123     1.0000 0.08508  0.23712  0.68710  Biso   1.000  C
  H118     1.0000 0.14889  0.26961  0.72780  Biso   1.000  H
  N15      1.0000 0.26918  0.26159  0.31720  Biso   1.000  N
  H119     1.0000 0.28048  0.29150  0.41469  Biso   1.000  H
  H120     1.0000 0.17959  0.29759  0.28120  Biso   1.000  H
  C124     1.0000 0.10548  0.33301  0.19161  Biso   1.000  C
  C125     1.0000 0.05568  0.38530  0.27058  Biso   1.000  C
  C126     1.0000 0.04537  0.24951  0.64059  Biso   1.000  C
  C127     1.0000 0.99860  0.31462  0.55167  Biso   1.000  C
  C128     1.0000 0.09050  0.17910  0.72089  Biso   1.000  C
  C129     1.0000 0.31301  0.22608  0.32649  Biso   1.000  C
  H121     1.0000 0.13588  0.31900  0.18028  Biso   1.000  H
  C130     1.0000 0.06620  0.32500  0.14140  Biso   1.000  C
  C131     1.0000 0.01759  0.37741  0.21910  Biso   1.000  C
  H122     1.0000 0.05159  0.40710  0.31438  Biso   1.000  H
  H123     1.0000 0.02057  0.22131  0.63352  Biso   1.000  H
  C132     1.0000 0.00388  0.33862  0.48233  Biso   1.000  C
  C133     1.0000 0.95329  0.30258  0.57009  Biso   1.000  C
  N16      1.0000 0.12569  0.16679  0.76651  Biso   1.000  N
  H124     1.0000 0.06730  0.14989  0.70850  Biso   1.000  H
  H125     1.0000 0.32970  0.23488  0.37587  Biso   1.000  H
  C134     1.0000 0.34548  0.23930  0.26809  Biso   1.000  C
  C135     1.0000 0.29718  0.16009  0.32450  Biso   1.000  C
  H126     1.0000 0.06999  0.30389  0.09711  Biso   1.000  H
  C136     1.0000 0.02149  0.34720  0.15451  Biso   1.000  C
  H127     1.0000 0.98761  0.39362  0.22889  Biso   1.000  H
  H128     1.0000 0.03480  0.34821  0.46828  Biso   1.000  H
  C137     1.0000 0.96489  0.34882  0.43361  Biso   1.000  C
  C138     1.0000 0.91398  0.31269  0.52220  Biso   1.000  C
  H129     1.0000 0.94890  0.28668  0.61748  Biso   1.000  H
  C139     1.0000 0.13077  0.10479  0.79012  Biso   1.000  C
  H130     1.0000 0.35529  0.28090  0.27141  Biso   1.000  H
  H131     1.0000 0.32869  0.23269  0.21888  Biso   1.000  H
  C140     1.0000 0.39009  0.19950  0.27727  Biso   1.000  C
  N17      1.0000 0.26729  0.14831  0.38411  Biso   1.000  N
  C141     1.0000 0.34249  0.12182  0.33119  Biso   1.000  C
  H132     1.0000 0.27898  0.15182  0.27622  Biso   1.000  H
  C142     1.0000 0.97889  0.33240  0.10468  Biso   1.000  C
  H133     1.0000 0.96950  0.36502  0.38638  Biso   1.000  H
  C143     1.0000 0.91939  0.33581  0.45180  Biso   1.000  C
  H134     1.0000 0.88309  0.30398  0.53691  Biso   1.000  H
  C144     1.0000 0.16778  0.07720  0.74611  Biso   1.000  C
  C145     1.0000 0.14517  0.10378  0.87330  Biso   1.000  C
  H135     1.0000 0.09977  0.08399  0.78023  Biso   1.000  H
  H136     1.0000 0.41108  0.20760  0.23713  Biso   1.000  H
  H137     1.0000 0.40809  0.20830  0.32500  Biso   1.000  H
  C146     1.0000 0.37579  0.13539  0.27528  Biso   1.000  C
  C147     1.0000 0.22279  0.14148  0.36802  Biso   1.000  C
  H138     1.0000 0.35881  0.12738  0.38091  Biso   1.000  H
  H139     1.0000 0.33308  0.08009  0.32649  Biso   1.000  H
  C148     1.0000 0.97341  0.27762  0.07178  Biso   1.000  C
  C149     1.0000 0.94180  0.37220  0.09451  Biso   1.000  C
  C150     1.0000 0.87698  0.34580  0.39921  Biso   1.000  C
  N18      1.0000 0.15119  0.07799  0.66758  Biso   1.000  N
  H140     1.0000 0.19779  0.10071  0.75291  Biso   1.000  H
  C151     1.0000 0.17847  0.01379  0.77188  Biso   1.000  C
  C152     1.0000 0.15757  0.04099  0.89989  Biso   1.000  C
  H141     1.0000 0.11868  0.11919  0.90072  Biso   1.000  H
  H142     1.0000 0.17320  0.12961  0.88402  Biso   1.000  H
  H143     1.0000 0.36090  0.12580  0.22562  Biso   1.000  H
  H144     1.0000 0.40471  0.11092  0.28391  Biso   1.000  H
  C153     1.0000 0.18730  0.12861  0.42039  Biso   1.000  C
  H145     1.0000 0.21179  0.14529  0.31742  Biso   1.000  H
  H146     1.0000 0.99929  0.25082  0.07609  Biso   1.000  H
  C154     1.0000 0.93100  0.26072  0.03279  Biso   1.000  C
  C155     1.0000 0.90001  0.35810  0.05298  Biso   1.000  C
  H147     1.0000 0.94510  0.40990  0.11641  Biso   1.000  H
  C156     1.0000 0.87761  0.39121  0.34651  Biso   1.000  C
  C157     1.0000 0.83658  0.31309  0.40120  Biso   1.000  C
  C158     1.0000 0.17830  0.09861  0.62367  Biso   1.000  C
  C159     1.0000 0.19617  0.01721  0.85582  Biso   1.000  C
  H148     1.0000 0.20340  0.99632  0.74290  Biso   1.000  H
  H149     1.0000 0.14939  0.98940  0.76518  Biso   1.000  H
  H150     1.0000 0.16847  0.04151  0.95309  Biso   1.000  H
  H151     1.0000 0.12899  0.01581  0.89331  Biso   1.000  H
  C160     1.0000 0.13930  0.12309  0.39622  Biso   1.000  C
  C161     1.0000 0.19938  0.11972  0.49648  Biso   1.000  C
  C162     1.0000 0.89488  0.30078  0.02378  Biso   1.000  C
  C163     1.0000 0.92581  0.19950  0.00769  Biso   1.000  C
  C164     1.0000 0.85970  0.39808  0.04678  Biso   1.000  C
  C165     1.0000 0.83879  0.40172  0.29630  Biso   1.000  C
  H152     1.0000 0.90508  0.41520  0.34540  Biso   1.000  H
  C166     1.0000 0.79651  0.32250  0.35149  Biso   1.000  C
  H153     1.0000 0.83550  0.28301  0.43731  Biso   1.000  H
  C167     1.0000 0.16529  0.10641  0.54371  Biso   1.000  C
  H154     1.0000 0.20939  0.11008  0.64231  Biso   1.000  H
  H155     1.0000 0.22448  0.04291  0.86201  Biso   1.000  H
  H156     1.0000 0.20537  0.97771  0.87412  Biso   1.000  H
  C168     1.0000 0.10428  0.11201  0.44268  Biso   1.000  C
  H157     1.0000 0.13058  0.12738  0.34491  Biso   1.000  H
  H158     1.0000 0.23169  0.12300  0.51517  Biso   1.000  H
  H159     1.0000 0.86589  0.28988  0.99739  Biso   1.000  H
  N19      1.0000 0.88659  0.17962  0.97831  Biso   1.000  N
  H160     1.0000 0.95251  0.17419  0.01360  Biso   1.000  H
  N20      1.0000 0.86310  0.45002  0.07018  Biso   1.000  N
  H161     1.0000 0.83011  0.38481  0.02461  Biso   1.000  H
  C169     1.0000 0.84081  0.44988  0.24310  Biso   1.000  C
  C170     1.0000 0.79868  0.36550  0.29840  Biso   1.000  C
  C171     1.0000 0.75299  0.28738  0.35431  Biso   1.000  C
  C172     1.0000 0.11749  0.10251  0.51722  Biso   1.000  C
  C173     1.0000 0.05279  0.10689  0.41469  Biso   1.000  C
  C174     1.0000 0.88488  0.11779  0.95918  Biso   1.000  C
  C175     1.0000 0.82031  0.48610  0.06653  Biso   1.000  C
  N21      1.0000 0.80721  0.46101  0.19510  Biso   1.000  N
  H162     1.0000 0.86849  0.47379  0.24492  Biso   1.000  H
  H163     1.0000 0.77258  0.37071  0.26278  Biso   1.000  H
  N22      1.0000 0.74239  0.25879  0.41099  Biso   1.000  N
  H164     1.0000 0.73149  0.28611  0.31139  Biso   1.000  H
  H165     1.0000 0.09389  0.09331  0.55029  Biso   1.000  H
  C176     1.0000 0.01890  0.14008  0.44798  Biso   1.000  C
  C177     1.0000 0.03958  0.07361  0.35243  Biso   1.000  C
  H166     1.0000 0.91749  0.10058  0.96769  Biso   1.000  H
  C178     1.0000 0.86778  0.11092  0.87750  Biso   1.000  C
  C179     1.0000 0.85128  0.08670  0.00879  Biso   1.000  C
  C180     1.0000 0.81401  0.50931  0.14378  Biso   1.000  C
  C181     1.0000 0.82398  0.53672  0.01128  Biso   1.000  C
  H167     1.0000 0.79221  0.46118  0.05038  Biso   1.000  H
  C182     1.0000 0.69869  0.22319  0.40303  Biso   1.000  C
  H168     1.0000 0.02789  0.16289  0.49062  Biso   1.000  H
  C183     1.0000 0.97180  0.14008  0.41890  Biso   1.000  C
  H169     1.0000 0.06270  0.05088  0.32959  Biso   1.000  H
  C184     1.0000 0.99248  0.07361  0.32328  Biso   1.000  C
  H170     1.0000 0.83818  0.13369  0.86721  Biso   1.000  H
  H171     1.0000 0.89229  0.12712  0.84647  Biso   1.000  H
  C185     1.0000 0.85857  0.04729  0.85659  Biso   1.000  C
  C186     1.0000 0.84318  0.02400  0.98561  Biso   1.000  C
  N23      1.0000 0.86950  0.09069  0.08560  Biso   1.000  N
  H172     1.0000 0.81990  0.10728  0.00371  Biso   1.000  H
  H173     1.0000 0.84349  0.53089  0.16131  Biso   1.000  H
  C187     1.0000 0.77231  0.55108  0.14372  Biso   1.000  C
  H174     1.0000 0.82568  0.52060  0.96078  Biso   1.000  H
  C188     1.0000 0.78189  0.57652  0.01277  Biso   1.000  C
  H175     1.0000 0.85359  0.55909  0.02400  Biso   1.000  H
  C189     1.0000 0.71150  0.15900  0.41409  Biso   1.000  C
  C190     1.0000 0.66369  0.24298  0.45882  Biso   1.000  C
  H176     1.0000 0.68348  0.22849  0.35187  Biso   1.000  H
  C191     1.0000 0.95859  0.10680  0.35657  Biso   1.000  C
  H177     1.0000 0.94868  0.16281  0.44168  Biso   1.000  H
  H178     1.0000 0.98349  0.05079  0.28070  Biso   1.000  H
  C192     1.0000 0.82497  0.02010  0.90459  Biso   1.000  C
  H179     1.0000 0.84548  0.04510  0.80450  Biso   1.000  H
  H180     1.0000 0.88899  0.02540  0.86091  Biso   1.000  H
  H181     1.0000 0.87347  0.00201  0.99319  Biso   1.000  H
  H182     1.0000 0.81979  0.00578  0.01670  Biso   1.000  H
  C193     1.0000 0.84039  0.10338  0.13228  Biso   1.000  C
  H183     1.0000 0.74250  0.52919  0.13123  Biso   1.000  H
  H184     1.0000 0.77068  0.56750  0.19399  Biso   1.000  H
  C194     1.0000 0.77601  0.60091  0.08909  Biso   1.000  C
  H185     1.0000 0.75276  0.55471  0.99567  Biso   1.000  H
  H186     1.0000 0.78568  0.60941  0.97809  Biso   1.000  H
  N24      1.0000 0.74401  0.14240  0.36039  Biso   1.000  N
  H187     1.0000 0.72788  0.15409  0.46452  Biso   1.000  H
  C195     1.0000 0.66720  0.11919  0.40789  Biso   1.000  C
  C196     1.0000 0.61818  0.20441  0.45103  Biso   1.000  C
  H188     1.0000 0.65499  0.28449  0.44981  Biso   1.000  H
  H189     1.0000 0.67878  0.23961  0.50970  Biso   1.000  H
  C197     1.0000 0.90868  0.11000  0.32068  Biso   1.000  C
  H190     1.0000 0.82027  0.97850  0.89060  Biso   1.000  H
  H191     1.0000 0.79378  0.04011  0.89757  Biso   1.000  H
  C198     1.0000 0.85189  0.10860  0.21257  Biso   1.000  C
  H192     1.0000 0.80841  0.11022  0.11442  Biso   1.000  H
  H193     1.0000 0.74688  0.62521  0.08820  Biso   1.000  H
  H194     1.0000 0.80359  0.62600  0.10468  Biso   1.000  H
  C199     1.0000 0.78771  0.13868  0.38201  Biso   1.000  C
  H195     1.0000 0.67648  0.07838  0.42028  Biso   1.000  H
  H196     1.0000 0.65259  0.11989  0.35652  Biso   1.000  H
  C200     1.0000 0.63090  0.14078  0.46098  Biso   1.000  C
  H197     1.0000 0.59629  0.21618  0.48857  Biso   1.000  H
  H198     1.0000 0.60170  0.21040  0.40148  Biso   1.000  H
  C201     1.0000 0.87168  0.12331  0.36492  Biso   1.000  C
  C202     1.0000 0.89940  0.10369  0.24360  Biso   1.000  C
  C203     1.0000 0.81531  0.12081  0.25748  Biso   1.000  C
  C204     1.0000 0.82450  0.12769  0.33573  Biso   1.000  C
  H199     1.0000 0.79610  0.14371  0.43327  Biso   1.000  H
  H200     1.0000 0.60149  0.11709  0.45329  Biso   1.000  H
  H201     1.0000 0.64400  0.13439  0.51252  Biso   1.000  H
  H202     1.0000 0.87881  0.12961  0.41630  Biso   1.000  H
  H203     1.0000 0.92460  0.09638  0.21279  Biso   1.000  H
  H204     1.0000 0.78369  0.12458  0.23602  Biso   1.000  H
  C205     1.0000 0.37170  0.62329  0.36492  Biso   1.000  C
  C206     1.0000 0.32449  0.62771  0.33573  Biso   1.000  C
  C207     1.0000 0.40870  0.61002  0.32068  Biso   1.000  C
  H205     1.0000 0.37879  0.62959  0.41630  Biso   1.000  H
  C208     1.0000 0.31529  0.62079  0.25748  Biso   1.000  C
  C209     1.0000 0.28769  0.63870  0.38201  Biso   1.000  C
  C210     1.0000 0.39938  0.60371  0.24360  Biso   1.000  C
  C211     1.0000 0.45861  0.60678  0.35657  Biso   1.000  C
  H206     1.0000 0.28371  0.62460  0.23602  Biso   1.000  H
  C212     1.0000 0.35190  0.60862  0.21257  Biso   1.000  C
  N25      1.0000 0.24399  0.64238  0.36039  Biso   1.000  N
  H207     1.0000 0.29609  0.64369  0.43327  Biso   1.000  H
  H208     1.0000 0.42458  0.59640  0.21279  Biso   1.000  H
  C213     1.0000 0.47178  0.64010  0.41890  Biso   1.000  C
  C214     1.0000 0.49250  0.57359  0.32328  Biso   1.000  C
  C215     1.0000 0.34041  0.60341  0.13228  Biso   1.000  C
  C216     1.0000 0.21148  0.65902  0.41409  Biso   1.000  C
  H209     1.0000 0.44870  0.66278  0.44168  Biso   1.000  H
  C217     1.0000 0.51888  0.64010  0.44798  Biso   1.000  C
  C218     1.0000 0.53960  0.57359  0.35243  Biso   1.000  C
  H210     1.0000 0.48351  0.55082  0.28070  Biso   1.000  H
  N26      1.0000 0.36949  0.59071  0.08560  Biso   1.000  N
  H211     1.0000 0.30840  0.61019  0.11442  Biso   1.000  H
  H212     1.0000 0.22790  0.65411  0.46452  Biso   1.000  H
  C219     1.0000 0.16719  0.61921  0.40789  Biso   1.000  C
  C220     1.0000 0.19867  0.72321  0.40303  Biso   1.000  C
  H213     1.0000 0.52791  0.66292  0.49062  Biso   1.000  H
  C221     1.0000 0.55277  0.60691  0.41469  Biso   1.000  C
  H214     1.0000 0.56268  0.55090  0.32959  Biso   1.000  H
  C222     1.0000 0.35130  0.58668  0.00879  Biso   1.000  C
  H215     1.0000 0.17650  0.57840  0.42028  Biso   1.000  H
  H216     1.0000 0.15261  0.61992  0.35652  Biso   1.000  H
  C223     1.0000 0.13088  0.64080  0.46098  Biso   1.000  C
  N27      1.0000 0.24238  0.75881  0.41099  Biso   1.000  N
  C224     1.0000 0.16371  0.74300  0.45882  Biso   1.000  C
  H217     1.0000 0.18350  0.72851  0.35187  Biso   1.000  H
  C225     1.0000 0.60430  0.61199  0.44268  Biso   1.000  C
  H218     1.0000 0.31992  0.60730  0.00371  Biso   1.000  H
  C226     1.0000 0.38486  0.61781  0.95918  Biso   1.000  C
  C227     1.0000 0.34319  0.52402  0.98561  Biso   1.000  C
  H219     1.0000 0.10147  0.61711  0.45329  Biso   1.000  H
  H220     1.0000 0.14398  0.63441  0.51252  Biso   1.000  H
  C228     1.0000 0.11820  0.70438  0.45103  Biso   1.000  C
  C229     1.0000 0.25301  0.78741  0.35431  Biso   1.000  C
  H221     1.0000 0.15497  0.78452  0.44981  Biso   1.000  H
  H222     1.0000 0.17880  0.73959  0.50970  Biso   1.000  H
  C230     1.0000 0.61748  0.60249  0.51722  Biso   1.000  C
  C231     1.0000 0.63928  0.62311  0.39622  Biso   1.000  C
  N28      1.0000 0.38657  0.67960  0.97831  Biso   1.000  N
  H223     1.0000 0.41747  0.60060  0.96769  Biso   1.000  H
  C232     1.0000 0.36776  0.61089  0.87750  Biso   1.000  C
  H224     1.0000 0.31981  0.50580  0.01670  Biso   1.000  H
  C233     1.0000 0.32499  0.52012  0.90459  Biso   1.000  C
  H225     1.0000 0.37349  0.50199  0.99319  Biso   1.000  H
  H226     1.0000 0.09630  0.71621  0.48857  Biso   1.000  H
  H227     1.0000 0.10168  0.71038  0.40148  Biso   1.000  H
  C234     1.0000 0.29649  0.82248  0.35149  Biso   1.000  C
  H228     1.0000 0.23151  0.78609  0.31139  Biso   1.000  H
  C235     1.0000 0.66527  0.60638  0.54371  Biso   1.000  C
  H229     1.0000 0.59388  0.59329  0.55029  Biso   1.000  H
  H230     1.0000 0.63059  0.62740  0.34491  Biso   1.000  H
  C236     1.0000 0.68729  0.62859  0.42039  Biso   1.000  C
  C237     1.0000 0.42580  0.69948  0.00769  Biso   1.000  C
  H231     1.0000 0.33820  0.63371  0.86721  Biso   1.000  H
  H232     1.0000 0.39228  0.62710  0.84647  Biso   1.000  H
  C238     1.0000 0.35858  0.54731  0.85659  Biso   1.000  C
  H233     1.0000 0.32029  0.47852  0.89060  Biso   1.000  H
  H234     1.0000 0.29376  0.54009  0.89757  Biso   1.000  H
  C239     1.0000 0.29870  0.86548  0.29840  Biso   1.000  C
  C240     1.0000 0.33660  0.81311  0.40120  Biso   1.000  C
  C241     1.0000 0.69940  0.61970  0.49648  Biso   1.000  C
  C242     1.0000 0.67828  0.59859  0.62367  Biso   1.000  C
  C243     1.0000 0.72281  0.64150  0.36802  Biso   1.000  C
  C244     1.0000 0.43102  0.76070  0.03279  Biso   1.000  C
  H235     1.0000 0.45249  0.67421  0.01360  Biso   1.000  H
  H236     1.0000 0.34550  0.54508  0.80450  Biso   1.000  H
  H237     1.0000 0.38897  0.52542  0.86091  Biso   1.000  H
  C245     1.0000 0.33880  0.90169  0.29630  Biso   1.000  C
  H238     1.0000 0.27260  0.87069  0.26278  Biso   1.000  H
  C246     1.0000 0.37700  0.84582  0.39921  Biso   1.000  C
  H239     1.0000 0.33548  0.78298  0.43731  Biso   1.000  H
  H240     1.0000 0.73170  0.62298  0.51517  Biso   1.000  H
  N29      1.0000 0.65117  0.57801  0.66758  Biso   1.000  N
  H241     1.0000 0.70937  0.61011  0.64231  Biso   1.000  H
  N30      1.0000 0.76728  0.64829  0.38411  Biso   1.000  N
  H242     1.0000 0.71178  0.64531  0.31742  Biso   1.000  H
  C247     1.0000 0.47340  0.77760  0.07178  Biso   1.000  C
  C248     1.0000 0.39490  0.80081  0.02378  Biso   1.000  C
  C249     1.0000 0.37759  0.89119  0.34651  Biso   1.000  C
  C250     1.0000 0.34079  0.94991  0.24310  Biso   1.000  C
  C251     1.0000 0.41941  0.83579  0.45180  Biso   1.000  C
  C252     1.0000 0.66777  0.57722  0.74611  Biso   1.000  C
  C253     1.0000 0.79720  0.66011  0.32450  Biso   1.000  C
  C254     1.0000 0.47891  0.83242  0.10468  Biso   1.000  C
  H243     1.0000 0.49931  0.75080  0.07609  Biso   1.000  H
  C255     1.0000 0.40000  0.85808  0.05298  Biso   1.000  C
  H244     1.0000 0.36587  0.78990  0.99739  Biso   1.000  H
  H245     1.0000 0.40510  0.91518  0.34540  Biso   1.000  H
  N31      1.0000 0.30719  0.96098  0.19510  Biso   1.000  N
  H246     1.0000 0.36851  0.97381  0.24492  Biso   1.000  H
  C256     1.0000 0.46490  0.84880  0.43361  Biso   1.000  C
  C257     1.0000 0.41399  0.81272  0.52220  Biso   1.000  C
  H247     1.0000 0.69778  0.60069  0.75291  Biso   1.000  H
  C258     1.0000 0.67849  0.51382  0.77188  Biso   1.000  C
  C259     1.0000 0.63079  0.60481  0.79012  Biso   1.000  C
  C260     1.0000 0.81299  0.72610  0.32649  Biso   1.000  C
  C261     1.0000 0.84248  0.62180  0.33119  Biso   1.000  C
  H248     1.0000 0.77900  0.65179  0.27622  Biso   1.000  H
  C262     1.0000 0.52151  0.84722  0.15451  Biso   1.000  C
  C263     1.0000 0.44178  0.87218  0.09451  Biso   1.000  C
  C264     1.0000 0.35968  0.89810  0.04678  Biso   1.000  C
  C265     1.0000 0.31399  0.00928  0.14378  Biso   1.000  C
  C266     1.0000 0.50390  0.83860  0.48233  Biso   1.000  C
  H249     1.0000 0.46948  0.86500  0.38638  Biso   1.000  H
  H250     1.0000 0.38307  0.80400  0.53691  Biso   1.000  H
  C267     1.0000 0.45327  0.80260  0.57009  Biso   1.000  C
  H251     1.0000 0.70338  0.49630  0.74290  Biso   1.000  H
  H252     1.0000 0.64937  0.48938  0.76518  Biso   1.000  H
  C268     1.0000 0.69619  0.51719  0.85582  Biso   1.000  C
  N32      1.0000 0.62568  0.66681  0.76651  Biso   1.000  N
  C269     1.0000 0.64519  0.60380  0.87330  Biso   1.000  C
  H253     1.0000 0.59979  0.58401  0.78023  Biso   1.000  H
  N33      1.0000 0.76919  0.76161  0.31720  Biso   1.000  N
  H254     1.0000 0.82968  0.73490  0.37587  Biso   1.000  H
  C270     1.0000 0.84550  0.73928  0.26809  Biso   1.000  C
  C271     1.0000 0.87581  0.63542  0.27528  Biso   1.000  C
  H255     1.0000 0.85879  0.62740  0.38091  Biso   1.000  H
  H256     1.0000 0.83309  0.58011  0.32649  Biso   1.000  H
  C272     1.0000 0.56618  0.82502  0.14140  Biso   1.000  C
  C273     1.0000 0.51760  0.87739  0.21910  Biso   1.000  C
  H257     1.0000 0.44512  0.90988  0.11641  Biso   1.000  H
  N34      1.0000 0.36308  0.94999  0.07018  Biso   1.000  N
  H258     1.0000 0.33009  0.88479  0.02461  Biso   1.000  H
  C274     1.0000 0.32029  0.98612  0.06653  Biso   1.000  C
  H259     1.0000 0.34351  0.03091  0.16131  Biso   1.000  H
  C275     1.0000 0.27230  0.05110  0.14372  Biso   1.000  C
  C276     1.0000 0.49858  0.81460  0.55167  Biso   1.000  C
  H260     1.0000 0.53478  0.84818  0.46828  Biso   1.000  H
  H261     1.0000 0.44888  0.78671  0.61748  Biso   1.000  H
  H262     1.0000 0.70539  0.47769  0.87412  Biso   1.000  H
  H263     1.0000 0.72447  0.54289  0.86201  Biso   1.000  H
  C277     1.0000 0.65758  0.54101  0.89989  Biso   1.000  C
  C278     1.0000 0.59048  0.67912  0.72089  Biso   1.000  C
  H264     1.0000 0.61870  0.61921  0.90072  Biso   1.000  H
  H265     1.0000 0.67318  0.62959  0.88402  Biso   1.000  H
  C279     1.0000 0.75940  0.79270  0.37139  Biso   1.000  C
  H266     1.0000 0.85531  0.78088  0.27141  Biso   1.000  H
  H267     1.0000 0.82871  0.73271  0.21888  Biso   1.000  H
  C280     1.0000 0.89010  0.69948  0.27727  Biso   1.000  C
  H268     1.0000 0.86088  0.62578  0.22562  Biso   1.000  H
  H269     1.0000 0.90469  0.61089  0.28391  Biso   1.000  H
  C281     1.0000 0.60550  0.83299  0.19161  Biso   1.000  C
  H270     1.0000 0.57001  0.80391  0.09711  Biso   1.000  H
  H271     1.0000 0.48759  0.89359  0.22889  Biso   1.000  H
  C282     1.0000 0.55570  0.88532  0.27058  Biso   1.000  C
  H272     1.0000 0.29219  0.96120  0.05038  Biso   1.000  H
  C283     1.0000 0.32400  0.03669  0.01128  Biso   1.000  C
  H273     1.0000 0.24248  0.02921  0.13123  Biso   1.000  H
  H274     1.0000 0.27070  0.06748  0.19399  Biso   1.000  H
  C284     1.0000 0.27599  0.10089  0.08909  Biso   1.000  C
  C285     1.0000 0.54129  0.80308  0.60382  Biso   1.000  C
  H275     1.0000 0.66849  0.54149  0.95309  Biso   1.000  H
  H276     1.0000 0.62897  0.51579  0.89331  Biso   1.000  H
  C286     1.0000 0.58510  0.73709  0.68710  Biso   1.000  C
  H277     1.0000 0.56728  0.64991  0.70850  Biso   1.000  H
  C287     1.0000 0.71718  0.83080  0.37161  Biso   1.000  C
  H278     1.0000 0.78050  0.79148  0.41469  Biso   1.000  H
  H279     1.0000 0.91110  0.70758  0.23713  Biso   1.000  H
  H280     1.0000 0.90810  0.70828  0.32500  Biso   1.000  H
  C288     1.0000 0.60008  0.86180  0.25880  Biso   1.000  C
  H281     1.0000 0.63590  0.81902  0.18028  Biso   1.000  H
  H282     1.0000 0.55160  0.90708  0.31438  Biso   1.000  H
  H283     1.0000 0.32566  0.02058  0.96078  Biso   1.000  H
  C289     1.0000 0.28191  0.07650  0.01277  Biso   1.000  C
  H284     1.0000 0.35361  0.05911  0.02400  Biso   1.000  H
  H285     1.0000 0.24690  0.12519  0.08820  Biso   1.000  H
  H286     1.0000 0.30361  0.12598  0.10468  Biso   1.000  H
  C290     1.0000 0.57719  0.84411  0.61438  Biso   1.000  C
  C291     1.0000 0.54539  0.74949  0.64059  Biso   1.000  C
  C292     1.0000 0.62118  0.77869  0.69678  Biso   1.000  C
  C293     1.0000 0.67910  0.82699  0.31820  Biso   1.000  C
  C294     1.0000 0.71518  0.87161  0.42752  Biso   1.000  C
  C295     1.0000 0.64050  0.86491  0.31742  Biso   1.000  C
  H287     1.0000 0.25278  0.05469  0.99567  Biso   1.000  H
  H288     1.0000 0.28566  0.10938  0.97809  Biso   1.000  H
  C296     1.0000 0.61770  0.83360  0.66188  Biso   1.000  C
  H289     1.0000 0.57419  0.88041  0.58878  Biso   1.000  H
  H290     1.0000 0.52059  0.72129  0.63352  Biso   1.000  H
  H291     1.0000 0.64887  0.76958  0.72780  Biso   1.000  H
  H292     1.0000 0.67958  0.79761  0.28120  Biso   1.000  H
  C297     1.0000 0.67720  0.91019  0.42880  Biso   1.000  C
  H293     1.0000 0.74019  0.87332  0.46568  Biso   1.000  H
  C298     1.0000 0.64010  0.90708  0.37361  Biso   1.000  C
  C299     1.0000 0.65579  0.87542  0.67289  Biso   1.000  C
  C300     1.0000 0.67469  0.95411  0.48758  Biso   1.000  C
  H294     1.0000 0.61428  0.93379  0.37421  Biso   1.000  H
  N35      1.0000 0.65107  0.92858  0.65558  Biso   1.000  N
  H295     1.0000 0.68568  0.86220  0.69401  Biso   1.000  H
  N36      1.0000 0.70749  0.96059  0.53818  Biso   1.000  N
  H296     1.0000 0.64738  0.97850  0.48758  Biso   1.000  H
  C301     1.0000 0.69337  0.96602  0.66697  Biso   1.000  C
  C302     1.0000 0.69999  0.00219  0.59729  Biso   1.000  C
  H297     1.0000 0.72188  0.94040  0.67659  Biso   1.000  H
  C303     1.0000 0.68919  0.00591  0.73411  Biso   1.000  C
  C304     1.0000 0.74238  0.04300  0.60841  Biso   1.000  C
  H298     1.0000 0.67050  0.02548  0.58419  Biso   1.000  H
  H299     1.0000 0.68617  0.98178  0.77890  Biso   1.000  H
  H300     1.0000 0.66028  0.03052  0.72647  Biso   1.000  H
  C305     1.0000 0.73217  0.04418  0.74478  Biso   1.000  C
  C306     1.0000 0.73810  0.08320  0.67798  Biso   1.000  C
  H301     1.0000 0.74428  0.06778  0.56389  Biso   1.000  H
  H302     1.0000 0.77198  0.01962  0.61482  Biso   1.000  H
  H303     1.0000 0.76089  0.01940  0.75368  Biso   1.000  H
  H304     1.0000 0.72937  0.06910  0.78907  Biso   1.000  H
  H305     1.0000 0.76709  0.10759  0.68649  Biso   1.000  H
  H306     1.0000 0.71028  0.10960  0.67001  Biso   1.000  H
  C307     1.0000 0.34550  0.76070  0.76811  Biso   1.000  C
  C308     1.0000 0.31300  0.77392  0.82651  Biso   1.000  C
  H307     1.0000 0.35528  0.71910  0.77138  Biso   1.000  H
  H308     1.0000 0.32868  0.76731  0.71890  Biso   1.000  H
  C309     1.0000 0.39008  0.80050  0.77729  Biso   1.000  C
  N37      1.0000 0.26920  0.73841  0.81722  Biso   1.000  N
  H309     1.0000 0.32969  0.76512  0.87589  Biso   1.000  H
  C310     1.0000 0.29717  0.83991  0.82452  Biso   1.000  C
  H310     1.0000 0.41107  0.79240  0.73709  Biso   1.000  H
  H311     1.0000 0.40807  0.79170  0.82502  Biso   1.000  H
  C311     1.0000 0.37578  0.86461  0.77530  Biso   1.000  C
  C312     1.0000 0.25937  0.70732  0.87142  Biso   1.000  C
  N38      1.0000 0.26728  0.85169  0.88408  Biso   1.000  N
  C313     1.0000 0.34248  0.87818  0.83121  Biso   1.000  C
  H312     1.0000 0.27897  0.84818  0.77619  Biso   1.000  H
  H313     1.0000 0.36088  0.87420  0.72559  Biso   1.000  H
  H314     1.0000 0.40470  0.88908  0.78388  Biso   1.000  H
  C314     1.0000 0.21719  0.66922  0.87158  Biso   1.000  C
  H315     1.0000 0.28047  0.70850  0.91471  Biso   1.000  H
  C315     1.0000 0.22277  0.85852  0.86799  Biso   1.000  C
  H316     1.0000 0.35879  0.87262  0.88087  Biso   1.000  H
  H317     1.0000 0.33310  0.91991  0.82651  Biso   1.000  H
  C316     1.0000 0.17907  0.67299  0.81822  Biso   1.000  C
  C317     1.0000 0.21518  0.62841  0.92749  Biso   1.000  C
  C318     1.0000 0.18729  0.87139  0.92041  Biso   1.000  C
  H318     1.0000 0.21178  0.85471  0.81739  Biso   1.000  H
  C319     1.0000 0.14047  0.63511  0.81739  Biso   1.000  C
  H319     1.0000 0.17958  0.70241  0.78122  Biso   1.000  H
  C320     1.0000 0.17717  0.58979  0.92882  Biso   1.000  C
  H320     1.0000 0.24019  0.62670  0.96570  Biso   1.000  H
  C321     1.0000 0.13928  0.87691  0.89619  Biso   1.000  C
  C322     1.0000 0.19937  0.88028  0.99650  Biso   1.000  C
  C323     1.0000 0.10008  0.63822  0.75882  Biso   1.000  C
  C324     1.0000 0.14007  0.59290  0.87357  Biso   1.000  C
  C325     1.0000 0.17466  0.54591  0.98760  Biso   1.000  C
  C326     1.0000 0.10427  0.88799  0.94270  Biso   1.000  C
  H321     1.0000 0.13060  0.87262  0.84487  Biso   1.000  H
  C327     1.0000 0.16530  0.89359  0.04369  Biso   1.000  C
  H322     1.0000 0.23170  0.87700  0.01521  Biso   1.000  H
  C328     1.0000 0.10547  0.66699  0.69158  Biso   1.000  C
  C329     1.0000 0.05567  0.61470  0.77060  Biso   1.000  C
  H323     1.0000 0.11428  0.56619  0.87418  Biso   1.000  H
  H324     1.0000 0.14739  0.52148  0.98760  Biso   1.000  H
  N39      1.0000 0.20749  0.53939  0.03821  Biso   1.000  N
  C330     1.0000 0.05278  0.89311  0.91471  Biso   1.000  C
  C331     1.0000 0.11751  0.89749  0.01720  Biso   1.000  C
  C332     1.0000 0.17831  0.90139  0.12371  Biso   1.000  C
  H325     1.0000 0.13587  0.68100  0.68030  Biso   1.000  H
  C333     1.0000 0.06619  0.67500  0.64142  Biso   1.000  C
  C334     1.0000 0.01757  0.62259  0.71912  Biso   1.000  C
  H326     1.0000 0.05157  0.59290  0.81440  Biso   1.000  H
  C335     1.0000 0.19998  0.49779  0.09727  Biso   1.000  C
  C336     1.0000 0.01889  0.85992  0.94801  Biso   1.000  C
  C337     1.0000 0.03957  0.92639  0.85239  Biso   1.000  C
  H327     1.0000 0.09391  0.90669  0.05032  Biso   1.000  H
  N40      1.0000 0.15120  0.92201  0.16761  Biso   1.000  N
  H328     1.0000 0.20940  0.88992  0.14229  Biso   1.000  H
  H329     1.0000 0.06998  0.69611  0.59707  Biso   1.000  H
  C338     1.0000 0.02148  0.65280  0.65447  Biso   1.000  C
  H330     1.0000 0.98759  0.60638  0.72891  Biso   1.000  H
  C339     1.0000 0.19340  0.53400  0.16701  Biso   1.000  C
  C340     1.0000 0.24241  0.45702  0.10839  Biso   1.000  C
  H331     1.0000 0.17050  0.47449  0.08422  Biso   1.000  H
  H332     1.0000 0.02787  0.83711  0.99059  Biso   1.000  H
  C341     1.0000 0.97179  0.85992  0.91892  Biso   1.000  C
  H333     1.0000 0.06269  0.94912  0.82961  Biso   1.000  H
  C342     1.0000 0.99247  0.92639  0.82330  Biso   1.000  C
  C343     1.0000 0.16780  0.92280  0.24608  Biso   1.000  C
  C344     1.0000 0.97888  0.66760  0.60470  Biso   1.000  C
  N41      1.0000 0.15111  0.57140  0.15561  Biso   1.000  N
  H334     1.0000 0.22191  0.55962  0.17657  Biso   1.000  H
  C345     1.0000 0.18918  0.49411  0.23408  Biso   1.000  C
  C346     1.0000 0.23810  0.41678  0.17801  Biso   1.000  C
  H335     1.0000 0.24431  0.43219  0.06393  Biso   1.000  H
  H336     1.0000 0.27201  0.48040  0.11480  Biso   1.000  H
  C347     1.0000 0.95858  0.89320  0.85659  Biso   1.000  C
  H337     1.0000 0.94867  0.83719  0.94170  Biso   1.000  H
  H338     1.0000 0.98348  0.94921  0.78072  Biso   1.000  H
  C348     1.0000 0.13079  0.89521  0.29010  Biso   1.000  C
  H339     1.0000 0.19781  0.89929  0.25289  Biso   1.000  H
  C349     1.0000 0.17849  0.98621  0.27191  Biso   1.000  C
  C350     1.0000 0.97340  0.72238  0.57180  Biso   1.000  C
  C351     1.0000 0.94179  0.62780  0.59447  Biso   1.000  C
  C352     1.0000 0.15578  0.62460  0.17292  Biso   1.000  C
  H340     1.0000 0.16031  0.46950  0.22651  Biso   1.000  H
  H341     1.0000 0.18620  0.51819  0.27888  Biso   1.000  H
  C353     1.0000 0.23220  0.45580  0.24481  Biso   1.000  C
  H342     1.0000 0.26709  0.39239  0.18653  Biso   1.000  H
  H343     1.0000 0.21031  0.39042  0.16999  Biso   1.000  H
  C354     1.0000 0.90867  0.89000  0.82071  Biso   1.000  C
  N42      1.0000 0.12571  0.83321  0.26649  Biso   1.000  N
  C355     1.0000 0.14518  0.89622  0.37327  Biso   1.000  C
  H344     1.0000 0.09978  0.91601  0.28020  Biso   1.000  H
  C356     1.0000 0.19618  0.98279  0.35580  Biso   1.000  C
  H345     1.0000 0.20341  0.00368  0.24288  Biso   1.000  H
  H346     1.0000 0.14941  0.01060  0.26522  Biso   1.000  H
  H347     1.0000 0.99928  0.74918  0.57611  Biso   1.000  H
  C357     1.0000 0.93099  0.73928  0.53281  Biso   1.000  C
  C358     1.0000 0.90000  0.64190  0.55300  Biso   1.000  C
  H348     1.0000 0.94508  0.59010  0.61637  Biso   1.000  H
  C359     1.0000 0.11770  0.66642  0.16192  Biso   1.000  C
  H349     1.0000 0.18568  0.63778  0.19399  Biso   1.000  H
  H350     1.0000 0.26088  0.48058  0.25372  Biso   1.000  H
  H351     1.0000 0.22940  0.43088  0.28911  Biso   1.000  H
  C360     1.0000 0.89939  0.89631  0.74362  Biso   1.000  C
  C361     1.0000 0.87167  0.87669  0.86489  Biso   1.000  C
  C362     1.0000 0.09051  0.82090  0.22092  Biso   1.000  C
  C363     1.0000 0.15758  0.95901  0.39987  Biso   1.000  C
  H352     1.0000 0.11869  0.88081  0.40070  Biso   1.000  H
  H353     1.0000 0.17317  0.87039  0.38400  Biso   1.000  H
  H354     1.0000 0.22450  0.95709  0.36199  Biso   1.000  H
  H355     1.0000 0.20539  0.02229  0.37410  Biso   1.000  H
  C364     1.0000 0.89487  0.69922  0.52380  Biso   1.000  C
  C365     1.0000 0.92580  0.80050  0.50771  Biso   1.000  C
  C366     1.0000 0.85969  0.60192  0.54680  Biso   1.000  C
  C367     1.0000 0.07719  0.65591  0.11442  Biso   1.000  C
  C368     1.0000 0.12121  0.72129  0.19681  Biso   1.000  C
  C369     1.0000 0.85188  0.89140  0.71259  Biso   1.000  C
  H356     1.0000 0.92458  0.90362  0.71282  Biso   1.000  H
  C370     1.0000 0.82449  0.87231  0.83569  Biso   1.000  C
  H357     1.0000 0.87879  0.87039  0.91632  Biso   1.000  H
  C371     1.0000 0.08510  0.76288  0.18708  Biso   1.000  C
  H358     1.0000 0.06731  0.85011  0.20848  Biso   1.000  H
  H359     1.0000 0.16848  0.95849  0.45307  Biso   1.000  H
  H360     1.0000 0.12900  0.98419  0.39329  Biso   1.000  H
  H361     1.0000 0.86590  0.71012  0.49742  Biso   1.000  H
  N43      1.0000 0.88660  0.82038  0.47829  Biso   1.000  N
  H362     1.0000 0.95250  0.82581  0.51363  Biso   1.000  H
  N44      1.0000 0.86309  0.54998  0.57020  Biso   1.000  N
  H363     1.0000 0.83009  0.61519  0.52457  Biso   1.000  H
  H364     1.0000 0.07418  0.61961  0.08881  Biso   1.000  H
  C372     1.0000 0.04129  0.69690  0.10380  Biso   1.000  C
  H365     1.0000 0.14890  0.73039  0.22778  Biso   1.000  H
  C373     1.0000 0.84038  0.89662  0.63230  Biso   1.000  C
  C374     1.0000 0.81530  0.87919  0.75750  Biso   1.000  C
  C375     1.0000 0.78769  0.86132  0.88198  Biso   1.000  C
  C376     1.0000 0.04538  0.75049  0.14057  Biso   1.000  C
  C377     1.0000 0.88489  0.88221  0.45921  Biso   1.000  C
  C378     1.0000 0.82030  0.51390  0.56649  Biso   1.000  C
  C379     1.0000 0.99862  0.68538  0.05171  Biso   1.000  C
  N45      1.0000 0.86949  0.90931  0.58563  Biso   1.000  N
  H366     1.0000 0.80840  0.88978  0.61438  Biso   1.000  H
  H367     1.0000 0.78368  0.87542  0.73599  Biso   1.000  H
  N46      1.0000 0.74399  0.85760  0.86041  Biso   1.000  N
  H368     1.0000 0.79609  0.85629  0.93330  Biso   1.000  H
  H369     1.0000 0.02058  0.77869  0.13349  Biso   1.000  H
  H370     1.0000 0.91750  0.89942  0.46773  Biso   1.000  H
  C380     1.0000 0.86779  0.88908  0.37748  Biso   1.000  C
  C381     1.0000 0.85131  0.91330  0.50881  Biso   1.000  C
  C382     1.0000 0.81400  0.49069  0.64380  Biso   1.000  C
  C383     1.0000 0.82400  0.46328  0.51130  Biso   1.000  C
  H371     1.0000 0.79220  0.53882  0.55040  Biso   1.000  H
  C384     1.0000 0.00387  0.66138  0.98229  Biso   1.000  C
  C385     1.0000 0.95331  0.69742  0.07012  Biso   1.000  C
  C386     1.0000 0.71149  0.84100  0.91411  Biso   1.000  C
  H372     1.0000 0.83819  0.86631  0.36719  Biso   1.000  H
  H373     1.0000 0.89231  0.87288  0.34651  Biso   1.000  H
  C387     1.0000 0.85858  0.95271  0.35657  Biso   1.000  C
  C388     1.0000 0.84319  0.97600  0.48559  Biso   1.000  C
  H374     1.0000 0.81989  0.89272  0.50373  Biso   1.000  H
  N47      1.0000 0.80720  0.53899  0.69512  Biso   1.000  N
  H375     1.0000 0.84348  0.46911  0.66128  Biso   1.000  H
  C389     1.0000 0.77230  0.44892  0.64369  Biso   1.000  C
  C390     1.0000 0.78188  0.42348  0.51280  Biso   1.000  C
  H376     1.0000 0.85358  0.44091  0.52402  Biso   1.000  H
  H377     1.0000 0.82569  0.47940  0.46081  Biso   1.000  H
  H378     1.0000 0.03479  0.65179  0.96830  Biso   1.000  H
  C391     1.0000 0.96487  0.65118  0.93357  Biso   1.000  C
  C392     1.0000 0.91399  0.68731  0.02218  Biso   1.000  C
  H379     1.0000 0.94891  0.71332  0.11751  Biso   1.000  H
  C393     1.0000 0.69868  0.77681  0.90299  Biso   1.000  C
  H380     1.0000 0.72787  0.84591  0.96448  Biso   1.000  H
  C394     1.0000 0.66719  0.88081  0.90791  Biso   1.000  C
  C395     1.0000 0.82499  0.97990  0.40457  Biso   1.000  C
  H381     1.0000 0.84549  0.95490  0.30448  Biso   1.000  H
  H382     1.0000 0.88900  0.97460  0.36089  Biso   1.000  H
  H383     1.0000 0.81978  0.99422  0.51672  Biso   1.000  H
  H384     1.0000 0.87348  0.99799  0.49322  Biso   1.000  H
  C396     1.0000 0.84080  0.55012  0.74312  Biso   1.000  C
  H385     1.0000 0.74249  0.47081  0.63119  Biso   1.000  H
  H386     1.0000 0.77067  0.43250  0.69401  Biso   1.000  H
  C397     1.0000 0.77600  0.39909  0.58911  Biso   1.000  C
  H387     1.0000 0.75278  0.44529  0.49571  Biso   1.000  H
  H388     1.0000 0.78570  0.39059  0.47812  Biso   1.000  H
  C398     1.0000 0.91938  0.66419  0.95182  Biso   1.000  C
  H389     1.0000 0.96949  0.63498  0.88640  Biso   1.000  H
  H390     1.0000 0.88310  0.69602  0.03689  Biso   1.000  H
  N48      1.0000 0.74238  0.74121  0.91101  Biso   1.000  N
  C399     1.0000 0.66367  0.75702  0.95879  Biso   1.000  C
  H391     1.0000 0.68347  0.77151  0.85189  Biso   1.000  H
  H392     1.0000 0.67647  0.92162  0.92030  Biso   1.000  H
  H393     1.0000 0.65257  0.88011  0.85648  Biso   1.000  H
  C400     1.0000 0.63089  0.85922  0.96100  Biso   1.000  C
  H394     1.0000 0.79380  0.95989  0.39761  Biso   1.000  H
  H395     1.0000 0.82028  0.02150  0.39058  Biso   1.000  H
  C401     1.0000 0.83877  0.59828  0.79632  Biso   1.000  C
  H396     1.0000 0.86848  0.52621  0.74489  Biso   1.000  H
  H397     1.0000 0.74687  0.37479  0.58822  Biso   1.000  H
  H398     1.0000 0.80358  0.37400  0.60470  Biso   1.000  H
  C402     1.0000 0.87696  0.65420  0.89918  Biso   1.000  C
  C403     1.0000 0.75298  0.71262  0.85427  Biso   1.000  C
  C404     1.0000 0.61817  0.79559  0.95099  Biso   1.000  C
  H399     1.0000 0.65498  0.71551  0.94977  Biso   1.000  H
  H400     1.0000 0.67879  0.76039  0.00968  Biso   1.000  H
  H401     1.0000 0.60148  0.88291  0.95331  Biso   1.000  H
  H402     1.0000 0.64401  0.86561  0.01250  Biso   1.000  H
  C405     1.0000 0.87759  0.60879  0.84647  Biso   1.000  C
  C406     1.0000 0.79867  0.63450  0.79842  Biso   1.000  C
  C407     1.0000 0.83657  0.68691  0.90122  Biso   1.000  C
  C408     1.0000 0.79650  0.67750  0.85151  Biso   1.000  C
  H403     1.0000 0.73148  0.71389  0.81141  Biso   1.000  H
  H404     1.0000 0.59627  0.78382  0.98860  Biso   1.000  H
  H405     1.0000 0.60169  0.78960  0.90150  Biso   1.000  H
  H406     1.0000 0.90507  0.58480  0.84542  Biso   1.000  H
  H407     1.0000 0.77257  0.62929  0.76281  Biso   1.000  H
  H408     1.0000 0.83549  0.71699  0.93728  Biso   1.000  H
  Ne1      1.0000 0.00751  0.26045  0.36852  Biso   1.000  Ne
  He1      1.0000 0.10173  0.26174  0.43609  Biso   1.000  He
  He2      1.0000 0.81897  0.25723  0.16277  Biso   1.000  He
  He3      1.0000 0.97226  0.23596  0.25705  Biso   1.000  He
  Ar1      1.0000 0.03935  0.24148  0.31506  Biso   1.000  Ar
  Ne2      1.0000 0.50751  0.23955  0.86852  Biso   1.000  Ne
  He4      1.0000 0.60217  0.23810  0.93691  Biso   1.000  He
  He5      1.0000 0.35991  0.23848  0.69894  Biso   1.000  He
  He6      1.0000 0.52371  0.26090  0.80177  Biso   1.000  He
  Ar2      1.0000 0.53932  0.25849  0.81510  Biso   1.000  Ar
  Ne3      1.0000 0.50751  0.76045  0.36852  Biso   1.000  Ne
  He7      1.0000 0.60174  0.76172  0.43605  Biso   1.000  He
  He8      1.0000 0.31899  0.75721  0.16277  Biso   1.000  He
  He9      1.0000 0.47226  0.73600  0.25711  Biso   1.000  He
  Ar3      1.0000 0.53933  0.74152  0.31510  Biso   1.000  Ar
  Ne4      1.0000 0.00751  0.73955  0.86852  Biso   1.000  Ne
  He10     1.0000 0.10216  0.73809  0.93695  Biso   1.000  He
  He11     1.0000 0.85989  0.73849  0.69896  Biso   1.000  He
  He12     1.0000 0.02374  0.76092  0.80173  Biso   1.000  He
  Ar4      1.0000 0.03935  0.75853  0.81507  Biso   1.000  Ar
