data_image0
_cell_length_a       27.916
_cell_length_b       24.126
_cell_length_c       16.961
_cell_angle_alpha    90
_cell_angle_beta     90.52
_cell_angle_gamma    90

_symmetry_space_group_name_H-M    "P 1"
_symmetry_int_tables_number       1

loop_
  _symmetry_equiv_pos_as_xyz
  'x, y, z'

loop_
  _atom_site_label
  _atom_site_occupancy
  _atom_site_fract_x
  _atom_site_fract_y
  _atom_site_fract_z
  _atom_site_thermal_displace_type
  _atom_site_B_iso_or_equiv
  _atom_site_type_symbol
  C1       1.0000 0.23398  0.52785  0.46049  Biso   1.000  C
  C2       1.0000 0.19196  0.48690  0.45996  Biso   1.000  C
  H1       1.0000 0.26429  0.50721  0.46768  Biso   1.000  H
  H2       1.0000 0.23531  0.54709  0.40890  Biso   1.000  H
  C3       1.0000 0.22936  0.57021  0.52523  Biso   1.000  C
  N1       1.0000 0.20105  0.44479  0.40029  Biso   1.000  N
  H3       1.0000 0.16172  0.50709  0.44622  Biso   1.000  H
  C4       1.0000 0.18602  0.45810  0.53920  Biso   1.000  C
  H4       1.0000 0.25763  0.59508  0.52540  Biso   1.000  H
  H5       1.0000 0.20030  0.59309  0.51609  Biso   1.000  H
  C5       1.0000 0.22595  0.54157  0.60170  Biso   1.000  C
  C6       1.0000 0.16995  0.43787  0.34646  Biso   1.000  C
  N2       1.0000 0.14306  0.42390  0.53661  Biso   1.000  N
  C7       1.0000 0.18330  0.50050  0.60506  Biso   1.000  C
  H6       1.0000 0.21441  0.43368  0.54881  Biso   1.000  H
  H7       1.0000 0.22231  0.56951  0.64403  Biso   1.000  H
  H8       1.0000 0.25610  0.52110  0.61190  Biso   1.000  H
  C8       1.0000 0.17548  0.39576  0.28466  Biso   1.000  C
  H9       1.0000 0.14211  0.46058  0.34598  Biso   1.000  H
  C9       1.0000 0.14608  0.37536  0.56467  Biso   1.000  C
  H10      1.0000 0.18362  0.48118  0.65659  Biso   1.000  H
  H11      1.0000 0.15280  0.52130  0.60052  Biso   1.000  H
  C10      1.0000 0.21464  0.36040  0.28490  Biso   1.000  C
  C11      1.0000 0.13992  0.38912  0.22694  Biso   1.000  C
  C12      1.0000 0.10550  0.33603  0.56544  Biso   1.000  C
  H12      1.0000 0.17593  0.36359  0.58631  Biso   1.000  H
  C13      1.0000 0.21890  0.31982  0.22682  Biso   1.000  C
  H13      1.0000 0.23861  0.36380  0.32470  Biso   1.000  H
  C14      1.0000 0.14325  0.34809  0.16916  Biso   1.000  C
  H14      1.0000 0.11291  0.41308  0.22700  Biso   1.000  H
  C15      1.0000 0.11125  0.28484  0.60140  Biso   1.000  C
  C16      1.0000 0.06222  0.34776  0.52635  Biso   1.000  C
  C17      1.0000 0.26012  0.28264  0.23024  Biso   1.000  C
  C18      1.0000 0.18294  0.31398  0.16881  Biso   1.000  C
  C19      1.0000 0.10307  0.33798  0.11256  Biso   1.000  C
  C20      1.0000 0.09481  0.35410  0.12783  Biso   1.000  C
  C21      1.0000 0.07395  0.24583  0.60105  Biso   1.000  C
  H15      1.0000 0.14080  0.27601  0.62664  Biso   1.000  H
  H16      1.0000 0.05843  0.38241  0.50040  Biso   1.000  H
  C22      1.0000 0.02478  0.30979  0.52475  Biso   1.000  C
  N3       1.0000 0.26942  0.24807  0.17653  Biso   1.000  N
  H17      1.0000 0.28089  0.28451  0.27488  Biso   1.000  H
  H18      1.0000 0.28122  0.29740  0.26922  Biso   1.000  H
  N4       1.0000 0.28242  0.23460  0.20141  Biso   1.000  N
  H19      1.0000 0.18602  0.28641  0.12918  Biso   1.000  H
  C23      1.0000 0.07759  0.38187  0.07860  Biso   1.000  C
  C24      1.0000 0.08787  0.28413  0.09664  Biso   1.000  C
  C25      1.0000 0.10059  0.32438  0.05831  Biso   1.000  C
  C26      1.0000 0.05000  0.37499  0.14723  Biso   1.000  C
  C27      1.0000 0.03087  0.25868  0.56355  Biso   1.000  C
  C28      1.0000 0.07951  0.18988  0.63489  Biso   1.000  C
  C29      1.0000 0.97919  0.31820  0.48042  Biso   1.000  C
  C30      1.0000 0.98312  0.33648  0.47228  Biso   1.000  C
  C31      1.0000 0.31212  0.21338  0.19003  Biso   1.000  C
  C32      1.0000 0.31849  0.20642  0.22700  Biso   1.000  C
  C33      1.0000 0.03690  0.37242  0.03296  Biso   1.000  C
  H20      1.0000 0.08831  0.41880  0.08679  Biso   1.000  H
  H21      1.0000 0.10549  0.25350  0.11680  Biso   1.000  H
  C34      1.0000 0.04703  0.27514  0.05130  Biso   1.000  C
  C35      1.0000 0.06159  0.31559  0.00831  Biso   1.000  C
  H22      1.0000 0.13121  0.31008  0.04511  Biso   1.000  H
  H23      1.0000 0.04610  0.39530  0.19469  Biso   1.000  H
  C36      1.0000 0.01110  0.36620  0.09723  Biso   1.000  C
  H24      1.0000 0.00530  0.23270  0.56408  Biso   1.000  H
  N5       1.0000 0.11854  0.17297  0.66337  Biso   1.000  N
  H25      1.0000 0.05261  0.16580  0.63513  Biso   1.000  H
  C37      1.0000 0.96310  0.37242  0.46703  Biso   1.000  C
  C38      1.0000 0.95300  0.27514  0.44875  Biso   1.000  C
  C39      1.0000 0.93841  0.31559  0.49174  Biso   1.000  C
  C40      1.0000 0.98890  0.36620  0.40282  Biso   1.000  C
  H26      1.0000 0.32560  0.22221  0.24333  Biso   1.000  H
  C41      1.0000 0.35001  0.22569  0.12871  Biso   1.000  C
  C42      1.0000 0.29707  0.15199  0.18879  Biso   1.000  C
  C43      1.0000 0.36300  0.21491  0.16598  Biso   1.000  C
  H27      1.0000 0.32561  0.20658  0.28490  Biso   1.000  H
  C44      1.0000 0.02081  0.31820  0.01958  Biso   1.000  C
  H28      1.0000 0.01990  0.40280  0.01079  Biso   1.000  H
  C45      1.0000 0.01692  0.33648  0.02771  Biso   1.000  C
  H29      1.0000 0.03680  0.23821  0.04180  Biso   1.000  H
  H30      1.0000 0.06562  0.29528  0.96083  Biso   1.000  H
  H31      1.0000 0.98051  0.38050  0.11038  Biso   1.000  H
  C46      1.0000 0.11980  0.11523  0.69097  Biso   1.000  C
  H32      1.0000 0.98009  0.40280  0.48920  Biso   1.000  H
  C47      1.0000 0.92244  0.38187  0.42145  Biso   1.000  C
  C48      1.0000 0.91213  0.28413  0.40341  Biso   1.000  C
  H33      1.0000 0.96319  0.23821  0.45819  Biso   1.000  H
  H34      1.0000 0.93441  0.29528  0.53920  Biso   1.000  H
  C49      1.0000 0.89941  0.32438  0.44174  Biso   1.000  C
  H35      1.0000 0.01952  0.38050  0.38962  Biso   1.000  H
  C50      1.0000 0.95000  0.37499  0.35282  Biso   1.000  C
  H36      1.0000 0.35992  0.26498  0.13272  Biso   1.000  H
  H37      1.0000 0.33649  0.21939  0.07518  Biso   1.000  H
  C51      1.0000 0.39339  0.18839  0.14151  Biso   1.000  C
  H38      1.0000 0.35271  0.20422  0.11179  Biso   1.000  H
  H39      1.0000 0.37259  0.25441  0.16468  Biso   1.000  H
  N6       1.0000 0.25531  0.13819  0.25430  Biso   1.000  N
  C52      1.0000 0.34086  0.11428  0.19829  Biso   1.000  C
  H40      1.0000 0.27960  0.14321  0.13862  Biso   1.000  H
  N7       1.0000 0.27000  0.14209  0.24858  Biso   1.000  N
  C53      1.0000 0.40221  0.18221  0.18903  Biso   1.000  C
  C54      1.0000 0.97525  0.30979  0.97522  Biso   1.000  C
  C55      1.0000 0.15308  0.08194  0.63914  Biso   1.000  C
  H41      1.0000 0.08682  0.09919  0.68713  Biso   1.000  H
  C56      1.0000 0.13639  0.11378  0.77687  Biso   1.000  C
  H42      1.0000 0.91172  0.41880  0.41320  Biso   1.000  H
  C57      1.0000 0.89693  0.33798  0.38743  Biso   1.000  C
  C58      1.0000 0.90519  0.35410  0.37222  Biso   1.000  C
  H43      1.0000 0.89450  0.25350  0.38319  Biso   1.000  H
  H44      1.0000 0.86882  0.31008  0.45489  Biso   1.000  H
  H45      1.0000 0.95390  0.39530  0.30530  Biso   1.000  H
  H46      1.0000 0.40850  0.19721  0.19298  Biso   1.000  H
  H47      1.0000 0.41719  0.19568  0.09988  Biso   1.000  H
  C59      1.0000 0.37941  0.12712  0.13968  Biso   1.000  C
  H48      1.0000 0.43319  0.19531  0.16863  Biso   1.000  H
  C60      1.0000 0.21202  0.12949  0.23921  Biso   1.000  C
  H49      1.0000 0.35409  0.11850  0.25230  Biso   1.000  H
  H50      1.0000 0.33069  0.07519  0.19168  Biso   1.000  H
  C61      1.0000 0.22659  0.13728  0.22411  Biso   1.000  C
  H51      1.0000 0.40421  0.17641  0.24722  Biso   1.000  H
  C62      1.0000 0.93781  0.34776  0.97369  Biso   1.000  C
  C63      1.0000 0.96916  0.25868  0.93648  Biso   1.000  C
  N8       1.0000 0.13252  0.08049  0.56868  Biso   1.000  N
  N9       1.0000 0.13860  0.08480  0.54622  Biso   1.000  N
  C64      1.0000 0.15726  0.02292  0.66974  Biso   1.000  C
  H52      1.0000 0.18560  0.09910  0.64462  Biso   1.000  H
  H53      1.0000 0.11243  0.13280  0.80983  Biso   1.000  H
  H54      1.0000 0.16701  0.13421  0.78200  Biso   1.000  H
  C65      1.0000 0.14333  0.05463  0.80718  Biso   1.000  C
  C66      1.0000 0.85675  0.34809  0.33083  Biso   1.000  C
  H55      1.0000 0.36790  0.11730  0.08608  Biso   1.000  H
  H56      1.0000 0.40799  0.10420  0.15159  Biso   1.000  H
  H57      1.0000 0.36629  0.13740  0.08732  Biso   1.000  H
  H58      1.0000 0.40280  0.09649  0.13431  Biso   1.000  H
  C67      1.0000 0.17491  0.11709  0.29728  Biso   1.000  C
  H59      1.0000 0.20230  0.13110  0.18537  Biso   1.000  H
  C68      1.0000 0.18752  0.12538  0.27818  Biso   1.000  C
  H60      1.0000 0.21970  0.14159  0.16951  Biso   1.000  H
  C69      1.0000 0.89454  0.33603  0.93459  Biso   1.000  C
  H61      1.0000 0.94161  0.38241  0.99963  Biso   1.000  H
  C70      1.0000 0.92608  0.24583  0.89898  Biso   1.000  C
  H62      1.0000 0.99474  0.23270  0.93589  Biso   1.000  H
  C71      1.0000 0.16211  0.09542  0.51573  Biso   1.000  C
  C72      1.0000 0.16841  0.10051  0.49510  Biso   1.000  C
  C73      1.0000 0.17603  0.02334  0.75429  Biso   1.000  C
  H63      1.0000 0.17932  0.00149  0.63601  Biso   1.000  H
  H64      1.0000 0.12540  0.00468  0.66774  Biso   1.000  H
  H65      1.0000 0.15703  0.05571  0.86119  Biso   1.000  H
  H66      1.0000 0.11193  0.03560  0.80930  Biso   1.000  H
  C74      1.0000 0.86012  0.38912  0.27311  Biso   1.000  C
  C75      1.0000 0.81709  0.31398  0.33119  Biso   1.000  C
  C76      1.0000 0.18492  0.11129  0.37771  Biso   1.000  C
  C77      1.0000 0.12769  0.11021  0.27069  Biso   1.000  C
  C78      1.0000 0.19510  0.11950  0.35960  Biso   1.000  C
  C79      1.0000 0.14161  0.11871  0.24888  Biso   1.000  C
  C80      1.0000 0.88879  0.28484  0.89863  Biso   1.000  C
  C81      1.0000 0.85395  0.37536  0.93536  Biso   1.000  C
  C82      1.0000 0.92052  0.18988  0.86514  Biso   1.000  C
  C83      1.0000 0.14971  0.09832  0.43059  Biso   1.000  C
  H67      1.0000 0.19372  0.10511  0.53159  Biso   1.000  H
  H68      1.0000 0.19992  0.10930  0.51290  Biso   1.000  H
  C84      1.0000 0.15813  0.10611  0.41078  Biso   1.000  C
  H69      1.0000 0.20821  0.04062  0.75582  Biso   1.000  H
  H70      1.0000 0.17922  0.98471  0.77351  Biso   1.000  H
  C85      1.0000 0.82451  0.39576  0.21533  Biso   1.000  C
  H71      1.0000 0.88709  0.41308  0.27299  Biso   1.000  H
  H72      1.0000 0.81402  0.28641  0.37081  Biso   1.000  H
  C86      1.0000 0.78110  0.31982  0.27317  Biso   1.000  C
  H73      1.0000 0.21679  0.11660  0.39628  Biso   1.000  H
  H74      1.0000 0.22652  0.12468  0.38054  Biso   1.000  H
  H75      1.0000 0.12019  0.11369  0.21621  Biso   1.000  H
  C87      1.0000 0.09141  0.09819  0.32440  Biso   1.000  C
  H76      1.0000 0.13580  0.12352  0.19398  Biso   1.000  H
  C88      1.0000 0.10320  0.10499  0.29840  Biso   1.000  C
  H77      1.0000 0.85920  0.27601  0.87339  Biso   1.000  H
  N10      1.0000 0.85697  0.42390  0.96343  Biso   1.000  N
  H78      1.0000 0.82410  0.36359  0.91372  Biso   1.000  H
  N11      1.0000 0.88149  0.17297  0.83666  Biso   1.000  N
  H79      1.0000 0.94742  0.16580  0.86490  Biso   1.000  H
  C89      1.0000 0.10210  0.09330  0.40400  Biso   1.000  C
  C90      1.0000 0.11181  0.09840  0.37871  Biso   1.000  C
  C91      1.0000 0.83005  0.43787  0.15354  Biso   1.000  C
  C92      1.0000 0.78536  0.36040  0.21515  Biso   1.000  C
  C93      1.0000 0.73988  0.28264  0.26975  Biso   1.000  C
  C94      1.0000 0.04182  0.09620  0.29581  Biso   1.000  C
  C95      1.0000 0.05282  0.09981  0.26379  Biso   1.000  C
  C96      1.0000 0.81401  0.45810  0.96083  Biso   1.000  C
  C97      1.0000 0.88023  0.11523  0.80907  Biso   1.000  C
  H80      1.0000 0.07730  0.08659  0.44062  Biso   1.000  H
  H81      1.0000 0.08620  0.08849  0.41243  Biso   1.000  H
  N12      1.0000 0.79894  0.44479  0.09970  Biso   1.000  N
  H82      1.0000 0.85792  0.46058  0.15401  Biso   1.000  H
  H83      1.0000 0.76139  0.36380  0.17529  Biso   1.000  H
  N13      1.0000 0.73061  0.24807  0.32352  Biso   1.000  N
  N14      1.0000 0.71762  0.23460  0.29858  Biso   1.000  N
  H84      1.0000 0.71911  0.28451  0.22511  Biso   1.000  H
  H85      1.0000 0.71882  0.29740  0.23083  Biso   1.000  H
  C98      1.0000 0.00500  0.12410  0.33590  Biso   1.000  C
  C99      1.0000 0.02805  0.06769  0.22771  Biso   1.000  C
  C100     1.0000 0.04134  0.12605  0.19440  Biso   1.000  C
  C101     1.0000 0.01900  0.06910  0.30159  Biso   1.000  C
  C102     1.0000 0.81669  0.50050  0.89497  Biso   1.000  C
  H86      1.0000 0.78562  0.43368  0.95122  Biso   1.000  H
  C103     1.0000 0.80807  0.48690  0.04003  Biso   1.000  C
  H87      1.0000 0.91321  0.09919  0.81290  Biso   1.000  H
  C104     1.0000 0.86364  0.11378  0.72316  Biso   1.000  C
  C105     1.0000 0.84695  0.08194  0.86089  Biso   1.000  C
  C106     1.0000 0.68788  0.21338  0.31002  Biso   1.000  C
  C107     1.0000 0.68151  0.20642  0.27299  Biso   1.000  C
  H88      1.0000 0.01201  0.14188  0.38460  Biso   1.000  H
  C108     1.0000 0.95866  0.12605  0.30560  Biso   1.000  C
  H89      1.0000 0.05140  0.04659  0.20041  Biso   1.000  H
  C109     1.0000 0.98100  0.06910  0.19840  Biso   1.000  C
  C110     1.0000 0.97195  0.06769  0.27228  Biso   1.000  C
  H90      1.0000 0.06540  0.14582  0.16680  Biso   1.000  H
  C111     1.0000 0.99503  0.12410  0.16409  Biso   1.000  C
  H91      1.0000 0.02731  0.04879  0.34769  Biso   1.000  H
  C112     1.0000 0.77408  0.54157  0.89833  Biso   1.000  C
  H92      1.0000 0.81641  0.48118  0.84344  Biso   1.000  H
  H93      1.0000 0.84724  0.52130  0.89951  Biso   1.000  H
  H94      1.0000 0.83831  0.50709  0.05377  Biso   1.000  H
  C113     1.0000 0.76602  0.52785  0.03956  Biso   1.000  C
  H95      1.0000 0.88760  0.13280  0.69020  Biso   1.000  H
  H96      1.0000 0.83302  0.13421  0.71803  Biso   1.000  H
  C114     1.0000 0.85670  0.05463  0.69285  Biso   1.000  C
  N15      1.0000 0.86751  0.08049  0.93129  Biso   1.000  N
  C115     1.0000 0.84277  0.02292  0.83029  Biso   1.000  C
  H97      1.0000 0.81443  0.09910  0.85541  Biso   1.000  H
  N16      1.0000 0.86144  0.08480  0.95382  Biso   1.000  N
  C116     1.0000 0.70296  0.15199  0.31120  Biso   1.000  C
  H98      1.0000 0.67440  0.22221  0.25672  Biso   1.000  H
  C117     1.0000 0.64999  0.22569  0.37128  Biso   1.000  C
  C118     1.0000 0.63700  0.21491  0.33402  Biso   1.000  C
  H99      1.0000 0.67442  0.20658  0.21509  Biso   1.000  H
  H100     1.0000 0.93460  0.14582  0.33319  Biso   1.000  H
  C119     1.0000 0.94718  0.09981  0.23620  Biso   1.000  C
  H101     1.0000 0.97272  0.04879  0.15230  Biso   1.000  H
  C120     1.0000 0.95821  0.09620  0.20418  Biso   1.000  C
  H102     1.0000 0.94860  0.04659  0.29958  Biso   1.000  H
  H103     1.0000 0.98799  0.14188  0.11539  Biso   1.000  H
  C121     1.0000 0.77067  0.57021  0.97481  Biso   1.000  C
  H104     1.0000 0.77772  0.56951  0.85600  Biso   1.000  H
  H105     1.0000 0.74394  0.52110  0.88813  Biso   1.000  H
  H106     1.0000 0.73571  0.50721  0.03231  Biso   1.000  H
  H107     1.0000 0.76469  0.54709  0.09110  Biso   1.000  H
  H108     1.0000 0.84301  0.05571  0.63879  Biso   1.000  H
  H109     1.0000 0.88810  0.03560  0.69073  Biso   1.000  H
  C122     1.0000 0.82400  0.02334  0.74574  Biso   1.000  C
  C123     1.0000 0.83792  0.09542  0.98430  Biso   1.000  C
  C124     1.0000 0.83159  0.10051  0.00489  Biso   1.000  C
  H110     1.0000 0.82071  0.00149  0.86402  Biso   1.000  H
  H111     1.0000 0.87463  0.00468  0.83230  Biso   1.000  H
  N17      1.0000 0.74469  0.13819  0.24569  Biso   1.000  N
  N18      1.0000 0.73000  0.14209  0.25141  Biso   1.000  N
  C125     1.0000 0.65917  0.11428  0.30170  Biso   1.000  C
  H112     1.0000 0.72040  0.14321  0.36143  Biso   1.000  H
  H113     1.0000 0.64012  0.26498  0.36733  Biso   1.000  H
  H114     1.0000 0.66350  0.21939  0.42482  Biso   1.000  H
  C126     1.0000 0.60665  0.18839  0.35848  Biso   1.000  C
  H115     1.0000 0.64729  0.20422  0.38820  Biso   1.000  H
  H116     1.0000 0.62740  0.25441  0.33531  Biso   1.000  H
  C127     1.0000 0.59779  0.18221  0.31102  Biso   1.000  C
  C128     1.0000 0.90862  0.09819  0.17559  Biso   1.000  C
  C129     1.0000 0.89680  0.10499  0.20159  Biso   1.000  C
  H117     1.0000 0.74241  0.59508  0.97463  Biso   1.000  H
  H118     1.0000 0.79974  0.59309  0.98394  Biso   1.000  H
  H119     1.0000 0.82081  0.98471  0.72652  Biso   1.000  H
  H120     1.0000 0.79182  0.04062  0.74421  Biso   1.000  H
  C130     1.0000 0.85029  0.09832  0.06940  Biso   1.000  C
  H121     1.0000 0.80631  0.10511  0.96844  Biso   1.000  H
  H122     1.0000 0.80011  0.10930  0.98713  Biso   1.000  H
  C131     1.0000 0.84191  0.10611  0.08921  Biso   1.000  C
  C132     1.0000 0.78801  0.12949  0.26079  Biso   1.000  C
  C133     1.0000 0.77341  0.13728  0.27588  Biso   1.000  C
  C134     1.0000 0.62059  0.12712  0.36031  Biso   1.000  C
  H123     1.0000 0.64591  0.11850  0.24770  Biso   1.000  H
  H124     1.0000 0.66931  0.07519  0.30831  Biso   1.000  H
  H125     1.0000 0.59150  0.19721  0.30701  Biso   1.000  H
  H126     1.0000 0.58281  0.19568  0.40011  Biso   1.000  H
  H127     1.0000 0.56681  0.19531  0.33142  Biso   1.000  H
  H128     1.0000 0.59582  0.17641  0.25283  Biso   1.000  H
  C135     1.0000 0.87231  0.11021  0.22930  Biso   1.000  C
  C136     1.0000 0.89790  0.09330  0.09599  Biso   1.000  C
  C137     1.0000 0.88819  0.09840  0.12128  Biso   1.000  C
  C138     1.0000 0.85842  0.11871  0.25112  Biso   1.000  C
  C139     1.0000 0.81512  0.11129  0.12229  Biso   1.000  C
  C140     1.0000 0.80490  0.11950  0.14039  Biso   1.000  C
  C141     1.0000 0.82509  0.11709  0.20271  Biso   1.000  C
  C142     1.0000 0.81251  0.12538  0.22181  Biso   1.000  C
  H129     1.0000 0.79769  0.13110  0.31462  Biso   1.000  H
  H130     1.0000 0.78030  0.14159  0.33048  Biso   1.000  H
  H131     1.0000 0.63210  0.11730  0.41391  Biso   1.000  H
  H132     1.0000 0.59201  0.10420  0.34840  Biso   1.000  H
  H133     1.0000 0.63371  0.13740  0.41273  Biso   1.000  H
  H134     1.0000 0.59719  0.09649  0.36568  Biso   1.000  H
  H135     1.0000 0.87981  0.11369  0.28378  Biso   1.000  H
  H136     1.0000 0.92270  0.08659  0.05937  Biso   1.000  H
  H137     1.0000 0.91379  0.08849  0.08762  Biso   1.000  H
  H138     1.0000 0.86420  0.12352  0.30601  Biso   1.000  H
  H139     1.0000 0.78321  0.11660  0.10371  Biso   1.000  H
  H140     1.0000 0.77351  0.12468  0.11951  Biso   1.000  H
  C143     1.0000 0.33163  0.39949  0.50488  Biso   1.000  C
  N19      1.0000 0.36751  0.41951  0.43130  Biso   1.000  N
  N20      1.0000 0.36140  0.41520  0.45382  Biso   1.000  N
  C144     1.0000 0.35032  0.40168  0.56939  Biso   1.000  C
  H141     1.0000 0.30632  0.39489  0.46839  Biso   1.000  H
  H142     1.0000 0.30011  0.39070  0.48714  Biso   1.000  H
  C145     1.0000 0.34191  0.39389  0.58920  Biso   1.000  C
  C146     1.0000 0.34695  0.41806  0.36084  Biso   1.000  C
  C147     1.0000 0.33793  0.40458  0.48431  Biso   1.000  C
  C148     1.0000 0.31512  0.38871  0.62234  Biso   1.000  C
  C149     1.0000 0.39790  0.40670  0.59604  Biso   1.000  C
  C150     1.0000 0.38822  0.40160  0.62133  Biso   1.000  C
  C151     1.0000 0.30490  0.38050  0.64044  Biso   1.000  C
  C152     1.0000 0.38020  0.38477  0.30907  Biso   1.000  C
  C153     1.0000 0.34277  0.47708  0.33030  Biso   1.000  C
  H143     1.0000 0.31440  0.40090  0.35542  Biso   1.000  H
  H144     1.0000 0.28320  0.38340  0.60370  Biso   1.000  H
  C154     1.0000 0.32512  0.38291  0.70270  Biso   1.000  C
  H145     1.0000 0.27351  0.37528  0.61951  Biso   1.000  H
  C155     1.0000 0.31251  0.37462  0.72180  Biso   1.000  C
  C156     1.0000 0.40862  0.40181  0.67564  Biso   1.000  C
  H146     1.0000 0.42270  0.41341  0.55942  Biso   1.000  H
  C157     1.0000 0.39680  0.39501  0.70164  Biso   1.000  C
  H147     1.0000 0.41383  0.41151  0.58761  Biso   1.000  H
  N21      1.0000 0.38146  0.32703  0.33661  Biso   1.000  N
  H148     1.0000 0.41321  0.40081  0.31291  Biso   1.000  H
  C158     1.0000 0.36364  0.38622  0.22317  Biso   1.000  C
  C159     1.0000 0.32397  0.47666  0.24569  Biso   1.000  C
  H149     1.0000 0.32071  0.49851  0.36403  Biso   1.000  H
  H150     1.0000 0.37459  0.49532  0.33231  Biso   1.000  H
  C160     1.0000 0.37230  0.38979  0.72929  Biso   1.000  C
  C161     1.0000 0.28801  0.37051  0.76084  Biso   1.000  C
  C162     1.0000 0.35842  0.38129  0.75111  Biso   1.000  C
  C163     1.0000 0.27341  0.36268  0.77593  Biso   1.000  C
  C164     1.0000 0.45821  0.40380  0.70423  Biso   1.000  C
  C165     1.0000 0.44717  0.40019  0.73619  Biso   1.000  C
  C166     1.0000 0.42048  0.31012  0.36515  Biso   1.000  C
  H151     1.0000 0.38760  0.36720  0.19021  Biso   1.000  H
  H152     1.0000 0.33302  0.36579  0.21798  Biso   1.000  H
  C167     1.0000 0.35670  0.44537  0.19286  Biso   1.000  C
  H153     1.0000 0.32081  0.51529  0.22653  Biso   1.000  H
  H154     1.0000 0.29179  0.45938  0.24422  Biso   1.000  H
  H155     1.0000 0.37981  0.38631  0.78383  Biso   1.000  H
  N22      1.0000 0.24473  0.36181  0.74574  Biso   1.000  N
  H156     1.0000 0.29773  0.36890  0.81461  Biso   1.000  H
  N23      1.0000 0.23000  0.35791  0.75140  Biso   1.000  N
  H157     1.0000 0.28034  0.35841  0.83053  Biso   1.000  H
  H158     1.0000 0.36420  0.37648  0.80600  Biso   1.000  H
  C168     1.0000 0.49503  0.37590  0.66414  Biso   1.000  C
  C169     1.0000 0.47195  0.43231  0.77233  Biso   1.000  C
  C170     1.0000 0.45866  0.37395  0.80559  Biso   1.000  C
  C171     1.0000 0.48103  0.43090  0.69840  Biso   1.000  C
  C172     1.0000 0.42608  0.25417  0.39893  Biso   1.000  C
  H159     1.0000 0.44742  0.33420  0.36491  Biso   1.000  H
  H160     1.0000 0.34301  0.44429  0.13879  Biso   1.000  H
  H161     1.0000 0.38811  0.46440  0.19068  Biso   1.000  H
  C173     1.0000 0.20296  0.34801  0.81119  Biso   1.000  C
  H162     1.0000 0.48803  0.35808  0.61544  Biso   1.000  H
  C174     1.0000 0.54137  0.37395  0.69439  Biso   1.000  C
  C175     1.0000 0.51900  0.43090  0.80164  Biso   1.000  C
  C176     1.0000 0.52808  0.43231  0.72770  Biso   1.000  C
  H163     1.0000 0.44863  0.45341  0.79963  Biso   1.000  H
  C177     1.0000 0.50500  0.37590  0.83589  Biso   1.000  C
  H164     1.0000 0.43463  0.35418  0.83324  Biso   1.000  H
  H165     1.0000 0.47272  0.45121  0.65229  Biso   1.000  H
  C178     1.0000 0.38879  0.21516  0.39864  Biso   1.000  C
  C179     1.0000 0.46913  0.24132  0.43649  Biso   1.000  C
  C180     1.0000 0.18791  0.28662  0.81001  Biso   1.000  C
  C181     1.0000 0.15917  0.38572  0.80170  Biso   1.000  C
  H166     1.0000 0.22043  0.35679  0.86142  Biso   1.000  H
  C182     1.0000 0.18151  0.29358  0.77304  Biso   1.000  C
  H167     1.0000 0.56540  0.35418  0.66679  Biso   1.000  H
  C183     1.0000 0.55286  0.40019  0.76384  Biso   1.000  C
  H168     1.0000 0.52731  0.45121  0.84774  Biso   1.000  H
  C184     1.0000 0.54182  0.40380  0.79580  Biso   1.000  C
  H169     1.0000 0.55140  0.45341  0.70040  Biso   1.000  H
  H170     1.0000 0.51201  0.35808  0.88460  Biso   1.000  H
  H171     1.0000 0.35920  0.22399  0.37340  Biso   1.000  H
  C185     1.0000 0.39454  0.16397  0.43460  Biso   1.000  C
  C186     1.0000 0.47525  0.19021  0.47523  Biso   1.000  C
  H172     1.0000 0.49470  0.26730  0.43590  Biso   1.000  H
  N24      1.0000 0.23061  0.25193  0.82351  Biso   1.000  N
  H173     1.0000 0.17443  0.27779  0.75671  Biso   1.000  H
  C187     1.0000 0.15003  0.27431  0.87133  Biso   1.000  C
  N25      1.0000 0.21761  0.26540  0.79863  Biso   1.000  N
  C188     1.0000 0.13703  0.28509  0.83401  Biso   1.000  C
  C189     1.0000 0.12059  0.37288  0.86030  Biso   1.000  C
  H174     1.0000 0.14591  0.38150  0.74769  Biso   1.000  H
  H175     1.0000 0.16931  0.42481  0.80830  Biso   1.000  H
  H176     1.0000 0.17442  0.29342  0.71514  Biso   1.000  H
  C190     1.0000 0.59141  0.40181  0.82440  Biso   1.000  C
  C191     1.0000 0.60323  0.39501  0.79839  Biso   1.000  C
  C192     1.0000 0.43777  0.15224  0.47364  Biso   1.000  C
  C193     1.0000 0.35396  0.12464  0.43537  Biso   1.000  C
  C194     1.0000 0.52085  0.18180  0.51957  Biso   1.000  C
  C195     1.0000 0.51692  0.16352  0.52770  Biso   1.000  C
  C196     1.0000 0.23988  0.21736  0.76974  Biso   1.000  C
  H177     1.0000 0.14012  0.23502  0.86732  Biso   1.000  H
  H178     1.0000 0.16350  0.28061  0.92481  Biso   1.000  H
  C197     1.0000 0.10665  0.31161  0.85853  Biso   1.000  C
  H179     1.0000 0.14732  0.29578  0.88819  Biso   1.000  H
  H180     1.0000 0.12740  0.24559  0.83530  Biso   1.000  H
  C198     1.0000 0.09782  0.31779  0.81101  Biso   1.000  C
  H181     1.0000 0.13213  0.38270  0.91390  Biso   1.000  H
  H182     1.0000 0.09201  0.39580  0.84839  Biso   1.000  H
  H183     1.0000 0.13370  0.36260  0.91272  Biso   1.000  H
  H184     1.0000 0.09723  0.40351  0.86573  Biso   1.000  H
  C199     1.0000 0.62773  0.38979  0.77074  Biso   1.000  C
  C200     1.0000 0.60213  0.40670  0.90399  Biso   1.000  C
  C201     1.0000 0.61181  0.40160  0.87870  Biso   1.000  C
  C202     1.0000 0.64161  0.38129  0.74893  Biso   1.000  C
  H185     1.0000 0.44161  0.11759  0.49964  Biso   1.000  H
  N26      1.0000 0.35698  0.07610  0.46338  Biso   1.000  N
  H186     1.0000 0.32410  0.13641  0.41373  Biso   1.000  H
  C203     1.0000 0.53690  0.12758  0.53301  Biso   1.000  C
  C204     1.0000 0.54703  0.22482  0.55129  Biso   1.000  C
  C205     1.0000 0.56162  0.18441  0.50830  Biso   1.000  C
  C206     1.0000 0.51110  0.13380  0.59722  Biso   1.000  C
  C207     1.0000 0.28109  0.18018  0.77316  Biso   1.000  C
  H187     1.0000 0.21911  0.21549  0.72511  Biso   1.000  H
  H188     1.0000 0.21882  0.20260  0.73082  Biso   1.000  H
  H189     1.0000 0.09153  0.30279  0.80700  Biso   1.000  H
  H190     1.0000 0.08280  0.30432  0.90010  Biso   1.000  H
  H191     1.0000 0.06681  0.30469  0.83141  Biso   1.000  H
  H192     1.0000 0.09582  0.32359  0.75282  Biso   1.000  H
  C208     1.0000 0.67491  0.38291  0.79733  Biso   1.000  C
  H193     1.0000 0.62023  0.38631  0.71620  Biso   1.000  H
  C209     1.0000 0.68752  0.37462  0.77823  Biso   1.000  C
  H194     1.0000 0.57733  0.41341  0.94061  Biso   1.000  H
  C210     1.0000 0.64971  0.40168  0.93064  Biso   1.000  C
  C211     1.0000 0.65812  0.39389  0.91083  Biso   1.000  C
  H195     1.0000 0.58620  0.41151  0.91242  Biso   1.000  H
  H196     1.0000 0.63583  0.37648  0.69403  Biso   1.000  H
  C212     1.0000 0.31401  0.04190  0.46084  Biso   1.000  C
  H197     1.0000 0.51990  0.09720  0.51078  Biso   1.000  H
  C213     1.0000 0.57759  0.11813  0.57859  Biso   1.000  C
  C214     1.0000 0.58790  0.21587  0.59663  Biso   1.000  C
  H198     1.0000 0.53680  0.26179  0.54179  Biso   1.000  H
  H199     1.0000 0.56562  0.20472  0.46078  Biso   1.000  H
  C215     1.0000 0.60062  0.17562  0.55830  Biso   1.000  C
  C216     1.0000 0.55003  0.12501  0.64722  Biso   1.000  C
  H200     1.0000 0.48051  0.11950  0.61043  Biso   1.000  H
  C217     1.0000 0.28536  0.13960  0.71514  Biso   1.000  C
  C218     1.0000 0.31709  0.18602  0.83124  Biso   1.000  C
  C219     1.0000 0.68492  0.38871  0.87770  Biso   1.000  C
  C220     1.0000 0.71202  0.37051  0.73920  Biso   1.000  C
  C221     1.0000 0.69513  0.38050  0.85960  Biso   1.000  C
  C222     1.0000 0.72662  0.36268  0.72410  Biso   1.000  C
  C223     1.0000 0.66840  0.39949  0.99509  Biso   1.000  C
  C224     1.0000 0.66211  0.40458  0.01568  Biso   1.000  C
  C225     1.0000 0.30807  0.01310  0.54003  Biso   1.000  C
  H201     1.0000 0.28562  0.06632  0.45123  Biso   1.000  H
  C226     1.0000 0.31669  0.99950  0.39492  Biso   1.000  C
  H202     1.0000 0.58831  0.08120  0.58678  Biso   1.000  H
  C227     1.0000 0.60307  0.16202  0.61255  Biso   1.000  C
  C228     1.0000 0.59481  0.14590  0.62782  Biso   1.000  C
  H203     1.0000 0.60553  0.24650  0.61679  Biso   1.000  H
  H204     1.0000 0.63121  0.18992  0.54510  Biso   1.000  H
  H205     1.0000 0.54610  0.10470  0.69474  Biso   1.000  H
  C229     1.0000 0.32451  0.10424  0.71538  Biso   1.000  C
  H206     1.0000 0.26143  0.13620  0.67528  Biso   1.000  H
  C230     1.0000 0.35674  0.15191  0.83082  Biso   1.000  C
  H207     1.0000 0.31402  0.21359  0.87080  Biso   1.000  H
  H208     1.0000 0.71683  0.38340  0.89633  Biso   1.000  H
  H209     1.0000 0.72652  0.37528  0.88053  Biso   1.000  H
  N27      1.0000 0.75531  0.36181  0.75429  Biso   1.000  N
  N28      1.0000 0.77003  0.35791  0.74863  Biso   1.000  N
  H210     1.0000 0.70230  0.36890  0.68542  Biso   1.000  H
  H211     1.0000 0.71970  0.35841  0.66950  Biso   1.000  H
  N29      1.0000 0.63249  0.41951  0.06869  Biso   1.000  N
  H212     1.0000 0.69368  0.39489  0.03160  Biso   1.000  H
  N30      1.0000 0.63860  0.41520  0.04623  Biso   1.000  N
  H213     1.0000 0.69988  0.39070  0.01291  Biso   1.000  H
  N31      1.0000 0.29898  0.05521  0.59975  Biso   1.000  N
  H214     1.0000 0.33831  0.99291  0.55382  Biso   1.000  H
  C231     1.0000 0.26601  0.97215  0.53955  Biso   1.000  C
  H215     1.0000 0.31641  0.01882  0.34339  Biso   1.000  H
  C232     1.0000 0.27408  0.95843  0.39828  Biso   1.000  C
  H216     1.0000 0.34720  0.97870  0.39952  Biso   1.000  H
  C233     1.0000 0.64329  0.15191  0.66921  Biso   1.000  C
  C234     1.0000 0.33008  0.06213  0.65359  Biso   1.000  C
  C235     1.0000 0.36012  0.11088  0.77310  Biso   1.000  C
  C236     1.0000 0.39696  0.16202  0.88748  Biso   1.000  C
  C237     1.0000 0.40522  0.14590  0.87221  Biso   1.000  C
  C238     1.0000 0.79707  0.34801  0.68878  Biso   1.000  C
  C239     1.0000 0.65305  0.41806  0.13915  Biso   1.000  C
  H217     1.0000 0.23570  0.99279  0.53230  Biso   1.000  H
  H218     1.0000 0.26472  0.95291  0.59109  Biso   1.000  H
  C240     1.0000 0.27067  0.92979  0.47481  Biso   1.000  C
  H219     1.0000 0.27772  0.93049  0.35601  Biso   1.000  H
  H220     1.0000 0.24390  0.97890  0.38808  Biso   1.000  H
  C241     1.0000 0.63992  0.11088  0.72693  Biso   1.000  C
  C242     1.0000 0.68294  0.18602  0.66880  Biso   1.000  C
  H221     1.0000 0.35792  0.03942  0.65400  Biso   1.000  H
  H222     1.0000 0.38713  0.08692  0.77304  Biso   1.000  H
  C243     1.0000 0.42244  0.11813  0.92145  Biso   1.000  C
  C244     1.0000 0.41213  0.21587  0.90340  Biso   1.000  C
  C245     1.0000 0.39941  0.17562  0.94173  Biso   1.000  C
  C246     1.0000 0.45000  0.12501  0.85282  Biso   1.000  C
  C247     1.0000 0.81212  0.28662  0.69002  Biso   1.000  C
  C248     1.0000 0.81852  0.29358  0.72699  Biso   1.000  C
  C249     1.0000 0.84086  0.38572  0.69834  Biso   1.000  C
  H223     1.0000 0.77960  0.35679  0.63861  Biso   1.000  H
  C250     1.0000 0.61980  0.38477  0.19098  Biso   1.000  C
  C251     1.0000 0.65723  0.47708  0.16975  Biso   1.000  C
  H224     1.0000 0.68560  0.40090  0.14463  Biso   1.000  H
  H225     1.0000 0.24241  0.90492  0.47464  Biso   1.000  H
  H226     1.0000 0.29970  0.90691  0.48389  Biso   1.000  H
  C252     1.0000 0.67552  0.10424  0.78466  Biso   1.000  C
  H227     1.0000 0.61291  0.08692  0.72699  Biso   1.000  H
  H228     1.0000 0.68602  0.21359  0.62923  Biso   1.000  H
  C253     1.0000 0.71894  0.18018  0.72687  Biso   1.000  C
  C254     1.0000 0.46313  0.12758  0.96702  Biso   1.000  C
  H229     1.0000 0.41172  0.08120  0.91319  Biso   1.000  H
  H230     1.0000 0.39450  0.24650  0.88324  Biso   1.000  H
  C255     1.0000 0.45300  0.22482  0.94874  Biso   1.000  C
  C256     1.0000 0.43841  0.18441  0.99173  Biso   1.000  C
  H231     1.0000 0.36882  0.18992  0.95494  Biso   1.000  H
  H232     1.0000 0.45393  0.10470  0.80529  Biso   1.000  H
  C257     1.0000 0.48893  0.13380  0.90281  Biso   1.000  C
  N32      1.0000 0.76942  0.25193  0.67652  Biso   1.000  N
  N33      1.0000 0.78242  0.26540  0.70140  Biso   1.000  N
  H233     1.0000 0.82560  0.27779  0.74332  Biso   1.000  H
  C258     1.0000 0.85001  0.27431  0.62870  Biso   1.000  C
  C259     1.0000 0.86300  0.28509  0.66603  Biso   1.000  C
  H234     1.0000 0.82561  0.29342  0.78489  Biso   1.000  H
  C260     1.0000 0.87944  0.37288  0.63973  Biso   1.000  C
  H235     1.0000 0.85413  0.38150  0.75229  Biso   1.000  H
  H236     1.0000 0.83072  0.42481  0.69173  Biso   1.000  H
  N34      1.0000 0.61854  0.32703  0.16338  Biso   1.000  N
  H237     1.0000 0.58679  0.40081  0.18708  Biso   1.000  H
  C261     1.0000 0.63636  0.38622  0.27682  Biso   1.000  C
  C262     1.0000 0.67603  0.47666  0.25430  Biso   1.000  C
  H238     1.0000 0.67929  0.49851  0.13602  Biso   1.000  H
  H239     1.0000 0.62541  0.49532  0.16769  Biso   1.000  H
  C263     1.0000 0.71467  0.13960  0.78489  Biso   1.000  C
  C264     1.0000 0.66995  0.06213  0.84645  Biso   1.000  C
  C265     1.0000 0.76015  0.21736  0.73029  Biso   1.000  C
  C266     1.0000 0.47918  0.18180  0.98047  Biso   1.000  C
  H240     1.0000 0.48013  0.09720  0.98919  Biso   1.000  H
  C267     1.0000 0.48312  0.16352  0.97233  Biso   1.000  C
  H241     1.0000 0.46323  0.26179  0.95824  Biso   1.000  H
  H242     1.0000 0.43441  0.20472  0.03921  Biso   1.000  H
  H243     1.0000 0.51952  0.11950  0.88961  Biso   1.000  H
  H244     1.0000 0.85992  0.23502  0.63271  Biso   1.000  H
  H245     1.0000 0.83653  0.28061  0.57523  Biso   1.000  H
  C268     1.0000 0.89339  0.31161  0.64150  Biso   1.000  C
  H246     1.0000 0.85271  0.29578  0.61178  Biso   1.000  H
  H247     1.0000 0.87263  0.24559  0.66473  Biso   1.000  H
  C269     1.0000 0.90221  0.31779  0.68902  Biso   1.000  C
  H248     1.0000 0.86790  0.38270  0.58613  Biso   1.000  H
  H249     1.0000 0.90802  0.39580  0.65164  Biso   1.000  H
  H250     1.0000 0.86633  0.36260  0.58731  Biso   1.000  H
  H251     1.0000 0.90280  0.40351  0.63430  Biso   1.000  H
  C270     1.0000 0.57952  0.31012  0.13484  Biso   1.000  C
  H252     1.0000 0.61240  0.36720  0.30978  Biso   1.000  H
  H253     1.0000 0.66702  0.36579  0.28201  Biso   1.000  H
  C271     1.0000 0.64333  0.44537  0.30713  Biso   1.000  C
  H254     1.0000 0.67922  0.51529  0.27352  Biso   1.000  H
  H255     1.0000 0.70821  0.45938  0.25583  Biso   1.000  H
  H256     1.0000 0.73861  0.13620  0.82469  Biso   1.000  H
  N35      1.0000 0.70105  0.05521  0.90028  Biso   1.000  N
  H257     1.0000 0.64211  0.03942  0.84603  Biso   1.000  H
  H258     1.0000 0.78092  0.21549  0.77493  Biso   1.000  H
  H259     1.0000 0.78122  0.20260  0.76921  Biso   1.000  H
  C272     1.0000 0.52478  0.19021  0.02476  Biso   1.000  C
  H260     1.0000 0.90850  0.30279  0.69303  Biso   1.000  H
  H261     1.0000 0.91723  0.30432  0.59993  Biso   1.000  H
  H262     1.0000 0.93323  0.30469  0.66862  Biso   1.000  H
  H263     1.0000 0.90421  0.32359  0.74722  Biso   1.000  H
  C273     1.0000 0.57396  0.25417  0.10106  Biso   1.000  C
  H264     1.0000 0.55261  0.33420  0.13508  Biso   1.000  H
  H265     1.0000 0.65699  0.44429  0.36120  Biso   1.000  H
  H266     1.0000 0.61189  0.46440  0.30931  Biso   1.000  H
  C274     1.0000 0.69196  0.01310  0.96001  Biso   1.000  C
  C275     1.0000 0.56222  0.15224  0.02636  Biso   1.000  C
  C276     1.0000 0.53087  0.24132  0.06356  Biso   1.000  C
  C277     1.0000 0.61121  0.21516  0.10135  Biso   1.000  C
  H267     1.0000 0.66172  0.99291  0.94621  Biso   1.000  H
  C278     1.0000 0.73402  0.97215  0.96048  Biso   1.000  C
  C279     1.0000 0.68602  0.04190  0.03921  Biso   1.000  C
  C280     1.0000 0.60546  0.16397  0.06545  Biso   1.000  C
  H268     1.0000 0.55839  0.11759  0.00041  Biso   1.000  H
  H269     1.0000 0.50530  0.26730  0.06409  Biso   1.000  H
  H270     1.0000 0.64080  0.22399  0.12659  Biso   1.000  H
  H271     1.0000 0.76433  0.99279  0.96773  Biso   1.000  H
  H272     1.0000 0.73531  0.95291  0.90889  Biso   1.000  H
  C281     1.0000 0.72933  0.92979  0.02518  Biso   1.000  C
  C282     1.0000 0.68331  0.99950  0.10507  Biso   1.000  C
  N36      1.0000 0.64306  0.07610  0.03661  Biso   1.000  N
  H273     1.0000 0.71441  0.06632  0.04882  Biso   1.000  H
  C283     1.0000 0.64604  0.12464  0.06462  Biso   1.000  C
  H274     1.0000 0.75759  0.90492  0.02541  Biso   1.000  H
  H275     1.0000 0.70030  0.90691  0.01610  Biso   1.000  H
  C284     1.0000 0.72595  0.95843  0.10171  Biso   1.000  C
  H276     1.0000 0.65280  0.97870  0.10053  Biso   1.000  H
  H277     1.0000 0.68359  0.01882  0.15660  Biso   1.000  H
  H278     1.0000 0.67590  0.13641  0.08632  Biso   1.000  H
  H279     1.0000 0.72232  0.93049  0.14398  Biso   1.000  H
  H280     1.0000 0.75610  0.97890  0.11191  Biso   1.000  H
  C285     1.0000 0.15917  0.61428  0.30170  Biso   1.000  C
  C286     1.0000 0.20296  0.65199  0.31120  Biso   1.000  C
  C287     1.0000 0.12059  0.62712  0.36031  Biso   1.000  C
  H281     1.0000 0.14591  0.61850  0.24770  Biso   1.000  H
  H282     1.0000 0.16931  0.57519  0.30831  Biso   1.000  H
  N37      1.0000 0.24469  0.63819  0.24569  Biso   1.000  N
  N38      1.0000 0.23000  0.64209  0.25141  Biso   1.000  N
  C288     1.0000 0.18788  0.71334  0.31002  Biso   1.000  C
  H283     1.0000 0.22040  0.64321  0.36143  Biso   1.000  H
  C289     1.0000 0.18151  0.70642  0.27299  Biso   1.000  C
  C290     1.0000 0.10665  0.68839  0.35848  Biso   1.000  C
  C291     1.0000 0.09779  0.68221  0.31102  Biso   1.000  C
  H284     1.0000 0.13210  0.61730  0.41391  Biso   1.000  H
  H285     1.0000 0.09201  0.60420  0.34840  Biso   1.000  H
  H286     1.0000 0.13371  0.63740  0.41273  Biso   1.000  H
  H287     1.0000 0.09719  0.59649  0.36568  Biso   1.000  H
  C292     1.0000 0.28801  0.62949  0.26079  Biso   1.000  C
  C293     1.0000 0.27341  0.63728  0.27588  Biso   1.000  C
  N39      1.0000 0.23061  0.74807  0.32352  Biso   1.000  N
  H288     1.0000 0.17440  0.72221  0.25672  Biso   1.000  H
  C294     1.0000 0.14999  0.72569  0.37128  Biso   1.000  C
  N40      1.0000 0.21762  0.73460  0.29858  Biso   1.000  N
  C295     1.0000 0.13700  0.71491  0.33402  Biso   1.000  C
  H289     1.0000 0.17442  0.70658  0.21509  Biso   1.000  H
  H290     1.0000 0.14729  0.70418  0.38820  Biso   1.000  H
  H291     1.0000 0.09150  0.69721  0.30701  Biso   1.000  H
  H292     1.0000 0.08281  0.69568  0.40011  Biso   1.000  H
  H293     1.0000 0.06681  0.69531  0.33142  Biso   1.000  H
  H294     1.0000 0.09582  0.67641  0.25283  Biso   1.000  H
  C296     1.0000 0.32509  0.61709  0.20271  Biso   1.000  C
  C297     1.0000 0.31251  0.62538  0.22181  Biso   1.000  C
  H295     1.0000 0.29769  0.63110  0.31462  Biso   1.000  H
  H296     1.0000 0.28030  0.64159  0.33048  Biso   1.000  H
  C298     1.0000 0.23988  0.78264  0.26975  Biso   1.000  C
  H297     1.0000 0.14012  0.76498  0.36733  Biso   1.000  H
  H298     1.0000 0.16350  0.71939  0.42482  Biso   1.000  H
  H299     1.0000 0.12740  0.75441  0.33531  Biso   1.000  H
  C299     1.0000 0.31512  0.61129  0.12229  Biso   1.000  C
  C300     1.0000 0.37231  0.61021  0.22930  Biso   1.000  C
  C301     1.0000 0.30490  0.61950  0.14039  Biso   1.000  C
  C302     1.0000 0.35842  0.61871  0.25112  Biso   1.000  C
  C303     1.0000 0.28110  0.81982  0.27317  Biso   1.000  C
  H300     1.0000 0.21911  0.78451  0.22511  Biso   1.000  H
  H301     1.0000 0.21882  0.79740  0.23083  Biso   1.000  H
  H302     1.0000 0.28321  0.61660  0.10371  Biso   1.000  H
  C304     1.0000 0.35029  0.59832  0.06940  Biso   1.000  C
  H303     1.0000 0.27351  0.62468  0.11951  Biso   1.000  H
  H304     1.0000 0.37981  0.61369  0.28378  Biso   1.000  H
  C305     1.0000 0.40862  0.59819  0.17559  Biso   1.000  C
  C306     1.0000 0.34191  0.60611  0.08921  Biso   1.000  C
  H305     1.0000 0.36420  0.62348  0.30601  Biso   1.000  H
  C307     1.0000 0.39680  0.60499  0.20159  Biso   1.000  C
  C308     1.0000 0.28536  0.86040  0.21515  Biso   1.000  C
  C309     1.0000 0.31709  0.81398  0.33119  Biso   1.000  C
  C310     1.0000 0.39790  0.59330  0.09599  Biso   1.000  C
  C311     1.0000 0.33159  0.60051  0.00489  Biso   1.000  C
  C312     1.0000 0.38819  0.59840  0.12128  Biso   1.000  C
  C313     1.0000 0.33792  0.59542  0.98430  Biso   1.000  C
  C314     1.0000 0.45821  0.59620  0.20418  Biso   1.000  C
  C315     1.0000 0.44718  0.59981  0.23620  Biso   1.000  C
  H306     1.0000 0.26139  0.86380  0.17529  Biso   1.000  H
  C316     1.0000 0.32451  0.89576  0.21533  Biso   1.000  C
  C317     1.0000 0.35675  0.84809  0.33083  Biso   1.000  C
  H307     1.0000 0.31402  0.78641  0.37081  Biso   1.000  H
  H308     1.0000 0.42270  0.58659  0.05937  Biso   1.000  H
  N41      1.0000 0.36751  0.58049  0.93129  Biso   1.000  N
  H309     1.0000 0.30631  0.60511  0.96844  Biso   1.000  H
  N42      1.0000 0.36144  0.58480  0.95382  Biso   1.000  N
  H310     1.0000 0.30011  0.60930  0.98713  Biso   1.000  H
  H311     1.0000 0.41379  0.58849  0.08762  Biso   1.000  H
  C318     1.0000 0.49503  0.62410  0.16409  Biso   1.000  C
  C319     1.0000 0.47195  0.56769  0.27228  Biso   1.000  C
  C320     1.0000 0.45866  0.62605  0.30560  Biso   1.000  C
  C321     1.0000 0.48100  0.56910  0.19840  Biso   1.000  C
  C322     1.0000 0.36012  0.88912  0.27311  Biso   1.000  C
  C323     1.0000 0.33005  0.93783  0.15354  Biso   1.000  C
  C324     1.0000 0.39693  0.83798  0.38743  Biso   1.000  C
  C325     1.0000 0.40519  0.85410  0.37222  Biso   1.000  C
  C326     1.0000 0.34695  0.58194  0.86089  Biso   1.000  C
  H312     1.0000 0.48799  0.64188  0.11539  Biso   1.000  H
  C327     1.0000 0.54134  0.62605  0.19440  Biso   1.000  C
  C328     1.0000 0.51900  0.56910  0.30159  Biso   1.000  C
  C329     1.0000 0.52805  0.56769  0.22771  Biso   1.000  C
  H313     1.0000 0.44860  0.54659  0.29958  Biso   1.000  H
  C330     1.0000 0.50500  0.62410  0.33590  Biso   1.000  C
  H314     1.0000 0.43460  0.64582  0.33319  Biso   1.000  H
  H315     1.0000 0.47272  0.54879  0.15230  Biso   1.000  H
  H316     1.0000 0.38709  0.91308  0.27299  Biso   1.000  H
  N43      1.0000 0.29894  0.94479  0.09970  Biso   1.000  N
  H317     1.0000 0.35792  0.96058  0.15401  Biso   1.000  H
  C331     1.0000 0.42244  0.88187  0.42145  Biso   1.000  C
  C332     1.0000 0.41213  0.78413  0.40341  Biso   1.000  C
  C333     1.0000 0.39941  0.82438  0.44174  Biso   1.000  C
  C334     1.0000 0.45000  0.87499  0.35282  Biso   1.000  C
  C335     1.0000 0.38023  0.61523  0.80907  Biso   1.000  C
  C336     1.0000 0.34277  0.52292  0.83029  Biso   1.000  C
  H318     1.0000 0.31443  0.59910  0.85541  Biso   1.000  H
  H319     1.0000 0.56540  0.64582  0.16680  Biso   1.000  H
  C337     1.0000 0.55282  0.59981  0.26379  Biso   1.000  C
  H320     1.0000 0.52731  0.54879  0.34769  Biso   1.000  H
  C338     1.0000 0.54182  0.59620  0.29581  Biso   1.000  C
  H321     1.0000 0.55140  0.54659  0.20041  Biso   1.000  H
  H322     1.0000 0.51201  0.64188  0.38460  Biso   1.000  H
  C339     1.0000 0.30807  0.98690  0.04003  Biso   1.000  C
  C340     1.0000 0.46310  0.87242  0.46703  Biso   1.000  C
  H323     1.0000 0.41172  0.91880  0.41320  Biso   1.000  H
  H324     1.0000 0.39450  0.75350  0.38319  Biso   1.000  H
  C341     1.0000 0.45300  0.77514  0.44875  Biso   1.000  C
  C342     1.0000 0.43841  0.81559  0.49174  Biso   1.000  C
  H325     1.0000 0.36882  0.81008  0.45489  Biso   1.000  H
  H326     1.0000 0.45390  0.89530  0.30530  Biso   1.000  H
  C343     1.0000 0.48890  0.86620  0.40282  Biso   1.000  C
  N44      1.0000 0.38149  0.67297  0.83666  Biso   1.000  N
  H327     1.0000 0.41321  0.59919  0.81290  Biso   1.000  H
  C344     1.0000 0.36364  0.61378  0.72316  Biso   1.000  C
  C345     1.0000 0.32400  0.52334  0.74574  Biso   1.000  C
  H328     1.0000 0.32071  0.50149  0.86402  Biso   1.000  H
  H329     1.0000 0.37463  0.50468  0.83230  Biso   1.000  H
  C346     1.0000 0.59141  0.59819  0.32440  Biso   1.000  C
  C347     1.0000 0.60320  0.60499  0.29840  Biso   1.000  C
  C348     1.0000 0.31401  0.95810  0.96083  Biso   1.000  C
  H330     1.0000 0.33831  0.00709  0.05377  Biso   1.000  H
  C349     1.0000 0.26602  0.02785  0.03956  Biso   1.000  C
  C350     1.0000 0.47919  0.81820  0.48042  Biso   1.000  C
  H331     1.0000 0.48009  0.90280  0.48920  Biso   1.000  H
  C351     1.0000 0.48312  0.83648  0.47228  Biso   1.000  C
  H332     1.0000 0.46319  0.73821  0.45819  Biso   1.000  H
  H333     1.0000 0.43441  0.79528  0.53920  Biso   1.000  H
  H334     1.0000 0.51952  0.88050  0.38962  Biso   1.000  H
  C352     1.0000 0.42052  0.68988  0.86514  Biso   1.000  C
  H335     1.0000 0.38760  0.63280  0.69020  Biso   1.000  H
  H336     1.0000 0.33302  0.63421  0.71803  Biso   1.000  H
  C353     1.0000 0.35670  0.55463  0.69285  Biso   1.000  C
  H337     1.0000 0.32081  0.48471  0.72652  Biso   1.000  H
  H338     1.0000 0.29182  0.54058  0.74421  Biso   1.000  H
  C354     1.0000 0.62769  0.61021  0.27069  Biso   1.000  C
  C355     1.0000 0.60210  0.59330  0.40400  Biso   1.000  C
  C356     1.0000 0.61181  0.59840  0.37871  Biso   1.000  C
  C357     1.0000 0.64161  0.61871  0.24888  Biso   1.000  C
  N45      1.0000 0.35697  0.92390  0.96343  Biso   1.000  N
  H339     1.0000 0.28562  0.93368  0.95122  Biso   1.000  H
  C358     1.0000 0.31669  0.00050  0.89497  Biso   1.000  C
  C359     1.0000 0.27067  0.07021  0.97481  Biso   1.000  C
  H340     1.0000 0.23571  0.00721  0.03231  Biso   1.000  H
  H341     1.0000 0.26469  0.04709  0.09110  Biso   1.000  H
  C360     1.0000 0.52478  0.80979  0.52475  Biso   1.000  C
  C361     1.0000 0.42608  0.74583  0.89898  Biso   1.000  C
  H342     1.0000 0.44742  0.66580  0.86490  Biso   1.000  H
  H343     1.0000 0.34301  0.55571  0.63879  Biso   1.000  H
  H344     1.0000 0.38810  0.53560  0.69073  Biso   1.000  H
  C362     1.0000 0.67491  0.61709  0.29728  Biso   1.000  C
  H345     1.0000 0.62019  0.61369  0.21621  Biso   1.000  H
  C363     1.0000 0.68752  0.62538  0.27818  Biso   1.000  C
  H346     1.0000 0.57730  0.58659  0.44062  Biso   1.000  H
  C364     1.0000 0.64971  0.59832  0.43059  Biso   1.000  C
  C365     1.0000 0.65813  0.60611  0.41078  Biso   1.000  C
  H347     1.0000 0.58620  0.58849  0.41243  Biso   1.000  H
  H348     1.0000 0.63580  0.62348  0.19398  Biso   1.000  H
  C366     1.0000 0.35395  0.87536  0.93536  Biso   1.000  C
  H349     1.0000 0.31641  0.98118  0.84344  Biso   1.000  H
  C367     1.0000 0.27408  0.04157  0.89833  Biso   1.000  C
  H350     1.0000 0.34724  0.02130  0.89951  Biso   1.000  H
  H351     1.0000 0.24241  0.09508  0.97463  Biso   1.000  H
  H352     1.0000 0.29974  0.09309  0.98394  Biso   1.000  H
  C368     1.0000 0.56222  0.84776  0.52635  Biso   1.000  C
  C369     1.0000 0.53087  0.75868  0.56355  Biso   1.000  C
  C370     1.0000 0.38879  0.78484  0.89863  Biso   1.000  C
  C371     1.0000 0.46916  0.75868  0.93648  Biso   1.000  C
  C372     1.0000 0.68492  0.61129  0.37771  Biso   1.000  C
  C373     1.0000 0.71202  0.62949  0.23921  Biso   1.000  C
  C374     1.0000 0.69510  0.61950  0.35960  Biso   1.000  C
  C375     1.0000 0.72659  0.63728  0.22411  Biso   1.000  C
  C376     1.0000 0.66211  0.59542  0.51573  Biso   1.000  C
  C377     1.0000 0.66841  0.60051  0.49510  Biso   1.000  C
  C378     1.0000 0.39454  0.83603  0.93459  Biso   1.000  C
  H353     1.0000 0.32410  0.86359  0.91372  Biso   1.000  H
  H354     1.0000 0.27772  0.06951  0.85600  Biso   1.000  H
  H355     1.0000 0.24394  0.02110  0.88813  Biso   1.000  H
  C379     1.0000 0.60550  0.83603  0.56544  Biso   1.000  C
  H356     1.0000 0.55843  0.88241  0.50040  Biso   1.000  H
  C380     1.0000 0.57395  0.74583  0.60105  Biso   1.000  C
  H357     1.0000 0.50530  0.73270  0.56408  Biso   1.000  H
  H358     1.0000 0.35920  0.77601  0.87339  Biso   1.000  H
  C381     1.0000 0.47525  0.80979  0.97522  Biso   1.000  C
  H359     1.0000 0.49474  0.73270  0.93589  Biso   1.000  H
  H360     1.0000 0.71679  0.61660  0.39628  Biso   1.000  H
  H361     1.0000 0.72652  0.62468  0.38054  Biso   1.000  H
  N46      1.0000 0.75531  0.63819  0.25430  Biso   1.000  N
  H362     1.0000 0.70230  0.63110  0.18537  Biso   1.000  H
  N47      1.0000 0.77000  0.64209  0.24858  Biso   1.000  N
  H363     1.0000 0.71970  0.64159  0.16951  Biso   1.000  H
  N48      1.0000 0.63252  0.58049  0.56868  Biso   1.000  N
  H364     1.0000 0.69372  0.60511  0.53159  Biso   1.000  H
  H365     1.0000 0.69992  0.60930  0.51290  Biso   1.000  H
  N49      1.0000 0.63860  0.58480  0.54622  Biso   1.000  N
  C382     1.0000 0.43781  0.84776  0.97369  Biso   1.000  C
  C383     1.0000 0.61125  0.78484  0.60140  Biso   1.000  C
  C384     1.0000 0.64608  0.87536  0.56467  Biso   1.000  C
  C385     1.0000 0.57951  0.68988  0.63489  Biso   1.000  C
  C386     1.0000 0.52081  0.81820  0.01958  Biso   1.000  C
  C387     1.0000 0.51692  0.83648  0.02771  Biso   1.000  C
  C388     1.0000 0.79707  0.65199  0.18879  Biso   1.000  C
  C389     1.0000 0.65308  0.58194  0.63914  Biso   1.000  C
  H366     1.0000 0.44161  0.88241  0.99963  Biso   1.000  H
  H367     1.0000 0.64080  0.77601  0.62664  Biso   1.000  H
  N50      1.0000 0.64306  0.92390  0.53661  Biso   1.000  N
  H368     1.0000 0.67593  0.86359  0.58631  Biso   1.000  H
  N51      1.0000 0.61854  0.67297  0.66337  Biso   1.000  N
  H369     1.0000 0.55261  0.66580  0.63513  Biso   1.000  H
  C390     1.0000 0.53690  0.87242  0.03296  Biso   1.000  C
  C391     1.0000 0.54703  0.77514  0.05130  Biso   1.000  C
  C392     1.0000 0.56159  0.81559  0.00831  Biso   1.000  C
  C393     1.0000 0.51110  0.86620  0.09723  Biso   1.000  C
  C394     1.0000 0.81212  0.71334  0.19003  Biso   1.000  C
  C395     1.0000 0.84086  0.61428  0.19829  Biso   1.000  C
  H370     1.0000 0.77960  0.64321  0.13862  Biso   1.000  H
  C396     1.0000 0.81849  0.70642  0.22700  Biso   1.000  C
  C397     1.0000 0.61980  0.61523  0.69097  Biso   1.000  C
  C398     1.0000 0.65726  0.52292  0.66974  Biso   1.000  C
  H371     1.0000 0.68560  0.59910  0.64462  Biso   1.000  H
  C399     1.0000 0.68602  0.95810  0.53920  Biso   1.000  C
  H372     1.0000 0.51990  0.90280  0.01079  Biso   1.000  H
  C400     1.0000 0.57759  0.88187  0.07860  Biso   1.000  C
  C401     1.0000 0.58787  0.78413  0.09664  Biso   1.000  C
  H373     1.0000 0.53680  0.73821  0.04180  Biso   1.000  H
  C402     1.0000 0.60059  0.82438  0.05831  Biso   1.000  C
  H374     1.0000 0.56562  0.79528  0.96083  Biso   1.000  H
  C403     1.0000 0.55000  0.87499  0.14723  Biso   1.000  C
  H375     1.0000 0.48051  0.88050  0.11038  Biso   1.000  H
  N52      1.0000 0.76942  0.74807  0.17653  Biso   1.000  N
  H376     1.0000 0.82560  0.72221  0.24333  Biso   1.000  H
  C404     1.0000 0.85001  0.72569  0.12871  Biso   1.000  C
  N53      1.0000 0.78242  0.73460  0.20141  Biso   1.000  N
  C405     1.0000 0.86300  0.71491  0.16598  Biso   1.000  C
  C406     1.0000 0.87941  0.62712  0.13968  Biso   1.000  C
  H377     1.0000 0.85409  0.61850  0.25230  Biso   1.000  H
  H378     1.0000 0.83069  0.57519  0.19168  Biso   1.000  H
  H379     1.0000 0.82561  0.70658  0.28490  Biso   1.000  H
  H380     1.0000 0.58682  0.59919  0.68713  Biso   1.000  H
  C407     1.0000 0.63639  0.61378  0.77687  Biso   1.000  C
  C408     1.0000 0.67603  0.52334  0.75429  Biso   1.000  C
  H381     1.0000 0.67932  0.50149  0.63601  Biso   1.000  H
  H382     1.0000 0.62540  0.50468  0.66774  Biso   1.000  H
  C409     1.0000 0.69196  0.98690  0.45996  Biso   1.000  C
  H383     1.0000 0.71441  0.93368  0.54881  Biso   1.000  H
  C410     1.0000 0.68330  0.00050  0.60506  Biso   1.000  C
  H384     1.0000 0.58831  0.91880  0.08679  Biso   1.000  H
  C411     1.0000 0.60307  0.83798  0.11256  Biso   1.000  C
  C412     1.0000 0.59481  0.85410  0.12783  Biso   1.000  C
  H385     1.0000 0.60549  0.75350  0.11680  Biso   1.000  H
  H386     1.0000 0.63121  0.81008  0.04511  Biso   1.000  H
  H387     1.0000 0.54610  0.89530  0.19469  Biso   1.000  H
  C413     1.0000 0.76012  0.78264  0.23024  Biso   1.000  C
  H388     1.0000 0.85992  0.76498  0.13272  Biso   1.000  H
  H389     1.0000 0.83649  0.71939  0.07518  Biso   1.000  H
  C414     1.0000 0.89339  0.68839  0.14151  Biso   1.000  C
  H390     1.0000 0.85271  0.70418  0.11179  Biso   1.000  H
  H391     1.0000 0.87259  0.75441  0.16468  Biso   1.000  H
  C415     1.0000 0.90221  0.68221  0.18903  Biso   1.000  C
  H392     1.0000 0.86790  0.61730  0.08608  Biso   1.000  H
  H393     1.0000 0.90799  0.60420  0.15159  Biso   1.000  H
  H394     1.0000 0.86629  0.63740  0.08732  Biso   1.000  H
  H395     1.0000 0.90280  0.59649  0.13431  Biso   1.000  H
  H396     1.0000 0.61243  0.63280  0.80983  Biso   1.000  H
  H397     1.0000 0.66701  0.63421  0.78200  Biso   1.000  H
  C416     1.0000 0.64333  0.55463  0.80718  Biso   1.000  C
  H398     1.0000 0.67922  0.48471  0.77351  Biso   1.000  H
  H399     1.0000 0.70821  0.54058  0.75582  Biso   1.000  H
  N54      1.0000 0.70105  0.94479  0.40029  Biso   1.000  N
  H400     1.0000 0.66172  0.00709  0.44622  Biso   1.000  H
  C417     1.0000 0.73398  0.02785  0.46049  Biso   1.000  C
  H401     1.0000 0.68362  0.98118  0.65659  Biso   1.000  H
  C418     1.0000 0.72595  0.04157  0.60170  Biso   1.000  C
  H402     1.0000 0.65280  0.02130  0.60052  Biso   1.000  H
  C419     1.0000 0.64325  0.84809  0.16916  Biso   1.000  C
  C420     1.0000 0.71890  0.81982  0.22682  Biso   1.000  C
  H403     1.0000 0.78089  0.78451  0.27488  Biso   1.000  H
  H404     1.0000 0.78122  0.79740  0.26922  Biso   1.000  H
  H405     1.0000 0.90850  0.69721  0.19298  Biso   1.000  H
  H406     1.0000 0.91719  0.69568  0.09988  Biso   1.000  H
  H407     1.0000 0.93319  0.69531  0.16863  Biso   1.000  H
  H408     1.0000 0.90421  0.67641  0.24722  Biso   1.000  H
  H409     1.0000 0.65703  0.55571  0.86119  Biso   1.000  H
  H410     1.0000 0.61193  0.53560  0.80930  Biso   1.000  H
  C421     1.0000 0.66995  0.93783  0.34646  Biso   1.000  C
  H411     1.0000 0.76429  0.00721  0.46768  Biso   1.000  H
  H412     1.0000 0.73531  0.04709  0.40890  Biso   1.000  H
  C422     1.0000 0.72936  0.07021  0.52523  Biso   1.000  C
  H413     1.0000 0.72231  0.06951  0.64403  Biso   1.000  H
  H414     1.0000 0.75610  0.02110  0.61190  Biso   1.000  H
  C423     1.0000 0.63992  0.88912  0.22694  Biso   1.000  C
  C424     1.0000 0.68294  0.81398  0.16881  Biso   1.000  C
  C425     1.0000 0.71464  0.86040  0.28490  Biso   1.000  C
  C426     1.0000 0.67548  0.89576  0.28466  Biso   1.000  C
  H415     1.0000 0.64211  0.96058  0.34598  Biso   1.000  H
  H416     1.0000 0.75763  0.09508  0.52540  Biso   1.000  H
  H417     1.0000 0.70030  0.09309  0.51609  Biso   1.000  H
  H418     1.0000 0.61291  0.91308  0.22700  Biso   1.000  H
  H419     1.0000 0.68602  0.78641  0.12918  Biso   1.000  H
  H420     1.0000 0.73861  0.86380  0.32470  Biso   1.000  H
  C427     1.0000 0.14329  0.65191  0.66921  Biso   1.000  C
  C428     1.0000 0.10307  0.66202  0.61255  Biso   1.000  C
  C429     1.0000 0.09481  0.64590  0.62782  Biso   1.000  C
  C430     1.0000 0.13992  0.61088  0.72693  Biso   1.000  C
  C431     1.0000 0.18294  0.68602  0.66880  Biso   1.000  C
  C432     1.0000 0.07759  0.61809  0.57859  Biso   1.000  C
  C433     1.0000 0.10062  0.67558  0.55830  Biso   1.000  C
  C434     1.0000 0.08790  0.71587  0.59663  Biso   1.000  C
  C435     1.0000 0.05003  0.62501  0.64722  Biso   1.000  C
  C436     1.0000 0.17552  0.60424  0.78466  Biso   1.000  C
  H421     1.0000 0.11291  0.58688  0.72699  Biso   1.000  H
  H422     1.0000 0.18602  0.71359  0.62923  Biso   1.000  H
  C437     1.0000 0.21894  0.68014  0.72687  Biso   1.000  C
  C438     1.0000 0.03690  0.62758  0.53301  Biso   1.000  C
  H423     1.0000 0.08831  0.58120  0.58678  Biso   1.000  H
  C439     1.0000 0.06162  0.68441  0.50830  Biso   1.000  C
  H424     1.0000 0.13121  0.68988  0.54510  Biso   1.000  H
  C440     1.0000 0.04703  0.72482  0.55129  Biso   1.000  C
  H425     1.0000 0.10553  0.74650  0.61679  Biso   1.000  H
  C441     1.0000 0.01110  0.63380  0.59722  Biso   1.000  C
  H426     1.0000 0.04610  0.60470  0.69474  Biso   1.000  H
  C442     1.0000 0.21467  0.63960  0.78489  Biso   1.000  C
  C443     1.0000 0.16995  0.56213  0.84645  Biso   1.000  C
  C444     1.0000 0.26015  0.71736  0.73029  Biso   1.000  C
  C445     1.0000 0.02085  0.68180  0.51957  Biso   1.000  C
  H427     1.0000 0.01990  0.59720  0.51078  Biso   1.000  H
  C446     1.0000 0.01692  0.66352  0.52770  Biso   1.000  C
  H428     1.0000 0.06562  0.70472  0.46078  Biso   1.000  H
  H429     1.0000 0.03680  0.76179  0.54179  Biso   1.000  H
  H430     1.0000 0.98051  0.61950  0.61043  Biso   1.000  H
  H431     1.0000 0.23861  0.63620  0.82469  Biso   1.000  H
  N55      1.0000 0.20105  0.55521  0.90028  Biso   1.000  N
  H432     1.0000 0.14211  0.53942  0.84603  Biso   1.000  H
  N56      1.0000 0.26942  0.75193  0.67652  Biso   1.000  N
  H433     1.0000 0.28092  0.71549  0.77493  Biso   1.000  H
  H434     1.0000 0.28122  0.70260  0.76921  Biso   1.000  H
  N57      1.0000 0.28242  0.76540  0.70140  Biso   1.000  N
  C447     1.0000 0.97525  0.69021  0.47523  Biso   1.000  C
  C448     1.0000 0.19196  0.51310  0.96001  Biso   1.000  C
  C449     1.0000 0.31212  0.78662  0.69002  Biso   1.000  C
  C450     1.0000 0.31852  0.79358  0.72699  Biso   1.000  C
  C451     1.0000 0.93777  0.65224  0.47364  Biso   1.000  C
  C452     1.0000 0.96913  0.74132  0.43649  Biso   1.000  C
  H435     1.0000 0.16172  0.49291  0.94621  Biso   1.000  H
  C453     1.0000 0.23402  0.47215  0.96048  Biso   1.000  C
  C454     1.0000 0.18602  0.54190  0.03921  Biso   1.000  C
  H436     1.0000 0.32560  0.77779  0.74332  Biso   1.000  H
  C455     1.0000 0.35001  0.77431  0.62870  Biso   1.000  C
  C456     1.0000 0.29707  0.84801  0.68878  Biso   1.000  C
  C457     1.0000 0.36300  0.78509  0.66603  Biso   1.000  C
  H437     1.0000 0.32561  0.79338  0.78489  Biso   1.000  H
  C458     1.0000 0.89454  0.66397  0.43460  Biso   1.000  C
  H438     1.0000 0.94161  0.61759  0.49964  Biso   1.000  H
  C459     1.0000 0.92608  0.75417  0.39893  Biso   1.000  C
  H439     1.0000 0.99470  0.76730  0.43590  Biso   1.000  H
  H440     1.0000 0.26433  0.49279  0.96773  Biso   1.000  H
  H441     1.0000 0.23531  0.45291  0.90889  Biso   1.000  H
  C460     1.0000 0.22933  0.42979  0.02518  Biso   1.000  C
  N58      1.0000 0.14306  0.57610  0.03661  Biso   1.000  N
  C461     1.0000 0.18331  0.49950  0.10507  Biso   1.000  C
  H442     1.0000 0.21441  0.56628  0.04882  Biso   1.000  H
  H443     1.0000 0.35992  0.73502  0.63271  Biso   1.000  H
  H444     1.0000 0.33653  0.78061  0.57523  Biso   1.000  H
  C462     1.0000 0.39339  0.81161  0.64150  Biso   1.000  C
  H445     1.0000 0.35271  0.79578  0.61178  Biso   1.000  H
  H446     1.0000 0.37263  0.74559  0.66473  Biso   1.000  H
  N59      1.0000 0.25531  0.86181  0.75429  Biso   1.000  N
  C463     1.0000 0.34086  0.88572  0.69834  Biso   1.000  C
  H447     1.0000 0.27960  0.85679  0.63861  Biso   1.000  H
  N60      1.0000 0.27003  0.85791  0.74863  Biso   1.000  N
  C464     1.0000 0.40221  0.81779  0.68902  Biso   1.000  C
  C465     1.0000 0.88879  0.71516  0.39864  Biso   1.000  C
  C466     1.0000 0.85396  0.62464  0.43537  Biso   1.000  C
  C467     1.0000 0.92048  0.81012  0.36515  Biso   1.000  C
  H448     1.0000 0.25759  0.40492  0.02541  Biso   1.000  H
  H449     1.0000 0.20030  0.40691  0.01610  Biso   1.000  H
  C468     1.0000 0.22595  0.45843  0.10171  Biso   1.000  C
  C469     1.0000 0.14604  0.62464  0.06462  Biso   1.000  C
  H450     1.0000 0.18359  0.51882  0.15660  Biso   1.000  H
  H451     1.0000 0.15280  0.47870  0.10053  Biso   1.000  H
  H452     1.0000 0.40850  0.80279  0.69303  Biso   1.000  H
  H453     1.0000 0.41723  0.80428  0.59993  Biso   1.000  H
  C470     1.0000 0.37944  0.87288  0.63973  Biso   1.000  C
  H454     1.0000 0.43323  0.80469  0.66862  Biso   1.000  H
  C471     1.0000 0.21202  0.87051  0.73920  Biso   1.000  C
  H455     1.0000 0.35413  0.88150  0.75229  Biso   1.000  H
  H456     1.0000 0.33072  0.92481  0.69173  Biso   1.000  H
  C472     1.0000 0.22662  0.86268  0.72410  Biso   1.000  C
  H457     1.0000 0.40421  0.82359  0.74722  Biso   1.000  H
  H458     1.0000 0.85920  0.72399  0.37340  Biso   1.000  H
  N61      1.0000 0.85698  0.57610  0.46338  Biso   1.000  N
  H459     1.0000 0.82410  0.63641  0.41373  Biso   1.000  H
  N62      1.0000 0.88146  0.82703  0.33661  Biso   1.000  N
  H460     1.0000 0.94742  0.83420  0.36491  Biso   1.000  H
  H461     1.0000 0.22232  0.43049  0.14398  Biso   1.000  H
  H462     1.0000 0.25610  0.47890  0.11191  Biso   1.000  H
  C473     1.0000 0.10546  0.66397  0.06545  Biso   1.000  C
  H463     1.0000 0.17590  0.63641  0.08632  Biso   1.000  H
  H464     1.0000 0.36790  0.88270  0.58613  Biso   1.000  H
  H465     1.0000 0.40802  0.89580  0.65164  Biso   1.000  H
  H466     1.0000 0.36633  0.86260  0.58731  Biso   1.000  H
  H467     1.0000 0.40280  0.90351  0.63430  Biso   1.000  H
  C474     1.0000 0.17491  0.88291  0.79733  Biso   1.000  C
  H468     1.0000 0.20230  0.86890  0.68542  Biso   1.000  H
  C475     1.0000 0.18752  0.87462  0.77823  Biso   1.000  C
  H469     1.0000 0.21970  0.85841  0.66950  Biso   1.000  H
  C476     1.0000 0.81401  0.54190  0.46084  Biso   1.000  C
  C477     1.0000 0.88020  0.88477  0.30907  Biso   1.000  C
  C478     1.0000 0.11121  0.71516  0.10135  Biso   1.000  C
  C479     1.0000 0.06222  0.65224  0.02636  Biso   1.000  C
  C480     1.0000 0.18492  0.88871  0.87770  Biso   1.000  C
  C481     1.0000 0.12773  0.88979  0.77074  Biso   1.000  C
  C482     1.0000 0.19513  0.88050  0.85960  Biso   1.000  C
  C483     1.0000 0.14161  0.88129  0.74893  Biso   1.000  C
  C484     1.0000 0.80807  0.51310  0.54003  Biso   1.000  C
  C485     1.0000 0.81669  0.49950  0.39492  Biso   1.000  C
  H470     1.0000 0.78562  0.56628  0.45123  Biso   1.000  H
  H471     1.0000 0.91321  0.90081  0.31291  Biso   1.000  H
  C486     1.0000 0.86364  0.88622  0.22317  Biso   1.000  C
  C487     1.0000 0.84695  0.91806  0.36084  Biso   1.000  C
  C488     1.0000 0.07396  0.75417  0.10106  Biso   1.000  C
  H472     1.0000 0.14080  0.72399  0.12659  Biso   1.000  H
  H473     1.0000 0.05839  0.61759  0.00041  Biso   1.000  H
  C489     1.0000 0.02478  0.69021  0.02476  Biso   1.000  C
  H474     1.0000 0.21683  0.88340  0.89633  Biso   1.000  H
  C490     1.0000 0.14971  0.90168  0.93064  Biso   1.000  C
  H475     1.0000 0.22652  0.87528  0.88053  Biso   1.000  H
  H476     1.0000 0.12023  0.88631  0.71620  Biso   1.000  H
  C491     1.0000 0.09141  0.90181  0.82440  Biso   1.000  C
  C492     1.0000 0.15812  0.89389  0.91083  Biso   1.000  C
  H477     1.0000 0.13583  0.87648  0.69403  Biso   1.000  H
  C493     1.0000 0.10323  0.89501  0.79839  Biso   1.000  C
  N63      1.0000 0.79898  0.55521  0.59975  Biso   1.000  N
  H478     1.0000 0.83831  0.49291  0.55382  Biso   1.000  H
  C494     1.0000 0.76601  0.47215  0.53955  Biso   1.000  C
  C495     1.0000 0.77408  0.45843  0.39828  Biso   1.000  C
  H479     1.0000 0.81641  0.51882  0.34339  Biso   1.000  H
  H480     1.0000 0.84720  0.47870  0.39952  Biso   1.000  H
  H481     1.0000 0.88760  0.86720  0.19021  Biso   1.000  H
  H482     1.0000 0.83302  0.86579  0.21798  Biso   1.000  H
  C496     1.0000 0.85670  0.94537  0.19286  Biso   1.000  C
  N64      1.0000 0.86751  0.91951  0.43130  Biso   1.000  N
  C497     1.0000 0.84277  0.97708  0.33030  Biso   1.000  C
  H483     1.0000 0.81440  0.90090  0.35542  Biso   1.000  H
  N65      1.0000 0.86140  0.91520  0.45382  Biso   1.000  N
  C498     1.0000 0.03087  0.74132  0.06356  Biso   1.000  C
  C499     1.0000 0.07952  0.81012  0.13484  Biso   1.000  C
  C500     1.0000 0.97918  0.68180  0.98047  Biso   1.000  C
  C501     1.0000 0.98312  0.66352  0.97233  Biso   1.000  C
  C502     1.0000 0.10213  0.90670  0.90399  Biso   1.000  C
  C503     1.0000 0.16840  0.89949  0.99509  Biso   1.000  C
  C504     1.0000 0.11181  0.90160  0.87870  Biso   1.000  C
  C505     1.0000 0.16211  0.90458  0.01568  Biso   1.000  C
  C506     1.0000 0.04182  0.90380  0.79580  Biso   1.000  C
  C507     1.0000 0.05286  0.90019  0.76384  Biso   1.000  C
  C508     1.0000 0.83008  0.56213  0.65359  Biso   1.000  C
  H484     1.0000 0.73570  0.49279  0.53230  Biso   1.000  H
  H485     1.0000 0.76472  0.45291  0.59109  Biso   1.000  H
  C509     1.0000 0.77067  0.42979  0.47481  Biso   1.000  C
  H486     1.0000 0.77772  0.43049  0.35601  Biso   1.000  H
  H487     1.0000 0.74390  0.47890  0.38808  Biso   1.000  H
  H488     1.0000 0.84301  0.94429  0.13879  Biso   1.000  H
  H489     1.0000 0.88811  0.96440  0.19068  Biso   1.000  H
  C510     1.0000 0.82397  0.97666  0.24569  Biso   1.000  C
  C511     1.0000 0.83793  0.90458  0.48431  Biso   1.000  C
  C512     1.0000 0.83163  0.89949  0.50488  Biso   1.000  C
  H490     1.0000 0.82071  0.99851  0.36403  Biso   1.000  H
  H491     1.0000 0.87459  0.99532  0.33231  Biso   1.000  H
  H492     1.0000 0.00530  0.76730  0.06409  Biso   1.000  H
  N66      1.0000 0.11854  0.82703  0.16338  Biso   1.000  N
  H493     1.0000 0.05261  0.83420  0.13508  Biso   1.000  H
  C513     1.0000 0.96313  0.62758  0.96702  Biso   1.000  C
  C514     1.0000 0.95300  0.72482  0.94874  Biso   1.000  C
  C515     1.0000 0.93841  0.68441  0.99173  Biso   1.000  C
  C516     1.0000 0.98893  0.63380  0.90281  Biso   1.000  C
  H494     1.0000 0.07733  0.91341  0.94061  Biso   1.000  H
  N67      1.0000 0.13249  0.91951  0.06869  Biso   1.000  N
  H495     1.0000 0.19368  0.89489  0.03160  Biso   1.000  H
  N68      1.0000 0.13860  0.91520  0.04623  Biso   1.000  N
  H496     1.0000 0.19988  0.89070  0.01291  Biso   1.000  H
  H497     1.0000 0.08620  0.91151  0.91242  Biso   1.000  H
  C517     1.0000 0.00500  0.87590  0.83589  Biso   1.000  C
  C518     1.0000 0.02808  0.93231  0.72770  Biso   1.000  C
  C519     1.0000 0.04137  0.87395  0.69439  Biso   1.000  C
  C520     1.0000 0.01900  0.93090  0.80164  Biso   1.000  C
  C521     1.0000 0.82451  0.60424  0.71538  Biso   1.000  C
  H498     1.0000 0.85792  0.53942  0.65400  Biso   1.000  H
  H499     1.0000 0.74241  0.40492  0.47464  Biso   1.000  H
  H500     1.0000 0.79970  0.40691  0.48389  Biso   1.000  H
  H501     1.0000 0.79179  0.95938  0.24422  Biso   1.000  H
  H502     1.0000 0.82081  0.01529  0.22653  Biso   1.000  H
  C522     1.0000 0.85032  0.90168  0.56939  Biso   1.000  C
  H503     1.0000 0.80632  0.89489  0.46839  Biso   1.000  H
  H504     1.0000 0.80011  0.89070  0.48714  Biso   1.000  H
  C523     1.0000 0.84191  0.89389  0.58920  Biso   1.000  C
  C524     1.0000 0.11980  0.88477  0.19098  Biso   1.000  C
  C525     1.0000 0.92244  0.61809  0.92145  Biso   1.000  C
  H505     1.0000 0.98013  0.59720  0.98919  Biso   1.000  H
  C526     1.0000 0.91213  0.71587  0.90340  Biso   1.000  C
  H506     1.0000 0.96323  0.76179  0.95824  Biso   1.000  H
  C527     1.0000 0.89941  0.67558  0.94173  Biso   1.000  C
  H507     1.0000 0.93441  0.70472  0.03921  Biso   1.000  H
  C528     1.0000 0.95000  0.62501  0.85282  Biso   1.000  C
  H508     1.0000 0.01952  0.61950  0.88961  Biso   1.000  H
  C529     1.0000 0.15305  0.91806  0.13915  Biso   1.000  C
  C530     1.0000 0.95866  0.87395  0.80559  Biso   1.000  C
  H509     1.0000 0.01201  0.85808  0.88460  Biso   1.000  H
  C531     1.0000 0.97195  0.93231  0.77233  Biso   1.000  C
  C532     1.0000 0.98103  0.93090  0.69840  Biso   1.000  C
  H510     1.0000 0.05140  0.95341  0.70040  Biso   1.000  H
  C533     1.0000 0.99503  0.87590  0.66414  Biso   1.000  C
  H511     1.0000 0.06540  0.85418  0.66679  Biso   1.000  H
  H512     1.0000 0.02731  0.95121  0.84774  Biso   1.000  H
  C534     1.0000 0.78536  0.63960  0.71514  Biso   1.000  C
  C535     1.0000 0.86012  0.61088  0.77310  Biso   1.000  C
  C536     1.0000 0.81512  0.88871  0.62234  Biso   1.000  C
  C537     1.0000 0.89790  0.90670  0.59604  Biso   1.000  C
  C538     1.0000 0.88822  0.90160  0.62133  Biso   1.000  C
  C539     1.0000 0.80490  0.88050  0.64044  Biso   1.000  C
  H513     1.0000 0.08679  0.90081  0.18708  Biso   1.000  H
  C540     1.0000 0.13636  0.88622  0.27682  Biso   1.000  C
  C541     1.0000 0.89696  0.66202  0.88748  Biso   1.000  C
  C542     1.0000 0.90522  0.64590  0.87221  Biso   1.000  C
  H514     1.0000 0.91172  0.58120  0.91319  Biso   1.000  H
  H515     1.0000 0.89450  0.74650  0.88324  Biso   1.000  H
  H516     1.0000 0.86882  0.68988  0.95494  Biso   1.000  H
  H517     1.0000 0.95393  0.60470  0.80529  Biso   1.000  H
  C543     1.0000 0.15723  0.97708  0.16975  Biso   1.000  C
  H518     1.0000 0.18560  0.90090  0.14463  Biso   1.000  H
  C544     1.0000 0.94717  0.90019  0.73619  Biso   1.000  C
  H519     1.0000 0.93463  0.85418  0.83324  Biso   1.000  H
  C545     1.0000 0.95821  0.90380  0.70423  Biso   1.000  C
  H520     1.0000 0.94863  0.95341  0.79963  Biso   1.000  H
  H521     1.0000 0.97272  0.95121  0.65229  Biso   1.000  H
  H522     1.0000 0.98803  0.85808  0.61544  Biso   1.000  H
  H523     1.0000 0.76143  0.63620  0.67528  Biso   1.000  H
  C546     1.0000 0.78109  0.68014  0.77316  Biso   1.000  C
  C547     1.0000 0.85674  0.65191  0.83082  Biso   1.000  C
  H524     1.0000 0.88713  0.58688  0.77304  Biso   1.000  H
  H525     1.0000 0.78320  0.88340  0.60370  Biso   1.000  H
  C548     1.0000 0.82512  0.88291  0.70270  Biso   1.000  C
  H526     1.0000 0.77351  0.87528  0.61951  Biso   1.000  H
  C549     1.0000 0.81251  0.87462  0.72180  Biso   1.000  C
  C550     1.0000 0.90862  0.90181  0.67564  Biso   1.000  C
  H527     1.0000 0.92270  0.91341  0.55942  Biso   1.000  H
  C551     1.0000 0.89680  0.89501  0.70164  Biso   1.000  C
  H528     1.0000 0.91383  0.91151  0.58761  Biso   1.000  H
  H529     1.0000 0.11240  0.86720  0.30978  Biso   1.000  H
  H530     1.0000 0.16702  0.86579  0.28201  Biso   1.000  H
  C552     1.0000 0.14333  0.94537  0.30713  Biso   1.000  C
  C553     1.0000 0.17603  0.97666  0.25430  Biso   1.000  C
  H531     1.0000 0.17929  0.99851  0.13602  Biso   1.000  H
  H532     1.0000 0.12541  0.99532  0.16769  Biso   1.000  H
  C554     1.0000 0.81709  0.68602  0.83124  Biso   1.000  C
  C555     1.0000 0.73988  0.71736  0.76974  Biso   1.000  C
  C556     1.0000 0.87230  0.88979  0.72929  Biso   1.000  C
  C557     1.0000 0.78801  0.87051  0.76084  Biso   1.000  C
  C558     1.0000 0.85842  0.88129  0.75111  Biso   1.000  C
  C559     1.0000 0.77341  0.86268  0.77593  Biso   1.000  C
  H533     1.0000 0.15699  0.94429  0.36120  Biso   1.000  H
  H534     1.0000 0.11189  0.96440  0.30931  Biso   1.000  H
  H535     1.0000 0.20821  0.95938  0.25583  Biso   1.000  H
  H536     1.0000 0.17922  0.01529  0.27352  Biso   1.000  H
  H537     1.0000 0.81402  0.71359  0.87080  Biso   1.000  H
  N69      1.0000 0.73061  0.75193  0.82351  Biso   1.000  N
  H538     1.0000 0.71911  0.71549  0.72511  Biso   1.000  H
  H539     1.0000 0.71882  0.70260  0.73082  Biso   1.000  H
  N70      1.0000 0.71761  0.76540  0.79863  Biso   1.000  N
  H540     1.0000 0.87981  0.88631  0.78383  Biso   1.000  H
  N71      1.0000 0.74473  0.86181  0.74574  Biso   1.000  N
  H541     1.0000 0.79773  0.86890  0.81461  Biso   1.000  H
  N72      1.0000 0.73000  0.85791  0.75140  Biso   1.000  N
  H542     1.0000 0.78034  0.85841  0.83053  Biso   1.000  H
  H543     1.0000 0.86420  0.87648  0.80600  Biso   1.000  H
  C560     1.0000 0.68791  0.78662  0.81001  Biso   1.000  C
  C561     1.0000 0.68151  0.79358  0.77304  Biso   1.000  C
  C562     1.0000 0.70296  0.84801  0.81119  Biso   1.000  C
  H544     1.0000 0.67443  0.77779  0.75671  Biso   1.000  H
  C563     1.0000 0.65003  0.77431  0.87133  Biso   1.000  C
  C564     1.0000 0.63703  0.78509  0.83401  Biso   1.000  C
  H545     1.0000 0.67442  0.79338  0.71514  Biso   1.000  H
  C565     1.0000 0.65917  0.88572  0.80170  Biso   1.000  C
  H546     1.0000 0.72043  0.85679  0.86142  Biso   1.000  H
  H547     1.0000 0.64012  0.73502  0.86732  Biso   1.000  H
  H548     1.0000 0.66350  0.78061  0.92481  Biso   1.000  H
  C566     1.0000 0.60665  0.81161  0.85853  Biso   1.000  C
  H549     1.0000 0.64732  0.79578  0.88819  Biso   1.000  H
  H550     1.0000 0.62740  0.74559  0.83530  Biso   1.000  H
  C567     1.0000 0.59782  0.81779  0.81101  Biso   1.000  C
  C568     1.0000 0.62059  0.87288  0.86030  Biso   1.000  C
  H551     1.0000 0.64591  0.88150  0.74769  Biso   1.000  H
  H552     1.0000 0.66931  0.92481  0.80830  Biso   1.000  H
  H553     1.0000 0.59153  0.80279  0.80700  Biso   1.000  H
  H554     1.0000 0.58280  0.80428  0.90010  Biso   1.000  H
  H555     1.0000 0.56681  0.80469  0.83141  Biso   1.000  H
  H556     1.0000 0.59582  0.82359  0.75282  Biso   1.000  H
  H557     1.0000 0.63213  0.88270  0.91390  Biso   1.000  H
  H558     1.0000 0.59201  0.89580  0.84839  Biso   1.000  H
  H559     1.0000 0.63370  0.86260  0.91272  Biso   1.000  H
  H560     1.0000 0.59723  0.90351  0.86573  Biso   1.000  H
  Ne1      1.0000 0.00001  0.23339  0.25001  Biso   1.000  Ne
  He1      1.0000 0.17121  0.25870  0.41983  Biso   1.000  He
  He2      1.0000 0.06231  0.37233  0.30109  Biso   1.000  He
  He3      1.0000 0.82828  0.25872  0.07973  Biso   1.000  He
  He4      1.0000 0.03735  0.18154  0.09085  Biso   1.000  He
  Ar1      1.0000 0.99882  0.26024  0.24847  Biso   1.000  Ar
  Ne2      1.0000 0.50001  0.26661  0.75001  Biso   1.000  Ne
  He5      1.0000 0.44012  0.29744  0.87629  Biso   1.000  He
  He6      1.0000 0.67892  0.24108  0.92681  Biso   1.000  He
  He7      1.0000 0.56224  0.12907  0.80087  Biso   1.000  He
  He8      1.0000 0.32230  0.24111  0.57429  Biso   1.000  He
  He9      1.0000 0.54982  0.30057  0.62104  Biso   1.000  He
  Ar2      1.0000 0.50120  0.23976  0.75158  Biso   1.000  Ar
  Ne3      1.0000 0.50001  0.73339  0.25001  Biso   1.000  Ne
  He10     1.0000 0.67121  0.75869  0.41983  Biso   1.000  He
  He11     1.0000 0.56231  0.87233  0.30108  Biso   1.000  He
  He12     1.0000 0.32828  0.75873  0.07973  Biso   1.000  He
  He13     1.0000 0.53735  0.68154  0.09085  Biso   1.000  He
  Ar3      1.0000 0.49881  0.76024  0.24847  Biso   1.000  Ar
  Ne4      1.0000 0.00001  0.76661  0.75001  Biso   1.000  Ne
  He14     1.0000 0.94012  0.79744  0.87629  Biso   1.000  He
  He15     1.0000 0.17892  0.74108  0.92681  Biso   1.000  He
  He16     1.0000 0.06224  0.62907  0.80087  Biso   1.000  He
  He17     1.0000 0.82230  0.74111  0.57429  Biso   1.000  He
  He18     1.0000 0.04982  0.80057  0.62103  Biso   1.000  He
  Ar4      1.0000 0.00120  0.73976  0.75158  Biso   1.000  Ar
