data_image0
_cell_length_a       17.496
_cell_length_b       17.496
_cell_length_c       58.072
_cell_angle_alpha    90
_cell_angle_beta     90
_cell_angle_gamma    120

_symmetry_space_group_name_H-M    "P 1"
_symmetry_int_tables_number       1

loop_
  _symmetry_equiv_pos_as_xyz
  'x, y, z'

loop_
  _atom_site_label
  _atom_site_occupancy
  _atom_site_fract_x
  _atom_site_fract_y
  _atom_site_fract_z
  _atom_site_thermal_displace_type
  _atom_site_B_iso_or_equiv
  _atom_site_type_symbol
  C1       1.0000 0.72819  0.60613  0.45802  Biso   1.000  C
  C2       1.0000 0.69461  0.57761  0.43615  Biso   1.000  C
  C3       1.0000 0.81189  0.62137  0.46396  Biso   1.000  C
  H1       1.0000 0.69438  0.61510  0.46890  Biso   1.000  H
  C4       1.0000 0.60663  0.56237  0.42986  Biso   1.000  C
  C5       1.0000 0.74563  0.56362  0.42001  Biso   1.000  C
  C6       1.0000 0.85146  0.65457  0.48678  Biso   1.000  C
  C7       1.0000 0.86083  0.60712  0.44755  Biso   1.000  C
  N1       1.0000 0.57792  0.54976  0.40963  Biso   1.000  N
  H2       1.0000 0.57008  0.56197  0.44161  Biso   1.000  H
  H3       1.0000 0.72318  0.54409  0.40531  Biso   1.000  H
  C8       1.0000 0.82830  0.57808  0.42544  Biso   1.000  C
  N2       1.0000 0.81891  0.67839  0.50219  Biso   1.000  N
  H4       1.0000 0.90530  0.65800  0.48989  Biso   1.000  H
  H5       1.0000 0.91668  0.61708  0.45141  Biso   1.000  H
  C9       1.0000 0.48948  0.53531  0.40519  Biso   1.000  C
  C10      1.0000 0.88339  0.56468  0.40867  Biso   1.000  C
  C11      1.0000 0.87121  0.71555  0.52321  Biso   1.000  C
  C12      1.0000 0.43285  0.44344  0.39547  Biso   1.000  C
  C13      1.0000 0.49539  0.60487  0.38848  Biso   1.000  C
  H6       1.0000 0.46368  0.54019  0.41970  Biso   1.000  H
  N3       1.0000 0.95904  0.58006  0.41309  Biso   1.000  N
  H7       1.0000 0.86059  0.54389  0.39410  Biso   1.000  H
  C14      1.0000 0.81663  0.66836  0.54412  Biso   1.000  C
  C15      1.0000 0.90220  0.81389  0.52456  Biso   1.000  C
  H8       1.0000 0.92299  0.70789  0.52270  Biso   1.000  H
  C16      1.0000 0.34238  0.42859  0.38804  Biso   1.000  C
  N4       1.0000 0.41993  0.37896  0.41309  Biso   1.000  N
  H9       1.0000 0.46273  0.43552  0.38220  Biso   1.000  H
  C17      1.0000 0.40500  0.58857  0.38146  Biso   1.000  C
  H10      1.0000 0.52810  0.66262  0.39560  Biso   1.000  H
  H11      1.0000 0.52752  0.60500  0.37490  Biso   1.000  H
  C18      1.0000 0.01058  0.56712  0.39547  Biso   1.000  C
  N5       1.0000 0.79658  0.57682  0.54376  Biso   1.000  N
  H12      1.0000 0.76160  0.67021  0.54389  Biso   1.000  H
  C19      1.0000 0.86722  0.71100  0.56612  Biso   1.000  C
  C20      1.0000 0.95568  0.85408  0.54603  Biso   1.000  C
  H13      1.0000 0.93759  0.84352  0.51111  Biso   1.000  H
  H14      1.0000 0.85131  0.82207  0.52461  Biso   1.000  H
  C21      1.0000 0.35050  0.49822  0.37113  Biso   1.000  C
  H15      1.0000 0.30890  0.37078  0.38099  Biso   1.000  H
  H16      1.0000 0.31031  0.42971  0.40150  Biso   1.000  H
  C22      1.0000 0.43530  0.31870  0.40867  Biso   1.000  C
  H17      1.0000 0.37478  0.59398  0.39480  Biso   1.000  H
  H18      1.0000 0.41162  0.63279  0.37030  Biso   1.000  H
  H19      1.0000 0.97281  0.53729  0.38220  Biso   1.000  H
  C23      1.0000 0.08618  0.65760  0.38804  Biso   1.000  C
  C24      1.0000 0.04577  0.51049  0.40519  Biso   1.000  C
  C25      1.0000 0.71877  0.51709  0.54221  Biso   1.000  C
  H20      1.0000 0.91692  0.70123  0.56740  Biso   1.000  H
  H21      1.0000 0.82903  0.68321  0.57930  Biso   1.000  H
  C26      1.0000 0.90088  0.80999  0.56680  Biso   1.000  C
  H22      1.0000 0.97550  0.91671  0.54649  Biso   1.000  H
  H23      1.0000 0.00728  0.84708  0.54591  Biso   1.000  H
  H24      1.0000 0.37824  0.49413  0.35711  Biso   1.000  H
  H25      1.0000 0.29228  0.48832  0.36730  Biso   1.000  H
  C27      1.0000 0.42191  0.25020  0.42544  Biso   1.000  C
  H26      1.0000 0.45609  0.31672  0.39410  Biso   1.000  H
  H27      1.0000 0.06190  0.69113  0.38099  Biso   1.000  H
  H28      1.0000 0.11942  0.68968  0.40150  Biso   1.000  H
  C28      1.0000 0.14767  0.64949  0.37113  Biso   1.000  C
  N6       1.0000 0.97183  0.42206  0.40963  Biso   1.000  N
  C29      1.0000 0.10953  0.50462  0.38848  Biso   1.000  C
  H29      1.0000 0.07651  0.53630  0.41970  Biso   1.000  H
  C30      1.0000 0.69199  0.42239  0.54197  Biso   1.000  C
  H30      1.0000 0.67507  0.53247  0.54121  Biso   1.000  H
  H31      1.0000 0.85117  0.82009  0.56730  Biso   1.000  H
  H32      1.0000 0.93589  0.83520  0.58061  Biso   1.000  H
  C31      1.0000 0.43640  0.18202  0.42001  Biso   1.000  C
  C32      1.0000 0.39291  0.25370  0.44755  Biso   1.000  C
  H33      1.0000 0.11590  0.62183  0.35711  Biso   1.000  H
  H34      1.0000 0.19598  0.70770  0.36730  Biso   1.000  H
  C33      1.0000 0.18357  0.59497  0.38146  Biso   1.000  C
  C34      1.0000 0.95576  0.39335  0.42986  Biso   1.000  C
  H35      1.0000 0.13449  0.47189  0.39560  Biso   1.000  H
  H36      1.0000 0.07752  0.47248  0.37490  Biso   1.000  H
  C35      1.0000 0.60380  0.35929  0.54203  Biso   1.000  C
  C36      1.0000 0.75551  0.39625  0.54203  Biso   1.000  C
  C37      1.0000 0.42242  0.11701  0.43615  Biso   1.000  C
  H37      1.0000 0.45593  0.17912  0.40531  Biso   1.000  H
  C38      1.0000 0.37861  0.19047  0.46396  Biso   1.000  C
  H38      1.0000 0.38290  0.29963  0.45141  Biso   1.000  H
  H39      1.0000 0.21921  0.62520  0.39480  Biso   1.000  H
  H40      1.0000 0.22120  0.58837  0.37030  Biso   1.000  H
  C39      1.0000 0.88297  0.30537  0.43615  Biso   1.000  C
  H41      1.0000 0.99193  0.42991  0.44161  Biso   1.000  H
  C40      1.0000 0.57764  0.26960  0.54197  Biso   1.000  C
  H42      1.0000 0.56131  0.37639  0.54210  Biso   1.000  H
  C41      1.0000 0.73037  0.30801  0.54197  Biso   1.000  C
  H43      1.0000 0.81508  0.43869  0.54210  Biso   1.000  H
  C42      1.0000 0.39392  0.12210  0.45802  Biso   1.000  C
  C43      1.0000 0.43758  0.04422  0.42986  Biso   1.000  C
  C44      1.0000 0.34541  0.19687  0.48678  Biso   1.000  C
  C45      1.0000 0.81796  0.25436  0.42001  Biso   1.000  C
  C46      1.0000 0.87789  0.27178  0.45802  Biso   1.000  C
  C47      1.0000 0.48288  0.20169  0.54221  Biso   1.000  C
  C48      1.0000 0.64072  0.24452  0.54203  Biso   1.000  C
  C49      1.0000 0.79836  0.28122  0.54221  Biso   1.000  C
  H44      1.0000 0.38489  0.07933  0.46890  Biso   1.000  H
  N7       1.0000 0.45025  0.02818  0.40963  Biso   1.000  N
  H45      1.0000 0.43799  0.00812  0.44161  Biso   1.000  H
  N8       1.0000 0.32163  0.14051  0.50219  Biso   1.000  N
  H46      1.0000 0.34198  0.24729  0.48989  Biso   1.000  H
  C50      1.0000 0.74979  0.17173  0.42544  Biso   1.000  C
  H47      1.0000 0.82090  0.27680  0.40531  Biso   1.000  H
  C51      1.0000 0.80947  0.18809  0.46396  Biso   1.000  C
  H48      1.0000 0.92068  0.30557  0.46890  Biso   1.000  H
  N9       1.0000 0.42322  0.21977  0.54376  Biso   1.000  N
  H49      1.0000 0.46752  0.14262  0.54121  Biso   1.000  H
  H50      1.0000 0.62361  0.18493  0.54210  Biso   1.000  H
  N10      1.0000 0.78020  0.20341  0.54376  Biso   1.000  N
  H51      1.0000 0.85741  0.32491  0.54121  Biso   1.000  H
  C52      1.0000 0.46470  0.95420  0.40519  Biso   1.000  C
  C53      1.0000 0.28443  0.15562  0.52321  Biso   1.000  C
  C54      1.0000 0.68131  0.11662  0.40867  Biso   1.000  C
  C55      1.0000 0.74632  0.13919  0.44755  Biso   1.000  C
  C56      1.0000 0.80310  0.14850  0.48678  Biso   1.000  C
  C57      1.0000 0.33164  0.14830  0.54412  Biso   1.000  C
  C58      1.0000 0.85173  0.18334  0.54412  Biso   1.000  C
  C59      1.0000 0.55656  0.98944  0.39547  Biso   1.000  C
  C60      1.0000 0.39513  0.89051  0.38848  Biso   1.000  C
  H52      1.0000 0.45981  0.92351  0.41970  Biso   1.000  H
  C61      1.0000 0.18613  0.08831  0.52456  Biso   1.000  C
  H53      1.0000 0.29210  0.21509  0.52270  Biso   1.000  H
  N11      1.0000 0.62103  0.04098  0.41309  Biso   1.000  N
  H54      1.0000 0.68332  0.13939  0.39410  Biso   1.000  H
  H55      1.0000 0.70037  0.08329  0.45141  Biso   1.000  H
  N12      1.0000 0.85947  0.18110  0.50219  Biso   1.000  N
  H56      1.0000 0.75271  0.09471  0.48989  Biso   1.000  H
  H57      1.0000 0.32983  0.09141  0.54389  Biso   1.000  H
  C62      1.0000 0.28901  0.15622  0.56612  Biso   1.000  C
  C63      1.0000 0.84433  0.12876  0.52321  Biso   1.000  C
  H58      1.0000 0.90857  0.23838  0.54389  Biso   1.000  H
  C64      1.0000 0.84377  0.13279  0.56612  Biso   1.000  C
  H59      1.0000 0.56452  0.02719  0.38220  Biso   1.000  H
  C65      1.0000 0.57139  0.91381  0.38804  Biso   1.000  C
  C66      1.0000 0.41140  0.81639  0.38146  Biso   1.000  C
  H60      1.0000 0.33741  0.86550  0.39560  Biso   1.000  H
  H61      1.0000 0.39502  0.92252  0.37490  Biso   1.000  H
  C67      1.0000 0.14589  0.10157  0.54603  Biso   1.000  C
  H62      1.0000 0.15651  0.09411  0.51111  Biso   1.000  H
  H63      1.0000 0.17788  0.02917  0.52461  Biso   1.000  H
  H64      1.0000 0.29880  0.21568  0.56740  Biso   1.000  H
  H65      1.0000 0.31678  0.14579  0.57930  Biso   1.000  H
  C68      1.0000 0.18999  0.09088  0.56680  Biso   1.000  C
  C69      1.0000 0.91173  0.09781  0.52456  Biso   1.000  C
  H66      1.0000 0.78491  0.07702  0.52270  Biso   1.000  H
  H67      1.0000 0.78429  0.08309  0.56740  Biso   1.000  H
  H68      1.0000 0.85419  0.17100  0.57930  Biso   1.000  H
  C70      1.0000 0.90913  0.09913  0.56680  Biso   1.000  C
  H69      1.0000 0.62920  0.93810  0.38099  Biso   1.000  H
  H70      1.0000 0.57028  0.88061  0.40150  Biso   1.000  H
  C71      1.0000 0.50182  0.85230  0.37113  Biso   1.000  C
  H71      1.0000 0.40601  0.78082  0.39480  Biso   1.000  H
  H72      1.0000 0.36721  0.77878  0.37030  Biso   1.000  H
  H73      1.0000 0.15291  0.16018  0.54591  Biso   1.000  H
  H74      1.0000 0.08330  0.05880  0.54649  Biso   1.000  H
  H75      1.0000 0.17987  0.03109  0.56730  Biso   1.000  H
  H76      1.0000 0.16478  0.10071  0.58061  Biso   1.000  H
  C72      1.0000 0.89840  0.04428  0.54603  Biso   1.000  C
  H77      1.0000 0.90590  0.06237  0.51111  Biso   1.000  H
  H78      1.0000 0.97078  0.14869  0.52461  Biso   1.000  H
  H79      1.0000 0.96890  0.14883  0.56730  Biso   1.000  H
  H80      1.0000 0.89927  0.06408  0.58061  Biso   1.000  H
  H81      1.0000 0.50590  0.88411  0.35711  Biso   1.000  H
  H82      1.0000 0.51168  0.80399  0.36730  Biso   1.000  H
  H83      1.0000 0.94120  0.02449  0.54649  Biso   1.000  H
  H84      1.0000 0.83979  0.99268  0.54591  Biso   1.000  H
  C73      1.0000 0.60611  0.72822  0.54198  Biso   1.000  C
  C74      1.0000 0.62137  0.81191  0.53604  Biso   1.000  C
  C75      1.0000 0.57760  0.69463  0.56385  Biso   1.000  C
  H85      1.0000 0.61511  0.69443  0.53110  Biso   1.000  H
  C76      1.0000 0.65461  0.85151  0.51322  Biso   1.000  C
  C77      1.0000 0.60713  0.86081  0.55245  Biso   1.000  C
  C78      1.0000 0.56241  0.60665  0.57014  Biso   1.000  C
  C79      1.0000 0.56361  0.74565  0.57999  Biso   1.000  C
  N13      1.0000 0.67837  0.81890  0.49781  Biso   1.000  N
  H86      1.0000 0.65801  0.90529  0.51011  Biso   1.000  H
  C80      1.0000 0.57806  0.82827  0.57456  Biso   1.000  C
  H87      1.0000 0.61708  0.91671  0.54859  Biso   1.000  H
  N14      1.0000 0.54977  0.57794  0.59037  Biso   1.000  N
  H88      1.0000 0.56202  0.57009  0.55839  Biso   1.000  H
  H89      1.0000 0.54410  0.72321  0.59469  Biso   1.000  H
  C81      1.0000 0.71557  0.87124  0.47679  Biso   1.000  C
  C82      1.0000 0.56469  0.88338  0.59133  Biso   1.000  C
  C83      1.0000 0.53528  0.48951  0.59481  Biso   1.000  C
  C84      1.0000 0.66839  0.81666  0.45588  Biso   1.000  C
  C85      1.0000 0.81392  0.90219  0.47544  Biso   1.000  C
  H90      1.0000 0.70789  0.92298  0.47730  Biso   1.000  H
  N15      1.0000 0.58005  0.95902  0.58691  Biso   1.000  N
  H91      1.0000 0.54393  0.86061  0.60590  Biso   1.000  H
  C86      1.0000 0.44346  0.43288  0.60453  Biso   1.000  C
  C87      1.0000 0.60491  0.49538  0.61152  Biso   1.000  C
  H92      1.0000 0.54021  0.46370  0.58030  Biso   1.000  H
  N16      1.0000 0.57680  0.79660  0.45624  Biso   1.000  N
  H93      1.0000 0.67019  0.76162  0.45611  Biso   1.000  H
  C88      1.0000 0.71098  0.86721  0.43388  Biso   1.000  C
  C89      1.0000 0.85412  0.95572  0.45397  Biso   1.000  C
  H94      1.0000 0.84350  0.93757  0.48889  Biso   1.000  H
  H95      1.0000 0.82209  0.85131  0.47539  Biso   1.000  H
  C90      1.0000 0.56712  0.01056  0.60453  Biso   1.000  C
  N17      1.0000 0.37898  0.41995  0.58691  Biso   1.000  N
  H96      1.0000 0.43552  0.46271  0.61780  Biso   1.000  H
  C91      1.0000 0.42857  0.34240  0.61196  Biso   1.000  C
  C92      1.0000 0.58860  0.40503  0.61854  Biso   1.000  C
  H97      1.0000 0.66261  0.52812  0.60440  Biso   1.000  H
  H98      1.0000 0.60504  0.52752  0.62510  Biso   1.000  H
  C93      1.0000 0.51714  0.71878  0.45779  Biso   1.000  C
  H99      1.0000 0.70120  0.91691  0.43260  Biso   1.000  H
  H100     1.0000 0.68319  0.82900  0.42070  Biso   1.000  H
  C94      1.0000 0.81000  0.90087  0.43320  Biso   1.000  C
  H101     1.0000 0.91671  0.97552  0.45351  Biso   1.000  H
  H102     1.0000 0.84711  0.00733  0.45409  Biso   1.000  H
  C95      1.0000 0.51050  0.04580  0.59481  Biso   1.000  C
  H103     1.0000 0.53733  0.97281  0.61780  Biso   1.000  H
  C96      1.0000 0.65758  0.08619  0.61196  Biso   1.000  C
  C97      1.0000 0.31871  0.43532  0.59133  Biso   1.000  C
  H104     1.0000 0.37077  0.30887  0.61901  Biso   1.000  H
  H105     1.0000 0.42974  0.31032  0.59850  Biso   1.000  H
  C98      1.0000 0.49819  0.35052  0.62887  Biso   1.000  C
  H106     1.0000 0.59401  0.37480  0.60520  Biso   1.000  H
  H107     1.0000 0.63283  0.41163  0.62970  Biso   1.000  H
  C99      1.0000 0.42235  0.69199  0.45803  Biso   1.000  C
  H108     1.0000 0.53251  0.67509  0.45879  Biso   1.000  H
  H109     1.0000 0.82008  0.85118  0.43270  Biso   1.000  H
  H110     1.0000 0.83519  0.93592  0.41939  Biso   1.000  H
  N18      1.0000 0.42207  0.97182  0.59037  Biso   1.000  N
  C100     1.0000 0.50462  0.10949  0.61152  Biso   1.000  C
  H111     1.0000 0.53630  0.07649  0.58030  Biso   1.000  H
  H112     1.0000 0.69110  0.06191  0.61901  Biso   1.000  H
  H113     1.0000 0.68967  0.11939  0.59850  Biso   1.000  H
  C101     1.0000 0.64953  0.14770  0.62887  Biso   1.000  C
  C102     1.0000 0.25023  0.42193  0.57456  Biso   1.000  C
  H114     1.0000 0.31670  0.45611  0.60590  Biso   1.000  H
  H115     1.0000 0.49407  0.37817  0.64289  Biso   1.000  H
  H116     1.0000 0.48829  0.29231  0.63270  Biso   1.000  H
  C103     1.0000 0.35926  0.60375  0.45797  Biso   1.000  C
  C104     1.0000 0.39620  0.75548  0.45797  Biso   1.000  C
  C105     1.0000 0.39336  0.95578  0.57014  Biso   1.000  C
  C106     1.0000 0.59500  0.18361  0.61854  Biso   1.000  C
  H117     1.0000 0.47192  0.13450  0.60440  Biso   1.000  H
  H118     1.0000 0.47250  0.07748  0.62510  Biso   1.000  H
  H119     1.0000 0.62179  0.11589  0.64289  Biso   1.000  H
  H120     1.0000 0.70769  0.19601  0.63270  Biso   1.000  H
  C107     1.0000 0.25371  0.39289  0.55245  Biso   1.000  C
  C108     1.0000 0.18201  0.43638  0.57999  Biso   1.000  C
  C109     1.0000 0.26960  0.57761  0.45803  Biso   1.000  C
  H121     1.0000 0.37639  0.56131  0.45790  Biso   1.000  H
  C110     1.0000 0.30804  0.73040  0.45803  Biso   1.000  C
  H122     1.0000 0.43869  0.81507  0.45790  Biso   1.000  H
  C111     1.0000 0.30541  0.88299  0.56385  Biso   1.000  C
  H123     1.0000 0.42987  0.99188  0.55839  Biso   1.000  H
  H124     1.0000 0.62519  0.21918  0.60520  Biso   1.000  H
  H125     1.0000 0.58844  0.22123  0.62970  Biso   1.000  H
  C112     1.0000 0.19052  0.37863  0.53604  Biso   1.000  C
  H126     1.0000 0.29960  0.38292  0.54859  Biso   1.000  H
  C113     1.0000 0.11700  0.42239  0.56385  Biso   1.000  C
  H127     1.0000 0.17909  0.45591  0.59469  Biso   1.000  H
  C114     1.0000 0.20167  0.48291  0.45779  Biso   1.000  C
  C115     1.0000 0.24451  0.64071  0.45797  Biso   1.000  C
  C116     1.0000 0.28119  0.79831  0.45779  Biso   1.000  C
  C117     1.0000 0.27183  0.87791  0.54198  Biso   1.000  C
  C118     1.0000 0.25438  0.81798  0.57999  Biso   1.000  C
  C119     1.0000 0.19686  0.34537  0.51322  Biso   1.000  C
  C120     1.0000 0.12206  0.39388  0.54198  Biso   1.000  C
  C121     1.0000 0.04426  0.43763  0.57014  Biso   1.000  C
  N19      1.0000 0.21976  0.42318  0.45624  Biso   1.000  N
  H128     1.0000 0.14260  0.46753  0.45879  Biso   1.000  H
  H129     1.0000 0.18492  0.62361  0.45790  Biso   1.000  H
  N20      1.0000 0.20344  0.78023  0.45624  Biso   1.000  N
  H130     1.0000 0.32489  0.85738  0.45879  Biso   1.000  H
  C122     1.0000 0.18814  0.80953  0.53604  Biso   1.000  C
  H131     1.0000 0.30556  0.92067  0.53110  Biso   1.000  H
  C123     1.0000 0.17171  0.74980  0.57456  Biso   1.000  C
  H132     1.0000 0.27681  0.82088  0.59469  Biso   1.000  H
  N21      1.0000 0.14051  0.32161  0.49781  Biso   1.000  N
  H133     1.0000 0.24730  0.34200  0.51011  Biso   1.000  H
  H134     1.0000 0.07928  0.38490  0.53110  Biso   1.000  H
  N22      1.0000 0.02816  0.45024  0.59037  Biso   1.000  N
  H135     1.0000 0.00811  0.43803  0.55839  Biso   1.000  H
  C124     1.0000 0.14827  0.33164  0.45588  Biso   1.000  C
  C125     1.0000 0.18334  0.85170  0.45588  Biso   1.000  C
  C126     1.0000 0.14854  0.80313  0.51322  Biso   1.000  C
  C127     1.0000 0.13921  0.74631  0.55245  Biso   1.000  C
  C128     1.0000 0.11660  0.68130  0.59133  Biso   1.000  C
  C129     1.0000 0.15566  0.28445  0.47679  Biso   1.000  C
  C130     1.0000 0.95417  0.46469  0.59481  Biso   1.000  C
  C131     1.0000 0.15622  0.28901  0.43388  Biso   1.000  C
  H136     1.0000 0.09139  0.32979  0.45611  Biso   1.000  H
  H137     1.0000 0.23842  0.90859  0.45611  Biso   1.000  H
  C132     1.0000 0.13280  0.84378  0.43388  Biso   1.000  C
  C133     1.0000 0.12881  0.84438  0.47679  Biso   1.000  C
  N23      1.0000 0.18112  0.85949  0.49781  Biso   1.000  N
  H138     1.0000 0.09469  0.75271  0.51011  Biso   1.000  H
  H139     1.0000 0.08327  0.70037  0.54859  Biso   1.000  H
  N24      1.0000 0.04097  0.62104  0.58691  Biso   1.000  N
  H140     1.0000 0.13936  0.68328  0.60590  Biso   1.000  H
  C134     1.0000 0.08831  0.18611  0.47544  Biso   1.000  C
  H141     1.0000 0.21510  0.29211  0.47730  Biso   1.000  H
  C135     1.0000 0.98941  0.55656  0.60453  Biso   1.000  C
  C136     1.0000 0.89052  0.39513  0.61152  Biso   1.000  C
  H142     1.0000 0.92349  0.45981  0.58030  Biso   1.000  H
  H143     1.0000 0.21569  0.29877  0.43260  Biso   1.000  H
  H144     1.0000 0.14582  0.31679  0.42070  Biso   1.000  H
  C137     1.0000 0.09089  0.19001  0.43320  Biso   1.000  C
  H145     1.0000 0.08312  0.78432  0.43260  Biso   1.000  H
  H146     1.0000 0.17099  0.85421  0.42070  Biso   1.000  H
  C138     1.0000 0.09911  0.90912  0.43320  Biso   1.000  C
  C139     1.0000 0.09782  0.91170  0.47544  Biso   1.000  C
  H147     1.0000 0.07701  0.78491  0.47730  Biso   1.000  H
  C140     1.0000 0.10160  0.14592  0.45397  Biso   1.000  C
  H148     1.0000 0.09407  0.15648  0.48889  Biso   1.000  H
  H149     1.0000 0.02924  0.17793  0.47539  Biso   1.000  H
  H150     1.0000 0.02721  0.56448  0.61780  Biso   1.000  H
  C141     1.0000 0.91379  0.57141  0.61196  Biso   1.000  C
  C142     1.0000 0.81643  0.41143  0.61854  Biso   1.000  C
  H151     1.0000 0.86548  0.33738  0.60440  Biso   1.000  H
  H152     1.0000 0.92252  0.39500  0.62510  Biso   1.000  H
  H153     1.0000 0.03108  0.17991  0.43270  Biso   1.000  H
  H154     1.0000 0.10069  0.16480  0.41939  Biso   1.000  H
  H155     1.0000 0.14878  0.96892  0.43270  Biso   1.000  H
  H156     1.0000 0.06407  0.89929  0.41939  Biso   1.000  H
  C143     1.0000 0.04432  0.89843  0.45397  Biso   1.000  C
  H157     1.0000 0.06240  0.90589  0.48889  Biso   1.000  H
  H158     1.0000 0.14871  0.97083  0.47539  Biso   1.000  H
  H159     1.0000 0.16019  0.15292  0.45409  Biso   1.000  H
  H160     1.0000 0.05879  0.08329  0.45351  Biso   1.000  H
  H161     1.0000 0.93813  0.62922  0.61901  Biso   1.000  H
  H162     1.0000 0.88059  0.57029  0.59850  Biso   1.000  H
  C144     1.0000 0.85229  0.50178  0.62887  Biso   1.000  C
  H163     1.0000 0.78080  0.40602  0.60520  Biso   1.000  H
  H164     1.0000 0.77883  0.36721  0.62970  Biso   1.000  H
  H165     1.0000 0.02450  0.94120  0.45351  Biso   1.000  H
  H166     1.0000 0.99273  0.83982  0.45409  Biso   1.000  H
  H167     1.0000 0.88411  0.50587  0.64289  Biso   1.000  H
  H168     1.0000 0.80397  0.51168  0.63270  Biso   1.000  H
  C145     1.0000 0.81318  0.79429  0.62309  Biso   1.000  C
  C146     1.0000 0.75291  0.73502  0.64200  Biso   1.000  C
  H169     1.0000 0.86270  0.78439  0.62130  Biso   1.000  H
  H170     1.0000 0.78107  0.77957  0.60861  Biso   1.000  H
  C147     1.0000 0.84687  0.88978  0.62863  Biso   1.000  C
  C148     1.0000 0.67699  0.75178  0.64597  Biso   1.000  C
  H171     1.0000 0.72980  0.67371  0.63771  Biso   1.000  H
  H172     1.0000 0.78631  0.74591  0.65610  Biso   1.000  H
  C149     1.0000 0.77154  0.90853  0.63320  Biso   1.000  C
  H173     1.0000 0.88230  0.92602  0.61591  Biso   1.000  H
  H174     1.0000 0.88454  0.90602  0.64210  Biso   1.000  H
  N25      1.0000 0.62001  0.69509  0.66447  Biso   1.000  N
  H175     1.0000 0.64233  0.73872  0.63180  Biso   1.000  H
  C150     1.0000 0.71193  0.84761  0.65236  Biso   1.000  C
  H176     1.0000 0.73732  0.89863  0.61920  Biso   1.000  H
  H177     1.0000 0.79561  0.96971  0.63771  Biso   1.000  H
  C151     1.0000 0.54281  0.63741  0.65947  Biso   1.000  C
  N26      1.0000 0.63882  0.86372  0.65639  Biso   1.000  N
  H178     1.0000 0.74660  0.86048  0.66660  Biso   1.000  H
  C152     1.0000 0.47831  0.57643  0.67633  Biso   1.000  C
  H179     1.0000 0.52509  0.63272  0.64420  Biso   1.000  H
  C153     1.0000 0.62328  0.87368  0.67699  Biso   1.000  C
  C154     1.0000 0.39801  0.50898  0.66905  Biso   1.000  C
  C155     1.0000 0.49682  0.58692  0.69967  Biso   1.000  C
  H180     1.0000 0.66083  0.87322  0.68830  Biso   1.000  H
  C156     1.0000 0.55081  0.88602  0.68427  Biso   1.000  C
  C157     1.0000 0.33519  0.44918  0.68427  Biso   1.000  C
  H181     1.0000 0.38512  0.50310  0.65340  Biso   1.000  H
  C158     1.0000 0.43621  0.52983  0.71535  Biso   1.000  C
  H182     1.0000 0.55051  0.63292  0.70480  Biso   1.000  H
  C159     1.0000 0.49102  0.88899  0.66905  Biso   1.000  C
  C160     1.0000 0.53950  0.89520  0.70755  Biso   1.000  C
  C161     1.0000 0.25043  0.37672  0.67699  Biso   1.000  C
  C162     1.0000 0.35569  0.46047  0.70755  Biso   1.000  C
  C163     1.0000 0.45221  0.54079  0.74003  Biso   1.000  C
  C164     1.0000 0.42359  0.90193  0.67633  Biso   1.000  C
  H183     1.0000 0.49690  0.88200  0.65340  Biso   1.000  H
  C165     1.0000 0.47018  0.90642  0.71535  Biso   1.000  C
  H184     1.0000 0.57868  0.89388  0.71811  Biso   1.000  H
  N27      1.0000 0.22490  0.36121  0.65639  Biso   1.000  N
  H185     1.0000 0.21242  0.33923  0.68830  Biso   1.000  H
  H186     1.0000 0.31520  0.42133  0.71811  Biso   1.000  H
  C166     1.0000 0.45919  0.54778  0.75997  Biso   1.000  C
  C167     1.0000 0.36264  0.90543  0.65947  Biso   1.000  C
  C168     1.0000 0.41312  0.90991  0.69967  Biso   1.000  C
  C169     1.0000 0.45920  0.91143  0.74003  Biso   1.000  C
  C170     1.0000 0.13570  0.28808  0.65236  Biso   1.000  C
  C171     1.0000 0.47018  0.56382  0.78465  Biso   1.000  C
  N28      1.0000 0.30493  0.92490  0.66447  Biso   1.000  N
  H187     1.0000 0.36734  0.89242  0.64420  Biso   1.000  H
  H188     1.0000 0.36711  0.91757  0.70480  Biso   1.000  H
  C172     1.0000 0.45223  0.91143  0.75997  Biso   1.000  C
  C173     1.0000 0.13699  0.22848  0.63320  Biso   1.000  C
  C174     1.0000 0.07479  0.32299  0.64597  Biso   1.000  C
  H189     1.0000 0.11391  0.25343  0.66660  Biso   1.000  H
  C175     1.0000 0.41311  0.50317  0.80033  Biso   1.000  C
  C176     1.0000 0.53950  0.64427  0.79245  Biso   1.000  C
  C177     1.0000 0.24822  0.92523  0.64597  Biso   1.000  C
  C178     1.0000 0.43623  0.90642  0.78465  Biso   1.000  C
  C179     1.0000 0.04289  0.15312  0.62863  Biso   1.000  C
  H190     1.0000 0.16129  0.26267  0.61920  Biso   1.000  H
  H191     1.0000 0.17410  0.20440  0.63771  Biso   1.000  H
  C180     1.0000 0.98209  0.24710  0.64200  Biso   1.000  C
  N29      1.0000 0.07512  0.38002  0.66447  Biso   1.000  N
  H192     1.0000 0.09638  0.35771  0.63180  Biso   1.000  H
  C181     1.0000 0.42358  0.52171  0.82367  Biso   1.000  C
  H193     1.0000 0.36713  0.44951  0.79520  Biso   1.000  H
  C182     1.0000 0.55079  0.66480  0.81573  Biso   1.000  C
  H194     1.0000 0.57868  0.68479  0.78189  Biso   1.000  H
  C183     1.0000 0.15238  0.86431  0.65236  Biso   1.000  C
  H195     1.0000 0.26129  0.90358  0.63180  Biso   1.000  H
  C184     1.0000 0.26500  0.01789  0.64200  Biso   1.000  C
  C185     1.0000 0.49680  0.90991  0.80033  Biso   1.000  C
  C186     1.0000 0.35569  0.89520  0.79245  Biso   1.000  C
  H196     1.0000 0.04369  0.11767  0.61591  Biso   1.000  H
  H197     1.0000 0.02151  0.11550  0.64210  Biso   1.000  H
  C187     1.0000 0.98108  0.18677  0.62309  Biso   1.000  C
  H198     1.0000 0.94391  0.27020  0.63771  Biso   1.000  H
  H199     1.0000 0.95962  0.21370  0.65610  Biso   1.000  H
  C188     1.0000 0.09461  0.45717  0.65947  Biso   1.000  C
  C189     1.0000 0.49097  0.60197  0.83095  Biso   1.000  C
  C190     1.0000 0.36256  0.45717  0.84053  Biso   1.000  C
  C191     1.0000 0.62332  0.74960  0.82301  Biso   1.000  C
  N30      1.0000 0.13628  0.77508  0.65639  Biso   1.000  N
  C192     1.0000 0.09147  0.86299  0.63320  Biso   1.000  C
  H200     1.0000 0.13949  0.88609  0.66660  Biso   1.000  H
  H201     1.0000 0.32629  0.05610  0.63771  Biso   1.000  H
  H202     1.0000 0.25408  0.04039  0.65610  Biso   1.000  H
  C193     1.0000 0.20571  0.01888  0.62309  Biso   1.000  C
  C194     1.0000 0.47834  0.90193  0.82367  Biso   1.000  C
  H203     1.0000 0.55046  0.91757  0.79520  Biso   1.000  H
  C195     1.0000 0.33522  0.88602  0.81573  Biso   1.000  C
  H204     1.0000 0.31519  0.89388  0.78189  Biso   1.000  H
  H205     1.0000 0.92169  0.13728  0.62130  Biso   1.000  H
  H206     1.0000 0.99852  0.21892  0.60861  Biso   1.000  H
  C196     1.0000 0.09813  0.52171  0.67633  Biso   1.000  C
  H207     1.0000 0.10760  0.47492  0.64420  Biso   1.000  H
  H208     1.0000 0.49692  0.61490  0.84660  Biso   1.000  H
  N31      1.0000 0.30489  0.38002  0.83553  Biso   1.000  N
  H209     1.0000 0.36732  0.47492  0.85580  Biso   1.000  H
  N32      1.0000 0.63880  0.77508  0.84361  Biso   1.000  N
  H210     1.0000 0.66079  0.78762  0.81170  Biso   1.000  H
  C197     1.0000 0.12629  0.74960  0.67699  Biso   1.000  C
  C198     1.0000 0.11018  0.95710  0.62863  Biso   1.000  C
  H211     1.0000 0.10139  0.83870  0.61920  Biso   1.000  H
  H212     1.0000 0.03029  0.82590  0.63771  Biso   1.000  H
  H213     1.0000 0.21558  0.07827  0.62130  Biso   1.000  H
  H214     1.0000 0.22041  0.00152  0.60861  Biso   1.000  H
  C199     1.0000 0.54279  0.90543  0.84053  Biso   1.000  C
  C200     1.0000 0.39797  0.88899  0.83095  Biso   1.000  C
  C201     1.0000 0.25040  0.87368  0.82301  Biso   1.000  C
  C202     1.0000 0.11100  0.60197  0.66905  Biso   1.000  C
  C203     1.0000 0.09006  0.50317  0.69967  Biso   1.000  C
  C204     1.0000 0.24820  0.32299  0.85403  Biso   1.000  C
  C205     1.0000 0.71193  0.86431  0.84764  Biso   1.000  C
  C206     1.0000 0.11401  0.66480  0.68427  Biso   1.000  C
  H215     1.0000 0.12683  0.78762  0.68830  Biso   1.000  H
  H216     1.0000 0.07401  0.95631  0.61591  Biso   1.000  H
  H217     1.0000 0.09401  0.97849  0.64210  Biso   1.000  H
  N33      1.0000 0.61997  0.92490  0.83553  Biso   1.000  N
  H218     1.0000 0.52509  0.89242  0.85580  Biso   1.000  H
  H219     1.0000 0.38510  0.88200  0.84660  Biso   1.000  H
  N34      1.0000 0.22490  0.86372  0.84361  Biso   1.000  N
  H220     1.0000 0.21239  0.87322  0.81170  Biso   1.000  H
  H221     1.0000 0.11798  0.61490  0.65340  Biso   1.000  H
  H222     1.0000 0.08238  0.44951  0.70480  Biso   1.000  H
  C207     1.0000 0.09364  0.56382  0.71535  Biso   1.000  C
  H223     1.0000 0.26133  0.35771  0.86820  Biso   1.000  H
  C208     1.0000 0.26501  0.24710  0.85800  Biso   1.000  C
  C209     1.0000 0.15239  0.28808  0.84764  Biso   1.000  C
  C210     1.0000 0.67700  0.92523  0.85403  Biso   1.000  C
  C211     1.0000 0.77152  0.86299  0.86680  Biso   1.000  C
  H224     1.0000 0.74660  0.88609  0.83340  Biso   1.000  H
  C212     1.0000 0.10477  0.64427  0.70755  Biso   1.000  C
  C213     1.0000 0.13568  0.84761  0.84764  Biso   1.000  C
  C214     1.0000 0.08859  0.54778  0.74003  Biso   1.000  C
  H225     1.0000 0.32628  0.27020  0.86229  Biso   1.000  H
  H226     1.0000 0.25408  0.21370  0.84390  Biso   1.000  H
  C215     1.0000 0.20570  0.18677  0.87691  Biso   1.000  C
  N35      1.0000 0.13631  0.36121  0.84361  Biso   1.000  N
  C216     1.0000 0.09149  0.22848  0.86680  Biso   1.000  C
  H227     1.0000 0.13952  0.25343  0.83340  Biso   1.000  H
  H228     1.0000 0.64229  0.90358  0.86820  Biso   1.000  H
  C217     1.0000 0.75288  0.01789  0.85800  Biso   1.000  C
  C218     1.0000 0.84692  0.95710  0.87137  Biso   1.000  C
  H229     1.0000 0.73731  0.83870  0.88080  Biso   1.000  H
  H230     1.0000 0.79561  0.82590  0.86229  Biso   1.000  H
  H231     1.0000 0.10611  0.68479  0.71811  Biso   1.000  H
  C219     1.0000 0.07479  0.75178  0.85403  Biso   1.000  C
  C220     1.0000 0.13699  0.90853  0.86680  Biso   1.000  C
  H232     1.0000 0.11388  0.86048  0.83340  Biso   1.000  H
  C221     1.0000 0.08858  0.54079  0.75997  Biso   1.000  C
  H233     1.0000 0.21559  0.13728  0.87870  Biso   1.000  H
  H234     1.0000 0.22040  0.21892  0.89139  Biso   1.000  H
  C222     1.0000 0.11022  0.15312  0.87137  Biso   1.000  C
  C223     1.0000 0.12629  0.37672  0.82301  Biso   1.000  C
  H235     1.0000 0.10139  0.26267  0.88080  Biso   1.000  H
  H236     1.0000 0.03030  0.20440  0.86229  Biso   1.000  H
  H237     1.0000 0.72981  0.05610  0.86229  Biso   1.000  H
  H238     1.0000 0.78631  0.04039  0.84390  Biso   1.000  H
  C224     1.0000 0.81316  0.01888  0.87691  Biso   1.000  C
  H239     1.0000 0.88230  0.95631  0.88409  Biso   1.000  H
  H240     1.0000 0.88448  0.97849  0.85790  Biso   1.000  H
  N36      1.0000 0.07508  0.69509  0.83553  Biso   1.000  N
  H241     1.0000 0.09638  0.73872  0.86820  Biso   1.000  H
  C225     1.0000 0.98211  0.73502  0.85800  Biso   1.000  C
  C226     1.0000 0.04291  0.88978  0.87137  Biso   1.000  C
  H242     1.0000 0.16131  0.89863  0.88080  Biso   1.000  H
  H243     1.0000 0.17410  0.96971  0.86229  Biso   1.000  H
  C227     1.0000 0.09362  0.52983  0.78465  Biso   1.000  C
  H244     1.0000 0.07398  0.11767  0.88409  Biso   1.000  H
  H245     1.0000 0.09399  0.11550  0.85790  Biso   1.000  H
  C228     1.0000 0.11399  0.44918  0.81573  Biso   1.000  C
  H246     1.0000 0.12681  0.33923  0.81170  Biso   1.000  H
  H247     1.0000 0.86270  0.07827  0.87870  Biso   1.000  H
  H248     1.0000 0.78111  0.00152  0.89139  Biso   1.000  H
  C229     1.0000 0.09460  0.63741  0.84053  Biso   1.000  C
  H249     1.0000 0.94391  0.67371  0.86229  Biso   1.000  H
  H250     1.0000 0.95960  0.74591  0.84390  Biso   1.000  H
  C230     1.0000 0.98110  0.79429  0.87691  Biso   1.000  C
  H251     1.0000 0.04371  0.92602  0.88409  Biso   1.000  H
  H252     1.0000 0.02148  0.90602  0.85790  Biso   1.000  H
  C231     1.0000 0.09010  0.58692  0.80033  Biso   1.000  C
  C232     1.0000 0.10478  0.46047  0.79245  Biso   1.000  C
  C233     1.0000 0.11097  0.50898  0.83095  Biso   1.000  C
  C234     1.0000 0.09811  0.57643  0.82367  Biso   1.000  C
  H253     1.0000 0.10763  0.63272  0.85580  Biso   1.000  H
  H254     1.0000 0.92169  0.78439  0.87870  Biso   1.000  H
  H255     1.0000 0.99849  0.77957  0.89139  Biso   1.000  H
  H256     1.0000 0.08241  0.63292  0.79520  Biso   1.000  H
  H257     1.0000 0.10613  0.42133  0.78189  Biso   1.000  H
  H258     1.0000 0.11798  0.50310  0.84660  Biso   1.000  H
  C235     1.0000 0.79430  0.81323  0.37691  Biso   1.000  C
  C236     1.0000 0.73499  0.75290  0.35800  Biso   1.000  C
  H259     1.0000 0.78441  0.86273  0.37870  Biso   1.000  H
  H260     1.0000 0.77960  0.78109  0.39139  Biso   1.000  H
  C237     1.0000 0.88978  0.84689  0.37137  Biso   1.000  C
  C238     1.0000 0.75180  0.67701  0.35403  Biso   1.000  C
  H261     1.0000 0.67372  0.72981  0.36229  Biso   1.000  H
  H262     1.0000 0.74592  0.78630  0.34390  Biso   1.000  H
  C239     1.0000 0.90851  0.77152  0.36680  Biso   1.000  C
  H263     1.0000 0.92602  0.88233  0.38409  Biso   1.000  H
  H264     1.0000 0.90602  0.88450  0.35790  Biso   1.000  H
  N37      1.0000 0.69511  0.61998  0.33553  Biso   1.000  N
  H265     1.0000 0.73867  0.64229  0.36820  Biso   1.000  H
  C240     1.0000 0.84762  0.71192  0.34764  Biso   1.000  C
  H266     1.0000 0.89861  0.73733  0.38080  Biso   1.000  H
  H267     1.0000 0.96970  0.79561  0.36229  Biso   1.000  H
  C241     1.0000 0.63741  0.54277  0.34053  Biso   1.000  C
  N38      1.0000 0.86369  0.63879  0.34361  Biso   1.000  N
  H268     1.0000 0.86048  0.74657  0.33340  Biso   1.000  H
  C242     1.0000 0.57642  0.47829  0.32367  Biso   1.000  C
  H269     1.0000 0.63268  0.52508  0.35580  Biso   1.000  H
  C243     1.0000 0.87371  0.62328  0.32301  Biso   1.000  C
  C244     1.0000 0.50900  0.39797  0.33095  Biso   1.000  C
  C245     1.0000 0.58689  0.49683  0.30033  Biso   1.000  C
  H270     1.0000 0.87320  0.66077  0.31170  Biso   1.000  H
  C246     1.0000 0.88601  0.55082  0.31573  Biso   1.000  C
  C247     1.0000 0.44921  0.33520  0.31573  Biso   1.000  C
  H271     1.0000 0.50308  0.38510  0.34660  Biso   1.000  H
  C248     1.0000 0.52982  0.43618  0.28465  Biso   1.000  C
  H272     1.0000 0.63287  0.55049  0.29520  Biso   1.000  H
  C249     1.0000 0.88903  0.49102  0.33095  Biso   1.000  C
  C250     1.0000 0.89519  0.53947  0.29245  Biso   1.000  C
  C251     1.0000 0.46050  0.35573  0.29245  Biso   1.000  C
  C252     1.0000 0.37668  0.25040  0.32301  Biso   1.000  C
  C253     1.0000 0.54081  0.45222  0.25997  Biso   1.000  C
  H273     1.0000 0.88202  0.49690  0.34660  Biso   1.000  H
  C254     1.0000 0.90189  0.42357  0.32367  Biso   1.000  C
  C255     1.0000 0.90638  0.47017  0.28465  Biso   1.000  C
  H274     1.0000 0.89387  0.57867  0.28189  Biso   1.000  H
  H275     1.0000 0.42132  0.31521  0.28189  Biso   1.000  H
  N39      1.0000 0.36120  0.22492  0.34361  Biso   1.000  N
  H276     1.0000 0.33922  0.21238  0.31170  Biso   1.000  H
  C256     1.0000 0.54779  0.45921  0.24003  Biso   1.000  C
  C257     1.0000 0.90990  0.41308  0.30033  Biso   1.000  C
  C258     1.0000 0.90540  0.36259  0.34053  Biso   1.000  C
  C259     1.0000 0.91142  0.45921  0.25997  Biso   1.000  C
  C260     1.0000 0.28807  0.13569  0.34764  Biso   1.000  C
  C261     1.0000 0.56379  0.47017  0.21535  Biso   1.000  C
  H277     1.0000 0.91759  0.36708  0.29520  Biso   1.000  H
  N40      1.0000 0.92492  0.30491  0.33553  Biso   1.000  N
  H278     1.0000 0.89237  0.36728  0.35580  Biso   1.000  H
  C262     1.0000 0.91141  0.45222  0.24003  Biso   1.000  C
  C263     1.0000 0.32300  0.07478  0.35403  Biso   1.000  C
  C264     1.0000 0.22849  0.13701  0.36680  Biso   1.000  C
  H279     1.0000 0.25340  0.11391  0.33340  Biso   1.000  H
  C265     1.0000 0.50318  0.41308  0.19967  Biso   1.000  C
  C266     1.0000 0.64428  0.53947  0.20755  Biso   1.000  C
  C267     1.0000 0.92521  0.24822  0.35403  Biso   1.000  C
  C268     1.0000 0.90636  0.43618  0.21535  Biso   1.000  C
  N41      1.0000 0.38003  0.07511  0.33553  Biso   1.000  N
  H280     1.0000 0.35771  0.09642  0.36820  Biso   1.000  H
  C269     1.0000 0.24712  0.98212  0.35800  Biso   1.000  C
  C270     1.0000 0.15308  0.04290  0.37137  Biso   1.000  C
  H281     1.0000 0.26269  0.16130  0.38080  Biso   1.000  H
  H282     1.0000 0.20439  0.17410  0.36229  Biso   1.000  H
  C271     1.0000 0.52169  0.42357  0.17633  Biso   1.000  C
  H283     1.0000 0.44949  0.36708  0.20480  Biso   1.000  H
  C272     1.0000 0.66481  0.55082  0.18427  Biso   1.000  C
  H284     1.0000 0.68480  0.57867  0.21811  Biso   1.000  H
  C273     1.0000 0.86432  0.15239  0.34764  Biso   1.000  C
  H285     1.0000 0.90362  0.26129  0.36820  Biso   1.000  H
  C274     1.0000 0.01789  0.26498  0.35800  Biso   1.000  C
  C275     1.0000 0.90994  0.49683  0.19967  Biso   1.000  C
  C276     1.0000 0.89523  0.35573  0.20755  Biso   1.000  C
  C277     1.0000 0.45721  0.09458  0.34053  Biso   1.000  C
  H286     1.0000 0.27019  0.94390  0.36229  Biso   1.000  H
  H287     1.0000 0.21369  0.95961  0.34390  Biso   1.000  H
  C278     1.0000 0.18684  0.98113  0.37691  Biso   1.000  C
  H288     1.0000 0.11770  0.04369  0.38409  Biso   1.000  H
  H289     1.0000 0.11552  0.02152  0.35790  Biso   1.000  H
  C279     1.0000 0.60199  0.49102  0.16905  Biso   1.000  C
  C280     1.0000 0.45719  0.36259  0.15947  Biso   1.000  C
  C281     1.0000 0.74957  0.62328  0.17699  Biso   1.000  C
  N42      1.0000 0.77510  0.13629  0.34361  Biso   1.000  N
  C282     1.0000 0.86301  0.09147  0.36680  Biso   1.000  C
  H290     1.0000 0.88612  0.13952  0.33340  Biso   1.000  H
  H291     1.0000 0.05609  0.32629  0.36229  Biso   1.000  H
  H292     1.0000 0.04040  0.25409  0.34390  Biso   1.000  H
  C283     1.0000 0.01890  0.20572  0.37691  Biso   1.000  C
  C284     1.0000 0.90187  0.47829  0.17633  Biso   1.000  C
  H293     1.0000 0.91762  0.55049  0.20480  Biso   1.000  H
  C285     1.0000 0.88599  0.33520  0.18427  Biso   1.000  C
  H294     1.0000 0.89389  0.31521  0.21811  Biso   1.000  H
  C286     1.0000 0.52166  0.09807  0.32367  Biso   1.000  C
  H295     1.0000 0.47491  0.10758  0.35580  Biso   1.000  H
  H296     1.0000 0.13730  0.92173  0.37870  Biso   1.000  H
  H297     1.0000 0.21889  0.99848  0.39139  Biso   1.000  H
  H298     1.0000 0.61488  0.49690  0.15340  Biso   1.000  H
  N43      1.0000 0.37999  0.30491  0.16447  Biso   1.000  N
  H299     1.0000 0.47491  0.36728  0.14420  Biso   1.000  H
  N44      1.0000 0.77510  0.63879  0.15639  Biso   1.000  N
  H300     1.0000 0.78758  0.66077  0.18830  Biso   1.000  H
  C287     1.0000 0.74960  0.12632  0.32301  Biso   1.000  C
  C288     1.0000 0.95709  0.11022  0.37137  Biso   1.000  C
  H301     1.0000 0.83870  0.10137  0.38080  Biso   1.000  H
  H302     1.0000 0.82590  0.03029  0.36229  Biso   1.000  H
  H303     1.0000 0.07832  0.21562  0.37870  Biso   1.000  H
  H304     1.0000 0.00147  0.22037  0.39139  Biso   1.000  H
  C289     1.0000 0.90536  0.54277  0.15947  Biso   1.000  C
  C290     1.0000 0.88897  0.39797  0.16905  Biso   1.000  C
  C291     1.0000 0.87371  0.25040  0.17699  Biso   1.000  C
  C292     1.0000 0.60203  0.11101  0.33095  Biso   1.000  C
  C293     1.0000 0.50321  0.09009  0.30033  Biso   1.000  C
  C294     1.0000 0.32301  0.24822  0.14597  Biso   1.000  C
  C295     1.0000 0.86430  0.71192  0.15236  Biso   1.000  C
  C296     1.0000 0.66479  0.11398  0.31573  Biso   1.000  C
  H305     1.0000 0.78761  0.12678  0.31170  Biso   1.000  H
  H306     1.0000 0.95629  0.07398  0.38409  Biso   1.000  H
  H307     1.0000 0.97852  0.09398  0.35790  Biso   1.000  H
  N45      1.0000 0.92488  0.61998  0.16447  Biso   1.000  N
  H308     1.0000 0.89240  0.52508  0.14420  Biso   1.000  H
  H309     1.0000 0.88202  0.38510  0.15340  Biso   1.000  H
  N46      1.0000 0.86372  0.22492  0.15639  Biso   1.000  N
  H310     1.0000 0.87317  0.21238  0.18830  Biso   1.000  H
  H311     1.0000 0.61490  0.11800  0.34660  Biso   1.000  H
  H312     1.0000 0.44954  0.08243  0.29520  Biso   1.000  H
  C297     1.0000 0.56377  0.09359  0.28465  Biso   1.000  C
  H313     1.0000 0.35767  0.26129  0.13180  Biso   1.000  H
  C298     1.0000 0.24709  0.26498  0.14200  Biso   1.000  C
  C299     1.0000 0.28807  0.15239  0.15236  Biso   1.000  C
  C300     1.0000 0.92521  0.67701  0.14597  Biso   1.000  C
  C301     1.0000 0.86301  0.77152  0.13320  Biso   1.000  C
  H314     1.0000 0.88609  0.74657  0.16660  Biso   1.000  H
  C302     1.0000 0.64431  0.10480  0.29245  Biso   1.000  C
  C303     1.0000 0.84762  0.13569  0.15236  Biso   1.000  C
  C304     1.0000 0.54777  0.08857  0.25997  Biso   1.000  C
  H315     1.0000 0.27020  0.32629  0.13771  Biso   1.000  H
  H316     1.0000 0.21369  0.25409  0.15610  Biso   1.000  H
  C305     1.0000 0.18682  0.20572  0.12309  Biso   1.000  C
  N47      1.0000 0.36118  0.13629  0.15639  Biso   1.000  N
  C306     1.0000 0.22846  0.09147  0.13320  Biso   1.000  C
  H317     1.0000 0.25340  0.13952  0.16660  Biso   1.000  H
  H318     1.0000 0.90362  0.64229  0.13180  Biso   1.000  H
  C307     1.0000 0.01791  0.75290  0.14200  Biso   1.000  C
  C308     1.0000 0.95711  0.84689  0.12863  Biso   1.000  C
  H319     1.0000 0.83871  0.73733  0.11920  Biso   1.000  H
  H320     1.0000 0.82590  0.79561  0.13771  Biso   1.000  H
  H321     1.0000 0.68481  0.10612  0.28189  Biso   1.000  H
  C309     1.0000 0.75178  0.07478  0.14597  Biso   1.000  C
  C310     1.0000 0.90853  0.13701  0.13320  Biso   1.000  C
  H322     1.0000 0.86051  0.11391  0.16660  Biso   1.000  H
  C311     1.0000 0.54080  0.08857  0.24003  Biso   1.000  C
  H323     1.0000 0.13730  0.21562  0.12130  Biso   1.000  H
  H324     1.0000 0.21889  0.22037  0.10861  Biso   1.000  H
  C312     1.0000 0.15313  0.11022  0.12863  Biso   1.000  C
  C313     1.0000 0.37672  0.12632  0.17699  Biso   1.000  C
  H325     1.0000 0.26268  0.10137  0.11920  Biso   1.000  H
  H326     1.0000 0.20439  0.03029  0.13771  Biso   1.000  H
  H327     1.0000 0.05609  0.72981  0.13771  Biso   1.000  H
  H328     1.0000 0.04038  0.78630  0.15610  Biso   1.000  H
  C314     1.0000 0.01892  0.81323  0.12309  Biso   1.000  C
  H329     1.0000 0.95631  0.88233  0.11591  Biso   1.000  H
  H330     1.0000 0.97849  0.88450  0.14210  Biso   1.000  H
  N48      1.0000 0.69507  0.07511  0.16447  Biso   1.000  N
  H331     1.0000 0.73871  0.09642  0.13180  Biso   1.000  H
  C315     1.0000 0.73500  0.98212  0.14200  Biso   1.000  C
  C316     1.0000 0.88982  0.04290  0.12863  Biso   1.000  C
  H332     1.0000 0.89861  0.16130  0.11920  Biso   1.000  H
  H333     1.0000 0.96971  0.17410  0.13771  Biso   1.000  H
  C317     1.0000 0.52982  0.09359  0.21535  Biso   1.000  C
  H334     1.0000 0.11770  0.07398  0.11591  Biso   1.000  H
  H335     1.0000 0.11546  0.09398  0.14210  Biso   1.000  H
  H336     1.0000 0.33917  0.12678  0.18830  Biso   1.000  H
  C318     1.0000 0.44919  0.11398  0.18427  Biso   1.000  C
  H337     1.0000 0.07831  0.86273  0.12130  Biso   1.000  H
  H338     1.0000 0.00148  0.78109  0.10861  Biso   1.000  H
  C319     1.0000 0.63737  0.09458  0.15947  Biso   1.000  C
  H339     1.0000 0.67371  0.94390  0.13771  Biso   1.000  H
  H340     1.0000 0.74592  0.95961  0.15610  Biso   1.000  H
  C320     1.0000 0.79429  0.98113  0.12309  Biso   1.000  C
  H341     1.0000 0.92599  0.04369  0.11591  Biso   1.000  H
  H342     1.0000 0.90599  0.02152  0.14210  Biso   1.000  H
  C321     1.0000 0.58688  0.09009  0.19967  Biso   1.000  C
  C322     1.0000 0.46050  0.10480  0.20755  Biso   1.000  C
  C323     1.0000 0.50898  0.11101  0.16905  Biso   1.000  C
  C324     1.0000 0.57641  0.09807  0.17633  Biso   1.000  C
  H343     1.0000 0.63266  0.10758  0.14420  Biso   1.000  H
  H344     1.0000 0.78442  0.92173  0.12130  Biso   1.000  H
  H345     1.0000 0.77959  0.99848  0.10861  Biso   1.000  H
  H346     1.0000 0.63289  0.08243  0.20480  Biso   1.000  H
  H347     1.0000 0.42132  0.10612  0.21811  Biso   1.000  H
  H348     1.0000 0.50310  0.11800  0.15340  Biso   1.000  H
  C325     1.0000 0.64950  0.50178  0.87113  Biso   1.000  C
  C326     1.0000 0.65762  0.57141  0.88804  Biso   1.000  C
  H349     1.0000 0.62176  0.50587  0.85711  Biso   1.000  H
  H350     1.0000 0.70772  0.51168  0.86730  Biso   1.000  H
  C327     1.0000 0.59500  0.41143  0.88146  Biso   1.000  C
  C328     1.0000 0.56715  0.55656  0.89547  Biso   1.000  C
  H351     1.0000 0.69110  0.62922  0.88099  Biso   1.000  H
  H352     1.0000 0.68969  0.57029  0.90150  Biso   1.000  H
  H353     1.0000 0.62522  0.40602  0.89480  Biso   1.000  H
  H354     1.0000 0.58838  0.36721  0.87030  Biso   1.000  H
  C329     1.0000 0.50461  0.39513  0.88848  Biso   1.000  C
  N49      1.0000 0.58007  0.62104  0.91309  Biso   1.000  N
  H355     1.0000 0.53727  0.56448  0.88220  Biso   1.000  H
  C330     1.0000 0.51052  0.46469  0.90519  Biso   1.000  C
  H356     1.0000 0.47190  0.33738  0.89560  Biso   1.000  H
  H357     1.0000 0.47248  0.39500  0.87490  Biso   1.000  H
  C331     1.0000 0.56470  0.68130  0.90867  Biso   1.000  C
  N50      1.0000 0.42208  0.45024  0.90963  Biso   1.000  N
  H358     1.0000 0.53632  0.45981  0.91970  Biso   1.000  H
  C332     1.0000 0.57809  0.74980  0.92544  Biso   1.000  C
  H359     1.0000 0.54391  0.68328  0.89410  Biso   1.000  H
  C333     1.0000 0.39337  0.43763  0.92986  Biso   1.000  C
  C334     1.0000 0.56360  0.81798  0.92001  Biso   1.000  C
  C335     1.0000 0.60709  0.74631  0.94755  Biso   1.000  C
  C336     1.0000 0.30539  0.42239  0.93615  Biso   1.000  C
  H360     1.0000 0.42992  0.43803  0.94161  Biso   1.000  H
  C337     1.0000 0.57758  0.88299  0.93615  Biso   1.000  C
  H361     1.0000 0.54407  0.82088  0.90531  Biso   1.000  H
  C338     1.0000 0.62139  0.80953  0.96396  Biso   1.000  C
  H362     1.0000 0.61710  0.70037  0.95141  Biso   1.000  H
  C339     1.0000 0.27181  0.39388  0.95802  Biso   1.000  C
  C340     1.0000 0.25437  0.43638  0.92001  Biso   1.000  C
  C341     1.0000 0.60608  0.87791  0.95802  Biso   1.000  C
  C342     1.0000 0.56242  0.95578  0.92986  Biso   1.000  C
  C343     1.0000 0.65459  0.80313  0.98678  Biso   1.000  C
  C344     1.0000 0.18811  0.37863  0.96396  Biso   1.000  C
  H363     1.0000 0.30562  0.38490  0.96890  Biso   1.000  H
  H364     1.0000 0.27683  0.45591  0.90531  Biso   1.000  H
  C345     1.0000 0.17170  0.42193  0.92544  Biso   1.000  C
  H365     1.0000 0.61511  0.92067  0.96890  Biso   1.000  H
  N51      1.0000 0.54975  0.97182  0.90963  Biso   1.000  N
  H366     1.0000 0.56201  0.99188  0.94161  Biso   1.000  H
  H367     1.0000 0.65802  0.75271  0.98989  Biso   1.000  H
  N52      1.0000 0.67837  0.85949  0.00219  Biso   1.000  N
  C346     1.0000 0.14851  0.34537  0.98678  Biso   1.000  C
  C347     1.0000 0.13917  0.39289  0.94755  Biso   1.000  C
  C348     1.0000 0.11661  0.43532  0.90867  Biso   1.000  C
  C349     1.0000 0.53530  0.04580  0.90519  Biso   1.000  C
  C350     1.0000 0.71557  0.84438  0.02321  Biso   1.000  C
  H368     1.0000 0.09470  0.34200  0.98989  Biso   1.000  H
  N53      1.0000 0.18109  0.32161  0.00219  Biso   1.000  N
  H369     1.0000 0.08332  0.38292  0.95141  Biso   1.000  H
  N54      1.0000 0.04096  0.41995  0.91309  Biso   1.000  N
  H370     1.0000 0.13941  0.45611  0.89410  Biso   1.000  H
  C351     1.0000 0.44344  0.01056  0.89547  Biso   1.000  C
  C352     1.0000 0.60487  0.10949  0.88848  Biso   1.000  C
  H371     1.0000 0.54019  0.07649  0.91970  Biso   1.000  H
  C353     1.0000 0.66836  0.85170  0.04412  Biso   1.000  C
  C354     1.0000 0.81387  0.91170  0.02456  Biso   1.000  C
  H372     1.0000 0.70790  0.78491  0.02270  Biso   1.000  H
  C355     1.0000 0.12879  0.28445  0.02321  Biso   1.000  C
  C356     1.0000 0.98942  0.43288  0.89547  Biso   1.000  C
  N55      1.0000 0.37897  0.95902  0.91309  Biso   1.000  N
  H373     1.0000 0.43548  0.97281  0.88220  Biso   1.000  H
  C357     1.0000 0.42861  0.08619  0.88804  Biso   1.000  C
  C358     1.0000 0.58860  0.18361  0.88146  Biso   1.000  C
  H374     1.0000 0.66259  0.13450  0.89560  Biso   1.000  H
  H375     1.0000 0.60498  0.07748  0.87490  Biso   1.000  H
  N56      1.0000 0.57679  0.78023  0.04376  Biso   1.000  N
  H376     1.0000 0.67017  0.90859  0.04389  Biso   1.000  H
  C359     1.0000 0.71099  0.84378  0.06612  Biso   1.000  C
  C360     1.0000 0.85411  0.89843  0.04603  Biso   1.000  C
  H377     1.0000 0.84349  0.90589  0.01111  Biso   1.000  H
  H378     1.0000 0.82212  0.97083  0.02461  Biso   1.000  H
  C361     1.0000 0.18337  0.33164  0.04412  Biso   1.000  C
  C362     1.0000 0.09780  0.18611  0.02456  Biso   1.000  C
  H379     1.0000 0.07701  0.29211  0.02270  Biso   1.000  H
  H380     1.0000 0.02719  0.46271  0.88220  Biso   1.000  H
  C363     1.0000 0.91383  0.34240  0.88804  Biso   1.000  C
  C364     1.0000 0.95423  0.48951  0.90519  Biso   1.000  C
  C365     1.0000 0.31869  0.88338  0.90867  Biso   1.000  C
  H381     1.0000 0.37080  0.06191  0.88099  Biso   1.000  H
  H382     1.0000 0.42972  0.11939  0.90150  Biso   1.000  H
  C366     1.0000 0.49818  0.14770  0.87113  Biso   1.000  C
  H383     1.0000 0.59399  0.21918  0.89480  Biso   1.000  H
  H384     1.0000 0.63279  0.22123  0.87030  Biso   1.000  H
  C367     1.0000 0.51713  0.79831  0.04221  Biso   1.000  C
  H385     1.0000 0.70120  0.78432  0.06740  Biso   1.000  H
  H386     1.0000 0.68322  0.85421  0.07930  Biso   1.000  H
  C368     1.0000 0.81001  0.90912  0.06680  Biso   1.000  C
  H387     1.0000 0.84710  0.83982  0.04591  Biso   1.000  H
  H388     1.0000 0.91670  0.94120  0.04649  Biso   1.000  H
  N57      1.0000 0.20342  0.42318  0.04376  Biso   1.000  N
  H389     1.0000 0.23840  0.32979  0.04389  Biso   1.000  H
  C369     1.0000 0.13279  0.28901  0.06612  Biso   1.000  C
  C370     1.0000 0.04433  0.14592  0.04603  Biso   1.000  C
  H390     1.0000 0.06241  0.15648  0.01111  Biso   1.000  H
  H391     1.0000 0.14869  0.17793  0.02461  Biso   1.000  H
  H392     1.0000 0.93810  0.30887  0.88099  Biso   1.000  H
  H393     1.0000 0.88058  0.31032  0.90150  Biso   1.000  H
  C371     1.0000 0.85233  0.35052  0.87113  Biso   1.000  C
  N58      1.0000 0.02817  0.57794  0.90963  Biso   1.000  N
  C372     1.0000 0.89047  0.49538  0.88848  Biso   1.000  C
  H394     1.0000 0.92349  0.46370  0.91970  Biso   1.000  H
  C373     1.0000 0.25021  0.82827  0.92544  Biso   1.000  C
  H395     1.0000 0.31668  0.86061  0.89410  Biso   1.000  H
  H396     1.0000 0.49410  0.11589  0.85711  Biso   1.000  H
  H397     1.0000 0.48832  0.19601  0.86730  Biso   1.000  H
  C374     1.0000 0.42236  0.73040  0.04197  Biso   1.000  C
  H398     1.0000 0.53248  0.85738  0.04121  Biso   1.000  H
  H399     1.0000 0.82013  0.96892  0.06730  Biso   1.000  H
  H400     1.0000 0.83522  0.89929  0.08061  Biso   1.000  H
  C375     1.0000 0.28123  0.48291  0.04221  Biso   1.000  C
  H401     1.0000 0.08309  0.29877  0.06740  Biso   1.000  H
  H402     1.0000 0.17097  0.31679  0.07930  Biso   1.000  H
  C376     1.0000 0.09912  0.19001  0.06680  Biso   1.000  C
  H403     1.0000 0.99273  0.15292  0.04591  Biso   1.000  H
  H404     1.0000 0.02450  0.08329  0.04649  Biso   1.000  H
  H405     1.0000 0.88410  0.37817  0.85711  Biso   1.000  H
  H406     1.0000 0.80402  0.29231  0.86730  Biso   1.000  H
  C377     1.0000 0.81643  0.40503  0.88146  Biso   1.000  C
  C378     1.0000 0.04424  0.60665  0.92986  Biso   1.000  C
  H407     1.0000 0.86551  0.52812  0.89560  Biso   1.000  H
  H408     1.0000 0.92248  0.52752  0.87490  Biso   1.000  H
  C379     1.0000 0.18204  0.74565  0.92001  Biso   1.000  C
  C380     1.0000 0.25368  0.86081  0.94755  Biso   1.000  C
  C381     1.0000 0.35928  0.75548  0.04203  Biso   1.000  C
  C382     1.0000 0.39620  0.64071  0.04203  Biso   1.000  C
  C383     1.0000 0.30801  0.57761  0.04197  Biso   1.000  C
  H409     1.0000 0.32493  0.46753  0.04121  Biso   1.000  H
  H410     1.0000 0.14883  0.17991  0.06730  Biso   1.000  H
  H411     1.0000 0.06411  0.16480  0.08061  Biso   1.000  H
  H412     1.0000 0.78079  0.37480  0.89480  Biso   1.000  H
  H413     1.0000 0.77880  0.41163  0.87030  Biso   1.000  H
  C384     1.0000 0.11703  0.69463  0.93615  Biso   1.000  C
  H414     1.0000 0.00807  0.57009  0.94161  Biso   1.000  H
  H415     1.0000 0.17910  0.72321  0.90531  Biso   1.000  H
  C385     1.0000 0.19053  0.81191  0.96396  Biso   1.000  C
  H416     1.0000 0.29963  0.91671  0.95141  Biso   1.000  H
  H417     1.0000 0.37639  0.81507  0.04210  Biso   1.000  H
  C386     1.0000 0.26963  0.69199  0.04197  Biso   1.000  C
  H418     1.0000 0.43869  0.62361  0.04210  Biso   1.000  H
  C387     1.0000 0.24449  0.60375  0.04203  Biso   1.000  C
  C388     1.0000 0.12211  0.72822  0.95802  Biso   1.000  C
  C389     1.0000 0.19690  0.85151  0.98678  Biso   1.000  C
  C390     1.0000 0.20164  0.71878  0.04221  Biso   1.000  C
  H419     1.0000 0.18492  0.56131  0.04210  Biso   1.000  H
  H420     1.0000 0.07933  0.69443  0.96890  Biso   1.000  H
  H421     1.0000 0.24729  0.90529  0.98989  Biso   1.000  H
  N59      1.0000 0.14053  0.81890  0.00219  Biso   1.000  N
  N60      1.0000 0.21980  0.79660  0.04376  Biso   1.000  N
  H422     1.0000 0.14259  0.67509  0.04121  Biso   1.000  H
  C391     1.0000 0.15567  0.87124  0.02321  Biso   1.000  C
  C392     1.0000 0.14827  0.81666  0.04412  Biso   1.000  C
  C393     1.0000 0.08827  0.90219  0.02456  Biso   1.000  C
  H423     1.0000 0.21509  0.92298  0.02270  Biso   1.000  H
  H424     1.0000 0.09143  0.76162  0.04389  Biso   1.000  H
  C394     1.0000 0.15623  0.86721  0.06612  Biso   1.000  C
  C395     1.0000 0.10160  0.95572  0.04603  Biso   1.000  C
  H425     1.0000 0.09407  0.93757  0.01111  Biso   1.000  H
  H426     1.0000 0.02922  0.85131  0.02461  Biso   1.000  H
  H427     1.0000 0.21571  0.91691  0.06740  Biso   1.000  H
  H428     1.0000 0.14581  0.82900  0.07930  Biso   1.000  H
  C396     1.0000 0.09087  0.90087  0.06680  Biso   1.000  C
  H429     1.0000 0.05880  0.97552  0.04649  Biso   1.000  H
  H430     1.0000 0.16021  0.00733  0.04591  Biso   1.000  H
  H431     1.0000 0.03110  0.85118  0.06730  Biso   1.000  H
  H432     1.0000 0.10073  0.93592  0.08061  Biso   1.000  H
  C397     1.0000 0.50181  0.64949  0.12887  Biso   1.000  C
  C398     1.0000 0.41140  0.59497  0.11854  Biso   1.000  C
  C399     1.0000 0.57143  0.65760  0.11196  Biso   1.000  C
  H433     1.0000 0.50593  0.62183  0.14289  Biso   1.000  H
  H434     1.0000 0.51171  0.70770  0.13270  Biso   1.000  H
  C400     1.0000 0.39509  0.50462  0.11152  Biso   1.000  C
  H435     1.0000 0.40599  0.62520  0.10520  Biso   1.000  H
  H436     1.0000 0.36717  0.58837  0.12970  Biso   1.000  H
  C401     1.0000 0.55654  0.56712  0.10453  Biso   1.000  C
  H437     1.0000 0.62923  0.69113  0.11901  Biso   1.000  H
  H438     1.0000 0.57026  0.68968  0.09850  Biso   1.000  H
  H439     1.0000 0.33739  0.47189  0.10440  Biso   1.000  H
  H440     1.0000 0.39496  0.47248  0.12510  Biso   1.000  H
  C402     1.0000 0.46472  0.51049  0.09481  Biso   1.000  C
  N61      1.0000 0.62102  0.58006  0.08691  Biso   1.000  N
  H441     1.0000 0.56448  0.53729  0.11780  Biso   1.000  H
  N62      1.0000 0.45023  0.42206  0.09037  Biso   1.000  N
  H442     1.0000 0.45979  0.53630  0.08030  Biso   1.000  H
  C403     1.0000 0.68129  0.56468  0.09133  Biso   1.000  C
  C404     1.0000 0.43759  0.39335  0.07014  Biso   1.000  C
  C405     1.0000 0.74977  0.57808  0.07456  Biso   1.000  C
  H443     1.0000 0.68330  0.54389  0.10590  Biso   1.000  H
  C406     1.0000 0.42241  0.30537  0.06385  Biso   1.000  C
  H444     1.0000 0.43798  0.42991  0.05839  Biso   1.000  H
  C407     1.0000 0.81799  0.56362  0.07999  Biso   1.000  C
  C408     1.0000 0.74629  0.60712  0.05245  Biso   1.000  C
  C409     1.0000 0.39389  0.27178  0.04198  Biso   1.000  C
  C410     1.0000 0.43639  0.25436  0.07999  Biso   1.000  C
  C411     1.0000 0.88300  0.57761  0.06385  Biso   1.000  C
  H445     1.0000 0.82091  0.54409  0.09469  Biso   1.000  H
  C412     1.0000 0.80949  0.62137  0.03604  Biso   1.000  C
  H446     1.0000 0.70040  0.61708  0.04859  Biso   1.000  H
  C413     1.0000 0.37863  0.18809  0.03604  Biso   1.000  C
  H447     1.0000 0.38490  0.30557  0.03110  Biso   1.000  H
  H448     1.0000 0.45590  0.27680  0.09469  Biso   1.000  H
  C414     1.0000 0.42194  0.17173  0.07456  Biso   1.000  C
  C415     1.0000 0.87794  0.60613  0.04198  Biso   1.000  C
  C416     1.0000 0.95574  0.56237  0.07014  Biso   1.000  C
  C417     1.0000 0.80311  0.65457  0.01322  Biso   1.000  C
  C418     1.0000 0.34540  0.14850  0.01322  Biso   1.000  C
  C419     1.0000 0.39287  0.13919  0.05245  Biso   1.000  C
  C420     1.0000 0.43531  0.11662  0.09133  Biso   1.000  C
  H449     1.0000 0.92072  0.61510  0.03110  Biso   1.000  H
  N63      1.0000 0.97184  0.54976  0.09037  Biso   1.000  N
  H450     1.0000 0.99189  0.56197  0.05839  Biso   1.000  H
  H451     1.0000 0.75270  0.65800  0.01011  Biso   1.000  H
  N64      1.0000 0.85949  0.67839  0.99781  Biso   1.000  N
  H452     1.0000 0.34199  0.09471  0.01011  Biso   1.000  H
  N65      1.0000 0.32163  0.18110  0.99781  Biso   1.000  N
  H453     1.0000 0.38292  0.08329  0.04859  Biso   1.000  H
  N66      1.0000 0.41996  0.04098  0.08691  Biso   1.000  N
  H454     1.0000 0.45607  0.13939  0.10590  Biso   1.000  H
  C421     1.0000 0.04583  0.53531  0.09481  Biso   1.000  C
  C422     1.0000 0.84434  0.71555  0.97679  Biso   1.000  C
  C423     1.0000 0.28443  0.12876  0.97679  Biso   1.000  C
  C424     1.0000 0.43288  0.98944  0.10453  Biso   1.000  C
  C425     1.0000 0.01059  0.44344  0.10453  Biso   1.000  C
  C426     1.0000 0.10948  0.60487  0.11152  Biso   1.000  C
  H455     1.0000 0.07651  0.54019  0.08030  Biso   1.000  H
  C427     1.0000 0.85173  0.66836  0.95588  Biso   1.000  C
  C428     1.0000 0.91169  0.81389  0.97544  Biso   1.000  C
  H456     1.0000 0.78490  0.70789  0.97730  Biso   1.000  H
  C429     1.0000 0.33161  0.18334  0.95588  Biso   1.000  C
  C430     1.0000 0.18608  0.09781  0.97544  Biso   1.000  C
  H457     1.0000 0.29211  0.07702  0.97730  Biso   1.000  H
  H458     1.0000 0.46267  0.02719  0.11780  Biso   1.000  H
  C431     1.0000 0.34242  0.91381  0.11196  Biso   1.000  C
  C432     1.0000 0.48950  0.95420  0.09481  Biso   1.000  C
  N67      1.0000 0.95903  0.37896  0.08691  Biso   1.000  N
  H459     1.0000 0.97279  0.43552  0.11780  Biso   1.000  H
  C433     1.0000 0.08621  0.42859  0.11196  Biso   1.000  C
  C434     1.0000 0.18357  0.58857  0.11854  Biso   1.000  C
  H460     1.0000 0.13452  0.66262  0.10440  Biso   1.000  H
  H461     1.0000 0.07748  0.60500  0.12510  Biso   1.000  H
  N68      1.0000 0.78024  0.57682  0.95624  Biso   1.000  N
  H462     1.0000 0.90861  0.67021  0.95611  Biso   1.000  H
  C435     1.0000 0.84378  0.71100  0.93388  Biso   1.000  C
  C436     1.0000 0.89840  0.85408  0.95397  Biso   1.000  C
  H463     1.0000 0.90593  0.84352  0.98889  Biso   1.000  H
  H464     1.0000 0.97076  0.82207  0.97539  Biso   1.000  H
  N69      1.0000 0.42320  0.20341  0.95624  Biso   1.000  N
  H465     1.0000 0.32981  0.23838  0.95611  Biso   1.000  H
  C437     1.0000 0.28902  0.13279  0.93388  Biso   1.000  C
  C438     1.0000 0.14588  0.04428  0.95397  Biso   1.000  C
  H466     1.0000 0.15647  0.06237  0.98889  Biso   1.000  H
  H467     1.0000 0.17791  0.14869  0.97539  Biso   1.000  H
  H468     1.0000 0.30890  0.93810  0.11901  Biso   1.000  H
  H469     1.0000 0.31033  0.88061  0.09850  Biso   1.000  H
  C439     1.0000 0.35047  0.85230  0.12887  Biso   1.000  C
  N70      1.0000 0.57793  0.02818  0.09037  Biso   1.000  N
  C440     1.0000 0.49538  0.89051  0.11152  Biso   1.000  C
  H470     1.0000 0.46370  0.92351  0.08030  Biso   1.000  H
  C441     1.0000 0.88340  0.31870  0.09133  Biso   1.000  C
  H471     1.0000 0.06187  0.37078  0.11901  Biso   1.000  H
  H472     1.0000 0.11941  0.42971  0.09850  Biso   1.000  H
  C442     1.0000 0.14771  0.49822  0.12887  Biso   1.000  C
  H473     1.0000 0.21920  0.59398  0.10520  Biso   1.000  H
  H474     1.0000 0.22117  0.63279  0.12970  Biso   1.000  H
  C443     1.0000 0.79833  0.51709  0.95779  Biso   1.000  C
  H475     1.0000 0.78431  0.70123  0.93260  Biso   1.000  H
  H476     1.0000 0.85418  0.68321  0.92070  Biso   1.000  H
  C444     1.0000 0.90911  0.80999  0.93320  Biso   1.000  C
  H477     1.0000 0.83981  0.84708  0.95409  Biso   1.000  H
  H478     1.0000 0.94121  0.91671  0.95351  Biso   1.000  H
  C445     1.0000 0.48286  0.28122  0.95779  Biso   1.000  C
  H479     1.0000 0.29880  0.08309  0.93260  Biso   1.000  H
  H480     1.0000 0.31681  0.17100  0.92070  Biso   1.000  H
  C446     1.0000 0.19000  0.09913  0.93320  Biso   1.000  C
  H481     1.0000 0.15289  0.99268  0.95409  Biso   1.000  H
  H482     1.0000 0.08329  0.02449  0.95351  Biso   1.000  H
  H483     1.0000 0.37821  0.88411  0.14289  Biso   1.000  H
  H484     1.0000 0.29231  0.80399  0.13270  Biso   1.000  H
  C447     1.0000 0.40500  0.81639  0.11854  Biso   1.000  C
  C448     1.0000 0.60664  0.04422  0.07014  Biso   1.000  C
  H485     1.0000 0.52808  0.86550  0.10440  Biso   1.000  H
  H486     1.0000 0.52750  0.92252  0.12510  Biso   1.000  H
  C449     1.0000 0.82829  0.25020  0.07456  Biso   1.000  C
  H487     1.0000 0.86064  0.31672  0.10590  Biso   1.000  H
  H488     1.0000 0.11589  0.49413  0.14289  Biso   1.000  H
  H489     1.0000 0.19603  0.48832  0.13270  Biso   1.000  H
  C450     1.0000 0.73040  0.42239  0.95803  Biso   1.000  C
  H490     1.0000 0.85740  0.53247  0.95879  Biso   1.000  H
  H491     1.0000 0.96892  0.82009  0.93270  Biso   1.000  H
  H492     1.0000 0.89931  0.83520  0.91939  Biso   1.000  H
  C451     1.0000 0.57765  0.30801  0.95803  Biso   1.000  C
  H493     1.0000 0.46750  0.32491  0.95879  Biso   1.000  H
  H494     1.0000 0.17992  0.14883  0.93270  Biso   1.000  H
  H495     1.0000 0.16482  0.06408  0.91939  Biso   1.000  H
  H496     1.0000 0.37481  0.78082  0.10520  Biso   1.000  H
  H497     1.0000 0.41156  0.77878  0.12970  Biso   1.000  H
  C452     1.0000 0.69460  0.11701  0.06385  Biso   1.000  C
  H498     1.0000 0.57013  0.00812  0.05839  Biso   1.000  H
  C453     1.0000 0.74562  0.18202  0.07999  Biso   1.000  C
  C454     1.0000 0.86079  0.25370  0.05245  Biso   1.000  C
  C455     1.0000 0.64074  0.39625  0.95797  Biso   1.000  C
  C456     1.0000 0.75549  0.35929  0.95797  Biso   1.000  C
  C457     1.0000 0.60380  0.24452  0.95797  Biso   1.000  C
  C458     1.0000 0.72817  0.12210  0.04198  Biso   1.000  C
  H499     1.0000 0.72319  0.17912  0.09469  Biso   1.000  H
  C459     1.0000 0.81186  0.19047  0.03604  Biso   1.000  C
  H500     1.0000 0.91673  0.29963  0.04859  Biso   1.000  H
  H501     1.0000 0.62361  0.43869  0.95790  Biso   1.000  H
  C460     1.0000 0.69196  0.26960  0.95803  Biso   1.000  C
  H502     1.0000 0.81508  0.37639  0.95790  Biso   1.000  H
  H503     1.0000 0.56131  0.18493  0.95790  Biso   1.000  H
  H504     1.0000 0.69444  0.07933  0.03110  Biso   1.000  H
  C461     1.0000 0.85147  0.19687  0.01322  Biso   1.000  C
  C462     1.0000 0.71881  0.20169  0.95779  Biso   1.000  C
  H505     1.0000 0.90531  0.24729  0.01011  Biso   1.000  H
  N71      1.0000 0.81888  0.14051  0.99781  Biso   1.000  N
  N72      1.0000 0.79656  0.21977  0.95624  Biso   1.000  N
  H506     1.0000 0.67511  0.14262  0.95879  Biso   1.000  H
  C463     1.0000 0.87119  0.15562  0.97679  Biso   1.000  C
  C464     1.0000 0.81666  0.14830  0.95588  Biso   1.000  C
  C465     1.0000 0.90218  0.08831  0.97544  Biso   1.000  C
  H507     1.0000 0.92299  0.21509  0.97730  Biso   1.000  H
  H508     1.0000 0.76158  0.09141  0.95611  Biso   1.000  H
  C466     1.0000 0.86720  0.15622  0.93388  Biso   1.000  C
  C467     1.0000 0.95568  0.10157  0.95397  Biso   1.000  C
  H509     1.0000 0.93760  0.09411  0.98889  Biso   1.000  H
  H510     1.0000 0.85129  0.02917  0.97539  Biso   1.000  H
  H511     1.0000 0.91688  0.21568  0.93260  Biso   1.000  H
  H512     1.0000 0.82901  0.14579  0.92070  Biso   1.000  H
  C468     1.0000 0.90089  0.09088  0.93320  Biso   1.000  C
  H513     1.0000 0.97550  0.05880  0.95351  Biso   1.000  H
  H514     1.0000 0.00727  0.16018  0.95409  Biso   1.000  H
  H515     1.0000 0.85122  0.03109  0.93270  Biso   1.000  H
  H516     1.0000 0.93593  0.10071  0.91939  Biso   1.000  H
  Ne1      1.0000 0.66667  0.33333  0.46685  Biso   1.000  Ne
  He1      1.0000 0.58870  0.14693  0.48568  Biso   1.000  He
  He2      1.0000 0.83467  0.43131  0.48409  Biso   1.000  He
  He3      1.0000 0.56041  0.40970  0.48535  Biso   1.000  He
  He4      1.0000 0.66668  0.33335  0.41819  Biso   1.000  He
  Ar1      1.0000 0.66668  0.33336  0.46685  Biso   1.000  Ar
  Ne2      1.0000 0.33334  0.66667  0.53315  Biso   1.000  Ne
  He5      1.0000 0.33333  0.66665  0.58287  Biso   1.000  He
  He6      1.0000 0.43910  0.84838  0.51473  Biso   1.000  He
  He7      1.0000 0.41093  0.55881  0.51441  Biso   1.000  He
  He8      1.0000 0.16157  0.59501  0.51558  Biso   1.000  He
  Ar2      1.0000 0.33332  0.66664  0.53315  Biso   1.000  Ar
  Ne3      1.0000 0.33333  0.66667  0.75000  Biso   1.000  Ne
  He9      1.0000 0.33331  0.66665  0.83378  Biso   1.000  He
  He10     1.0000 0.24087  0.41855  0.75940  Biso   1.000  He
  He11     1.0000 0.23636  0.84043  0.73857  Biso   1.000  He
  He12     1.0000 0.58913  0.75985  0.73967  Biso   1.000  He
  He13     1.0000 0.33334  0.66665  0.66725  Biso   1.000  He
  Ar3      1.0000 0.33333  0.66667  0.75000  Biso   1.000  Ar
  Ne4      1.0000 0.66667  0.33333  0.25000  Biso   1.000  Ne
  He14     1.0000 0.66670  0.33334  0.33309  Biso   1.000  He
  He15     1.0000 0.75943  0.58468  0.25979  Biso   1.000  He
  He16     1.0000 0.83763  0.23845  0.26132  Biso   1.000  He
  He17     1.0000 0.41863  0.17775  0.25939  Biso   1.000  He
  He18     1.0000 0.66665  0.33335  0.16612  Biso   1.000  He
  Ar4      1.0000 0.66667  0.33333  0.25000  Biso   1.000  Ar
  Ne5      1.0000 0.33333  0.66667  0.96685  Biso   1.000  Ne
  He19     1.0000 0.16555  0.56881  0.98407  Biso   1.000  He
  He20     1.0000 0.40203  0.83168  0.98384  Biso   1.000  He
  He21     1.0000 0.42598  0.60074  0.98329  Biso   1.000  He
  He22     1.0000 0.33333  0.66665  0.91697  Biso   1.000  He
  Ar5      1.0000 0.33332  0.66664  0.96685  Biso   1.000  Ar
  Ne6      1.0000 0.66666  0.33333  0.03315  Biso   1.000  Ne
  He23     1.0000 0.66667  0.33335  0.08232  Biso   1.000  He
  He24     1.0000 0.83430  0.40320  0.01594  Biso   1.000  He
  He25     1.0000 0.57183  0.17094  0.01639  Biso   1.000  He
  He26     1.0000 0.59959  0.42748  0.01649  Biso   1.000  He
  Ar6      1.0000 0.66668  0.33336  0.03315  Biso   1.000  Ar
