data_image0
_cell_length_a       44.854
_cell_length_b       16.571
_cell_length_c       41.878
_cell_angle_alpha    90
_cell_angle_beta     107.7
_cell_angle_gamma    90

_symmetry_space_group_name_H-M    "P 1"
_symmetry_int_tables_number       1

loop_
  _symmetry_equiv_pos_as_xyz
  'x, y, z'

loop_
  _atom_site_label
  _atom_site_occupancy
  _atom_site_fract_x
  _atom_site_fract_y
  _atom_site_fract_z
  _atom_site_thermal_displace_type
  _atom_site_B_iso_or_equiv
  _atom_site_type_symbol
  C1       1.0000 0.55146  0.50190  0.54084  Biso   1.000  C
  C2       1.0000 0.53963  0.43588  0.55934  Biso   1.000  C
  C3       1.0000 0.54603  0.57703  0.55194  Biso   1.000  C
  C4       1.0000 0.56688  0.49321  0.51710  Biso   1.000  C
  C5       1.0000 0.52168  0.36763  0.53409  Biso   1.000  C
  C6       1.0000 0.52093  0.48253  0.58024  Biso   1.000  C
  C7       1.0000 0.56608  0.39503  0.58520  Biso   1.000  C
  C8       1.0000 0.52743  0.57534  0.57668  Biso   1.000  C
  C9       1.0000 0.55694  0.64540  0.53948  Biso   1.000  C
  H1       1.0000 0.56959  0.44113  0.50890  Biso   1.000  H
  C10      1.0000 0.57827  0.56014  0.50539  Biso   1.000  C
  C11      1.0000 0.51568  0.28912  0.54918  Biso   1.000  C
  H2       1.0000 0.53388  0.35568  0.51850  Biso   1.000  H
  H3       1.0000 0.50127  0.38984  0.52048  Biso   1.000  H
  C12      1.0000 0.53735  0.45972  0.61854  Biso   1.000  C
  C13      1.0000 0.48565  0.46111  0.56788  Biso   1.000  C
  C14      1.0000 0.56414  0.40480  0.61724  Biso   1.000  C
  C15      1.0000 0.59078  0.35381  0.58009  Biso   1.000  C
  C16      1.0000 0.54678  0.60159  0.61162  Biso   1.000  C
  C17      1.0000 0.49798  0.63140  0.56350  Biso   1.000  C
  C18      1.0000 0.57309  0.63720  0.51650  Biso   1.000  C
  H4       1.0000 0.55317  0.69760  0.54680  Biso   1.000  H
  N1       1.0000 0.59369  0.54939  0.48015  Biso   1.000  N
  C19      1.0000 0.50437  0.22352  0.52379  Biso   1.000  C
  H5       1.0000 0.49988  0.29823  0.56089  Biso   1.000  H
  H6       1.0000 0.53528  0.27132  0.56600  Biso   1.000  H
  C20      1.0000 0.55178  0.53793  0.63403  Biso   1.000  C
  C21      1.0000 0.51742  0.42019  0.63919  Biso   1.000  C
  H7       1.0000 0.48297  0.40311  0.57069  Biso   1.000  H
  H8       1.0000 0.47699  0.47553  0.54420  Biso   1.000  H
  H9       1.0000 0.47469  0.49122  0.58109  Biso   1.000  H
  C22      1.0000 0.58568  0.36510  0.64358  Biso   1.000  C
  C23      1.0000 0.61268  0.31573  0.60588  Biso   1.000  C
  H10      1.0000 0.59279  0.35164  0.55818  Biso   1.000  H
  C24      1.0000 0.56034  0.67691  0.62050  Biso   1.000  C
  H11      1.0000 0.48309  0.60401  0.54410  Biso   1.000  H
  H12      1.0000 0.50488  0.68143  0.55480  Biso   1.000  H
  C25      1.0000 0.48018  0.65590  0.58708  Biso   1.000  C
  H13      1.0000 0.58058  0.68360  0.50810  Biso   1.000  H
  C26      1.0000 0.61928  0.58651  0.48359  Biso   1.000  C
  H14      1.0000 0.50098  0.17410  0.53510  Biso   1.000  H
  H15      1.0000 0.52017  0.21320  0.51239  Biso   1.000  H
  H16      1.0000 0.48477  0.24012  0.50730  Biso   1.000  H
  C27      1.0000 0.56919  0.55283  0.66732  Biso   1.000  C
  H17      1.0000 0.53208  0.39714  0.65990  Biso   1.000  H
  H18      1.0000 0.50578  0.37439  0.62598  Biso   1.000  H
  C28      1.0000 0.49418  0.47191  0.64960  Biso   1.000  C
  H19      1.0000 0.58347  0.36733  0.66549  Biso   1.000  H
  C29      1.0000 0.60979  0.32352  0.63849  Biso   1.000  C
  H20      1.0000 0.62918  0.28514  0.60210  Biso   1.000  H
  H21      1.0000 0.55668  0.71969  0.60470  Biso   1.000  H
  C30      1.0000 0.57928  0.68741  0.65290  Biso   1.000  C
  H22      1.0000 0.47578  0.60739  0.59869  Biso   1.000  H
  H23      1.0000 0.49329  0.69290  0.60430  Biso   1.000  H
  C31      1.0000 0.44928  0.69785  0.56848  Biso   1.000  C
  H24      1.0000 0.62768  0.62024  0.50249  Biso   1.000  H
  C32      1.0000 0.63599  0.57794  0.45857  Biso   1.000  C
  C33      1.0000 0.58348  0.62634  0.67659  Biso   1.000  C
  H25      1.0000 0.57118  0.51180  0.68369  Biso   1.000  H
  H26      1.0000 0.47729  0.48832  0.62929  Biso   1.000  H
  H27      1.0000 0.50488  0.52151  0.66050  Biso   1.000  H
  C34      1.0000 0.48007  0.42979  0.67318  Biso   1.000  C
  N2       1.0000 0.63029  0.27910  0.66556  Biso   1.000  N
  N3       1.0000 0.59482  0.76392  0.66052  Biso   1.000  N
  H28      1.0000 0.43829  0.71299  0.58450  Biso   1.000  H
  H29      1.0000 0.43618  0.66103  0.55169  Biso   1.000  H
  H30      1.0000 0.45369  0.74642  0.55731  Biso   1.000  H
  C35      1.0000 0.62408  0.53274  0.42950  Biso   1.000  C
  C36      1.0000 0.66559  0.61203  0.46569  Biso   1.000  C
  H31      1.0000 0.59598  0.63521  0.69910  Biso   1.000  H
  H32      1.0000 0.46527  0.46599  0.67900  Biso   1.000  H
  H33      1.0000 0.49668  0.41452  0.69359  Biso   1.000  H
  H34      1.0000 0.46908  0.38133  0.66240  Biso   1.000  H
  C37      1.0000 0.65928  0.27482  0.66910  Biso   1.000  C
  C38      1.0000 0.62358  0.76670  0.67599  Biso   1.000  C
  C39      1.0000 0.64038  0.52610  0.40609  Biso   1.000  C
  O1       1.0000 0.59510  0.49701  0.42190  Biso   1.000  O
  C40      1.0000 0.68270  0.60389  0.44311  Biso   1.000  C
  H35      1.0000 0.67409  0.64100  0.48599  Biso   1.000  H
  H36      1.0000 0.66738  0.30252  0.65368  Biso   1.000  H
  C41      1.0000 0.68087  0.22823  0.69649  Biso   1.000  C
  H37      1.0000 0.63458  0.71740  0.68238  Biso   1.000  H
  C42      1.0000 0.64093  0.84171  0.68449  Biso   1.000  C
  H38      1.0000 0.63138  0.49943  0.38541  Biso   1.000  H
  C43      1.0000 0.67009  0.55971  0.41401  Biso   1.000  C
  H39      1.0000 0.58609  0.51180  0.43579  Biso   1.000  H
  C44      1.0000 0.71489  0.63859  0.45190  Biso   1.000  C
  C45      1.0000 0.67028  0.19021  0.72058  Biso   1.000  C
  C46      1.0000 0.71265  0.22678  0.70045  Biso   1.000  C
  C47      1.0000 0.62688  0.91612  0.67358  Biso   1.000  C
  C48      1.0000 0.67323  0.83954  0.70013  Biso   1.000  C
  H40      1.0000 0.68208  0.55211  0.39899  Biso   1.000  H
  C49      1.0000 0.72539  0.68312  0.42950  Biso   1.000  C
  C50      1.0000 0.73607  0.62151  0.48309  Biso   1.000  C
  C51      1.0000 0.69117  0.14978  0.74730  Biso   1.000  C
  O2       1.0000 0.63925  0.18623  0.71715  Biso   1.000  O
  C52      1.0000 0.73418  0.18852  0.72720  Biso   1.000  C
  H41      1.0000 0.72008  0.25309  0.68419  Biso   1.000  H
  C53      1.0000 0.64438  0.98564  0.68150  Biso   1.000  C
  O3       1.0000 0.59576  0.92161  0.65717  Biso   1.000  O
  C54      1.0000 0.69112  0.90882  0.70785  Biso   1.000  C
  H42      1.0000 0.68328  0.78861  0.70559  Biso   1.000  H
  C55      1.0000 0.75608  0.71022  0.43890  Biso   1.000  C
  H43      1.0000 0.71169  0.69501  0.40779  Biso   1.000  H
  C56      1.0000 0.76669  0.64661  0.49269  Biso   1.000  C
  H44      1.0000 0.72908  0.59073  0.49850  Biso   1.000  H
  H45      1.0000 0.68368  0.12130  0.76309  Biso   1.000  H
  C57      1.0000 0.72238  0.15171  0.75058  Biso   1.000  C
  H46      1.0000 0.62968  0.22220  0.70379  Biso   1.000  H
  C58      1.0000 0.76844  0.18840  0.73033  Biso   1.000  C
  C59      1.0000 0.67617  0.98190  0.69689  Biso   1.000  C
  H47      1.0000 0.63447  0.03663  0.67619  Biso   1.000  H
  H48      1.0000 0.58828  0.87502  0.65240  Biso   1.000  H
  C60      1.0000 0.72612  0.90592  0.72394  Biso   1.000  C
  C61      1.0000 0.77628  0.69362  0.47080  Biso   1.000  C
  H49      1.0000 0.76339  0.74033  0.42351  Biso   1.000  H
  C62      1.0000 0.78757  0.61819  0.52660  Biso   1.000  C
  H50      1.0000 0.73656  0.12679  0.76968  Biso   1.000  H
  C63      1.0000 0.78758  0.12232  0.74369  Biso   1.000  C
  C64      1.0000 0.78239  0.25400  0.71975  Biso   1.000  C
  H51      1.0000 0.68817  0.03017  0.70020  Biso   1.000  H
  C65      1.0000 0.73898  0.93821  0.75620  Biso   1.000  C
  C66      1.0000 0.74584  0.86923  0.70860  Biso   1.000  C
  O4       1.0000 0.80634  0.72102  0.47742  Biso   1.000  O
  N4       1.0000 0.81488  0.63834  0.53500  Biso   1.000  N
  H52      1.0000 0.77949  0.58560  0.54069  Biso   1.000  H
  C67      1.0000 0.81919  0.12190  0.74730  Biso   1.000  C
  H53      1.0000 0.77856  0.07622  0.75058  Biso   1.000  H
  C68      1.0000 0.81419  0.25478  0.72309  Biso   1.000  C
  H54      1.0000 0.76988  0.29920  0.71000  Biso   1.000  H
  C69      1.0000 0.77126  0.93380  0.77141  Biso   1.000  C
  H55      1.0000 0.72586  0.96283  0.76748  Biso   1.000  H
  C70      1.0000 0.77823  0.86875  0.72301  Biso   1.000  C
  H56      1.0000 0.73698  0.84340  0.68760  Biso   1.000  H
  H57      1.0000 0.81488  0.72331  0.49830  Biso   1.000  H
  C71      1.0000 0.83408  0.60552  0.56680  Biso   1.000  C
  C72      1.0000 0.83277  0.18738  0.73615  Biso   1.000  C
  H58      1.0000 0.83168  0.07700  0.75730  Biso   1.000  H
  C73      1.0000 0.82846  0.32913  0.71487  Biso   1.000  C
  C74      1.0000 0.79087  0.90194  0.75537  Biso   1.000  C
  H59      1.0000 0.77987  0.95353  0.79360  Biso   1.000  H
  C75      1.0000 0.79748  0.83459  0.70429  Biso   1.000  C
  C76      1.0000 0.85529  0.65971  0.58530  Biso   1.000  C
  C77      1.0000 0.83389  0.52550  0.57550  Biso   1.000  C
  O5       1.0000 0.86412  0.18502  0.74081  Biso   1.000  O
  N5       1.0000 0.85668  0.33209  0.71529  Biso   1.000  N
  H60      1.0000 0.81597  0.37632  0.70910  Biso   1.000  H
  O6       1.0000 0.82222  0.90230  0.76984  Biso   1.000  O
  N6       1.0000 0.82714  0.82771  0.71609  Biso   1.000  N
  H61      1.0000 0.78757  0.81631  0.68208  Biso   1.000  H
  C78      1.0000 0.87658  0.63092  0.61460  Biso   1.000  C
  H62      1.0000 0.85558  0.71432  0.57839  Biso   1.000  H
  H63      1.0000 0.81868  0.49001  0.56189  Biso   1.000  H
  C79      1.0000 0.85619  0.49659  0.60410  Biso   1.000  C
  H64      1.0000 0.86968  0.22763  0.73339  Biso   1.000  H
  C80      1.0000 0.86922  0.40963  0.71198  Biso   1.000  C
  H65      1.0000 0.83078  0.87563  0.75798  Biso   1.000  H
  C81      1.0000 0.84484  0.79410  0.69599  Biso   1.000  C
  C82      1.0000 0.89907  0.68391  0.64090  Biso   1.000  C
  C83      1.0000 0.87738  0.55193  0.62360  Biso   1.000  C
  H66      1.0000 0.85678  0.44119  0.61019  Biso   1.000  H
  C84      1.0000 0.88026  0.42568  0.68559  Biso   1.000  C
  C85      1.0000 0.87047  0.46859  0.73600  Biso   1.000  C
  C86      1.0000 0.86712  0.73864  0.71000  Biso   1.000  C
  C87      1.0000 0.84017  0.82325  0.66368  Biso   1.000  C
  C88      1.0000 0.91807  0.62084  0.66774  Biso   1.000  C
  C89      1.0000 0.87947  0.73049  0.65839  Biso   1.000  C
  C90      1.0000 0.91807  0.74504  0.62588  Biso   1.000  C
  C91      1.0000 0.90418  0.53413  0.65504  Biso   1.000  C
  C92      1.0000 0.89247  0.50112  0.68338  Biso   1.000  C
  H67      1.0000 0.87957  0.38573  0.66920  Biso   1.000  H
  H68      1.0000 0.86268  0.45700  0.75419  Biso   1.000  H
  C93      1.0000 0.88289  0.54354  0.73359  Biso   1.000  C
  C94      1.0000 0.88370  0.70352  0.69040  Biso   1.000  C
  H69      1.0000 0.87137  0.72379  0.73289  Biso   1.000  H
  H70      1.0000 0.82528  0.86464  0.65478  Biso   1.000  H
  C95      1.0000 0.85768  0.79012  0.64468  Biso   1.000  C
  C96      1.0000 0.90878  0.63883  0.70101  Biso   1.000  C
  C97      1.0000 0.95408  0.62483  0.67509  Biso   1.000  C
  H71      1.0000 0.93488  0.76863  0.64468  Biso   1.000  H
  H72      1.0000 0.90387  0.78951  0.61498  Biso   1.000  H
  C98      1.0000 0.93258  0.71094  0.60099  Biso   1.000  C
  C99      1.0000 0.92618  0.46859  0.64699  Biso   1.000  C
  C100     1.0000 0.89431  0.56104  0.70730  Biso   1.000  C
  H73      1.0000 0.88357  0.58319  0.75018  Biso   1.000  H
  H74      1.0000 0.85479  0.80822  0.62240  Biso   1.000  H
  C101     1.0000 0.93508  0.66622  0.73349  Biso   1.000  C
  H75      1.0000 0.96407  0.58409  0.69188  Biso   1.000  H
  H76      1.0000 0.96167  0.67860  0.68358  Biso   1.000  H
  H77      1.0000 0.95938  0.61439  0.65438  Biso   1.000  H
  H78      1.0000 0.95189  0.68083  0.61300  Biso   1.000  H
  H79      1.0000 0.91788  0.67250  0.58611  Biso   1.000  H
  C102     1.0000 0.94067  0.77690  0.58009  Biso   1.000  C
  H80      1.0000 0.91588  0.41542  0.64599  Biso   1.000  H
  H81      1.0000 0.94577  0.46684  0.66599  Biso   1.000  H
  C103     1.0000 0.93469  0.47873  0.61618  Biso   1.000  C
  H82      1.0000 0.95327  0.63002  0.73640  Biso   1.000  H
  H83      1.0000 0.92716  0.65729  0.75289  Biso   1.000  H
  C104     1.0000 0.94667  0.75101  0.73529  Biso   1.000  C
  H84      1.0000 0.95017  0.75300  0.56400  Biso   1.000  H
  H85      1.0000 0.95557  0.81443  0.59480  Biso   1.000  H
  H86      1.0000 0.92167  0.80611  0.56788  Biso   1.000  H
  H87      1.0000 0.91558  0.48802  0.59718  Biso   1.000  H
  H88      1.0000 0.94837  0.52658  0.61829  Biso   1.000  H
  C105     1.0000 0.95179  0.40390  0.60919  Biso   1.000  C
  H89      1.0000 0.95698  0.75982  0.71780  Biso   1.000  H
  H90      1.0000 0.92878  0.78873  0.73108  Biso   1.000  H
  C106     1.0000 0.97008  0.76809  0.77009  Biso   1.000  C
  H91      1.0000 0.95728  0.41198  0.58849  Biso   1.000  H
  H92      1.0000 0.93817  0.35659  0.60668  Biso   1.000  H
  H93      1.0000 0.97098  0.39521  0.62789  Biso   1.000  H
  H94      1.0000 0.97747  0.82391  0.77099  Biso   1.000  H
  H95      1.0000 0.98788  0.73110  0.77420  Biso   1.000  H
  H96      1.0000 0.95976  0.76000  0.78738  Biso   1.000  H
  C107     1.0000 0.44850  0.49810  0.45915  Biso   1.000  C
  C108     1.0000 0.45393  0.42303  0.44804  Biso   1.000  C
  C109     1.0000 0.46033  0.56412  0.44065  Biso   1.000  C
  C110     1.0000 0.43308  0.50679  0.48289  Biso   1.000  C
  C111     1.0000 0.47253  0.42472  0.42331  Biso   1.000  C
  C112     1.0000 0.44304  0.35460  0.46050  Biso   1.000  C
  C113     1.0000 0.47903  0.51753  0.41975  Biso   1.000  C
  C114     1.0000 0.43388  0.60503  0.41478  Biso   1.000  C
  C115     1.0000 0.47828  0.63243  0.46589  Biso   1.000  C
  H97      1.0000 0.43039  0.55893  0.49108  Biso   1.000  H
  C116     1.0000 0.42169  0.43993  0.49459  Biso   1.000  C
  C117     1.0000 0.45318  0.39841  0.38836  Biso   1.000  C
  C118     1.0000 0.50197  0.36860  0.43649  Biso   1.000  C
  C119     1.0000 0.42687  0.36280  0.48349  Biso   1.000  C
  H98      1.0000 0.44678  0.30240  0.45318  Biso   1.000  H
  C120     1.0000 0.46260  0.54034  0.38145  Biso   1.000  C
  C121     1.0000 0.51431  0.53889  0.43210  Biso   1.000  C
  C122     1.0000 0.43582  0.59520  0.38275  Biso   1.000  C
  C123     1.0000 0.40918  0.64619  0.41990  Biso   1.000  C
  H99      1.0000 0.46608  0.64432  0.48148  Biso   1.000  H
  H100     1.0000 0.49869  0.61022  0.47950  Biso   1.000  H
  C124     1.0000 0.48428  0.71094  0.45080  Biso   1.000  C
  N7       1.0000 0.40627  0.45061  0.51983  Biso   1.000  N
  C125     1.0000 0.43962  0.32309  0.37949  Biso   1.000  C
  C126     1.0000 0.44820  0.46213  0.36596  Biso   1.000  C
  H101     1.0000 0.51689  0.39599  0.45589  Biso   1.000  H
  H102     1.0000 0.49508  0.31863  0.44519  Biso   1.000  H
  C127     1.0000 0.51978  0.34410  0.41290  Biso   1.000  C
  H103     1.0000 0.41938  0.31640  0.49188  Biso   1.000  H
  C128     1.0000 0.48254  0.57981  0.36079  Biso   1.000  C
  H104     1.0000 0.51699  0.59689  0.42930  Biso   1.000  H
  H105     1.0000 0.52299  0.52453  0.45579  Biso   1.000  H
  H106     1.0000 0.52529  0.50884  0.41889  Biso   1.000  H
  C129     1.0000 0.41430  0.63490  0.35641  Biso   1.000  C
  C130     1.0000 0.38730  0.68433  0.39410  Biso   1.000  C
  H107     1.0000 0.40719  0.64842  0.44180  Biso   1.000  H
  H108     1.0000 0.50008  0.70183  0.43910  Biso   1.000  H
  H109     1.0000 0.46468  0.72874  0.43398  Biso   1.000  H
  C131     1.0000 0.49559  0.77654  0.47619  Biso   1.000  C
  C132     1.0000 0.38068  0.41349  0.51640  Biso   1.000  C
  C133     1.0000 0.42069  0.31259  0.34711  Biso   1.000  C
  H110     1.0000 0.44329  0.28031  0.39531  Biso   1.000  H
  C134     1.0000 0.43077  0.44723  0.33267  Biso   1.000  C
  H111     1.0000 0.52418  0.39261  0.40130  Biso   1.000  H
  H112     1.0000 0.50669  0.30710  0.39568  Biso   1.000  H
  C135     1.0000 0.55070  0.30221  0.43150  Biso   1.000  C
  H113     1.0000 0.46788  0.60292  0.34009  Biso   1.000  H
  H114     1.0000 0.49418  0.62561  0.37400  Biso   1.000  H
  C136     1.0000 0.50578  0.52809  0.35039  Biso   1.000  C
  H115     1.0000 0.41648  0.63273  0.33450  Biso   1.000  H
  C137     1.0000 0.39019  0.67654  0.36149  Biso   1.000  C
  H116     1.0000 0.37078  0.71492  0.39789  Biso   1.000  H
  H117     1.0000 0.49898  0.82590  0.46489  Biso   1.000  H
  H118     1.0000 0.47978  0.78680  0.48760  Biso   1.000  H
  H119     1.0000 0.51518  0.75994  0.49269  Biso   1.000  H
  H120     1.0000 0.37228  0.37982  0.49750  Biso   1.000  H
  C138     1.0000 0.36399  0.42212  0.54141  Biso   1.000  C
  N8       1.0000 0.40516  0.23614  0.33946  Biso   1.000  N
  C139     1.0000 0.41650  0.37373  0.32339  Biso   1.000  C
  H121     1.0000 0.42880  0.48820  0.31630  Biso   1.000  H
  H122     1.0000 0.56169  0.28701  0.41548  Biso   1.000  H
  H123     1.0000 0.56378  0.33903  0.44830  Biso   1.000  H
  H124     1.0000 0.54630  0.25364  0.44271  Biso   1.000  H
  H125     1.0000 0.52269  0.51174  0.37069  Biso   1.000  H
  H126     1.0000 0.49508  0.47849  0.33949  Biso   1.000  H
  C140     1.0000 0.51989  0.57021  0.32680  Biso   1.000  C
  N9       1.0000 0.36967  0.72090  0.33445  Biso   1.000  N
  C141     1.0000 0.33439  0.38803  0.53430  Biso   1.000  C
  C142     1.0000 0.37588  0.46732  0.57049  Biso   1.000  C
  C143     1.0000 0.37638  0.23330  0.32400  Biso   1.000  C
  H127     1.0000 0.40398  0.36479  0.30089  Biso   1.000  H
  H128     1.0000 0.53469  0.53401  0.32099  Biso   1.000  H
  H129     1.0000 0.50328  0.58554  0.30640  Biso   1.000  H
  H130     1.0000 0.53089  0.61873  0.33761  Biso   1.000  H
  C144     1.0000 0.34068  0.72524  0.33089  Biso   1.000  C
  C145     1.0000 0.31729  0.39611  0.55690  Biso   1.000  C
  H131     1.0000 0.32589  0.35900  0.51399  Biso   1.000  H
  C146     1.0000 0.35958  0.47390  0.59390  Biso   1.000  C
  O7       1.0000 0.40488  0.50299  0.57808  Biso   1.000  O
  C147     1.0000 0.35905  0.15829  0.31550  Biso   1.000  C
  H132     1.0000 0.36538  0.28260  0.31760  Biso   1.000  H
  H133     1.0000 0.33260  0.69754  0.34630  Biso   1.000  H
  C148     1.0000 0.31908  0.77183  0.30349  Biso   1.000  C
  C149     1.0000 0.28509  0.36141  0.54811  Biso   1.000  C
  C150     1.0000 0.32987  0.44029  0.58601  Biso   1.000  C
  H134     1.0000 0.36858  0.50063  0.61460  Biso   1.000  H
  H135     1.0000 0.41389  0.48820  0.56420  Biso   1.000  H
  C151     1.0000 0.32672  0.16052  0.29986  Biso   1.000  C
  C152     1.0000 0.37310  0.08388  0.32640  Biso   1.000  C
  C153     1.0000 0.28733  0.77322  0.29953  Biso   1.000  C
  C154     1.0000 0.32970  0.80985  0.27940  Biso   1.000  C
  C155     1.0000 0.26389  0.37849  0.51690  Biso   1.000  C
  C156     1.0000 0.27457  0.31688  0.57049  Biso   1.000  C
  H136     1.0000 0.31788  0.44789  0.60099  Biso   1.000  H
  C157     1.0000 0.30884  0.09118  0.29214  Biso   1.000  C
  H137     1.0000 0.31668  0.21139  0.29439  Biso   1.000  H
  C158     1.0000 0.35558  0.01442  0.31851  Biso   1.000  C
  O8       1.0000 0.40420  0.07839  0.34282  Biso   1.000  O
  C159     1.0000 0.26578  0.81154  0.27279  Biso   1.000  C
  H138     1.0000 0.27988  0.74691  0.31580  Biso   1.000  H
  C160     1.0000 0.30879  0.85022  0.25268  Biso   1.000  C
  O9       1.0000 0.36071  0.81383  0.28284  Biso   1.000  O
  C161     1.0000 0.23329  0.35339  0.50730  Biso   1.000  C
  H139     1.0000 0.27088  0.40933  0.50148  Biso   1.000  H
  C162     1.0000 0.24388  0.28978  0.56109  Biso   1.000  C
  H140     1.0000 0.28829  0.30499  0.59220  Biso   1.000  H
  C163     1.0000 0.27384  0.09408  0.27605  Biso   1.000  C
  C164     1.0000 0.32378  0.01810  0.30309  Biso   1.000  C
  H141     1.0000 0.36549  0.96343  0.32380  Biso   1.000  H
  H142     1.0000 0.41169  0.12498  0.34761  Biso   1.000  H
  C165     1.0000 0.23151  0.81160  0.26965  Biso   1.000  C
  C166     1.0000 0.27760  0.84835  0.24940  Biso   1.000  C
  H143     1.0000 0.31630  0.87870  0.23689  Biso   1.000  H
  H144     1.0000 0.37030  0.77780  0.29620  Biso   1.000  H
  C167     1.0000 0.21238  0.38181  0.47339  Biso   1.000  C
  C168     1.0000 0.22367  0.30638  0.52918  Biso   1.000  C
  H145     1.0000 0.23657  0.25973  0.57651  Biso   1.000  H
  C169     1.0000 0.25414  0.13083  0.29139  Biso   1.000  C
  C170     1.0000 0.26098  0.06179  0.24379  Biso   1.000  C
  H146     1.0000 0.31179  0.96983  0.29981  Biso   1.000  H
  C171     1.0000 0.21758  0.74600  0.28026  Biso   1.000  C
  C172     1.0000 0.21238  0.87774  0.25629  Biso   1.000  C
  H147     1.0000 0.26339  0.87321  0.23030  Biso   1.000  H
  N10      1.0000 0.18508  0.36172  0.46499  Biso   1.000  N
  H148     1.0000 0.22049  0.41440  0.45930  Biso   1.000  H
  O10      1.0000 0.19362  0.27898  0.52256  Biso   1.000  O
  C173     1.0000 0.22173  0.13131  0.27697  Biso   1.000  C
  H149     1.0000 0.26300  0.15660  0.31239  Biso   1.000  H
  C174     1.0000 0.22870  0.06620  0.22857  Biso   1.000  C
  H150     1.0000 0.27410  0.03717  0.23251  Biso   1.000  H
  C175     1.0000 0.18579  0.74522  0.27690  Biso   1.000  C
  H151     1.0000 0.23009  0.70080  0.29001  Biso   1.000  H
  C176     1.0000 0.18079  0.87810  0.25268  Biso   1.000  C
  H152     1.0000 0.22139  0.92384  0.24940  Biso   1.000  H
  C177     1.0000 0.16589  0.39448  0.43321  Biso   1.000  C
  H153     1.0000 0.18508  0.27669  0.50168  Biso   1.000  H
  C178     1.0000 0.20250  0.16541  0.29570  Biso   1.000  C
  C179     1.0000 0.20910  0.09812  0.24464  Biso   1.000  C
  H154     1.0000 0.22009  0.04653  0.20639  Biso   1.000  H
  C180     1.0000 0.17149  0.67093  0.28512  Biso   1.000  C
  C181     1.0000 0.16719  0.81262  0.26384  Biso   1.000  C
  H155     1.0000 0.16828  0.92300  0.24271  Biso   1.000  H
  C182     1.0000 0.14470  0.34029  0.41471  Biso   1.000  C
  C183     1.0000 0.16609  0.47450  0.42448  Biso   1.000  C
  N11      1.0000 0.17282  0.17229  0.28389  Biso   1.000  N
  H156     1.0000 0.21239  0.18369  0.31791  Biso   1.000  H
  O11      1.0000 0.17774  0.09770  0.23015  Biso   1.000  O
  N12      1.0000 0.14330  0.66791  0.28469  Biso   1.000  N
  H157     1.0000 0.18399  0.62374  0.29088  Biso   1.000  H
  O12      1.0000 0.13584  0.81504  0.25918  Biso   1.000  O
  C184     1.0000 0.12338  0.36914  0.38541  Biso   1.000  C
  H158     1.0000 0.14438  0.28568  0.42160  Biso   1.000  H
  C185     1.0000 0.14379  0.50341  0.39588  Biso   1.000  C
  H159     1.0000 0.18128  0.50999  0.43809  Biso   1.000  H
  C186     1.0000 0.15514  0.20590  0.30399  Biso   1.000  C
  H160     1.0000 0.16920  0.12437  0.24201  Biso   1.000  H
  C187     1.0000 0.13073  0.59043  0.28800  Biso   1.000  C
  H161     1.0000 0.13030  0.77243  0.26660  Biso   1.000  H
  C188     1.0000 0.10088  0.31609  0.35909  Biso   1.000  C
  C189     1.0000 0.12259  0.44813  0.37641  Biso   1.000  C
  H162     1.0000 0.14320  0.55881  0.38979  Biso   1.000  H
  C190     1.0000 0.13284  0.26142  0.29001  Biso   1.000  C
  C191     1.0000 0.15978  0.17681  0.33630  Biso   1.000  C
  C192     1.0000 0.11970  0.57432  0.31440  Biso   1.000  C
  C193     1.0000 0.12949  0.53141  0.26399  Biso   1.000  C
  C194     1.0000 0.12049  0.26951  0.34159  Biso   1.000  C
  C195     1.0000 0.08189  0.37922  0.33224  Biso   1.000  C
  C196     1.0000 0.08189  0.25502  0.37410  Biso   1.000  C
  C197     1.0000 0.09580  0.46593  0.34495  Biso   1.000  C
  C198     1.0000 0.11627  0.29648  0.30961  Biso   1.000  C
  H163     1.0000 0.12859  0.27621  0.26710  Biso   1.000  H
  H164     1.0000 0.17468  0.13542  0.34520  Biso   1.000  H
  C199     1.0000 0.14228  0.20988  0.35530  Biso   1.000  C
  C200     1.0000 0.10748  0.49888  0.31660  Biso   1.000  C
  H165     1.0000 0.12038  0.61433  0.33079  Biso   1.000  H
  C201     1.0000 0.11706  0.45652  0.26640  Biso   1.000  C
  H166     1.0000 0.13730  0.54300  0.24579  Biso   1.000  H
  C202     1.0000 0.09118  0.36123  0.29898  Biso   1.000  C
  C203     1.0000 0.04590  0.37523  0.32490  Biso   1.000  C
  H167     1.0000 0.06510  0.23143  0.35530  Biso   1.000  H
  H168     1.0000 0.09609  0.21049  0.38501  Biso   1.000  H
  C204     1.0000 0.06738  0.28912  0.39899  Biso   1.000  C
  C205     1.0000 0.07378  0.53141  0.35300  Biso   1.000  C
  H169     1.0000 0.14519  0.19178  0.37759  Biso   1.000  H
  C206     1.0000 0.10567  0.43902  0.29269  Biso   1.000  C
  H170     1.0000 0.11639  0.41681  0.24980  Biso   1.000  H
  C207     1.0000 0.06488  0.33384  0.26650  Biso   1.000  C
  H171     1.0000 0.03589  0.41591  0.30810  Biso   1.000  H
  H172     1.0000 0.03829  0.32140  0.31640  Biso   1.000  H
  H173     1.0000 0.04058  0.38561  0.34560  Biso   1.000  H
  H174     1.0000 0.04809  0.31923  0.38699  Biso   1.000  H
  H175     1.0000 0.08209  0.32750  0.41391  Biso   1.000  H
  C208     1.0000 0.05929  0.22310  0.41990  Biso   1.000  C
  H176     1.0000 0.08408  0.58464  0.35400  Biso   1.000  H
  H177     1.0000 0.05419  0.53322  0.33400  Biso   1.000  H
  C209     1.0000 0.06529  0.52133  0.38380  Biso   1.000  C
  H178     1.0000 0.04669  0.36998  0.26359  Biso   1.000  H
  H179     1.0000 0.07279  0.34271  0.24710  Biso   1.000  H
  C210     1.0000 0.05329  0.24899  0.26469  Biso   1.000  C
  H180     1.0000 0.04979  0.24700  0.43599  Biso   1.000  H
  H181     1.0000 0.04439  0.18563  0.40518  Biso   1.000  H
  H182     1.0000 0.07829  0.19389  0.43210  Biso   1.000  H
  H183     1.0000 0.08440  0.51204  0.40280  Biso   1.000  H
  H184     1.0000 0.05159  0.47342  0.38170  Biso   1.000  H
  C211     1.0000 0.04819  0.59610  0.39080  Biso   1.000  C
  H185     1.0000 0.04298  0.24018  0.28219  Biso   1.000  H
  H186     1.0000 0.07120  0.21133  0.26890  Biso   1.000  H
  C212     1.0000 0.02990  0.23191  0.22990  Biso   1.000  C
  H187     1.0000 0.04268  0.58802  0.41150  Biso   1.000  H
  H188     1.0000 0.06179  0.64341  0.39330  Biso   1.000  H
  H189     1.0000 0.02900  0.60479  0.37210  Biso   1.000  H
  H190     1.0000 0.02249  0.17609  0.22900  Biso   1.000  H
  H191     1.0000 0.01208  0.26890  0.22579  Biso   1.000  H
  H192     1.0000 0.04020  0.24000  0.21261  Biso   1.000  H
  C213     1.0000 0.55929  0.72313  0.41990  Biso   1.000  C
  C214     1.0000 0.56738  0.78909  0.39899  Biso   1.000  C
  H193     1.0000 0.54979  0.74703  0.43599  Biso   1.000  H
  H194     1.0000 0.54439  0.68560  0.40518  Biso   1.000  H
  H195     1.0000 0.57829  0.69392  0.43210  Biso   1.000  H
  C215     1.0000 0.58189  0.75499  0.37410  Biso   1.000  C
  H196     1.0000 0.54809  0.81920  0.38699  Biso   1.000  H
  H197     1.0000 0.58209  0.82753  0.41391  Biso   1.000  H
  C216     1.0000 0.60088  0.81612  0.35909  Biso   1.000  C
  H198     1.0000 0.56510  0.73140  0.35530  Biso   1.000  H
  H199     1.0000 0.59609  0.71052  0.38501  Biso   1.000  H
  C217     1.0000 0.58189  0.87925  0.33224  Biso   1.000  C
  C218     1.0000 0.62049  0.76954  0.34159  Biso   1.000  C
  C219     1.0000 0.62338  0.86911  0.38541  Biso   1.000  C
  C220     1.0000 0.59118  0.86120  0.29898  Biso   1.000  C
  C221     1.0000 0.59580  0.96590  0.34495  Biso   1.000  C
  C222     1.0000 0.54590  0.87520  0.32490  Biso   1.000  C
  C223     1.0000 0.61627  0.79651  0.30961  Biso   1.000  C
  C224     1.0000 0.64228  0.70991  0.35530  Biso   1.000  C
  C225     1.0000 0.62259  0.94810  0.37641  Biso   1.000  C
  C226     1.0000 0.64470  0.84032  0.41471  Biso   1.000  C
  C227     1.0000 0.56488  0.83381  0.26650  Biso   1.000  C
  C228     1.0000 0.60567  0.93905  0.29269  Biso   1.000  C
  C229     1.0000 0.60748  0.99891  0.31660  Biso   1.000  C
  C230     1.0000 0.57378  0.03138  0.35300  Biso   1.000  C
  H200     1.0000 0.53589  0.91594  0.30810  Biso   1.000  H
  H201     1.0000 0.53829  0.82144  0.31640  Biso   1.000  H
  H202     1.0000 0.54058  0.88564  0.34560  Biso   1.000  H
  C231     1.0000 0.63284  0.76139  0.29001  Biso   1.000  C
  C232     1.0000 0.65978  0.67685  0.33630  Biso   1.000  C
  H203     1.0000 0.64519  0.69181  0.37759  Biso   1.000  H
  C233     1.0000 0.64379  0.00338  0.39588  Biso   1.000  C
  H204     1.0000 0.64438  0.78571  0.42160  Biso   1.000  H
  C234     1.0000 0.66589  0.89451  0.43321  Biso   1.000  C
  C235     1.0000 0.55329  0.74902  0.26469  Biso   1.000  C
  H205     1.0000 0.54669  0.87001  0.26359  Biso   1.000  H
  H206     1.0000 0.57279  0.84274  0.24710  Biso   1.000  H
  C236     1.0000 0.61706  0.95655  0.26640  Biso   1.000  C
  C237     1.0000 0.61970  0.07429  0.31440  Biso   1.000  C
  H207     1.0000 0.58408  0.08461  0.35400  Biso   1.000  H
  H208     1.0000 0.55419  0.03319  0.33400  Biso   1.000  H
  C238     1.0000 0.56529  0.02130  0.38380  Biso   1.000  C
  H209     1.0000 0.62859  0.77624  0.26710  Biso   1.000  H
  C239     1.0000 0.65514  0.70593  0.30399  Biso   1.000  C
  H210     1.0000 0.67468  0.63539  0.34520  Biso   1.000  H
  C240     1.0000 0.66609  0.97453  0.42448  Biso   1.000  C
  H211     1.0000 0.64320  0.05878  0.38979  Biso   1.000  H
  N13      1.0000 0.68508  0.86175  0.46499  Biso   1.000  N
  C241     1.0000 0.52990  0.73194  0.22990  Biso   1.000  C
  H212     1.0000 0.54298  0.74021  0.28219  Biso   1.000  H
  H213     1.0000 0.57120  0.71130  0.26890  Biso   1.000  H
  H214     1.0000 0.61639  0.91684  0.24980  Biso   1.000  H
  C242     1.0000 0.62949  0.03138  0.26399  Biso   1.000  C
  H215     1.0000 0.62038  0.11430  0.33079  Biso   1.000  H
  C243     1.0000 0.63073  0.09040  0.28800  Biso   1.000  C
  H216     1.0000 0.55159  0.97345  0.38170  Biso   1.000  H
  H217     1.0000 0.58440  0.01201  0.40280  Biso   1.000  H
  C244     1.0000 0.54819  0.09613  0.39080  Biso   1.000  C
  N14      1.0000 0.67282  0.67232  0.28389  Biso   1.000  N
  H218     1.0000 0.68128  0.01002  0.43809  Biso   1.000  H
  C245     1.0000 0.71238  0.88184  0.47339  Biso   1.000  C
  H219     1.0000 0.52249  0.67612  0.22900  Biso   1.000  H
  H220     1.0000 0.51208  0.76893  0.22579  Biso   1.000  H
  H221     1.0000 0.54020  0.74003  0.21261  Biso   1.000  H
  H222     1.0000 0.63730  0.04303  0.24579  Biso   1.000  H
  N15      1.0000 0.64330  0.16788  0.28469  Biso   1.000  N
  H223     1.0000 0.54268  0.08799  0.41150  Biso   1.000  H
  H224     1.0000 0.56179  0.14338  0.39330  Biso   1.000  H
  H225     1.0000 0.52900  0.10482  0.37210  Biso   1.000  H
  C246     1.0000 0.70250  0.66544  0.29570  Biso   1.000  C
  H226     1.0000 0.72049  0.91443  0.45930  Biso   1.000  H
  C247     1.0000 0.73329  0.85342  0.50730  Biso   1.000  C
  C248     1.0000 0.67149  0.17090  0.28512  Biso   1.000  C
  H227     1.0000 0.71239  0.68372  0.31791  Biso   1.000  H
  C249     1.0000 0.72173  0.63134  0.27697  Biso   1.000  C
  C250     1.0000 0.72367  0.80641  0.52918  Biso   1.000  C
  C251     1.0000 0.76389  0.87852  0.51690  Biso   1.000  C
  H228     1.0000 0.68399  0.12371  0.29088  Biso   1.000  H
  C252     1.0000 0.68579  0.24519  0.27690  Biso   1.000  C
  C253     1.0000 0.70910  0.59809  0.24464  Biso   1.000  C
  C254     1.0000 0.75414  0.63080  0.29139  Biso   1.000  C
  C255     1.0000 0.74388  0.78981  0.56109  Biso   1.000  C
  O13      1.0000 0.69362  0.77901  0.52256  Biso   1.000  O
  C256     1.0000 0.78509  0.86144  0.54811  Biso   1.000  C
  H229     1.0000 0.77088  0.90930  0.50148  Biso   1.000  H
  C257     1.0000 0.66719  0.31259  0.26384  Biso   1.000  C
  C258     1.0000 0.71758  0.24603  0.28026  Biso   1.000  C
  C259     1.0000 0.72870  0.56623  0.22857  Biso   1.000  C
  O14      1.0000 0.67774  0.59773  0.23015  Biso   1.000  O
  C260     1.0000 0.77384  0.59411  0.27605  Biso   1.000  C
  H230     1.0000 0.76300  0.65663  0.31239  Biso   1.000  H
  H231     1.0000 0.73657  0.75970  0.57651  Biso   1.000  H
  C261     1.0000 0.77457  0.81691  0.57049  Biso   1.000  C
  H232     1.0000 0.68508  0.77672  0.50168  Biso   1.000  H
  C262     1.0000 0.81729  0.89614  0.55690  Biso   1.000  C
  C263     1.0000 0.68079  0.37813  0.25268  Biso   1.000  C
  O15      1.0000 0.63584  0.31501  0.25918  Biso   1.000  O
  C264     1.0000 0.73151  0.31163  0.26965  Biso   1.000  C
  H233     1.0000 0.73009  0.20083  0.29001  Biso   1.000  H
  H234     1.0000 0.72009  0.54650  0.20639  Biso   1.000  H
  C265     1.0000 0.76098  0.56182  0.24379  Biso   1.000  C
  H235     1.0000 0.66920  0.62440  0.24201  Biso   1.000  H
  C266     1.0000 0.80884  0.59121  0.29214  Biso   1.000  C
  H236     1.0000 0.78829  0.80502  0.59220  Biso   1.000  H
  C267     1.0000 0.82987  0.94032  0.58601  Biso   1.000  C
  C268     1.0000 0.83439  0.88800  0.53430  Biso   1.000  C
  H237     1.0000 0.66828  0.42303  0.24271  Biso   1.000  H
  C269     1.0000 0.71238  0.37771  0.25629  Biso   1.000  C
  H238     1.0000 0.63030  0.27240  0.26660  Biso   1.000  H
  C270     1.0000 0.76578  0.31151  0.27279  Biso   1.000  C
  H239     1.0000 0.77410  0.53720  0.23251  Biso   1.000  H
  C271     1.0000 0.82378  0.51813  0.30309  Biso   1.000  C
  C272     1.0000 0.82672  0.66049  0.29986  Biso   1.000  C
  C273     1.0000 0.85958  0.97393  0.59390  Biso   1.000  C
  H240     1.0000 0.81788  0.94792  0.60099  Biso   1.000  H
  C274     1.0000 0.86399  0.92209  0.54141  Biso   1.000  C
  H241     1.0000 0.82589  0.85903  0.51399  Biso   1.000  H
  H242     1.0000 0.72139  0.42381  0.24940  Biso   1.000  H
  C275     1.0000 0.77760  0.34832  0.24940  Biso   1.000  C
  C276     1.0000 0.78733  0.27319  0.29953  Biso   1.000  C
  C277     1.0000 0.85558  0.51439  0.31851  Biso   1.000  C
  H243     1.0000 0.81179  0.46980  0.29981  Biso   1.000  H
  C278     1.0000 0.85905  0.65832  0.31550  Biso   1.000  C
  H244     1.0000 0.81668  0.71142  0.29439  Biso   1.000  H
  C279     1.0000 0.87588  0.96735  0.57049  Biso   1.000  C
  H245     1.0000 0.86858  0.00060  0.61460  Biso   1.000  H
  C280     1.0000 0.88068  0.91352  0.51640  Biso   1.000  C
  C281     1.0000 0.80879  0.35019  0.25268  Biso   1.000  C
  H246     1.0000 0.76339  0.37318  0.23030  Biso   1.000  H
  C282     1.0000 0.81908  0.27180  0.30349  Biso   1.000  C
  H247     1.0000 0.77988  0.24688  0.31580  Biso   1.000  H
  C283     1.0000 0.87310  0.58391  0.32640  Biso   1.000  C
  H248     1.0000 0.86549  0.46340  0.32380  Biso   1.000  H
  C284     1.0000 0.87638  0.73333  0.32400  Biso   1.000  C
  O16      1.0000 0.90488  0.00302  0.57808  Biso   1.000  O
  N16      1.0000 0.90627  0.95064  0.51983  Biso   1.000  N
  H249     1.0000 0.87228  0.87985  0.49750  Biso   1.000  H
  C285     1.0000 0.82970  0.30982  0.27940  Biso   1.000  C
  H250     1.0000 0.81630  0.37873  0.23689  Biso   1.000  H
  C286     1.0000 0.84068  0.22521  0.33089  Biso   1.000  C
  O17      1.0000 0.90420  0.57842  0.34282  Biso   1.000  O
  N17      1.0000 0.90516  0.73611  0.33946  Biso   1.000  N
  H251     1.0000 0.86538  0.78263  0.31760  Biso   1.000  H
  H252     1.0000 0.91389  0.98823  0.56420  Biso   1.000  H
  C287     1.0000 0.92169  0.93989  0.49459  Biso   1.000  C
  O18      1.0000 0.86071  0.31380  0.28284  Biso   1.000  O
  N18      1.0000 0.86967  0.22093  0.33445  Biso   1.000  N
  H253     1.0000 0.83260  0.19751  0.34630  Biso   1.000  H
  H254     1.0000 0.91169  0.62501  0.34761  Biso   1.000  H
  C288     1.0000 0.92069  0.81262  0.34711  Biso   1.000  C
  C289     1.0000 0.92687  0.86283  0.48349  Biso   1.000  C
  C290     1.0000 0.93308  0.00682  0.48289  Biso   1.000  C
  H255     1.0000 0.87030  0.27783  0.29620  Biso   1.000  H
  C291     1.0000 0.89019  0.17651  0.36149  Biso   1.000  C
  C292     1.0000 0.93962  0.82312  0.37949  Biso   1.000  C
  C293     1.0000 0.91650  0.87370  0.32339  Biso   1.000  C
  H256     1.0000 0.91938  0.81643  0.49188  Biso   1.000  H
  C294     1.0000 0.94304  0.85463  0.46050  Biso   1.000  C
  C295     1.0000 0.94850  0.99813  0.45915  Biso   1.000  C
  H257     1.0000 0.93039  0.05890  0.49108  Biso   1.000  H
  C296     1.0000 0.91430  0.13487  0.35641  Biso   1.000  C
  C297     1.0000 0.88730  0.18430  0.39410  Biso   1.000  C
  C298     1.0000 0.95318  0.89844  0.38836  Biso   1.000  C
  H258     1.0000 0.94329  0.78034  0.39531  Biso   1.000  H
  H259     1.0000 0.90398  0.86482  0.30089  Biso   1.000  H
  C299     1.0000 0.93077  0.94720  0.33267  Biso   1.000  C
  C300     1.0000 0.95393  0.92300  0.44804  Biso   1.000  C
  H260     1.0000 0.94678  0.80243  0.45318  Biso   1.000  H
  C301     1.0000 0.96033  0.06409  0.44065  Biso   1.000  C
  C302     1.0000 0.93582  0.09523  0.38275  Biso   1.000  C
  H261     1.0000 0.91648  0.13270  0.33450  Biso   1.000  H
  H262     1.0000 0.87078  0.21489  0.39789  Biso   1.000  H
  C303     1.0000 0.90918  0.14622  0.41990  Biso   1.000  C
  C304     1.0000 0.97253  0.92475  0.42331  Biso   1.000  C
  C305     1.0000 0.94820  0.96210  0.36596  Biso   1.000  C
  H263     1.0000 0.92880  0.98823  0.31630  Biso   1.000  H
  C306     1.0000 0.97903  0.01750  0.41975  Biso   1.000  C
  C307     1.0000 0.93388  0.10500  0.41478  Biso   1.000  C
  C308     1.0000 0.97828  0.13240  0.46589  Biso   1.000  C
  C309     1.0000 0.96260  0.04031  0.38145  Biso   1.000  C
  H264     1.0000 0.90719  0.14839  0.44180  Biso   1.000  H
  C310     1.0000 0.00197  0.86863  0.43649  Biso   1.000  C
  C311     1.0000 0.01431  0.03892  0.43210  Biso   1.000  C
  H265     1.0000 0.96608  0.14429  0.48148  Biso   1.000  H
  H266     1.0000 0.99869  0.11019  0.47950  Biso   1.000  H
  C312     1.0000 0.98428  0.21091  0.45080  Biso   1.000  C
  C313     1.0000 0.98254  0.07978  0.36079  Biso   1.000  C
  H267     1.0000 0.99508  0.81860  0.44519  Biso   1.000  H
  H268     1.0000 0.01689  0.89602  0.45589  Biso   1.000  H
  C314     1.0000 0.01978  0.84413  0.41290  Biso   1.000  C
  H269     1.0000 0.01699  0.09692  0.42930  Biso   1.000  H
  H270     1.0000 0.02299  0.02450  0.45579  Biso   1.000  H
  H271     1.0000 0.02529  0.00881  0.41889  Biso   1.000  H
  H272     1.0000 0.96468  0.22871  0.43398  Biso   1.000  H
  C315     1.0000 0.99559  0.27651  0.47619  Biso   1.000  C
  H273     1.0000 0.00008  0.20180  0.43910  Biso   1.000  H
  H274     1.0000 0.96788  0.10289  0.34009  Biso   1.000  H
  H275     1.0000 0.99418  0.12558  0.37400  Biso   1.000  H
  C316     1.0000 0.00578  0.02812  0.35039  Biso   1.000  C
  H276     1.0000 0.02418  0.89264  0.40130  Biso   1.000  H
  H277     1.0000 0.00669  0.80713  0.39568  Biso   1.000  H
  C317     1.0000 0.05070  0.80224  0.43150  Biso   1.000  C
  H278     1.0000 0.99898  0.32593  0.46489  Biso   1.000  H
  H279     1.0000 0.97978  0.28683  0.48760  Biso   1.000  H
  H280     1.0000 0.01518  0.25991  0.49269  Biso   1.000  H
  H281     1.0000 0.99508  0.97852  0.33949  Biso   1.000  H
  H282     1.0000 0.02269  0.01171  0.37069  Biso   1.000  H
  C318     1.0000 0.01989  0.07018  0.32680  Biso   1.000  C
  H283     1.0000 0.06169  0.78704  0.41548  Biso   1.000  H
  H284     1.0000 0.06378  0.83900  0.44830  Biso   1.000  H
  H285     1.0000 0.04630  0.75361  0.44271  Biso   1.000  H
  H286     1.0000 0.03469  0.03398  0.32099  Biso   1.000  H
  H287     1.0000 0.00328  0.08551  0.30640  Biso   1.000  H
  H288     1.0000 0.03089  0.11870  0.33761  Biso   1.000  H
  C319     1.0000 0.44067  0.27693  0.58009  Biso   1.000  C
  C320     1.0000 0.43258  0.21091  0.60099  Biso   1.000  C
  H289     1.0000 0.45017  0.25303  0.56400  Biso   1.000  H
  H290     1.0000 0.45557  0.31440  0.59480  Biso   1.000  H
  H291     1.0000 0.42167  0.30614  0.56788  Biso   1.000  H
  C321     1.0000 0.41807  0.24501  0.62588  Biso   1.000  C
  H292     1.0000 0.45189  0.18080  0.61300  Biso   1.000  H
  H293     1.0000 0.41788  0.17253  0.58611  Biso   1.000  H
  C322     1.0000 0.39907  0.18388  0.64090  Biso   1.000  C
  H294     1.0000 0.43488  0.26860  0.64468  Biso   1.000  H
  H295     1.0000 0.40387  0.28948  0.61498  Biso   1.000  H
  C323     1.0000 0.37658  0.13089  0.61460  Biso   1.000  C
  C324     1.0000 0.41807  0.12081  0.66774  Biso   1.000  C
  C325     1.0000 0.37947  0.23052  0.65839  Biso   1.000  C
  C326     1.0000 0.35529  0.15968  0.58530  Biso   1.000  C
  C327     1.0000 0.37738  0.05190  0.62360  Biso   1.000  C
  C328     1.0000 0.40418  0.03410  0.65504  Biso   1.000  C
  C329     1.0000 0.40878  0.13880  0.70101  Biso   1.000  C
  C330     1.0000 0.45408  0.12480  0.67509  Biso   1.000  C
  C331     1.0000 0.38370  0.20349  0.69040  Biso   1.000  C
  C332     1.0000 0.35768  0.29009  0.64468  Biso   1.000  C
  C333     1.0000 0.33408  0.10549  0.56680  Biso   1.000  C
  H296     1.0000 0.35558  0.21429  0.57839  Biso   1.000  H
  C334     1.0000 0.35619  0.99662  0.60410  Biso   1.000  C
  C335     1.0000 0.39247  0.00109  0.68338  Biso   1.000  C
  C336     1.0000 0.42618  0.96862  0.64699  Biso   1.000  C
  C337     1.0000 0.39431  0.06101  0.70730  Biso   1.000  C
  C338     1.0000 0.43508  0.16619  0.73349  Biso   1.000  C
  H297     1.0000 0.46407  0.08412  0.69188  Biso   1.000  H
  H298     1.0000 0.46167  0.17863  0.68358  Biso   1.000  H
  H299     1.0000 0.45938  0.11442  0.65438  Biso   1.000  H
  C339     1.0000 0.36712  0.23861  0.71000  Biso   1.000  C
  C340     1.0000 0.34017  0.32322  0.66368  Biso   1.000  C
  H300     1.0000 0.35479  0.30819  0.62240  Biso   1.000  H
  N19      1.0000 0.31488  0.13831  0.53500  Biso   1.000  N
  C341     1.0000 0.33389  0.02553  0.57550  Biso   1.000  C
  H301     1.0000 0.35678  0.94122  0.61019  Biso   1.000  H
  C342     1.0000 0.38026  0.92571  0.68559  Biso   1.000  C
  H302     1.0000 0.41588  0.91539  0.64599  Biso   1.000  H
  H303     1.0000 0.44577  0.96681  0.66599  Biso   1.000  H
  C343     1.0000 0.43469  0.97870  0.61618  Biso   1.000  C
  C344     1.0000 0.38289  0.04351  0.73359  Biso   1.000  C
  H304     1.0000 0.45327  0.12999  0.73640  Biso   1.000  H
  H305     1.0000 0.42716  0.15732  0.75289  Biso   1.000  H
  C345     1.0000 0.44667  0.25098  0.73529  Biso   1.000  C
  H306     1.0000 0.37137  0.22382  0.73289  Biso   1.000  H
  C346     1.0000 0.34484  0.29413  0.69599  Biso   1.000  C
  H307     1.0000 0.32528  0.36461  0.65478  Biso   1.000  H
  C347     1.0000 0.28757  0.11822  0.52660  Biso   1.000  C
  H308     1.0000 0.31868  0.99004  0.56189  Biso   1.000  H
  H309     1.0000 0.37957  0.88570  0.66920  Biso   1.000  H
  C348     1.0000 0.36922  0.90960  0.71198  Biso   1.000  C
  H310     1.0000 0.44837  0.02661  0.61829  Biso   1.000  H
  H311     1.0000 0.41558  0.98805  0.59718  Biso   1.000  H
  C349     1.0000 0.45179  0.90393  0.60919  Biso   1.000  C
  H312     1.0000 0.38357  0.08322  0.75018  Biso   1.000  H
  C350     1.0000 0.37047  0.96862  0.73600  Biso   1.000  C
  H313     1.0000 0.45698  0.25979  0.71780  Biso   1.000  H
  H314     1.0000 0.42878  0.28870  0.73108  Biso   1.000  H
  C351     1.0000 0.47008  0.26812  0.77009  Biso   1.000  C
  N20      1.0000 0.32714  0.32768  0.71609  Biso   1.000  N
  C352     1.0000 0.26669  0.14658  0.49269  Biso   1.000  C
  H315     1.0000 0.27949  0.08563  0.54069  Biso   1.000  H
  N21      1.0000 0.35668  0.83212  0.71529  Biso   1.000  N
  H316     1.0000 0.45728  0.91201  0.58849  Biso   1.000  H
  H317     1.0000 0.43817  0.85662  0.60668  Biso   1.000  H
  H318     1.0000 0.47098  0.89524  0.62789  Biso   1.000  H
  H319     1.0000 0.36268  0.95703  0.75419  Biso   1.000  H
  H320     1.0000 0.47747  0.32388  0.77099  Biso   1.000  H
  H321     1.0000 0.48788  0.23113  0.77420  Biso   1.000  H
  H322     1.0000 0.45976  0.26003  0.78738  Biso   1.000  H
  C353     1.0000 0.29748  0.33462  0.70429  Biso   1.000  C
  C354     1.0000 0.27628  0.19359  0.47080  Biso   1.000  C
  C355     1.0000 0.23607  0.12148  0.48309  Biso   1.000  C
  C356     1.0000 0.32846  0.82910  0.71487  Biso   1.000  C
  H323     1.0000 0.28757  0.31634  0.68208  Biso   1.000  H
  C357     1.0000 0.27823  0.36872  0.72301  Biso   1.000  C
  C358     1.0000 0.25608  0.21019  0.43890  Biso   1.000  C
  O19      1.0000 0.30634  0.22099  0.47742  Biso   1.000  O
  C359     1.0000 0.21489  0.13862  0.45190  Biso   1.000  C
  H324     1.0000 0.22908  0.09070  0.49850  Biso   1.000  H
  H325     1.0000 0.31597  0.87635  0.70910  Biso   1.000  H
  C360     1.0000 0.31419  0.75481  0.72309  Biso   1.000  C
  C361     1.0000 0.29087  0.40191  0.75537  Biso   1.000  C
  C362     1.0000 0.24584  0.36920  0.70860  Biso   1.000  C
  H326     1.0000 0.26339  0.24030  0.42351  Biso   1.000  H
  C363     1.0000 0.22539  0.18309  0.42950  Biso   1.000  C
  H327     1.0000 0.31488  0.22328  0.49830  Biso   1.000  H
  C364     1.0000 0.18270  0.10392  0.44311  Biso   1.000  C
  C365     1.0000 0.33277  0.68741  0.73615  Biso   1.000  C
  C366     1.0000 0.28239  0.75403  0.71975  Biso   1.000  C
  C367     1.0000 0.27126  0.43383  0.77141  Biso   1.000  C
  O20      1.0000 0.32222  0.40233  0.76984  Biso   1.000  O
  C368     1.0000 0.22612  0.40589  0.72394  Biso   1.000  C
  H328     1.0000 0.23698  0.34343  0.68760  Biso   1.000  H
  H329     1.0000 0.21169  0.19498  0.40779  Biso   1.000  H
  C369     1.0000 0.17009  0.05968  0.41401  Biso   1.000  C
  C370     1.0000 0.16559  0.11200  0.46569  Biso   1.000  C
  C371     1.0000 0.31919  0.62193  0.74730  Biso   1.000  C
  O21      1.0000 0.36412  0.68499  0.74081  Biso   1.000  O
  C372     1.0000 0.26844  0.68843  0.73033  Biso   1.000  C
  H330     1.0000 0.26988  0.79923  0.71000  Biso   1.000  H
  H331     1.0000 0.27987  0.45350  0.79360  Biso   1.000  H
  C373     1.0000 0.23898  0.43824  0.75620  Biso   1.000  C
  H332     1.0000 0.33078  0.37560  0.75798  Biso   1.000  H
  C374     1.0000 0.19112  0.40879  0.70785  Biso   1.000  C
  C375     1.0000 0.14038  0.02613  0.40609  Biso   1.000  C
  H333     1.0000 0.18208  0.05208  0.39899  Biso   1.000  H
  C376     1.0000 0.13599  0.07791  0.45857  Biso   1.000  C
  H334     1.0000 0.17409  0.14103  0.48599  Biso   1.000  H
  H335     1.0000 0.33168  0.57703  0.75730  Biso   1.000  H
  C377     1.0000 0.28758  0.62229  0.74369  Biso   1.000  C
  H336     1.0000 0.36968  0.72760  0.73339  Biso   1.000  H
  C378     1.0000 0.23418  0.68849  0.72720  Biso   1.000  C
  H337     1.0000 0.22586  0.46280  0.76748  Biso   1.000  H
  C379     1.0000 0.17617  0.48193  0.69689  Biso   1.000  C
  C380     1.0000 0.17323  0.33951  0.70013  Biso   1.000  C
  C381     1.0000 0.12408  0.03271  0.42950  Biso   1.000  C
  H338     1.0000 0.13138  0.99940  0.38541  Biso   1.000  H
  C382     1.0000 0.11928  0.08648  0.48359  Biso   1.000  C
  H339     1.0000 0.27856  0.57619  0.75058  Biso   1.000  H
  C383     1.0000 0.22238  0.65174  0.75058  Biso   1.000  C
  C384     1.0000 0.21265  0.72681  0.70045  Biso   1.000  C
  C385     1.0000 0.14438  0.48561  0.68150  Biso   1.000  C
  H340     1.0000 0.18817  0.53020  0.70020  Biso   1.000  H
  C386     1.0000 0.14093  0.34168  0.68449  Biso   1.000  C
  H341     1.0000 0.18328  0.28864  0.70559  Biso   1.000  H
  O22      1.0000 0.09510  0.99704  0.42190  Biso   1.000  O
  N22      1.0000 0.09369  0.04942  0.48015  Biso   1.000  N
  H342     1.0000 0.12768  0.12021  0.50249  Biso   1.000  H
  C387     1.0000 0.19117  0.64981  0.74730  Biso   1.000  C
  H343     1.0000 0.23656  0.62682  0.76968  Biso   1.000  H
  C388     1.0000 0.18087  0.72820  0.69649  Biso   1.000  C
  H344     1.0000 0.22008  0.75312  0.68419  Biso   1.000  H
  C389     1.0000 0.12688  0.41609  0.67358  Biso   1.000  C
  H345     1.0000 0.13447  0.53660  0.67619  Biso   1.000  H
  C390     1.0000 0.12358  0.26673  0.67599  Biso   1.000  C
  H346     1.0000 0.08609  0.01183  0.43579  Biso   1.000  H
  C391     1.0000 0.07827  0.06011  0.50539  Biso   1.000  C
  C392     1.0000 0.17028  0.69024  0.72058  Biso   1.000  C
  H347     1.0000 0.18368  0.62133  0.76309  Biso   1.000  H
  C393     1.0000 0.15928  0.77485  0.66910  Biso   1.000  C
  O23      1.0000 0.09576  0.42164  0.65717  Biso   1.000  O
  N23      1.0000 0.09482  0.26389  0.66052  Biso   1.000  N
  H348     1.0000 0.13458  0.21743  0.68238  Biso   1.000  H
  C394     1.0000 0.07309  0.13723  0.51650  Biso   1.000  C
  C395     1.0000 0.06688  0.99324  0.51710  Biso   1.000  C
  O24      1.0000 0.13925  0.68620  0.71715  Biso   1.000  O
  N24      1.0000 0.13029  0.77913  0.66556  Biso   1.000  N
  H349     1.0000 0.16738  0.80255  0.65368  Biso   1.000  H
  H350     1.0000 0.08828  0.37499  0.65240  Biso   1.000  H
  C396     1.0000 0.07928  0.18738  0.65290  Biso   1.000  C
  H351     1.0000 0.08058  0.18363  0.50810  Biso   1.000  H
  C397     1.0000 0.05694  0.14537  0.53948  Biso   1.000  C
  C398     1.0000 0.05146  0.00187  0.54084  Biso   1.000  C
  H352     1.0000 0.06959  0.94110  0.50890  Biso   1.000  H
  H353     1.0000 0.12968  0.72223  0.70379  Biso   1.000  H
  C399     1.0000 0.10979  0.82355  0.63849  Biso   1.000  C
  C400     1.0000 0.06034  0.17688  0.62050  Biso   1.000  C
  C401     1.0000 0.08348  0.12630  0.67659  Biso   1.000  C
  C402     1.0000 0.04603  0.07700  0.55194  Biso   1.000  C
  H354     1.0000 0.05317  0.19763  0.54680  Biso   1.000  H
  C403     1.0000 0.03963  0.93591  0.55934  Biso   1.000  C
  C404     1.0000 0.08568  0.86513  0.64358  Biso   1.000  C
  C405     1.0000 0.11268  0.81570  0.60588  Biso   1.000  C
  C406     1.0000 0.04678  0.10162  0.61162  Biso   1.000  C
  H355     1.0000 0.05668  0.21972  0.60470  Biso   1.000  H
  C407     1.0000 0.06919  0.05280  0.66732  Biso   1.000  C
  H356     1.0000 0.09598  0.13518  0.69910  Biso   1.000  H
  C408     1.0000 0.02743  0.07531  0.57668  Biso   1.000  C
  C409     1.0000 0.02093  0.98250  0.58024  Biso   1.000  C
  C410     1.0000 0.06608  0.89500  0.58520  Biso   1.000  C
  C411     1.0000 0.02168  0.86760  0.53409  Biso   1.000  C
  C412     1.0000 0.06414  0.90483  0.61724  Biso   1.000  C
  H357     1.0000 0.08347  0.86730  0.66549  Biso   1.000  H
  C413     1.0000 0.09078  0.85384  0.58009  Biso   1.000  C
  H358     1.0000 0.12918  0.78511  0.60210  Biso   1.000  H
  C414     1.0000 0.05178  0.03790  0.63403  Biso   1.000  C
  H359     1.0000 0.07118  0.01183  0.68369  Biso   1.000  H
  C415     1.0000 0.99798  0.13137  0.56350  Biso   1.000  C
  C416     1.0000 0.98565  0.96114  0.56788  Biso   1.000  C
  C417     1.0000 0.03735  0.95975  0.61854  Biso   1.000  C
  H360     1.0000 0.03388  0.85571  0.51850  Biso   1.000  H
  H361     1.0000 0.00127  0.88981  0.52048  Biso   1.000  H
  C418     1.0000 0.01568  0.78909  0.54918  Biso   1.000  C
  H362     1.0000 0.09279  0.85161  0.55818  Biso   1.000  H
  H363     1.0000 0.00488  0.18140  0.55480  Biso   1.000  H
  H364     1.0000 0.98309  0.10398  0.54410  Biso   1.000  H
  C419     1.0000 0.98018  0.15587  0.58708  Biso   1.000  C
  H365     1.0000 0.98297  0.90314  0.57069  Biso   1.000  H
  H366     1.0000 0.97699  0.97550  0.54420  Biso   1.000  H
  H367     1.0000 0.97469  0.99125  0.58109  Biso   1.000  H
  C420     1.0000 0.01742  0.92022  0.63919  Biso   1.000  C
  H368     1.0000 0.99988  0.79820  0.56089  Biso   1.000  H
  H369     1.0000 0.03528  0.77135  0.56600  Biso   1.000  H
  C421     1.0000 0.00437  0.72349  0.52379  Biso   1.000  C
  H370     1.0000 0.97578  0.10742  0.59869  Biso   1.000  H
  H371     1.0000 0.99329  0.19293  0.60430  Biso   1.000  H
  C422     1.0000 0.94928  0.19782  0.56848  Biso   1.000  C
  C423     1.0000 0.99418  0.97194  0.64960  Biso   1.000  C
  H372     1.0000 0.03208  0.89711  0.65990  Biso   1.000  H
  H373     1.0000 0.00578  0.87442  0.62598  Biso   1.000  H
  H374     1.0000 0.98477  0.74009  0.50730  Biso   1.000  H
  H375     1.0000 0.00098  0.67413  0.53510  Biso   1.000  H
  H376     1.0000 0.02017  0.71323  0.51239  Biso   1.000  H
  H377     1.0000 0.93829  0.21302  0.58450  Biso   1.000  H
  H378     1.0000 0.93618  0.16100  0.55169  Biso   1.000  H
  H379     1.0000 0.95369  0.24639  0.55731  Biso   1.000  H
  H380     1.0000 0.00488  0.02148  0.66050  Biso   1.000  H
  H381     1.0000 0.97729  0.98835  0.62929  Biso   1.000  H
  C424     1.0000 0.98007  0.92982  0.67318  Biso   1.000  C
  H382     1.0000 0.96527  0.96602  0.67900  Biso   1.000  H
  H383     1.0000 0.99668  0.91455  0.69359  Biso   1.000  H
  H384     1.0000 0.96908  0.88130  0.66240  Biso   1.000  H
  C425     1.0000 0.47008  0.73194  0.27011  Biso   1.000  C
  C426     1.0000 0.44669  0.74902  0.23529  Biso   1.000  C
  H385     1.0000 0.47749  0.67612  0.27101  Biso   1.000  H
  H386     1.0000 0.48790  0.76893  0.27419  Biso   1.000  H
  H387     1.0000 0.45979  0.74003  0.28740  Biso   1.000  H
  C427     1.0000 0.43510  0.83381  0.23351  Biso   1.000  C
  H388     1.0000 0.45699  0.74021  0.21779  Biso   1.000  H
  H389     1.0000 0.42880  0.71130  0.23110  Biso   1.000  H
  C428     1.0000 0.40880  0.86120  0.20102  Biso   1.000  C
  H390     1.0000 0.45329  0.87001  0.23639  Biso   1.000  H
  H391     1.0000 0.42718  0.84274  0.25289  Biso   1.000  H
  C429     1.0000 0.38372  0.79651  0.19040  Biso   1.000  C
  C430     1.0000 0.41809  0.87925  0.16776  Biso   1.000  C
  C431     1.0000 0.39433  0.93905  0.20729  Biso   1.000  C
  C432     1.0000 0.36714  0.76139  0.21000  Biso   1.000  C
  C433     1.0000 0.37949  0.76954  0.15839  Biso   1.000  C
  C434     1.0000 0.39909  0.81612  0.14089  Biso   1.000  C
  C435     1.0000 0.40420  0.96590  0.15505  Biso   1.000  C
  C436     1.0000 0.45411  0.87520  0.17511  Biso   1.000  C
  C437     1.0000 0.39250  0.99891  0.18340  Biso   1.000  C
  C438     1.0000 0.38291  0.95655  0.23358  Biso   1.000  C
  C439     1.0000 0.34486  0.70593  0.19599  Biso   1.000  C
  H392     1.0000 0.37139  0.77624  0.23291  Biso   1.000  H
  C440     1.0000 0.35770  0.70991  0.14470  Biso   1.000  C
  C441     1.0000 0.37660  0.86911  0.11460  Biso   1.000  C
  C442     1.0000 0.41809  0.75499  0.12590  Biso   1.000  C
  C443     1.0000 0.37740  0.94810  0.12360  Biso   1.000  C
  C444     1.0000 0.42620  0.03138  0.14701  Biso   1.000  C
  H393     1.0000 0.46409  0.91594  0.19190  Biso   1.000  H
  H394     1.0000 0.46169  0.82144  0.18360  Biso   1.000  H
  H395     1.0000 0.45940  0.88564  0.15440  Biso   1.000  H
  C445     1.0000 0.38028  0.07429  0.18561  Biso   1.000  C
  H396     1.0000 0.38359  0.91684  0.25020  Biso   1.000  H
  C446     1.0000 0.37048  0.03138  0.23599  Biso   1.000  C
  N25      1.0000 0.32716  0.67232  0.21611  Biso   1.000  N
  C447     1.0000 0.34020  0.67685  0.16370  Biso   1.000  C
  H397     1.0000 0.35480  0.69181  0.12239  Biso   1.000  H
  C448     1.0000 0.35529  0.84032  0.08530  Biso   1.000  C
  H398     1.0000 0.43489  0.73140  0.14470  Biso   1.000  H
  H399     1.0000 0.40389  0.71052  0.11500  Biso   1.000  H
  C449     1.0000 0.43260  0.78909  0.10099  Biso   1.000  C
  C450     1.0000 0.35619  0.00338  0.10410  Biso   1.000  C
  H400     1.0000 0.41590  0.08461  0.14601  Biso   1.000  H
  H401     1.0000 0.44579  0.03319  0.16601  Biso   1.000  H
  C451     1.0000 0.43469  0.02130  0.11620  Biso   1.000  C
  H402     1.0000 0.37959  0.11430  0.16919  Biso   1.000  H
  C452     1.0000 0.36925  0.09040  0.21200  Biso   1.000  C
  H403     1.0000 0.36270  0.04303  0.25419  Biso   1.000  H
  C453     1.0000 0.29751  0.66544  0.20431  Biso   1.000  C
  H404     1.0000 0.32530  0.63539  0.15480  Biso   1.000  H
  H405     1.0000 0.35560  0.78571  0.07840  Biso   1.000  H
  C454     1.0000 0.33410  0.89451  0.06680  Biso   1.000  C
  H406     1.0000 0.45190  0.81920  0.11300  Biso   1.000  H
  H407     1.0000 0.41789  0.82753  0.08610  Biso   1.000  H
  C455     1.0000 0.44070  0.72313  0.08011  Biso   1.000  C
  C456     1.0000 0.33389  0.97453  0.07550  Biso   1.000  C
  H408     1.0000 0.35680  0.05878  0.11019  Biso   1.000  H
  H409     1.0000 0.44840  0.97345  0.11831  Biso   1.000  H
  H410     1.0000 0.41561  0.01201  0.09720  Biso   1.000  H
  C457     1.0000 0.45181  0.09613  0.10921  Biso   1.000  C
  N26      1.0000 0.35667  0.16788  0.21529  Biso   1.000  N
  C458     1.0000 0.27825  0.63134  0.22303  Biso   1.000  C
  H411     1.0000 0.28759  0.68372  0.18210  Biso   1.000  H
  N27      1.0000 0.31490  0.86175  0.03499  Biso   1.000  N
  H412     1.0000 0.45019  0.74703  0.06399  Biso   1.000  H
  H413     1.0000 0.45559  0.68560  0.09480  Biso   1.000  H
  H414     1.0000 0.42169  0.69392  0.06790  Biso   1.000  H
  H415     1.0000 0.31871  0.01002  0.06191  Biso   1.000  H
  H416     1.0000 0.45730  0.08799  0.08851  Biso   1.000  H
  H417     1.0000 0.43819  0.14338  0.10670  Biso   1.000  H
  H418     1.0000 0.47101  0.10482  0.12791  Biso   1.000  H
  C459     1.0000 0.32849  0.17090  0.21489  Biso   1.000  C
  C460     1.0000 0.29089  0.59809  0.25537  Biso   1.000  C
  C461     1.0000 0.24586  0.63080  0.20859  Biso   1.000  C
  C462     1.0000 0.28759  0.88184  0.02659  Biso   1.000  C
  H419     1.0000 0.31599  0.12371  0.20910  Biso   1.000  H
  C463     1.0000 0.31418  0.24519  0.22308  Biso   1.000  C
  C464     1.0000 0.27127  0.56623  0.27141  Biso   1.000  C
  O25      1.0000 0.32224  0.59773  0.26983  Biso   1.000  O
  C465     1.0000 0.22615  0.59411  0.22396  Biso   1.000  C
  H420     1.0000 0.23700  0.65663  0.18759  Biso   1.000  H
  H421     1.0000 0.27949  0.91443  0.04071  Biso   1.000  H
  C466     1.0000 0.26667  0.85342  0.99269  Biso   1.000  C
  C467     1.0000 0.33279  0.31259  0.23617  Biso   1.000  C
  C468     1.0000 0.28240  0.24603  0.21975  Biso   1.000  C
  C469     1.0000 0.23900  0.56182  0.25619  Biso   1.000  C
  H422     1.0000 0.27989  0.54650  0.29359  Biso   1.000  H
  H423     1.0000 0.33078  0.62440  0.25800  Biso   1.000  H
  C470     1.0000 0.19115  0.59121  0.20787  Biso   1.000  C
  C471     1.0000 0.27625  0.80641  0.97076  Biso   1.000  C
  C472     1.0000 0.23608  0.87852  0.98309  Biso   1.000  C
  C473     1.0000 0.31918  0.37813  0.24730  Biso   1.000  C
  O26      1.0000 0.36414  0.31501  0.24083  Biso   1.000  O
  C474     1.0000 0.26847  0.31163  0.23035  Biso   1.000  C
  H424     1.0000 0.26989  0.20083  0.21000  Biso   1.000  H
  H425     1.0000 0.22589  0.53720  0.26750  Biso   1.000  H
  C475     1.0000 0.17619  0.51813  0.19689  Biso   1.000  C
  C476     1.0000 0.17326  0.66049  0.20015  Biso   1.000  C
  C477     1.0000 0.25606  0.78981  0.93890  Biso   1.000  C
  O27      1.0000 0.30635  0.77901  0.97743  Biso   1.000  O
  C478     1.0000 0.21486  0.86144  0.95186  Biso   1.000  C
  H426     1.0000 0.22905  0.90930  0.99848  Biso   1.000  H
  H427     1.0000 0.33170  0.42303  0.25730  Biso   1.000  H
  C479     1.0000 0.28759  0.37771  0.24369  Biso   1.000  C
  H428     1.0000 0.36968  0.27240  0.23341  Biso   1.000  H
  C480     1.0000 0.23420  0.31151  0.22719  Biso   1.000  C
  C481     1.0000 0.14440  0.51439  0.18150  Biso   1.000  C
  H429     1.0000 0.18819  0.46980  0.20020  Biso   1.000  H
  C482     1.0000 0.14093  0.65832  0.18451  Biso   1.000  C
  H430     1.0000 0.18330  0.71142  0.20559  Biso   1.000  H
  H431     1.0000 0.26337  0.75970  0.92349  Biso   1.000  H
  C483     1.0000 0.22537  0.81691  0.92950  Biso   1.000  C
  H432     1.0000 0.31485  0.77672  0.99828  Biso   1.000  H
  C484     1.0000 0.18265  0.89614  0.94309  Biso   1.000  C
  H433     1.0000 0.27859  0.42381  0.25060  Biso   1.000  H
  C485     1.0000 0.21266  0.27319  0.20047  Biso   1.000  C
  C486     1.0000 0.22238  0.34832  0.25060  Biso   1.000  C
  C487     1.0000 0.12689  0.58391  0.17360  Biso   1.000  C
  H434     1.0000 0.13449  0.46340  0.17621  Biso   1.000  H
  C488     1.0000 0.12360  0.73333  0.17601  Biso   1.000  C
  H435     1.0000 0.21166  0.80502  0.90777  Biso   1.000  H
  C489     1.0000 0.16557  0.88800  0.96570  Biso   1.000  C
  C490     1.0000 0.17007  0.94032  0.91399  Biso   1.000  C
  C491     1.0000 0.18089  0.27180  0.19649  Biso   1.000  C
  H436     1.0000 0.22010  0.24688  0.18421  Biso   1.000  H
  C492     1.0000 0.19119  0.35019  0.24730  Biso   1.000  C
  H437     1.0000 0.23659  0.37318  0.26970  Biso   1.000  H
  O28      1.0000 0.09578  0.57842  0.15716  Biso   1.000  O
  N28      1.0000 0.09481  0.73611  0.16052  Biso   1.000  N
  H438     1.0000 0.13460  0.78263  0.18240  Biso   1.000  H
  C493     1.0000 0.13597  0.92209  0.95858  Biso   1.000  C
  H439     1.0000 0.17408  0.85903  0.98600  Biso   1.000  H
  C494     1.0000 0.14038  0.97393  0.90609  Biso   1.000  C
  H440     1.0000 0.18204  0.94792  0.89900  Biso   1.000  H
  C495     1.0000 0.15929  0.22521  0.16909  Biso   1.000  C
  C496     1.0000 0.17030  0.30982  0.22060  Biso   1.000  C
  H441     1.0000 0.18368  0.37873  0.26309  Biso   1.000  H
  H442     1.0000 0.08829  0.62501  0.15240  Biso   1.000  H
  C497     1.0000 0.07930  0.81262  0.15290  Biso   1.000  C
  C498     1.0000 0.11926  0.91352  0.98357  Biso   1.000  C
  C499     1.0000 0.12406  0.96735  0.92950  Biso   1.000  C
  H443     1.0000 0.13136  0.00060  0.88539  Biso   1.000  H
  N29      1.0000 0.13031  0.22093  0.16556  Biso   1.000  N
  H444     1.0000 0.16739  0.19751  0.15370  Biso   1.000  H
  O29      1.0000 0.13927  0.31380  0.21714  Biso   1.000  O
  C500     1.0000 0.06035  0.82312  0.12049  Biso   1.000  C
  C501     1.0000 0.08350  0.87370  0.17659  Biso   1.000  C
  N30      1.0000 0.09370  0.95064  0.98016  Biso   1.000  N
  H445     1.0000 0.12770  0.87985  0.00251  Biso   1.000  H
  O30      1.0000 0.09508  0.00302  0.92188  Biso   1.000  O
  C502     1.0000 0.10978  0.17651  0.13849  Biso   1.000  C
  H446     1.0000 0.12969  0.27783  0.20381  Biso   1.000  H
  C503     1.0000 0.04680  0.89844  0.11162  Biso   1.000  C
  H447     1.0000 0.05670  0.78034  0.10470  Biso   1.000  H
  H448     1.0000 0.09600  0.86482  0.19909  Biso   1.000  H
  C504     1.0000 0.06921  0.94720  0.16731  Biso   1.000  C
  C505     1.0000 0.07829  0.93989  0.00539  Biso   1.000  C
  H449     1.0000 0.08607  0.98823  0.93577  Biso   1.000  H
  C506     1.0000 0.08569  0.13487  0.14360  Biso   1.000  C
  C507     1.0000 0.11271  0.18430  0.10590  Biso   1.000  C
  C508     1.0000 0.02746  0.92475  0.07670  Biso   1.000  C
  C509     1.0000 0.05181  0.96210  0.13405  Biso   1.000  C
  H450     1.0000 0.07119  0.98823  0.18370  Biso   1.000  H
  C510     1.0000 0.06690  0.00682  0.01709  Biso   1.000  C
  C511     1.0000 0.07310  0.86283  0.01649  Biso   1.000  C
  C512     1.0000 0.06416  0.09523  0.11726  Biso   1.000  C
  H451     1.0000 0.08350  0.13270  0.16551  Biso   1.000  H
  C513     1.0000 0.09081  0.14622  0.08011  Biso   1.000  C
  H452     1.0000 0.12919  0.21489  0.10209  Biso   1.000  H
  C514     1.0000 0.04605  0.92300  0.05196  Biso   1.000  C
  C515     1.0000 0.99800  0.86863  0.06349  Biso   1.000  C
  C516     1.0000 0.02095  0.01750  0.08023  Biso   1.000  C
  C517     1.0000 0.03737  0.04031  0.11853  Biso   1.000  C
  C518     1.0000 0.05148  0.99813  0.04083  Biso   1.000  C
  H453     1.0000 0.06961  0.05890  0.00890  Biso   1.000  H
  C519     1.0000 0.05694  0.85463  0.03950  Biso   1.000  C
  H454     1.0000 0.08060  0.81643  0.00810  Biso   1.000  H
  C520     1.0000 0.06610  0.10500  0.08520  Biso   1.000  C
  H455     1.0000 0.09279  0.14839  0.05820  Biso   1.000  H
  H456     1.0000 0.00490  0.81860  0.05479  Biso   1.000  H
  H457     1.0000 0.98309  0.89602  0.04409  Biso   1.000  H
  C521     1.0000 0.98020  0.84413  0.08710  Biso   1.000  C
  C522     1.0000 0.98568  0.03892  0.06790  Biso   1.000  C
  C523     1.0000 0.03965  0.06409  0.05933  Biso   1.000  C
  C524     1.0000 0.01744  0.07978  0.13919  Biso   1.000  C
  H458     1.0000 0.05319  0.80243  0.04680  Biso   1.000  H
  H459     1.0000 0.97581  0.89264  0.09871  Biso   1.000  H
  H460     1.0000 0.99329  0.80713  0.10430  Biso   1.000  H
  C525     1.0000 0.94931  0.80224  0.06850  Biso   1.000  C
  H461     1.0000 0.98300  0.09692  0.07071  Biso   1.000  H
  H462     1.0000 0.97701  0.02450  0.04419  Biso   1.000  H
  H463     1.0000 0.97468  0.00881  0.08109  Biso   1.000  H
  C526     1.0000 0.02169  0.13240  0.03409  Biso   1.000  C
  C527     1.0000 0.99420  0.02812  0.14959  Biso   1.000  C
  H464     1.0000 0.03210  0.10289  0.15989  Biso   1.000  H
  H465     1.0000 0.00580  0.12558  0.12600  Biso   1.000  H
  H466     1.0000 0.93831  0.78704  0.08450  Biso   1.000  H
  H467     1.0000 0.93620  0.83900  0.05171  Biso   1.000  H
  H468     1.0000 0.95371  0.75361  0.05730  Biso   1.000  H
  H469     1.0000 0.03390  0.14429  0.01850  Biso   1.000  H
  H470     1.0000 0.00129  0.11019  0.02050  Biso   1.000  H
  C528     1.0000 0.01571  0.21091  0.04920  Biso   1.000  C
  H471     1.0000 0.00489  0.97852  0.16049  Biso   1.000  H
  H472     1.0000 0.97728  0.01171  0.12929  Biso   1.000  H
  C529     1.0000 0.98010  0.07018  0.17320  Biso   1.000  C
  H473     1.0000 0.99990  0.20180  0.06091  Biso   1.000  H
  H474     1.0000 0.03530  0.22871  0.06600  Biso   1.000  H
  C530     1.0000 0.00440  0.27651  0.02381  Biso   1.000  C
  H475     1.0000 0.96529  0.03398  0.17899  Biso   1.000  H
  H476     1.0000 0.99670  0.08551  0.19361  Biso   1.000  H
  H477     1.0000 0.96909  0.11870  0.16240  Biso   1.000  H
  H478     1.0000 0.98479  0.25991  0.00729  Biso   1.000  H
  H479     1.0000 0.00100  0.32593  0.03509  Biso   1.000  H
  H480     1.0000 0.02020  0.28683  0.01241  Biso   1.000  H
  C531     1.0000 0.52988  0.26812  0.72988  Biso   1.000  C
  C532     1.0000 0.55327  0.25098  0.76470  Biso   1.000  C
  H481     1.0000 0.52247  0.32388  0.72900  Biso   1.000  H
  H482     1.0000 0.51208  0.23113  0.72580  Biso   1.000  H
  H483     1.0000 0.54017  0.26003  0.71259  Biso   1.000  H
  C533     1.0000 0.56488  0.16619  0.76650  Biso   1.000  C
  H484     1.0000 0.54296  0.25979  0.78219  Biso   1.000  H
  H485     1.0000 0.57118  0.28870  0.76888  Biso   1.000  H
  C534     1.0000 0.59115  0.13880  0.79896  Biso   1.000  C
  H486     1.0000 0.54667  0.12999  0.76359  Biso   1.000  H
  H487     1.0000 0.57278  0.15732  0.74710  Biso   1.000  H
  C535     1.0000 0.58187  0.12081  0.83222  Biso   1.000  C
  C536     1.0000 0.61624  0.20349  0.80959  Biso   1.000  C
  C537     1.0000 0.60565  0.06101  0.79269  Biso   1.000  C
  C538     1.0000 0.59578  0.03410  0.84493  Biso   1.000  C
  C539     1.0000 0.60087  0.18388  0.85909  Biso   1.000  C
  C540     1.0000 0.54587  0.12480  0.82488  Biso   1.000  C
  C541     1.0000 0.62047  0.23052  0.84160  Biso   1.000  C
  C542     1.0000 0.63282  0.23861  0.78999  Biso   1.000  C
  C543     1.0000 0.60746  0.00109  0.81658  Biso   1.000  C
  C544     1.0000 0.61705  0.04351  0.76640  Biso   1.000  C
  C545     1.0000 0.62256  0.05190  0.87639  Biso   1.000  C
  C546     1.0000 0.57377  0.96862  0.85300  Biso   1.000  C
  C547     1.0000 0.62338  0.13089  0.88539  Biso   1.000  C
  C548     1.0000 0.58187  0.24501  0.87408  Biso   1.000  C
  H488     1.0000 0.53587  0.08412  0.80808  Biso   1.000  H
  H489     1.0000 0.53827  0.17863  0.81638  Biso   1.000  H
  H490     1.0000 0.54056  0.11442  0.84558  Biso   1.000  H
  C549     1.0000 0.64228  0.29009  0.85528  Biso   1.000  C
  H491     1.0000 0.62857  0.22382  0.76710  Biso   1.000  H
  C550     1.0000 0.65512  0.29413  0.80400  Biso   1.000  C
  C551     1.0000 0.61968  0.92571  0.81440  Biso   1.000  C
  H492     1.0000 0.61637  0.08322  0.74978  Biso   1.000  H
  C552     1.0000 0.62947  0.96862  0.76399  Biso   1.000  C
  C553     1.0000 0.64377  0.99662  0.89589  Biso   1.000  C
  H493     1.0000 0.58408  0.91539  0.85398  Biso   1.000  H
  H494     1.0000 0.55417  0.96681  0.83400  Biso   1.000  H
  C554     1.0000 0.56527  0.97870  0.88378  Biso   1.000  C
  C555     1.0000 0.64467  0.15968  0.91469  Biso   1.000  C
  H495     1.0000 0.56507  0.26860  0.85528  Biso   1.000  H
  H496     1.0000 0.59607  0.28948  0.88499  Biso   1.000  H
  C556     1.0000 0.56738  0.21091  0.89900  Biso   1.000  C
  C557     1.0000 0.65976  0.32322  0.83628  Biso   1.000  C
  H497     1.0000 0.64518  0.30819  0.87759  Biso   1.000  H
  N31      1.0000 0.67279  0.32768  0.78387  Biso   1.000  N
  H498     1.0000 0.62037  0.88570  0.83079  Biso   1.000  H
  C558     1.0000 0.63073  0.90960  0.78798  Biso   1.000  C
  H499     1.0000 0.63728  0.95703  0.74580  Biso   1.000  H
  C559     1.0000 0.66607  0.02553  0.92449  Biso   1.000  C
  H500     1.0000 0.64318  0.94122  0.88980  Biso   1.000  H
  H501     1.0000 0.55157  0.02661  0.88170  Biso   1.000  H
  H502     1.0000 0.58437  0.98805  0.90278  Biso   1.000  H
  C560     1.0000 0.54818  0.90393  0.89080  Biso   1.000  C
  H503     1.0000 0.64438  0.21429  0.92158  Biso   1.000  H
  C561     1.0000 0.66586  0.10549  0.93319  Biso   1.000  C
  H504     1.0000 0.54808  0.18080  0.88699  Biso   1.000  H
  H505     1.0000 0.58206  0.17253  0.91389  Biso   1.000  H
  C562     1.0000 0.55927  0.27693  0.91990  Biso   1.000  C
  H506     1.0000 0.67466  0.36461  0.84518  Biso   1.000  H
  C563     1.0000 0.70248  0.33462  0.79570  Biso   1.000  C
  N32      1.0000 0.64329  0.83212  0.78470  Biso   1.000  N
  H507     1.0000 0.68128  0.99004  0.93810  Biso   1.000  H
  H508     1.0000 0.54268  0.91201  0.91148  Biso   1.000  H
  H509     1.0000 0.56177  0.85662  0.89328  Biso   1.000  H
  H510     1.0000 0.52898  0.89524  0.87210  Biso   1.000  H
  N33      1.0000 0.68506  0.13831  0.96499  Biso   1.000  N
  H511     1.0000 0.54977  0.25303  0.93599  Biso   1.000  H
  H512     1.0000 0.54437  0.31440  0.90519  Biso   1.000  H
  H513     1.0000 0.57827  0.30614  0.93208  Biso   1.000  H
  H514     1.0000 0.71237  0.31634  0.81789  Biso   1.000  H
  C564     1.0000 0.72171  0.36872  0.77695  Biso   1.000  C
  C565     1.0000 0.67147  0.82910  0.78510  Biso   1.000  C
  C566     1.0000 0.71237  0.11822  0.97339  Biso   1.000  C
  C567     1.0000 0.70907  0.40191  0.74462  Biso   1.000  C
  C568     1.0000 0.75412  0.36920  0.79139  Biso   1.000  C
  H515     1.0000 0.68397  0.87635  0.79089  Biso   1.000  H
  C569     1.0000 0.68578  0.75481  0.77690  Biso   1.000  C
  H516     1.0000 0.72047  0.08563  0.95928  Biso   1.000  H
  C570     1.0000 0.73329  0.14658  0.00732  Biso   1.000  C
  C571     1.0000 0.72869  0.43383  0.72858  Biso   1.000  C
  O31      1.0000 0.67774  0.40233  0.73016  Biso   1.000  O
  C572     1.0000 0.77381  0.40589  0.77603  Biso   1.000  C
  H517     1.0000 0.76298  0.34343  0.81240  Biso   1.000  H
  C573     1.0000 0.66717  0.68741  0.76382  Biso   1.000  C
  C574     1.0000 0.71756  0.75403  0.78024  Biso   1.000  C
  C575     1.0000 0.72370  0.19359  0.02920  Biso   1.000  C
  C576     1.0000 0.76391  0.12148  0.01692  Biso   1.000  C
  H518     1.0000 0.72007  0.45350  0.70639  Biso   1.000  H
  C577     1.0000 0.76098  0.43824  0.74379  Biso   1.000  C
  H519     1.0000 0.66918  0.37560  0.74199  Biso   1.000  H
  C578     1.0000 0.80882  0.40879  0.79214  Biso   1.000  C
  C579     1.0000 0.68077  0.62193  0.75269  Biso   1.000  C
  O32      1.0000 0.63581  0.68499  0.75916  Biso   1.000  O
  C580     1.0000 0.73149  0.68843  0.76963  Biso   1.000  C
  H520     1.0000 0.73007  0.79923  0.78999  Biso   1.000  H
  C581     1.0000 0.74390  0.21019  0.06111  Biso   1.000  C
  O33      1.0000 0.69363  0.22099  0.02256  Biso   1.000  O
  C582     1.0000 0.78509  0.13862  0.04810  Biso   1.000  C
  H521     1.0000 0.77091  0.09070  0.00153  Biso   1.000  H
  H522     1.0000 0.77407  0.46280  0.73249  Biso   1.000  H
  C583     1.0000 0.82377  0.48193  0.80310  Biso   1.000  C
  C584     1.0000 0.82671  0.33951  0.79986  Biso   1.000  C
  H523     1.0000 0.66828  0.57703  0.74269  Biso   1.000  H
  C585     1.0000 0.71239  0.62229  0.75630  Biso   1.000  C
  H524     1.0000 0.63028  0.72760  0.76660  Biso   1.000  H
  C586     1.0000 0.76576  0.68849  0.77279  Biso   1.000  C
  H525     1.0000 0.73659  0.24030  0.07650  Biso   1.000  H
  C587     1.0000 0.77460  0.18309  0.07051  Biso   1.000  C
  H526     1.0000 0.68511  0.22328  0.00173  Biso   1.000  H
  C588     1.0000 0.81731  0.10392  0.05690  Biso   1.000  C
  C589     1.0000 0.85558  0.48561  0.81849  Biso   1.000  C
  H527     1.0000 0.81177  0.53020  0.79979  Biso   1.000  H
  C590     1.0000 0.85903  0.34168  0.81548  Biso   1.000  C
  H528     1.0000 0.81668  0.28864  0.79440  Biso   1.000  H
  H529     1.0000 0.72137  0.57619  0.74938  Biso   1.000  H
  C591     1.0000 0.77758  0.65174  0.74938  Biso   1.000  C
  C592     1.0000 0.78730  0.72681  0.79951  Biso   1.000  C
  H530     1.0000 0.78829  0.19498  0.09219  Biso   1.000  H
  C593     1.0000 0.82989  0.05968  0.08600  Biso   1.000  C
  C594     1.0000 0.83439  0.11200  0.03429  Biso   1.000  C
  C595     1.0000 0.87307  0.41609  0.82638  Biso   1.000  C
  H531     1.0000 0.86547  0.53660  0.82380  Biso   1.000  H
  C596     1.0000 0.87636  0.26673  0.82400  Biso   1.000  C
  C597     1.0000 0.80877  0.64981  0.75269  Biso   1.000  C
  H532     1.0000 0.76337  0.62682  0.73028  Biso   1.000  H
  C598     1.0000 0.81907  0.72820  0.80350  Biso   1.000  C
  H533     1.0000 0.77986  0.75312  0.81578  Biso   1.000  H
  C599     1.0000 0.85961  0.02613  0.09392  Biso   1.000  C
  H534     1.0000 0.81789  0.05208  0.10099  Biso   1.000  H
  C600     1.0000 0.86401  0.07791  0.04141  Biso   1.000  C
  H535     1.0000 0.82591  0.14103  0.01401  Biso   1.000  H
  O34      1.0000 0.90420  0.42164  0.84283  Biso   1.000  O
  N34      1.0000 0.90514  0.26389  0.83947  Biso   1.000  N
  H536     1.0000 0.86538  0.21743  0.81758  Biso   1.000  H
  C601     1.0000 0.82968  0.69024  0.77939  Biso   1.000  C
  H537     1.0000 0.81628  0.62133  0.73690  Biso   1.000  H
  C602     1.0000 0.84067  0.77485  0.83089  Biso   1.000  C
  H538     1.0000 0.86860  0.99940  0.11460  Biso   1.000  H
  C603     1.0000 0.87590  0.03271  0.07051  Biso   1.000  C
  C604     1.0000 0.88072  0.08648  0.01639  Biso   1.000  C
  H539     1.0000 0.91166  0.37499  0.84759  Biso   1.000  H
  C605     1.0000 0.92066  0.18738  0.84709  Biso   1.000  C
  O35      1.0000 0.86071  0.68620  0.78284  Biso   1.000  O
  N35      1.0000 0.86967  0.77913  0.83443  Biso   1.000  N
  H540     1.0000 0.83257  0.80255  0.84628  Biso   1.000  H
  O36      1.0000 0.90489  0.99704  0.07813  Biso   1.000  O
  H541     1.0000 0.87226  0.12021  0.99748  Biso   1.000  H
  N36      1.0000 0.90629  0.04942  0.01985  Biso   1.000  N
  C606     1.0000 0.93960  0.17688  0.87950  Biso   1.000  C
  C607     1.0000 0.91648  0.12630  0.82340  Biso   1.000  C
  H542     1.0000 0.87027  0.72223  0.79618  Biso   1.000  H
  C608     1.0000 0.89017  0.82355  0.86150  Biso   1.000  C
  H543     1.0000 0.91393  0.01183  0.06419  Biso   1.000  H
  C609     1.0000 0.92167  0.06011  0.99460  Biso   1.000  C
  C610     1.0000 0.95316  0.10162  0.88837  Biso   1.000  C
  H544     1.0000 0.94326  0.21972  0.89529  Biso   1.000  H
  H545     1.0000 0.90398  0.13518  0.80089  Biso   1.000  H
  C611     1.0000 0.93077  0.05280  0.83267  Biso   1.000  C
  C612     1.0000 0.91427  0.86513  0.85639  Biso   1.000  C
  C613     1.0000 0.88727  0.81570  0.89408  Biso   1.000  C
  C614     1.0000 0.92688  0.13723  0.98349  Biso   1.000  C
  C615     1.0000 0.93306  0.99324  0.98289  Biso   1.000  C
  C616     1.0000 0.97251  0.07531  0.92331  Biso   1.000  C
  C617     1.0000 0.94818  0.03790  0.86596  Biso   1.000  C
  H546     1.0000 0.92877  0.01183  0.81628  Biso   1.000  H
  C618     1.0000 0.93582  0.90483  0.88273  Biso   1.000  C
  H547     1.0000 0.91646  0.86730  0.83448  Biso   1.000  H
  H548     1.0000 0.87076  0.78511  0.89789  Biso   1.000  H
  C619     1.0000 0.90918  0.85384  0.91990  Biso   1.000  C
  H549     1.0000 0.91936  0.18363  0.99189  Biso   1.000  H
  C620     1.0000 0.94302  0.14537  0.96048  Biso   1.000  C
  C621     1.0000 0.94848  0.00187  0.95915  Biso   1.000  C
  H550     1.0000 0.93037  0.94110  0.99109  Biso   1.000  H
  C622     1.0000 0.95391  0.07700  0.94805  Biso   1.000  C
  C623     1.0000 0.97901  0.98250  0.91975  Biso   1.000  C
  C624     1.0000 0.00198  0.13137  0.93650  Biso   1.000  C
  C625     1.0000 0.96259  0.95975  0.88145  Biso   1.000  C
  C626     1.0000 0.93386  0.89500  0.91479  Biso   1.000  C
  H551     1.0000 0.90717  0.85161  0.94178  Biso   1.000  H
  H552     1.0000 0.94677  0.19763  0.95319  Biso   1.000  H
  C627     1.0000 0.96031  0.93591  0.94066  Biso   1.000  C
  C628     1.0000 0.01428  0.96114  0.93208  Biso   1.000  C
  H553     1.0000 0.99506  0.18140  0.94519  Biso   1.000  H
  H554     1.0000 0.01687  0.10398  0.95590  Biso   1.000  H
  C629     1.0000 0.01978  0.15587  0.91288  Biso   1.000  C
  C630     1.0000 0.98254  0.92022  0.86080  Biso   1.000  C
  C631     1.0000 0.97826  0.86760  0.96590  Biso   1.000  C
  H555     1.0000 0.01697  0.90314  0.92930  Biso   1.000  H
  H556     1.0000 0.02297  0.97550  0.95580  Biso   1.000  H
  H557     1.0000 0.02528  0.99125  0.91890  Biso   1.000  H
  H558     1.0000 0.02417  0.10742  0.90128  Biso   1.000  H
  H559     1.0000 0.00667  0.19293  0.89569  Biso   1.000  H
  C632     1.0000 0.05067  0.19782  0.93148  Biso   1.000  C
  H560     1.0000 0.96788  0.89711  0.84009  Biso   1.000  H
  H561     1.0000 0.99418  0.87442  0.87398  Biso   1.000  H
  C633     1.0000 0.00576  0.97194  0.85040  Biso   1.000  C
  H562     1.0000 0.96606  0.85571  0.98149  Biso   1.000  H
  H563     1.0000 0.99866  0.88981  0.97948  Biso   1.000  H
  C634     1.0000 0.98427  0.78909  0.95078  Biso   1.000  C
  H564     1.0000 0.06167  0.21302  0.91549  Biso   1.000  H
  H565     1.0000 0.06376  0.16100  0.94830  Biso   1.000  H
  H566     1.0000 0.04627  0.24639  0.94269  Biso   1.000  H
  H567     1.0000 0.99507  0.02148  0.83949  Biso   1.000  H
  H568     1.0000 0.02267  0.98835  0.87070  Biso   1.000  H
  C635     1.0000 0.01986  0.92982  0.82678  Biso   1.000  C
  H569     1.0000 0.96466  0.77135  0.93399  Biso   1.000  H
  C636     1.0000 0.99557  0.72349  0.97620  Biso   1.000  C
  H570     1.0000 0.00007  0.79820  0.93910  Biso   1.000  H
  H571     1.0000 0.03467  0.96602  0.82099  Biso   1.000  H
  H572     1.0000 0.00328  0.91455  0.80638  Biso   1.000  H
  H573     1.0000 0.03086  0.88130  0.83759  Biso   1.000  H
  H574     1.0000 0.99896  0.67413  0.96489  Biso   1.000  H
  H575     1.0000 0.97976  0.71323  0.98758  Biso   1.000  H
  H576     1.0000 0.01517  0.74009  0.99269  Biso   1.000  H
  C637     1.0000 0.48010  0.57021  0.17320  Biso   1.000  C
  C638     1.0000 0.49420  0.52809  0.14959  Biso   1.000  C
  H577     1.0000 0.46529  0.53401  0.17899  Biso   1.000  H
  H578     1.0000 0.49670  0.58554  0.19361  Biso   1.000  H
  H579     1.0000 0.46909  0.61873  0.16240  Biso   1.000  H
  C639     1.0000 0.51744  0.57981  0.13919  Biso   1.000  C
  H580     1.0000 0.47728  0.51174  0.12929  Biso   1.000  H
  H581     1.0000 0.50489  0.47849  0.16049  Biso   1.000  H
  C640     1.0000 0.53737  0.54034  0.11853  Biso   1.000  C
  H582     1.0000 0.53210  0.60292  0.15989  Biso   1.000  H
  H583     1.0000 0.50580  0.62561  0.12600  Biso   1.000  H
  C641     1.0000 0.52095  0.51753  0.08023  Biso   1.000  C
  C642     1.0000 0.56416  0.59520  0.11726  Biso   1.000  C
  C643     1.0000 0.55181  0.46213  0.13405  Biso   1.000  C
  C644     1.0000 0.52746  0.42472  0.07670  Biso   1.000  C
  C645     1.0000 0.53965  0.56412  0.05933  Biso   1.000  C
  C646     1.0000 0.48568  0.53889  0.06790  Biso   1.000  C
  C647     1.0000 0.56610  0.60503  0.08520  Biso   1.000  C
  C648     1.0000 0.58569  0.63490  0.14360  Biso   1.000  C
  C649     1.0000 0.54680  0.39841  0.11162  Biso   1.000  C
  C650     1.0000 0.56921  0.44723  0.16731  Biso   1.000  C
  C651     1.0000 0.54605  0.42303  0.05196  Biso   1.000  C
  C652     1.0000 0.49800  0.36860  0.06349  Biso   1.000  C
  C653     1.0000 0.55148  0.49810  0.04083  Biso   1.000  C
  C654     1.0000 0.52169  0.63243  0.03409  Biso   1.000  C
  H584     1.0000 0.48300  0.59689  0.07071  Biso   1.000  H
  H585     1.0000 0.47701  0.52453  0.04419  Biso   1.000  H
  H586     1.0000 0.47468  0.50884  0.08109  Biso   1.000  H
  C655     1.0000 0.59081  0.64619  0.08011  Biso   1.000  C
  H587     1.0000 0.58350  0.63273  0.16551  Biso   1.000  H
  C656     1.0000 0.60978  0.67654  0.13849  Biso   1.000  C
  C657     1.0000 0.56035  0.32309  0.12049  Biso   1.000  C
  C658     1.0000 0.58350  0.37373  0.17659  Biso   1.000  C
  H588     1.0000 0.57119  0.48820  0.18370  Biso   1.000  H
  C659     1.0000 0.55694  0.35460  0.03950  Biso   1.000  C
  H589     1.0000 0.48309  0.39599  0.04409  Biso   1.000  H
  H590     1.0000 0.50490  0.31863  0.05479  Biso   1.000  H
  C660     1.0000 0.48020  0.34410  0.08710  Biso   1.000  C
  C661     1.0000 0.56690  0.50679  0.01709  Biso   1.000  C
  H591     1.0000 0.53390  0.64432  0.01850  Biso   1.000  H
  H592     1.0000 0.50129  0.61022  0.02050  Biso   1.000  H
  C662     1.0000 0.51571  0.71094  0.04920  Biso   1.000  C
  C663     1.0000 0.61271  0.68433  0.10590  Biso   1.000  C
  H593     1.0000 0.59279  0.64842  0.05820  Biso   1.000  H
  N37      1.0000 0.63031  0.72090  0.16556  Biso   1.000  N
  H594     1.0000 0.55670  0.28031  0.10470  Biso   1.000  H
  C664     1.0000 0.57930  0.31259  0.15290  Biso   1.000  C
  H595     1.0000 0.59600  0.36479  0.19909  Biso   1.000  H
  C665     1.0000 0.57310  0.36280  0.01649  Biso   1.000  C
  H596     1.0000 0.55319  0.30240  0.04680  Biso   1.000  H
  H597     1.0000 0.47581  0.39261  0.09871  Biso   1.000  H
  H598     1.0000 0.49329  0.30710  0.10430  Biso   1.000  H
  C666     1.0000 0.44931  0.30221  0.06850  Biso   1.000  C
  H599     1.0000 0.56961  0.55893  0.00890  Biso   1.000  H
  C667     1.0000 0.57829  0.43993  0.00539  Biso   1.000  C
  H600     1.0000 0.49990  0.70183  0.06091  Biso   1.000  H
  H601     1.0000 0.53530  0.72874  0.06600  Biso   1.000  H
  C668     1.0000 0.50440  0.77654  0.02381  Biso   1.000  C
  H602     1.0000 0.62919  0.71492  0.10209  Biso   1.000  H
  C669     1.0000 0.65929  0.72524  0.16909  Biso   1.000  C
  N38      1.0000 0.59481  0.23614  0.16052  Biso   1.000  N
  H603     1.0000 0.58060  0.31640  0.00810  Biso   1.000  H
  H604     1.0000 0.43831  0.28701  0.08450  Biso   1.000  H
  H605     1.0000 0.43620  0.33903  0.05171  Biso   1.000  H
  H606     1.0000 0.45371  0.25364  0.05730  Biso   1.000  H
  N39      1.0000 0.59370  0.45061  0.98016  Biso   1.000  N
  H607     1.0000 0.50100  0.82590  0.03509  Biso   1.000  H
  H608     1.0000 0.52020  0.78680  0.01241  Biso   1.000  H
  H609     1.0000 0.48479  0.75994  0.00729  Biso   1.000  H
  H610     1.0000 0.66739  0.69754  0.15370  Biso   1.000  H
  C670     1.0000 0.68089  0.77183  0.19649  Biso   1.000  C
  C671     1.0000 0.62360  0.23330  0.17601  Biso   1.000  C
  C672     1.0000 0.61926  0.41349  0.98357  Biso   1.000  C
  C673     1.0000 0.67030  0.80985  0.22060  Biso   1.000  C
  C674     1.0000 0.71266  0.77322  0.20047  Biso   1.000  C
  H611     1.0000 0.63460  0.28260  0.18240  Biso   1.000  H
  C675     1.0000 0.64093  0.15829  0.18451  Biso   1.000  C
  H612     1.0000 0.62770  0.37982  0.00251  Biso   1.000  H
  C676     1.0000 0.63597  0.42212  0.95858  Biso   1.000  C
  C677     1.0000 0.69119  0.85022  0.24730  Biso   1.000  C
  O37      1.0000 0.63927  0.81383  0.21714  Biso   1.000  O
  C678     1.0000 0.73420  0.81154  0.22719  Biso   1.000  C
  H613     1.0000 0.72010  0.74691  0.18421  Biso   1.000  H
  C679     1.0000 0.62689  0.08388  0.17360  Biso   1.000  C
  C680     1.0000 0.67326  0.16052  0.20015  Biso   1.000  C
  C681     1.0000 0.62406  0.46732  0.92950  Biso   1.000  C
  C682     1.0000 0.66557  0.38803  0.96570  Biso   1.000  C
  H614     1.0000 0.68368  0.87870  0.26309  Biso   1.000  H
  C683     1.0000 0.72238  0.84835  0.25060  Biso   1.000  C
  H615     1.0000 0.62969  0.77780  0.20381  Biso   1.000  H
  C684     1.0000 0.76847  0.81160  0.23035  Biso   1.000  C
  C685     1.0000 0.64440  0.01442  0.18150  Biso   1.000  C
  O38      1.0000 0.59578  0.07839  0.15716  Biso   1.000  O
  C686     1.0000 0.69115  0.09118  0.20787  Biso   1.000  C
  H616     1.0000 0.68330  0.21139  0.20559  Biso   1.000  H
  C687     1.0000 0.64038  0.47390  0.90609  Biso   1.000  C
  O39      1.0000 0.59508  0.50299  0.92188  Biso   1.000  O
  C688     1.0000 0.68265  0.39611  0.94309  Biso   1.000  C
  H617     1.0000 0.67408  0.35900  0.98600  Biso   1.000  H
  H618     1.0000 0.73659  0.87321  0.26970  Biso   1.000  H
  C689     1.0000 0.78759  0.87774  0.24369  Biso   1.000  C
  C690     1.0000 0.78240  0.74600  0.21975  Biso   1.000  C
  C691     1.0000 0.67619  0.01810  0.19689  Biso   1.000  C
  H619     1.0000 0.63449  0.96343  0.17621  Biso   1.000  H
  H620     1.0000 0.58829  0.12498  0.15240  Biso   1.000  H
  C692     1.0000 0.72615  0.09408  0.22396  Biso   1.000  C
  H621     1.0000 0.63136  0.50063  0.88539  Biso   1.000  H
  C693     1.0000 0.67007  0.44029  0.91399  Biso   1.000  C
  H622     1.0000 0.58607  0.48820  0.93577  Biso   1.000  H
  C694     1.0000 0.71486  0.36141  0.95186  Biso   1.000  C
  C695     1.0000 0.81918  0.87810  0.24730  Biso   1.000  C
  H623     1.0000 0.77859  0.92384  0.25060  Biso   1.000  H
  C696     1.0000 0.81418  0.74522  0.22308  Biso   1.000  C
  H624     1.0000 0.76989  0.70080  0.21000  Biso   1.000  H
  H625     1.0000 0.68819  0.96983  0.20020  Biso   1.000  H
  C697     1.0000 0.73900  0.06179  0.25619  Biso   1.000  C
  C698     1.0000 0.74586  0.13083  0.20859  Biso   1.000  C
  H626     1.0000 0.68204  0.44789  0.89900  Biso   1.000  H
  C699     1.0000 0.72537  0.31688  0.92950  Biso   1.000  C
  C700     1.0000 0.73608  0.37849  0.98309  Biso   1.000  C
  C701     1.0000 0.83279  0.81262  0.23617  Biso   1.000  C
  H627     1.0000 0.83170  0.92300  0.25730  Biso   1.000  H
  C702     1.0000 0.82849  0.67093  0.21489  Biso   1.000  C
  C703     1.0000 0.77127  0.06620  0.27141  Biso   1.000  C
  H628     1.0000 0.72589  0.03717  0.26750  Biso   1.000  H
  C704     1.0000 0.77825  0.13131  0.22303  Biso   1.000  C
  H629     1.0000 0.73700  0.15660  0.18759  Biso   1.000  H
  C705     1.0000 0.75606  0.28978  0.93890  Biso   1.000  C
  H630     1.0000 0.71166  0.30499  0.90777  Biso   1.000  H
  C706     1.0000 0.76667  0.35339  0.99269  Biso   1.000  C
  H631     1.0000 0.72905  0.40933  0.99848  Biso   1.000  H
  O40      1.0000 0.86414  0.81504  0.24083  Biso   1.000  O
  N40      1.0000 0.85667  0.66791  0.21529  Biso   1.000  N
  H632     1.0000 0.81599  0.62374  0.20910  Biso   1.000  H
  C707     1.0000 0.79089  0.09812  0.25537  Biso   1.000  C
  H633     1.0000 0.77989  0.04653  0.29359  Biso   1.000  H
  C708     1.0000 0.79751  0.16541  0.20431  Biso   1.000  C
  C709     1.0000 0.77625  0.30638  0.97076  Biso   1.000  C
  H634     1.0000 0.76337  0.25973  0.92349  Biso   1.000  H
  C710     1.0000 0.78759  0.38181  0.02659  Biso   1.000  C
  H635     1.0000 0.86968  0.77243  0.23341  Biso   1.000  H
  C711     1.0000 0.86925  0.59043  0.21200  Biso   1.000  C
  O41      1.0000 0.82224  0.09770  0.26983  Biso   1.000  O
  N41      1.0000 0.82716  0.17229  0.21611  Biso   1.000  N
  H636     1.0000 0.78759  0.18369  0.18210  Biso   1.000  H
  O42      1.0000 0.80635  0.27898  0.97743  Biso   1.000  O
  N42      1.0000 0.81490  0.36172  0.03499  Biso   1.000  N
  H637     1.0000 0.77949  0.41440  0.04071  Biso   1.000  H
  C712     1.0000 0.88028  0.57432  0.18561  Biso   1.000  C
  C713     1.0000 0.87048  0.53141  0.23599  Biso   1.000  C
  H638     1.0000 0.83078  0.12437  0.25800  Biso   1.000  H
  C714     1.0000 0.84486  0.20590  0.19599  Biso   1.000  C
  H639     1.0000 0.81485  0.27669  0.99828  Biso   1.000  H
  C715     1.0000 0.83410  0.39448  0.06680  Biso   1.000  C
  C716     1.0000 0.89250  0.49888  0.18340  Biso   1.000  C
  H640     1.0000 0.87959  0.61433  0.16919  Biso   1.000  H
  H641     1.0000 0.86270  0.54300  0.25419  Biso   1.000  H
  C717     1.0000 0.88291  0.45652  0.23358  Biso   1.000  C
  C718     1.0000 0.86714  0.26142  0.21000  Biso   1.000  C
  C719     1.0000 0.84020  0.17681  0.16370  Biso   1.000  C
  C720     1.0000 0.85529  0.34029  0.08530  Biso   1.000  C
  C721     1.0000 0.83389  0.47450  0.07550  Biso   1.000  C
  C722     1.0000 0.90420  0.46593  0.15505  Biso   1.000  C
  C723     1.0000 0.89433  0.43902  0.20729  Biso   1.000  C
  H642     1.0000 0.88359  0.41681  0.25020  Biso   1.000  H
  C724     1.0000 0.88372  0.29648  0.19040  Biso   1.000  C
  H643     1.0000 0.87139  0.27621  0.23291  Biso   1.000  H
  H644     1.0000 0.82530  0.13542  0.15480  Biso   1.000  H
  C725     1.0000 0.85770  0.20988  0.14470  Biso   1.000  C
  C726     1.0000 0.87660  0.36914  0.11460  Biso   1.000  C
  H645     1.0000 0.85560  0.28568  0.07840  Biso   1.000  H
  H646     1.0000 0.81871  0.50999  0.06191  Biso   1.000  H
  C727     1.0000 0.85619  0.50341  0.10410  Biso   1.000  C
  C728     1.0000 0.91809  0.37922  0.16776  Biso   1.000  C
  C729     1.0000 0.87740  0.44813  0.12360  Biso   1.000  C
  C730     1.0000 0.92620  0.53141  0.14701  Biso   1.000  C
  C731     1.0000 0.90880  0.36123  0.20102  Biso   1.000  C
  C732     1.0000 0.87949  0.26951  0.15839  Biso   1.000  C
  H647     1.0000 0.85480  0.19178  0.12239  Biso   1.000  H
  C733     1.0000 0.89909  0.31609  0.14089  Biso   1.000  C
  H648     1.0000 0.85680  0.55881  0.11019  Biso   1.000  H
  C734     1.0000 0.95411  0.37523  0.17511  Biso   1.000  C
  H649     1.0000 0.91590  0.58464  0.14601  Biso   1.000  H
  H650     1.0000 0.94579  0.53322  0.16601  Biso   1.000  H
  C735     1.0000 0.93469  0.52133  0.11620  Biso   1.000  C
  C736     1.0000 0.93510  0.33384  0.23351  Biso   1.000  C
  C737     1.0000 0.91809  0.25502  0.12590  Biso   1.000  C
  H651     1.0000 0.96409  0.41591  0.19190  Biso   1.000  H
  H652     1.0000 0.96169  0.32140  0.18360  Biso   1.000  H
  H653     1.0000 0.95940  0.38561  0.15440  Biso   1.000  H
  H654     1.0000 0.91561  0.51204  0.09720  Biso   1.000  H
  H655     1.0000 0.94840  0.47342  0.11831  Biso   1.000  H
  C738     1.0000 0.95181  0.59610  0.10921  Biso   1.000  C
  H656     1.0000 0.95329  0.36998  0.23639  Biso   1.000  H
  H657     1.0000 0.92718  0.34271  0.25289  Biso   1.000  H
  C739     1.0000 0.94669  0.24899  0.23529  Biso   1.000  C
  H658     1.0000 0.93489  0.23143  0.14470  Biso   1.000  H
  H659     1.0000 0.90389  0.21049  0.11500  Biso   1.000  H
  C740     1.0000 0.93260  0.28912  0.10099  Biso   1.000  C
  H660     1.0000 0.95730  0.58802  0.08851  Biso   1.000  H
  H661     1.0000 0.93819  0.64341  0.10670  Biso   1.000  H
  H662     1.0000 0.97101  0.60479  0.12791  Biso   1.000  H
  H663     1.0000 0.95699  0.24018  0.21779  Biso   1.000  H
  H664     1.0000 0.92880  0.21133  0.23110  Biso   1.000  H
  C741     1.0000 0.97008  0.23191  0.27011  Biso   1.000  C
  H665     1.0000 0.95190  0.31923  0.11300  Biso   1.000  H
  H666     1.0000 0.91789  0.32750  0.08610  Biso   1.000  H
  C742     1.0000 0.94070  0.22310  0.08011  Biso   1.000  C
  H667     1.0000 0.97749  0.17609  0.27101  Biso   1.000  H
  H668     1.0000 0.98790  0.26890  0.27419  Biso   1.000  H
  H669     1.0000 0.95979  0.24000  0.28740  Biso   1.000  H
  H670     1.0000 0.95019  0.24700  0.06399  Biso   1.000  H
  H671     1.0000 0.95559  0.18563  0.09480  Biso   1.000  H
  H672     1.0000 0.92169  0.19389  0.06790  Biso   1.000  H
  C743     1.0000 0.51986  0.42979  0.82678  Biso   1.000  C
  C744     1.0000 0.50576  0.47191  0.85040  Biso   1.000  C
  H673     1.0000 0.53467  0.46599  0.82099  Biso   1.000  H
  H674     1.0000 0.50328  0.41452  0.80638  Biso   1.000  H
  H675     1.0000 0.53086  0.38133  0.83759  Biso   1.000  H
  C745     1.0000 0.48254  0.42019  0.86080  Biso   1.000  C
  H676     1.0000 0.52267  0.48832  0.87070  Biso   1.000  H
  H677     1.0000 0.49507  0.52151  0.83949  Biso   1.000  H
  C746     1.0000 0.46259  0.45972  0.88145  Biso   1.000  C
  H678     1.0000 0.46788  0.39714  0.84009  Biso   1.000  H
  H679     1.0000 0.49418  0.37439  0.87398  Biso   1.000  H
  C747     1.0000 0.43582  0.40480  0.88273  Biso   1.000  C
  C748     1.0000 0.47901  0.48253  0.91975  Biso   1.000  C
  C749     1.0000 0.44818  0.53793  0.86596  Biso   1.000  C
  C750     1.0000 0.41427  0.36510  0.85639  Biso   1.000  C
  C751     1.0000 0.43386  0.39503  0.91479  Biso   1.000  C
  C752     1.0000 0.46031  0.43588  0.94066  Biso   1.000  C
  C753     1.0000 0.47251  0.57534  0.92331  Biso   1.000  C
  C754     1.0000 0.51428  0.46111  0.93208  Biso   1.000  C
  C755     1.0000 0.45316  0.60159  0.88837  Biso   1.000  C
  C756     1.0000 0.43077  0.55283  0.83267  Biso   1.000  C
  C757     1.0000 0.39017  0.32352  0.86150  Biso   1.000  C
  H680     1.0000 0.41646  0.36733  0.83448  Biso   1.000  H
  C758     1.0000 0.40918  0.35381  0.91990  Biso   1.000  C
  C759     1.0000 0.44848  0.50190  0.95915  Biso   1.000  C
  C760     1.0000 0.47826  0.36763  0.96590  Biso   1.000  C
  C761     1.0000 0.45391  0.57703  0.94805  Biso   1.000  C
  C762     1.0000 0.50198  0.63140  0.93650  Biso   1.000  C
  H681     1.0000 0.51697  0.40311  0.92930  Biso   1.000  H
  H682     1.0000 0.52297  0.47553  0.95580  Biso   1.000  H
  H683     1.0000 0.52528  0.49122  0.91890  Biso   1.000  H
  C763     1.0000 0.43960  0.67691  0.87950  Biso   1.000  C
  C764     1.0000 0.41648  0.62634  0.82340  Biso   1.000  C
  H684     1.0000 0.42877  0.51180  0.81628  Biso   1.000  H
  N43      1.0000 0.36967  0.27910  0.83443  Biso   1.000  N
  C765     1.0000 0.38727  0.31573  0.89408  Biso   1.000  C
  H685     1.0000 0.40717  0.35164  0.94178  Biso   1.000  H
  C766     1.0000 0.43306  0.49321  0.98289  Biso   1.000  C
  H686     1.0000 0.46606  0.35568  0.98149  Biso   1.000  H
  H687     1.0000 0.49866  0.38984  0.97948  Biso   1.000  H
  C767     1.0000 0.48427  0.28912  0.95078  Biso   1.000  C
  C768     1.0000 0.44302  0.64540  0.96048  Biso   1.000  C
  H688     1.0000 0.51687  0.60401  0.95590  Biso   1.000  H
  H689     1.0000 0.49506  0.68143  0.94519  Biso   1.000  H
  C769     1.0000 0.51978  0.65590  0.91288  Biso   1.000  C
  H690     1.0000 0.44326  0.71969  0.89529  Biso   1.000  H
  C770     1.0000 0.42066  0.68741  0.84709  Biso   1.000  C
  H691     1.0000 0.40398  0.63521  0.80089  Biso   1.000  H
  C771     1.0000 0.34067  0.27482  0.83089  Biso   1.000  C
  H692     1.0000 0.37076  0.28514  0.89789  Biso   1.000  H
  H693     1.0000 0.43037  0.44113  0.99109  Biso   1.000  H
  C772     1.0000 0.42167  0.56014  0.99460  Biso   1.000  C
  H694     1.0000 0.50007  0.29823  0.93910  Biso   1.000  H
  H695     1.0000 0.46466  0.27132  0.93399  Biso   1.000  H
  C773     1.0000 0.49557  0.22352  0.97620  Biso   1.000  C
  C774     1.0000 0.42688  0.63720  0.98349  Biso   1.000  C
  H696     1.0000 0.44677  0.69760  0.95319  Biso   1.000  H
  H697     1.0000 0.52417  0.60739  0.90128  Biso   1.000  H
  H698     1.0000 0.50667  0.69290  0.89569  Biso   1.000  H
  C775     1.0000 0.55067  0.69785  0.93148  Biso   1.000  C
  N44      1.0000 0.40514  0.76392  0.83947  Biso   1.000  N
  C776     1.0000 0.31907  0.22823  0.80350  Biso   1.000  C
  H699     1.0000 0.33257  0.30252  0.84628  Biso   1.000  H
  N45      1.0000 0.40629  0.54939  0.01985  Biso   1.000  N
  H700     1.0000 0.49896  0.17410  0.96489  Biso   1.000  H
  H701     1.0000 0.47976  0.21320  0.98758  Biso   1.000  H
  H702     1.0000 0.51517  0.24012  0.99269  Biso   1.000  H
  H703     1.0000 0.41936  0.68360  0.99189  Biso   1.000  H
  H704     1.0000 0.56167  0.71299  0.91549  Biso   1.000  H
  H705     1.0000 0.56376  0.66103  0.94830  Biso   1.000  H
  H706     1.0000 0.54627  0.74642  0.94269  Biso   1.000  H
  C777     1.0000 0.37636  0.76670  0.82400  Biso   1.000  C
  C778     1.0000 0.32968  0.19021  0.77939  Biso   1.000  C
  C779     1.0000 0.28730  0.22678  0.79951  Biso   1.000  C
  C780     1.0000 0.38072  0.58651  0.01639  Biso   1.000  C
  H707     1.0000 0.36538  0.71740  0.81758  Biso   1.000  H
  C781     1.0000 0.35903  0.84171  0.81548  Biso   1.000  C
  C782     1.0000 0.30877  0.14978  0.75269  Biso   1.000  C
  O43      1.0000 0.36071  0.18623  0.78284  Biso   1.000  O
  C783     1.0000 0.26576  0.18852  0.77279  Biso   1.000  C
  H708     1.0000 0.27986  0.25309  0.81578  Biso   1.000  H
  H709     1.0000 0.37226  0.62024  0.99748  Biso   1.000  H
  C784     1.0000 0.36401  0.57794  0.04141  Biso   1.000  C
  C785     1.0000 0.37307  0.91612  0.82638  Biso   1.000  C
  C786     1.0000 0.32671  0.83954  0.79986  Biso   1.000  C
  H710     1.0000 0.31628  0.12130  0.73690  Biso   1.000  H
  C787     1.0000 0.27758  0.15171  0.74938  Biso   1.000  C
  H711     1.0000 0.37027  0.22220  0.79618  Biso   1.000  H
  C788     1.0000 0.23149  0.18840  0.76963  Biso   1.000  C
  C789     1.0000 0.37590  0.53274  0.07051  Biso   1.000  C
  C790     1.0000 0.33439  0.61203  0.03429  Biso   1.000  C
  C791     1.0000 0.35558  0.98564  0.81849  Biso   1.000  C
  O44      1.0000 0.40420  0.92161  0.84283  Biso   1.000  O
  C792     1.0000 0.30882  0.90882  0.79214  Biso   1.000  C
  H712     1.0000 0.31668  0.78861  0.79440  Biso   1.000  H
  H713     1.0000 0.26337  0.12679  0.73028  Biso   1.000  H
  C793     1.0000 0.21239  0.12232  0.75630  Biso   1.000  C
  C794     1.0000 0.21756  0.25400  0.78024  Biso   1.000  C
  C795     1.0000 0.35961  0.52610  0.09392  Biso   1.000  C
  O45      1.0000 0.40489  0.49701  0.07813  Biso   1.000  O
  C796     1.0000 0.31731  0.60389  0.05690  Biso   1.000  C
  H714     1.0000 0.32591  0.64100  0.01401  Biso   1.000  H
  C797     1.0000 0.32377  0.98190  0.80310  Biso   1.000  C
  H715     1.0000 0.36547  0.03663  0.82380  Biso   1.000  H
  H716     1.0000 0.41166  0.87502  0.84759  Biso   1.000  H
  C798     1.0000 0.27381  0.90592  0.77603  Biso   1.000  C
  C799     1.0000 0.18077  0.12190  0.75269  Biso   1.000  C
  H717     1.0000 0.22137  0.07622  0.74938  Biso   1.000  H
  C800     1.0000 0.18578  0.25478  0.77690  Biso   1.000  C
  H718     1.0000 0.23007  0.29920  0.78999  Biso   1.000  H
  H719     1.0000 0.36860  0.49943  0.11460  Biso   1.000  H
  C801     1.0000 0.32989  0.55971  0.08600  Biso   1.000  C
  H720     1.0000 0.41393  0.51180  0.06419  Biso   1.000  H
  C802     1.0000 0.28509  0.63859  0.04810  Biso   1.000  C
  H721     1.0000 0.31177  0.03017  0.79979  Biso   1.000  H
  C803     1.0000 0.26098  0.93821  0.74379  Biso   1.000  C
  C804     1.0000 0.25412  0.86923  0.79139  Biso   1.000  C
  C805     1.0000 0.16717  0.18738  0.76382  Biso   1.000  C
  H722     1.0000 0.16828  0.07700  0.74269  Biso   1.000  H
  C806     1.0000 0.17147  0.32913  0.78510  Biso   1.000  C
  H723     1.0000 0.31789  0.55211  0.10099  Biso   1.000  H
  C807     1.0000 0.27460  0.68312  0.07051  Biso   1.000  C
  C808     1.0000 0.26391  0.62151  0.01692  Biso   1.000  C
  C809     1.0000 0.22869  0.93380  0.72858  Biso   1.000  C
  H724     1.0000 0.27407  0.96283  0.73249  Biso   1.000  H
  C810     1.0000 0.22171  0.86875  0.77695  Biso   1.000  C
  H725     1.0000 0.26298  0.84340  0.81240  Biso   1.000  H
  O46      1.0000 0.13581  0.18502  0.75916  Biso   1.000  O
  N46      1.0000 0.14329  0.33209  0.78470  Biso   1.000  N
  H726     1.0000 0.18397  0.37632  0.79089  Biso   1.000  H
  C811     1.0000 0.24390  0.71022  0.06111  Biso   1.000  C
  H727     1.0000 0.28829  0.69501  0.09219  Biso   1.000  H
  C812     1.0000 0.23329  0.64661  0.00732  Biso   1.000  C
  H728     1.0000 0.27091  0.59073  0.00153  Biso   1.000  H
  C813     1.0000 0.20907  0.90194  0.74462  Biso   1.000  C
  H729     1.0000 0.22007  0.95353  0.70639  Biso   1.000  H
  C814     1.0000 0.20248  0.83459  0.79570  Biso   1.000  C
  H730     1.0000 0.13028  0.22763  0.76660  Biso   1.000  H
  C815     1.0000 0.13073  0.40963  0.78798  Biso   1.000  C
  C816     1.0000 0.22370  0.69362  0.02920  Biso   1.000  C
  H731     1.0000 0.23659  0.74033  0.07650  Biso   1.000  H
  C817     1.0000 0.21237  0.61819  0.97339  Biso   1.000  C
  O47      1.0000 0.17774  0.90230  0.73016  Biso   1.000  O
  N47      1.0000 0.17279  0.82771  0.78387  Biso   1.000  N
  H732     1.0000 0.21237  0.81631  0.81789  Biso   1.000  H
  C818     1.0000 0.11968  0.42568  0.81440  Biso   1.000  C
  C819     1.0000 0.12947  0.46859  0.76399  Biso   1.000  C
  O48      1.0000 0.19363  0.72102  0.02256  Biso   1.000  O
  N48      1.0000 0.18506  0.63834  0.96499  Biso   1.000  N
  H733     1.0000 0.22047  0.58560  0.95928  Biso   1.000  H
  H734     1.0000 0.16918  0.87563  0.74199  Biso   1.000  H
  C820     1.0000 0.15512  0.79410  0.80400  Biso   1.000  C
  C821     1.0000 0.10746  0.50112  0.81658  Biso   1.000  C
  H735     1.0000 0.12037  0.38573  0.83079  Biso   1.000  H
  H736     1.0000 0.13728  0.45700  0.74580  Biso   1.000  H
  C822     1.0000 0.11705  0.54354  0.76640  Biso   1.000  C
  H737     1.0000 0.18511  0.72331  0.00173  Biso   1.000  H
  C823     1.0000 0.16586  0.60552  0.93319  Biso   1.000  C
  C824     1.0000 0.13282  0.73864  0.78999  Biso   1.000  C
  C825     1.0000 0.15976  0.82325  0.83628  Biso   1.000  C
  C826     1.0000 0.09578  0.53413  0.84493  Biso   1.000  C
  C827     1.0000 0.10565  0.56104  0.79269  Biso   1.000  C
  H738     1.0000 0.11637  0.58319  0.74978  Biso   1.000  H
  C828     1.0000 0.14467  0.65971  0.91469  Biso   1.000  C
  C829     1.0000 0.16607  0.52550  0.92449  Biso   1.000  C
  C830     1.0000 0.11624  0.70352  0.80959  Biso   1.000  C
  H739     1.0000 0.12857  0.72379  0.76710  Biso   1.000  H
  C831     1.0000 0.14228  0.79012  0.85528  Biso   1.000  C
  H740     1.0000 0.17466  0.86464  0.84518  Biso   1.000  H
  C832     1.0000 0.08187  0.62084  0.83222  Biso   1.000  C
  C833     1.0000 0.12256  0.55193  0.87639  Biso   1.000  C
  C834     1.0000 0.07377  0.46859  0.85300  Biso   1.000  C
  C835     1.0000 0.09115  0.63883  0.79896  Biso   1.000  C
  C836     1.0000 0.12338  0.63092  0.88539  Biso   1.000  C
  H741     1.0000 0.14438  0.71432  0.92158  Biso   1.000  H
  C837     1.0000 0.14377  0.49659  0.89589  Biso   1.000  C
  H742     1.0000 0.18128  0.49001  0.93810  Biso   1.000  H
  C838     1.0000 0.12047  0.73049  0.84160  Biso   1.000  C
  H743     1.0000 0.14518  0.80822  0.87759  Biso   1.000  H
  C839     1.0000 0.10087  0.68391  0.85909  Biso   1.000  C
  C840     1.0000 0.04587  0.62483  0.82488  Biso   1.000  C
  H744     1.0000 0.08408  0.41542  0.85398  Biso   1.000  H
  H745     1.0000 0.05417  0.46684  0.83400  Biso   1.000  H
  C841     1.0000 0.06527  0.47873  0.88378  Biso   1.000  C
  C842     1.0000 0.06488  0.66622  0.76650  Biso   1.000  C
  H746     1.0000 0.14318  0.44119  0.88980  Biso   1.000  H
  C843     1.0000 0.08187  0.74504  0.87408  Biso   1.000  C
  H747     1.0000 0.03587  0.58409  0.80808  Biso   1.000  H
  H748     1.0000 0.03827  0.67860  0.81638  Biso   1.000  H
  H749     1.0000 0.04056  0.61439  0.84558  Biso   1.000  H
  H750     1.0000 0.08437  0.48802  0.90278  Biso   1.000  H
  H751     1.0000 0.05157  0.52658  0.88170  Biso   1.000  H
  C844     1.0000 0.04818  0.40390  0.89080  Biso   1.000  C
  H752     1.0000 0.04667  0.63002  0.76359  Biso   1.000  H
  H753     1.0000 0.07278  0.65729  0.74710  Biso   1.000  H
  C845     1.0000 0.05327  0.75101  0.76470  Biso   1.000  C
  H754     1.0000 0.06507  0.76863  0.85528  Biso   1.000  H
  H755     1.0000 0.09607  0.78951  0.88499  Biso   1.000  H
  C846     1.0000 0.06738  0.71094  0.89900  Biso   1.000  C
  H756     1.0000 0.04268  0.41198  0.91148  Biso   1.000  H
  H757     1.0000 0.06177  0.35659  0.89328  Biso   1.000  H
  H758     1.0000 0.02898  0.39521  0.87210  Biso   1.000  H
  H759     1.0000 0.04296  0.75982  0.78219  Biso   1.000  H
  H760     1.0000 0.07118  0.78873  0.76888  Biso   1.000  H
  C847     1.0000 0.02988  0.76809  0.72988  Biso   1.000  C
  H761     1.0000 0.04808  0.68083  0.88699  Biso   1.000  H
  H762     1.0000 0.08206  0.67250  0.91389  Biso   1.000  H
  C848     1.0000 0.05927  0.77690  0.91990  Biso   1.000  C
  H763     1.0000 0.02247  0.82391  0.72900  Biso   1.000  H
  H764     1.0000 0.01208  0.73110  0.72580  Biso   1.000  H
  H765     1.0000 0.04017  0.76000  0.71259  Biso   1.000  H
  H766     1.0000 0.04977  0.75300  0.93599  Biso   1.000  H
  H767     1.0000 0.04437  0.81443  0.90519  Biso   1.000  H
  H768     1.0000 0.07827  0.80611  0.93208  Biso   1.000  H
  Ne1      1.0000 0.71923  0.56314  0.62777  Biso   1.000  Ne
  He1      1.0000 0.74099  0.55973  0.71613  Biso   1.000  He
  He2      1.0000 0.73371  0.42480  0.60284  Biso   1.000  He
  He3      1.0000 0.71882  0.77537  0.58051  Biso   1.000  He
  Ar1      1.0000 0.71914  0.56481  0.62824  Biso   1.000  Ar
  Ne2      1.0000 0.28074  0.43688  0.37221  Biso   1.000  Ne
  He4      1.0000 0.28248  0.60321  0.42338  Biso   1.000  He
  He5      1.0000 0.28325  0.28655  0.40856  Biso   1.000  He
  He6      1.0000 0.27996  0.46610  0.28694  Biso   1.000  He
  Ar2      1.0000 0.28083  0.43522  0.37174  Biso   1.000  Ar
  Ne3      1.0000 0.78074  0.93688  0.37221  Biso   1.000  Ne
  He7      1.0000 0.78251  0.10318  0.42340  Biso   1.000  He
  He8      1.0000 0.78325  0.78658  0.40856  Biso   1.000  He
  He9      1.0000 0.77988  0.96606  0.28694  Biso   1.000  He
  Ar3      1.0000 0.78083  0.93522  0.37173  Biso   1.000  Ar
  Ne4      1.0000 0.21923  0.06314  0.62777  Biso   1.000  Ne
  He10     1.0000 0.24095  0.05972  0.71612  Biso   1.000  He
  He11     1.0000 0.23371  0.92482  0.60284  Biso   1.000  He
  He12     1.0000 0.21882  0.27535  0.58052  Biso   1.000  He
  Ar4      1.0000 0.21916  0.06483  0.62825  Biso   1.000  Ar
  Ne5      1.0000 0.21924  0.93688  0.12778  Biso   1.000  Ne
  He13     1.0000 0.24052  0.94028  0.21406  Biso   1.000  He
  He14     1.0000 0.21238  0.04937  0.08693  Biso   1.000  He
  He15     1.0000 0.19884  0.78511  0.09181  Biso   1.000  He
  Ar5      1.0000 0.21915  0.93523  0.12825  Biso   1.000  Ar
  Ne6      1.0000 0.78073  0.06314  0.87221  Biso   1.000  Ne
  He16     1.0000 0.76631  0.92389  0.89748  Biso   1.000  He
  He17     1.0000 0.78320  0.21469  0.90879  Biso   1.000  He
  He18     1.0000 0.77985  0.03516  0.79059  Biso   1.000  He
  Ar6      1.0000 0.78081  0.06485  0.87174  Biso   1.000  Ar
  Ne7      1.0000 0.71924  0.43688  0.12778  Biso   1.000  Ne
  He19     1.0000 0.74049  0.44029  0.21406  Biso   1.000  He
  He20     1.0000 0.71240  0.54936  0.08695  Biso   1.000  He
  He21     1.0000 0.69884  0.28508  0.09181  Biso   1.000  He
  Ar7      1.0000 0.71914  0.43523  0.12826  Biso   1.000  Ar
  Ne8      1.0000 0.28073  0.56314  0.87221  Biso   1.000  Ne
  He22     1.0000 0.26631  0.42386  0.89748  Biso   1.000  He
  He23     1.0000 0.28320  0.71465  0.90879  Biso   1.000  He
  He24     1.0000 0.27985  0.53513  0.79059  Biso   1.000  He
  Ar8      1.0000 0.28082  0.56480  0.87174  Biso   1.000  Ar
