data_image0
_cell_length_a       24.172
_cell_length_b       24.172
_cell_length_c       24.172
_cell_angle_alpha    90
_cell_angle_beta     90
_cell_angle_gamma    90

_symmetry_space_group_name_H-M    "P 1"
_symmetry_int_tables_number       1

loop_
  _symmetry_equiv_pos_as_xyz
  'x, y, z'

loop_
  _atom_site_label
  _atom_site_occupancy
  _atom_site_fract_x
  _atom_site_fract_y
  _atom_site_fract_z
  _atom_site_thermal_displace_type
  _atom_site_B_iso_or_equiv
  _atom_site_type_symbol
  O1       1.0000 0.37299  0.37299  0.37299  Biso   1.000  O
  C1       1.0000 0.39562  0.33799  0.31619  Biso   1.000  C
  C2       1.0000 0.33799  0.31619  0.39562  Biso   1.000  C
  C3       1.0000 0.38189  0.30482  0.36211  Biso   1.000  C
  C4       1.0000 0.36211  0.38189  0.30482  Biso   1.000  C
  C5       1.0000 0.30482  0.36211  0.38189  Biso   1.000  C
  C6       1.0000 0.31619  0.39562  0.33799  Biso   1.000  C
  C7       1.0000 0.44510  0.32471  0.28140  Biso   1.000  C
  C8       1.0000 0.32471  0.28140  0.44510  Biso   1.000  C
  H1       1.0000 0.40410  0.27342  0.37010  Biso   1.000  H
  H2       1.0000 0.37010  0.40410  0.27342  Biso   1.000  H
  H3       1.0000 0.27342  0.37010  0.40410  Biso   1.000  H
  C9       1.0000 0.28140  0.44510  0.32471  Biso   1.000  C
  N1       1.0000 0.47919  0.28901  0.29600  Biso   1.000  N
  H4       1.0000 0.45060  0.34399  0.24760  Biso   1.000  H
  N2       1.0000 0.28901  0.29600  0.47919  Biso   1.000  N
  H5       1.0000 0.34399  0.24760  0.45060  Biso   1.000  H
  N3       1.0000 0.29600  0.47919  0.28901  Biso   1.000  N
  H6       1.0000 0.24760  0.45060  0.34399  Biso   1.000  H
  C10      1.0000 0.52792  0.24020  0.28020  Biso   1.000  C
  H7       1.0000 0.52441  0.27259  0.30568  Biso   1.000  H
  C11      1.0000 0.52941  0.27569  0.25650  Biso   1.000  C
  O2       1.0000 0.51200  0.29501  0.26299  Biso   1.000  O
  C12      1.0000 0.27569  0.25650  0.52941  Biso   1.000  C
  O3       1.0000 0.29501  0.26299  0.51200  Biso   1.000  O
  C13      1.0000 0.24020  0.28020  0.52792  Biso   1.000  C
  H8       1.0000 0.27259  0.30568  0.52441  Biso   1.000  H
  C14      1.0000 0.28020  0.52792  0.24020  Biso   1.000  C
  H9       1.0000 0.30568  0.52441  0.27259  Biso   1.000  H
  C15      1.0000 0.25650  0.52941  0.27569  Biso   1.000  C
  O4       1.0000 0.26299  0.51200  0.29501  Biso   1.000  O
  N4       1.0000 0.48171  0.20172  0.28889  Biso   1.000  N
  C16      1.0000 0.52941  0.22431  0.24350  Biso   1.000  C
  C17      1.0000 0.54402  0.19440  0.29609  Biso   1.000  C
  O5       1.0000 0.51200  0.20499  0.23701  Biso   1.000  O
  C18      1.0000 0.52792  0.25980  0.21980  Biso   1.000  C
  C19      1.0000 0.58179  0.21119  0.29000  Biso   1.000  C
  C20      1.0000 0.58361  0.27259  0.29369  Biso   1.000  C
  N5       1.0000 0.48171  0.29832  0.21111  Biso   1.000  N
  C21      1.0000 0.58179  0.28881  0.21000  Biso   1.000  C
  C22      1.0000 0.54402  0.30560  0.20391  Biso   1.000  C
  N6       1.0000 0.29832  0.21111  0.48171  Biso   1.000  N
  C23      1.0000 0.25980  0.21980  0.52792  Biso   1.000  C
  C24      1.0000 0.30560  0.20391  0.54402  Biso   1.000  C
  C25      1.0000 0.28881  0.21000  0.58179  Biso   1.000  C
  C26      1.0000 0.22431  0.24350  0.52941  Biso   1.000  C
  C27      1.0000 0.27259  0.29369  0.58361  Biso   1.000  C
  O6       1.0000 0.20499  0.23701  0.51200  Biso   1.000  O
  N7       1.0000 0.20172  0.28889  0.48171  Biso   1.000  N
  C28      1.0000 0.21119  0.29000  0.58179  Biso   1.000  C
  C29      1.0000 0.19440  0.29609  0.54402  Biso   1.000  C
  N8       1.0000 0.28889  0.48171  0.20172  Biso   1.000  N
  C30      1.0000 0.24350  0.52941  0.22431  Biso   1.000  C
  C31      1.0000 0.29609  0.54402  0.19440  Biso   1.000  C
  O7       1.0000 0.23701  0.51200  0.20499  Biso   1.000  O
  C32      1.0000 0.21980  0.52792  0.25980  Biso   1.000  C
  C33      1.0000 0.29000  0.58179  0.21119  Biso   1.000  C
  C34      1.0000 0.29369  0.58361  0.27259  Biso   1.000  C
  N9       1.0000 0.21111  0.48171  0.29832  Biso   1.000  N
  C35      1.0000 0.21000  0.58179  0.28881  Biso   1.000  C
  C36      1.0000 0.20391  0.54402  0.30560  Biso   1.000  C
  C37      1.0000 0.44461  0.21690  0.32232  Biso   1.000  C
  H10      1.0000 0.52441  0.22741  0.19432  Biso   1.000  H
  N10      1.0000 0.47919  0.21099  0.20400  Biso   1.000  N
  C38      1.0000 0.58361  0.22741  0.20631  Biso   1.000  C
  H11      1.0000 0.58270  0.20189  0.32989  Biso   1.000  H
  H12      1.0000 0.57951  0.17562  0.26990  Biso   1.000  H
  C39      1.0000 0.62821  0.23130  0.27871  Biso   1.000  C
  C40      1.0000 0.62469  0.25000  0.25000  Biso   1.000  C
  C41      1.0000 0.44461  0.28310  0.17768  Biso   1.000  C
  C42      1.0000 0.62821  0.26870  0.22129  Biso   1.000  C
  H13      1.0000 0.58270  0.29811  0.17011  Biso   1.000  H
  H14      1.0000 0.57951  0.32438  0.23010  Biso   1.000  H
  C43      1.0000 0.28310  0.17768  0.44461  Biso   1.000  C
  H15      1.0000 0.22741  0.19432  0.52441  Biso   1.000  H
  N11      1.0000 0.21099  0.20400  0.47919  Biso   1.000  N
  C44      1.0000 0.22741  0.20631  0.58361  Biso   1.000  C
  H16      1.0000 0.29811  0.17011  0.58270  Biso   1.000  H
  H17      1.0000 0.32438  0.23010  0.57951  Biso   1.000  H
  C45      1.0000 0.26870  0.22129  0.62821  Biso   1.000  C
  C46      1.0000 0.25000  0.25000  0.62469  Biso   1.000  C
  C47      1.0000 0.23130  0.27871  0.62821  Biso   1.000  C
  C48      1.0000 0.21690  0.32232  0.44461  Biso   1.000  C
  H18      1.0000 0.20189  0.32989  0.58270  Biso   1.000  H
  H19      1.0000 0.17562  0.26990  0.57951  Biso   1.000  H
  C49      1.0000 0.32232  0.44461  0.21690  Biso   1.000  C
  H20      1.0000 0.19432  0.52441  0.22741  Biso   1.000  H
  N12      1.0000 0.20400  0.47919  0.21099  Biso   1.000  N
  C50      1.0000 0.20631  0.58361  0.22741  Biso   1.000  C
  H21      1.0000 0.32989  0.58270  0.20189  Biso   1.000  H
  H22      1.0000 0.26990  0.57951  0.17562  Biso   1.000  H
  C51      1.0000 0.27871  0.62821  0.23130  Biso   1.000  C
  C52      1.0000 0.25000  0.62469  0.25000  Biso   1.000  C
  C53      1.0000 0.17768  0.44461  0.28310  Biso   1.000  C
  H23      1.0000 0.17011  0.58270  0.29811  Biso   1.000  H
  H24      1.0000 0.23010  0.57951  0.32438  Biso   1.000  H
  C54      1.0000 0.22129  0.62821  0.26870  Biso   1.000  C
  C55      1.0000 0.39682  0.18128  0.33721  Biso   1.000  C
  H25      1.0000 0.44742  0.25248  0.33861  Biso   1.000  H
  C56      1.0000 0.44510  0.17529  0.21860  Biso   1.000  C
  C57      1.0000 0.39682  0.31872  0.16279  Biso   1.000  C
  H26      1.0000 0.44742  0.24752  0.16139  Biso   1.000  H
  C58      1.0000 0.31872  0.16279  0.39682  Biso   1.000  C
  H27      1.0000 0.24752  0.16139  0.44742  Biso   1.000  H
  C59      1.0000 0.17529  0.21860  0.44510  Biso   1.000  C
  C60      1.0000 0.18128  0.33721  0.39682  Biso   1.000  C
  H28      1.0000 0.25248  0.33861  0.44742  Biso   1.000  H
  C61      1.0000 0.33721  0.39682  0.18128  Biso   1.000  C
  H29      1.0000 0.33861  0.44742  0.25248  Biso   1.000  H
  C62      1.0000 0.21860  0.44510  0.17529  Biso   1.000  C
  C63      1.0000 0.16279  0.39682  0.31872  Biso   1.000  C
  H30      1.0000 0.16139  0.44742  0.24752  Biso   1.000  H
  O8       1.0000 0.34101  0.15899  0.34101  Biso   1.000  O
  C64      1.0000 0.36488  0.19531  0.38251  Biso   1.000  C
  C65      1.0000 0.38251  0.13512  0.30469  Biso   1.000  C
  O9       1.0000 0.38392  0.12792  0.35992  Biso   1.000  O
  O10      1.0000 0.37208  0.14012  0.38392  Biso   1.000  O
  C66      1.0000 0.39562  0.16201  0.18381  Biso   1.000  C
  H31      1.0000 0.45060  0.15601  0.25240  Biso   1.000  H
  C67      1.0000 0.38251  0.36488  0.19531  Biso   1.000  C
  C68      1.0000 0.36488  0.30469  0.11749  Biso   1.000  C
  O11      1.0000 0.34101  0.34101  0.15899  Biso   1.000  O
  O12      1.0000 0.38392  0.37208  0.14012  Biso   1.000  O
  O13      1.0000 0.37208  0.35992  0.11608  Biso   1.000  O
  C69      1.0000 0.30469  0.11749  0.36488  Biso   1.000  C
  O14      1.0000 0.35992  0.11608  0.37208  Biso   1.000  O
  C70      1.0000 0.16201  0.18381  0.39562  Biso   1.000  C
  H32      1.0000 0.15601  0.25240  0.45060  Biso   1.000  H
  C71      1.0000 0.19531  0.38251  0.36488  Biso   1.000  C
  C72      1.0000 0.13512  0.30469  0.38251  Biso   1.000  C
  O15      1.0000 0.15899  0.34101  0.34101  Biso   1.000  O
  O16      1.0000 0.12792  0.35992  0.38392  Biso   1.000  O
  O17      1.0000 0.14012  0.38392  0.37208  Biso   1.000  O
  C73      1.0000 0.30469  0.38251  0.13512  Biso   1.000  C
  O18      1.0000 0.35992  0.38392  0.12792  Biso   1.000  O
  C74      1.0000 0.18381  0.39562  0.16201  Biso   1.000  C
  H33      1.0000 0.25240  0.45060  0.15601  Biso   1.000  H
  C75      1.0000 0.11749  0.36488  0.30469  Biso   1.000  C
  O19      1.0000 0.11608  0.37208  0.35992  Biso   1.000  O
  C76      1.0000 0.33721  0.10322  0.31872  Biso   1.000  C
  H34      1.0000 0.37411  0.22692  0.40402  Biso   1.000  H
  H35      1.0000 0.40402  0.12589  0.27308  Biso   1.000  H
  O20      1.0000 0.37299  0.12701  0.12701  Biso   1.000  O
  C77      1.0000 0.38189  0.19518  0.13789  Biso   1.000  C
  C78      1.0000 0.36211  0.11811  0.19518  Biso   1.000  C
  H36      1.0000 0.40402  0.37411  0.22692  Biso   1.000  H
  C79      1.0000 0.31872  0.33721  0.10322  Biso   1.000  C
  H37      1.0000 0.37411  0.27308  0.09602  Biso   1.000  H
  H38      1.0000 0.27308  0.09602  0.37411  Biso   1.000  H
  O21      1.0000 0.12701  0.12701  0.37299  Biso   1.000  O
  C80      1.0000 0.19518  0.13789  0.38189  Biso   1.000  C
  C81      1.0000 0.11811  0.19518  0.36211  Biso   1.000  C
  H39      1.0000 0.22692  0.40402  0.37411  Biso   1.000  H
  C82      1.0000 0.10322  0.31872  0.33721  Biso   1.000  C
  H40      1.0000 0.12589  0.27308  0.40402  Biso   1.000  H
  H41      1.0000 0.27308  0.40402  0.12589  Biso   1.000  H
  O22      1.0000 0.12701  0.37299  0.12701  Biso   1.000  O
  C83      1.0000 0.13789  0.38189  0.19518  Biso   1.000  C
  C84      1.0000 0.19518  0.36211  0.11811  Biso   1.000  C
  H42      1.0000 0.09602  0.37411  0.27308  Biso   1.000  H
  C85      1.0000 0.32232  0.05539  0.28310  Biso   1.000  C
  C86      1.0000 0.31619  0.10442  0.16201  Biso   1.000  C
  C87      1.0000 0.30482  0.13789  0.11811  Biso   1.000  C
  C88      1.0000 0.33799  0.18381  0.10442  Biso   1.000  C
  H43      1.0000 0.40410  0.22658  0.12990  Biso   1.000  H
  H44      1.0000 0.37010  0.09590  0.22658  Biso   1.000  H
  C89      1.0000 0.28310  0.32232  0.05539  Biso   1.000  C
  C90      1.0000 0.18381  0.10442  0.33799  Biso   1.000  C
  C91      1.0000 0.13789  0.11811  0.30482  Biso   1.000  C
  C92      1.0000 0.10442  0.16201  0.31619  Biso   1.000  C
  H45      1.0000 0.22658  0.12990  0.40410  Biso   1.000  H
  H46      1.0000 0.09590  0.22658  0.37010  Biso   1.000  H
  C93      1.0000 0.05539  0.28310  0.32232  Biso   1.000  C
  C94      1.0000 0.16201  0.31619  0.10442  Biso   1.000  C
  C95      1.0000 0.10442  0.33799  0.18381  Biso   1.000  C
  C96      1.0000 0.11811  0.30482  0.13789  Biso   1.000  C
  H47      1.0000 0.12990  0.40410  0.22658  Biso   1.000  H
  H48      1.0000 0.22658  0.37010  0.09590  Biso   1.000  H
  N13      1.0000 0.28889  0.01829  0.29832  Biso   1.000  N
  H49      1.0000 0.33861  0.05258  0.24752  Biso   1.000  H
  C97      1.0000 0.28140  0.05490  0.17529  Biso   1.000  C
  H50      1.0000 0.27342  0.12990  0.09590  Biso   1.000  H
  C98      1.0000 0.32471  0.21860  0.05490  Biso   1.000  C
  N14      1.0000 0.29832  0.28889  0.01829  Biso   1.000  N
  H51      1.0000 0.24752  0.33861  0.05258  Biso   1.000  H
  C99      1.0000 0.21860  0.05490  0.32471  Biso   1.000  C
  H52      1.0000 0.12990  0.09590  0.27342  Biso   1.000  H
  C100     1.0000 0.05490  0.17529  0.28140  Biso   1.000  C
  N15      1.0000 0.01829  0.29832  0.28889  Biso   1.000  N
  H53      1.0000 0.05258  0.24752  0.33861  Biso   1.000  H
  C101     1.0000 0.17529  0.28140  0.05490  Biso   1.000  C
  C102     1.0000 0.05490  0.32471  0.21860  Biso   1.000  C
  H54      1.0000 0.09590  0.27342  0.12990  Biso   1.000  H
  C103     1.0000 0.28020  0.97212  0.25980  Biso   1.000  C
  C104     1.0000 0.24350  0.97063  0.27569  Biso   1.000  C
  C105     1.0000 0.29609  0.95602  0.30560  Biso   1.000  C
  O23      1.0000 0.23701  0.98800  0.29501  Biso   1.000  O
  N16      1.0000 0.29600  0.02081  0.21099  Biso   1.000  N
  H55      1.0000 0.24760  0.04940  0.15601  Biso   1.000  H
  N17      1.0000 0.28901  0.20400  0.02081  Biso   1.000  N
  H56      1.0000 0.34399  0.25240  0.04940  Biso   1.000  H
  C106     1.0000 0.27569  0.24350  0.97063  Biso   1.000  C
  O24      1.0000 0.29501  0.23701  0.98800  Biso   1.000  O
  C107     1.0000 0.25980  0.28020  0.97212  Biso   1.000  C
  C108     1.0000 0.30560  0.29609  0.95602  Biso   1.000  C
  N18      1.0000 0.20400  0.02081  0.28901  Biso   1.000  N
  H57      1.0000 0.25240  0.04940  0.34399  Biso   1.000  H
  N19      1.0000 0.02081  0.21099  0.29600  Biso   1.000  N
  H58      1.0000 0.04940  0.15601  0.24760  Biso   1.000  H
  C109     1.0000 0.97212  0.25980  0.28020  Biso   1.000  C
  C110     1.0000 0.97063  0.27569  0.24350  Biso   1.000  C
  C111     1.0000 0.95602  0.30560  0.29609  Biso   1.000  C
  O25      1.0000 0.98800  0.29501  0.23701  Biso   1.000  O
  N20      1.0000 0.21099  0.29600  0.02081  Biso   1.000  N
  H59      1.0000 0.15601  0.24760  0.04940  Biso   1.000  H
  N21      1.0000 0.02081  0.28901  0.20400  Biso   1.000  N
  H60      1.0000 0.04940  0.34399  0.25240  Biso   1.000  H
  C112     1.0000 0.21980  0.97212  0.24020  Biso   1.000  C
  H61      1.0000 0.30568  0.97559  0.22741  Biso   1.000  H
  C113     1.0000 0.29000  0.91821  0.28881  Biso   1.000  C
  C114     1.0000 0.25650  0.97063  0.22431  Biso   1.000  C
  C115     1.0000 0.29369  0.91639  0.22741  Biso   1.000  C
  O26      1.0000 0.26299  0.98800  0.20499  Biso   1.000  O
  H62      1.0000 0.19432  0.97559  0.27259  Biso   1.000  H
  C116     1.0000 0.20631  0.91639  0.27259  Biso   1.000  C
  H63      1.0000 0.32989  0.91730  0.29811  Biso   1.000  H
  H64      1.0000 0.26990  0.92053  0.32438  Biso   1.000  H
  C117     1.0000 0.24020  0.21980  0.97212  Biso   1.000  C
  H65      1.0000 0.27259  0.19432  0.97559  Biso   1.000  H
  C118     1.0000 0.22431  0.25650  0.97063  Biso   1.000  C
  C119     1.0000 0.27259  0.20631  0.91639  Biso   1.000  C
  C120     1.0000 0.28881  0.29000  0.91821  Biso   1.000  C
  O27      1.0000 0.20499  0.26299  0.98800  Biso   1.000  O
  H66      1.0000 0.22741  0.30568  0.97559  Biso   1.000  H
  C121     1.0000 0.22741  0.29369  0.91639  Biso   1.000  C
  H67      1.0000 0.29811  0.32989  0.91730  Biso   1.000  H
  H68      1.0000 0.32438  0.26990  0.92053  Biso   1.000  H
  H69      1.0000 0.97559  0.22741  0.30568  Biso   1.000  H
  C122     1.0000 0.97063  0.22431  0.25650  Biso   1.000  C
  O28      1.0000 0.98800  0.20499  0.26299  Biso   1.000  O
  C123     1.0000 0.97212  0.24020  0.21980  Biso   1.000  C
  C124     1.0000 0.91821  0.28881  0.29000  Biso   1.000  C
  C125     1.0000 0.91639  0.22741  0.29369  Biso   1.000  C
  H70      1.0000 0.97559  0.27259  0.19432  Biso   1.000  H
  C126     1.0000 0.91639  0.27259  0.20631  Biso   1.000  C
  H71      1.0000 0.91730  0.29811  0.32989  Biso   1.000  H
  H72      1.0000 0.92053  0.32438  0.26990  Biso   1.000  H
  N22      1.0000 0.21111  0.01829  0.20172  Biso   1.000  N
  C127     1.0000 0.21000  0.91821  0.21119  Biso   1.000  C
  C128     1.0000 0.20391  0.95602  0.19440  Biso   1.000  C
  C129     1.0000 0.27871  0.87179  0.26870  Biso   1.000  C
  C130     1.0000 0.25000  0.87531  0.25000  Biso   1.000  C
  C131     1.0000 0.22129  0.87179  0.23130  Biso   1.000  C
  N23      1.0000 0.20172  0.21111  0.01829  Biso   1.000  N
  C132     1.0000 0.21119  0.21000  0.91821  Biso   1.000  C
  C133     1.0000 0.19440  0.20391  0.95602  Biso   1.000  C
  C134     1.0000 0.23130  0.22129  0.87179  Biso   1.000  C
  C135     1.0000 0.25000  0.25000  0.87531  Biso   1.000  C
  C136     1.0000 0.26870  0.27871  0.87179  Biso   1.000  C
  N24      1.0000 0.01829  0.20172  0.21111  Biso   1.000  N
  C137     1.0000 0.95602  0.19440  0.20391  Biso   1.000  C
  C138     1.0000 0.91821  0.21119  0.21000  Biso   1.000  C
  C139     1.0000 0.87179  0.26870  0.27871  Biso   1.000  C
  C140     1.0000 0.87531  0.25000  0.25000  Biso   1.000  C
  C141     1.0000 0.87179  0.23130  0.22129  Biso   1.000  C
  C142     1.0000 0.17768  0.05539  0.21690  Biso   1.000  C
  H73      1.0000 0.17011  0.91730  0.20189  Biso   1.000  H
  H74      1.0000 0.23010  0.92053  0.17562  Biso   1.000  H
  C143     1.0000 0.21690  0.17768  0.05539  Biso   1.000  C
  H75      1.0000 0.20189  0.17011  0.91730  Biso   1.000  H
  H76      1.0000 0.17562  0.23010  0.92053  Biso   1.000  H
  C144     1.0000 0.05539  0.21690  0.17768  Biso   1.000  C
  H77      1.0000 0.91730  0.20189  0.17011  Biso   1.000  H
  H78      1.0000 0.92053  0.17562  0.23010  Biso   1.000  H
  C145     1.0000 0.16279  0.10322  0.18128  Biso   1.000  C
  H79      1.0000 0.16139  0.05258  0.25248  Biso   1.000  H
  C146     1.0000 0.18128  0.16279  0.10322  Biso   1.000  C
  H80      1.0000 0.25248  0.16139  0.05258  Biso   1.000  H
  C147     1.0000 0.10322  0.18128  0.16279  Biso   1.000  C
  H81      1.0000 0.05258  0.25248  0.16139  Biso   1.000  H
  C148     1.0000 0.19531  0.11749  0.13512  Biso   1.000  C
  C149     1.0000 0.11749  0.13512  0.19531  Biso   1.000  C
  O29      1.0000 0.15899  0.15899  0.15899  Biso   1.000  O
  O30      1.0000 0.11608  0.12792  0.14012  Biso   1.000  O
  O31      1.0000 0.14012  0.11608  0.12792  Biso   1.000  O
  C150     1.0000 0.13512  0.19531  0.11749  Biso   1.000  C
  O32      1.0000 0.12792  0.14012  0.11608  Biso   1.000  O
  H82      1.0000 0.22692  0.09602  0.12589  Biso   1.000  H
  H83      1.0000 0.09602  0.12589  0.22692  Biso   1.000  H
  H84      1.0000 0.12589  0.22692  0.09602  Biso   1.000  H
  C151     1.0000 0.55461  0.38702  0.36749  Biso   1.000  C
  C152     1.0000 0.56752  0.35442  0.41341  Biso   1.000  C
  H85      1.0000 0.52350  0.37792  0.34519  Biso   1.000  H
  C153     1.0000 0.58659  0.43248  0.35442  Biso   1.000  C
  C154     1.0000 0.53351  0.30568  0.42570  Biso   1.000  C
  C155     1.0000 0.61302  0.36749  0.44539  Biso   1.000  C
  C156     1.0000 0.63251  0.44539  0.38702  Biso   1.000  C
  C157     1.0000 0.57430  0.46649  0.30568  Biso   1.000  C
  N25      1.0000 0.54749  0.26998  0.46182  Biso   1.000  N
  H86      1.0000 0.49992  0.30060  0.40609  Biso   1.000  H
  H87      1.0000 0.62212  0.34519  0.47650  Biso   1.000  H
  C158     1.0000 0.64562  0.41341  0.43248  Biso   1.000  C
  H88      1.0000 0.65481  0.47650  0.37792  Biso   1.000  H
  N26      1.0000 0.53818  0.45251  0.26998  Biso   1.000  N
  H89      1.0000 0.59391  0.50012  0.30060  Biso   1.000  H
  C159     1.0000 0.51059  0.22369  0.47079  Biso   1.000  C
  C160     1.0000 0.69432  0.42570  0.46649  Biso   1.000  C
  C161     1.0000 0.52921  0.48941  0.22369  Biso   1.000  C
  C162     1.0000 0.48941  0.22369  0.52921  Biso   1.000  C
  H90      1.0000 0.47299  0.22898  0.44800  Biso   1.000  H
  C163     1.0000 0.54058  0.16730  0.46471  Biso   1.000  C
  N27      1.0000 0.73002  0.46182  0.45251  Biso   1.000  N
  H91      1.0000 0.69940  0.40609  0.50012  Biso   1.000  H
  C164     1.0000 0.47079  0.51059  0.22369  Biso   1.000  C
  H92      1.0000 0.55200  0.52701  0.22898  Biso   1.000  H
  C165     1.0000 0.53529  0.45942  0.16730  Biso   1.000  C
  N28      1.0000 0.45251  0.26998  0.53818  Biso   1.000  N
  H93      1.0000 0.52701  0.22898  0.55200  Biso   1.000  H
  C166     1.0000 0.45942  0.16730  0.53529  Biso   1.000  C
  H94      1.0000 0.55961  0.16639  0.42851  Biso   1.000  H
  H95      1.0000 0.56930  0.16449  0.49379  Biso   1.000  H
  C167     1.0000 0.50302  0.11762  0.46889  Biso   1.000  C
  H96      1.0000 0.57831  0.16829  0.48080  Biso   1.000  H
  H97      1.0000 0.54261  0.15530  0.42562  Biso   1.000  H
  C168     1.0000 0.50000  0.12912  0.50000  Biso   1.000  C
  C169     1.0000 0.77631  0.47079  0.48941  Biso   1.000  C
  N29      1.0000 0.46182  0.54749  0.26998  Biso   1.000  N
  H98      1.0000 0.44800  0.47299  0.22898  Biso   1.000  H
  C170     1.0000 0.46471  0.54058  0.16730  Biso   1.000  C
  H99      1.0000 0.57149  0.44039  0.16639  Biso   1.000  H
  H100     1.0000 0.50621  0.43070  0.16449  Biso   1.000  H
  C171     1.0000 0.53111  0.49702  0.11762  Biso   1.000  C
  H101     1.0000 0.51920  0.42169  0.16829  Biso   1.000  H
  H102     1.0000 0.57442  0.45739  0.15530  Biso   1.000  H
  C172     1.0000 0.50000  0.50000  0.12912  Biso   1.000  C
  C173     1.0000 0.46649  0.30568  0.57430  Biso   1.000  C
  H103     1.0000 0.44039  0.16639  0.57149  Biso   1.000  H
  H104     1.0000 0.43070  0.16449  0.50621  Biso   1.000  H
  C174     1.0000 0.49702  0.11762  0.53111  Biso   1.000  C
  H105     1.0000 0.42169  0.16829  0.51920  Biso   1.000  H
  H106     1.0000 0.45739  0.15530  0.57442  Biso   1.000  H
  H107     1.0000 0.52081  0.08340  0.45491  Biso   1.000  H
  H108     1.0000 0.46732  0.12349  0.44982  Biso   1.000  H
  H109     1.0000 0.47820  0.10508  0.47489  Biso   1.000  H
  H110     1.0000 0.52180  0.10508  0.52511  Biso   1.000  H
  C175     1.0000 0.77631  0.52921  0.51059  Biso   1.000  C
  H111     1.0000 0.77102  0.44800  0.52701  Biso   1.000  H
  C176     1.0000 0.83270  0.46471  0.45942  Biso   1.000  C
  C177     1.0000 0.42570  0.53351  0.30568  Biso   1.000  C
  H112     1.0000 0.42851  0.55961  0.16639  Biso   1.000  H
  H113     1.0000 0.49379  0.56930  0.16449  Biso   1.000  H
  C178     1.0000 0.46889  0.50302  0.11762  Biso   1.000  C
  H114     1.0000 0.48080  0.57831  0.16829  Biso   1.000  H
  H115     1.0000 0.42562  0.54261  0.15530  Biso   1.000  H
  H116     1.0000 0.54509  0.47919  0.08340  Biso   1.000  H
  H117     1.0000 0.55022  0.53272  0.12349  Biso   1.000  H
  H118     1.0000 0.52511  0.52180  0.10508  Biso   1.000  H
  H119     1.0000 0.47489  0.47820  0.10508  Biso   1.000  H
  H120     1.0000 0.50012  0.30060  0.59391  Biso   1.000  H
  C179     1.0000 0.43248  0.35442  0.58659  Biso   1.000  C
  H121     1.0000 0.47919  0.08340  0.54509  Biso   1.000  H
  H122     1.0000 0.53272  0.12349  0.55022  Biso   1.000  H
  N30      1.0000 0.73002  0.53818  0.54749  Biso   1.000  N
  H123     1.0000 0.77102  0.55200  0.47299  Biso   1.000  H
  C180     1.0000 0.83270  0.53529  0.54058  Biso   1.000  C
  H124     1.0000 0.83361  0.42851  0.44039  Biso   1.000  H
  H125     1.0000 0.83551  0.49379  0.43070  Biso   1.000  H
  C181     1.0000 0.88243  0.46889  0.49702  Biso   1.000  C
  H126     1.0000 0.83171  0.48080  0.42169  Biso   1.000  H
  H127     1.0000 0.84470  0.42562  0.45739  Biso   1.000  H
  C182     1.0000 0.87093  0.50000  0.50000  Biso   1.000  C
  H128     1.0000 0.40609  0.49992  0.30060  Biso   1.000  H
  C183     1.0000 0.41341  0.56752  0.35442  Biso   1.000  C
  H129     1.0000 0.45491  0.52081  0.08340  Biso   1.000  H
  H130     1.0000 0.44982  0.46732  0.12349  Biso   1.000  H
  C184     1.0000 0.38702  0.36749  0.55461  Biso   1.000  C
  C185     1.0000 0.44539  0.38702  0.63251  Biso   1.000  C
  C186     1.0000 0.69432  0.57430  0.53351  Biso   1.000  C
  H131     1.0000 0.83361  0.57149  0.55961  Biso   1.000  H
  H132     1.0000 0.83551  0.50621  0.56930  Biso   1.000  H
  C187     1.0000 0.88243  0.53111  0.50302  Biso   1.000  C
  H133     1.0000 0.83171  0.51920  0.57831  Biso   1.000  H
  H134     1.0000 0.84470  0.57442  0.54261  Biso   1.000  H
  H135     1.0000 0.91660  0.45491  0.47919  Biso   1.000  H
  H136     1.0000 0.87651  0.44982  0.53272  Biso   1.000  H
  H137     1.0000 0.89492  0.47489  0.52180  Biso   1.000  H
  H138     1.0000 0.89492  0.52511  0.47820  Biso   1.000  H
  C188     1.0000 0.36749  0.55461  0.38702  Biso   1.000  C
  C189     1.0000 0.44539  0.61302  0.36749  Biso   1.000  C
  H139     1.0000 0.37792  0.34519  0.52350  Biso   1.000  H
  C190     1.0000 0.35442  0.41341  0.56752  Biso   1.000  C
  H140     1.0000 0.47650  0.37792  0.65481  Biso   1.000  H
  C191     1.0000 0.41341  0.43248  0.64562  Biso   1.000  C
  H141     1.0000 0.69940  0.59391  0.49992  Biso   1.000  H
  C192     1.0000 0.64562  0.58659  0.56752  Biso   1.000  C
  H142     1.0000 0.91660  0.54509  0.52081  Biso   1.000  H
  H143     1.0000 0.87651  0.55022  0.46732  Biso   1.000  H
  H144     1.0000 0.34519  0.52350  0.37792  Biso   1.000  H
  C193     1.0000 0.35442  0.58659  0.43248  Biso   1.000  C
  H145     1.0000 0.47650  0.62212  0.34519  Biso   1.000  H
  C194     1.0000 0.43248  0.64562  0.41341  Biso   1.000  C
  C195     1.0000 0.30568  0.42570  0.53351  Biso   1.000  C
  C196     1.0000 0.36749  0.44539  0.61302  Biso   1.000  C
  C197     1.0000 0.42570  0.46649  0.69432  Biso   1.000  C
  C198     1.0000 0.63251  0.55461  0.61302  Biso   1.000  C
  C199     1.0000 0.61302  0.63251  0.55461  Biso   1.000  C
  C200     1.0000 0.30568  0.57430  0.46649  Biso   1.000  C
  C201     1.0000 0.38702  0.63251  0.44539  Biso   1.000  C
  C202     1.0000 0.46649  0.69432  0.42570  Biso   1.000  C
  N31      1.0000 0.26998  0.46182  0.54749  Biso   1.000  N
  H146     1.0000 0.30060  0.40609  0.49992  Biso   1.000  H
  H147     1.0000 0.34519  0.47650  0.62212  Biso   1.000  H
  N32      1.0000 0.46182  0.45251  0.73002  Biso   1.000  N
  H148     1.0000 0.40609  0.50012  0.69940  Biso   1.000  H
  H149     1.0000 0.65481  0.52350  0.62212  Biso   1.000  H
  C203     1.0000 0.58659  0.56752  0.64562  Biso   1.000  C
  H150     1.0000 0.62212  0.65481  0.52350  Biso   1.000  H
  C204     1.0000 0.56752  0.64562  0.58659  Biso   1.000  C
  N33      1.0000 0.26998  0.53818  0.45251  Biso   1.000  N
  H151     1.0000 0.30060  0.59391  0.50012  Biso   1.000  H
  H152     1.0000 0.37792  0.65481  0.47650  Biso   1.000  H
  N34      1.0000 0.45251  0.73002  0.46182  Biso   1.000  N
  H153     1.0000 0.50012  0.69940  0.40609  Biso   1.000  H
  C205     1.0000 0.22369  0.47079  0.51059  Biso   1.000  C
  C206     1.0000 0.47079  0.48941  0.77631  Biso   1.000  C
  C207     1.0000 0.57430  0.53351  0.69432  Biso   1.000  C
  C208     1.0000 0.55461  0.61302  0.63251  Biso   1.000  C
  C209     1.0000 0.53351  0.69432  0.57430  Biso   1.000  C
  C210     1.0000 0.22369  0.52921  0.48941  Biso   1.000  C
  C211     1.0000 0.48941  0.77631  0.47079  Biso   1.000  C
  H154     1.0000 0.22898  0.44800  0.47299  Biso   1.000  H
  C212     1.0000 0.16730  0.46471  0.54058  Biso   1.000  C
  C213     1.0000 0.52921  0.51059  0.77631  Biso   1.000  C
  H155     1.0000 0.44800  0.52701  0.77102  Biso   1.000  H
  C214     1.0000 0.46471  0.45942  0.83270  Biso   1.000  C
  N35      1.0000 0.53818  0.54749  0.73002  Biso   1.000  N
  H156     1.0000 0.59391  0.49992  0.69940  Biso   1.000  H
  H157     1.0000 0.52350  0.62212  0.65481  Biso   1.000  H
  N36      1.0000 0.54749  0.73002  0.53818  Biso   1.000  N
  H158     1.0000 0.49992  0.69940  0.59391  Biso   1.000  H
  H159     1.0000 0.22898  0.55200  0.52701  Biso   1.000  H
  C215     1.0000 0.16730  0.53529  0.45942  Biso   1.000  C
  C216     1.0000 0.51059  0.77631  0.52921  Biso   1.000  C
  H160     1.0000 0.52701  0.77102  0.44800  Biso   1.000  H
  C217     1.0000 0.45942  0.83270  0.46471  Biso   1.000  C
  H161     1.0000 0.16639  0.42851  0.55961  Biso   1.000  H
  H162     1.0000 0.16449  0.49379  0.56930  Biso   1.000  H
  C218     1.0000 0.11762  0.46889  0.50302  Biso   1.000  C
  H163     1.0000 0.16829  0.48080  0.57831  Biso   1.000  H
  H164     1.0000 0.15530  0.42562  0.54261  Biso   1.000  H
  C219     1.0000 0.12912  0.50000  0.50000  Biso   1.000  C
  H165     1.0000 0.55200  0.47299  0.77102  Biso   1.000  H
  C220     1.0000 0.53529  0.54058  0.83270  Biso   1.000  C
  H166     1.0000 0.42851  0.44039  0.83361  Biso   1.000  H
  H167     1.0000 0.49379  0.43070  0.83551  Biso   1.000  H
  C221     1.0000 0.46889  0.49702  0.88243  Biso   1.000  C
  H168     1.0000 0.48080  0.42169  0.83171  Biso   1.000  H
  H169     1.0000 0.42562  0.45739  0.84470  Biso   1.000  H
  C222     1.0000 0.50000  0.50000  0.87093  Biso   1.000  C
  H170     1.0000 0.16639  0.57149  0.44039  Biso   1.000  H
  H171     1.0000 0.16449  0.50621  0.43070  Biso   1.000  H
  C223     1.0000 0.11762  0.53111  0.49702  Biso   1.000  C
  H172     1.0000 0.16829  0.51920  0.42169  Biso   1.000  H
  H173     1.0000 0.15530  0.57442  0.45739  Biso   1.000  H
  H174     1.0000 0.47299  0.77102  0.55200  Biso   1.000  H
  C224     1.0000 0.54058  0.83270  0.53529  Biso   1.000  C
  C225     1.0000 0.50000  0.87093  0.50000  Biso   1.000  C
  H175     1.0000 0.44039  0.83361  0.42851  Biso   1.000  H
  H176     1.0000 0.43070  0.83551  0.49379  Biso   1.000  H
  C226     1.0000 0.49702  0.88243  0.46889  Biso   1.000  C
  H177     1.0000 0.42169  0.83171  0.48080  Biso   1.000  H
  H178     1.0000 0.45739  0.84470  0.42562  Biso   1.000  H
  H179     1.0000 0.08340  0.45491  0.52081  Biso   1.000  H
  H180     1.0000 0.12349  0.44982  0.46732  Biso   1.000  H
  H181     1.0000 0.10508  0.47489  0.47820  Biso   1.000  H
  H182     1.0000 0.10508  0.52511  0.52180  Biso   1.000  H
  H183     1.0000 0.57149  0.55961  0.83361  Biso   1.000  H
  H184     1.0000 0.50621  0.56930  0.83551  Biso   1.000  H
  C227     1.0000 0.53111  0.50302  0.88243  Biso   1.000  C
  H185     1.0000 0.51920  0.57831  0.83171  Biso   1.000  H
  H186     1.0000 0.57442  0.54261  0.84470  Biso   1.000  H
  H187     1.0000 0.45491  0.47919  0.91660  Biso   1.000  H
  H188     1.0000 0.44982  0.53272  0.87651  Biso   1.000  H
  H189     1.0000 0.47489  0.52180  0.89492  Biso   1.000  H
  H190     1.0000 0.52511  0.47820  0.89492  Biso   1.000  H
  H191     1.0000 0.08340  0.54509  0.47919  Biso   1.000  H
  H192     1.0000 0.12349  0.55022  0.53272  Biso   1.000  H
  H193     1.0000 0.55961  0.83361  0.57149  Biso   1.000  H
  H194     1.0000 0.56930  0.83551  0.50621  Biso   1.000  H
  C228     1.0000 0.50302  0.88243  0.53111  Biso   1.000  C
  H195     1.0000 0.57831  0.83171  0.51920  Biso   1.000  H
  H196     1.0000 0.54261  0.84470  0.57442  Biso   1.000  H
  H197     1.0000 0.47820  0.89492  0.52511  Biso   1.000  H
  H198     1.0000 0.52180  0.89492  0.47489  Biso   1.000  H
  H199     1.0000 0.47919  0.91660  0.45491  Biso   1.000  H
  H200     1.0000 0.53272  0.87651  0.44982  Biso   1.000  H
  H201     1.0000 0.54509  0.52081  0.91660  Biso   1.000  H
  H202     1.0000 0.55022  0.46732  0.87651  Biso   1.000  H
  H203     1.0000 0.52081  0.91660  0.54509  Biso   1.000  H
  H204     1.0000 0.46732  0.87651  0.55022  Biso   1.000  H
  O33      1.0000 0.62701  0.37299  0.62701  Biso   1.000  O
  C229     1.0000 0.60442  0.33799  0.68381  Biso   1.000  C
  C230     1.0000 0.61811  0.30482  0.63789  Biso   1.000  C
  C231     1.0000 0.63789  0.38189  0.69523  Biso   1.000  C
  C232     1.0000 0.68381  0.39562  0.66201  Biso   1.000  C
  C233     1.0000 0.66201  0.31619  0.60442  Biso   1.000  C
  C234     1.0000 0.69523  0.36211  0.61811  Biso   1.000  C
  C235     1.0000 0.55490  0.32471  0.71860  Biso   1.000  C
  H205     1.0000 0.59590  0.27342  0.62990  Biso   1.000  H
  H206     1.0000 0.62990  0.40410  0.72663  Biso   1.000  H
  C236     1.0000 0.71860  0.44510  0.67529  Biso   1.000  C
  C237     1.0000 0.67529  0.28140  0.55490  Biso   1.000  C
  H207     1.0000 0.72663  0.37010  0.59590  Biso   1.000  H
  N37      1.0000 0.52081  0.28901  0.70400  Biso   1.000  N
  H208     1.0000 0.54940  0.34399  0.75240  Biso   1.000  H
  N38      1.0000 0.70400  0.47919  0.71099  Biso   1.000  N
  H209     1.0000 0.75240  0.45060  0.65601  Biso   1.000  H
  N39      1.0000 0.71099  0.29600  0.52081  Biso   1.000  N
  H210     1.0000 0.65601  0.24760  0.54940  Biso   1.000  H
  C238     1.0000 0.47212  0.24020  0.71980  Biso   1.000  C
  C239     1.0000 0.47059  0.27569  0.74350  Biso   1.000  C
  H211     1.0000 0.47559  0.27259  0.69432  Biso   1.000  H
  O34      1.0000 0.48800  0.29501  0.73701  Biso   1.000  O
  C240     1.0000 0.71980  0.52792  0.75980  Biso   1.000  C
  H212     1.0000 0.69432  0.52441  0.72741  Biso   1.000  H
  C241     1.0000 0.74350  0.52941  0.72431  Biso   1.000  C
  O35      1.0000 0.73701  0.51200  0.70499  Biso   1.000  O
  C242     1.0000 0.72431  0.25650  0.47059  Biso   1.000  C
  O36      1.0000 0.70499  0.26299  0.48800  Biso   1.000  O
  C243     1.0000 0.75980  0.28020  0.47212  Biso   1.000  C
  H213     1.0000 0.72741  0.30568  0.47559  Biso   1.000  H
  C244     1.0000 0.41639  0.27259  0.70631  Biso   1.000  C
  C245     1.0000 0.41821  0.21119  0.71000  Biso   1.000  C
  N40      1.0000 0.51829  0.20172  0.71111  Biso   1.000  N
  C246     1.0000 0.47212  0.25980  0.78020  Biso   1.000  C
  C247     1.0000 0.47059  0.22431  0.75650  Biso   1.000  C
  C248     1.0000 0.45602  0.19440  0.70391  Biso   1.000  C
  O37      1.0000 0.48800  0.20499  0.76299  Biso   1.000  O
  N41      1.0000 0.51829  0.29832  0.78889  Biso   1.000  N
  C249     1.0000 0.41821  0.28881  0.79000  Biso   1.000  C
  C250     1.0000 0.45602  0.30560  0.79609  Biso   1.000  C
  N42      1.0000 0.71111  0.48171  0.79832  Biso   1.000  N
  C251     1.0000 0.75650  0.52941  0.77569  Biso   1.000  C
  C252     1.0000 0.70391  0.54402  0.80560  Biso   1.000  C
  O38      1.0000 0.76299  0.51200  0.79501  Biso   1.000  O
  C253     1.0000 0.78020  0.52792  0.74020  Biso   1.000  C
  C254     1.0000 0.71000  0.58179  0.78881  Biso   1.000  C
  C255     1.0000 0.70631  0.58361  0.72741  Biso   1.000  C
  N43      1.0000 0.78889  0.48171  0.70172  Biso   1.000  N
  C256     1.0000 0.79000  0.58179  0.71119  Biso   1.000  C
  C257     1.0000 0.79609  0.54402  0.69440  Biso   1.000  C
  N44      1.0000 0.70172  0.21111  0.51829  Biso   1.000  N
  C258     1.0000 0.74020  0.21980  0.47212  Biso   1.000  C
  C259     1.0000 0.69440  0.20391  0.45602  Biso   1.000  C
  C260     1.0000 0.71119  0.21000  0.41821  Biso   1.000  C
  C261     1.0000 0.77569  0.24350  0.47059  Biso   1.000  C
  C262     1.0000 0.72741  0.29369  0.41639  Biso   1.000  C
  O39      1.0000 0.79501  0.23701  0.48800  Biso   1.000  O
  N45      1.0000 0.79832  0.28889  0.51829  Biso   1.000  N
  C263     1.0000 0.78881  0.29000  0.41821  Biso   1.000  C
  C264     1.0000 0.80560  0.29609  0.45602  Biso   1.000  C
  C265     1.0000 0.37179  0.23130  0.72129  Biso   1.000  C
  C266     1.0000 0.37531  0.25000  0.75000  Biso   1.000  C
  H214     1.0000 0.41730  0.20189  0.67011  Biso   1.000  H
  H215     1.0000 0.42049  0.17562  0.73010  Biso   1.000  H
  C267     1.0000 0.55539  0.21690  0.67768  Biso   1.000  C
  C268     1.0000 0.41639  0.22741  0.79369  Biso   1.000  C
  H216     1.0000 0.47559  0.22741  0.80573  Biso   1.000  H
  N46      1.0000 0.52081  0.21099  0.79600  Biso   1.000  N
  C269     1.0000 0.55539  0.28310  0.82232  Biso   1.000  C
  C270     1.0000 0.37179  0.26870  0.77871  Biso   1.000  C
  H217     1.0000 0.41730  0.29811  0.82993  Biso   1.000  H
  H218     1.0000 0.42049  0.32438  0.76990  Biso   1.000  H
  C271     1.0000 0.67768  0.44461  0.78310  Biso   1.000  C
  H219     1.0000 0.80573  0.52441  0.77259  Biso   1.000  H
  N47      1.0000 0.79600  0.47919  0.78901  Biso   1.000  N
  C272     1.0000 0.79369  0.58361  0.77259  Biso   1.000  C
  H220     1.0000 0.67011  0.58270  0.79811  Biso   1.000  H
  H221     1.0000 0.73010  0.57951  0.82442  Biso   1.000  H
  C273     1.0000 0.72129  0.62821  0.76870  Biso   1.000  C
  C274     1.0000 0.75000  0.62469  0.75000  Biso   1.000  C
  C275     1.0000 0.82232  0.44461  0.71690  Biso   1.000  C
  H222     1.0000 0.82993  0.58270  0.70189  Biso   1.000  H
  H223     1.0000 0.76990  0.57951  0.67562  Biso   1.000  H
  C276     1.0000 0.77871  0.62821  0.73130  Biso   1.000  C
  C277     1.0000 0.71690  0.17768  0.55539  Biso   1.000  C
  H224     1.0000 0.77259  0.19432  0.47559  Biso   1.000  H
  N48      1.0000 0.78901  0.20400  0.52081  Biso   1.000  N
  C278     1.0000 0.77259  0.20631  0.41639  Biso   1.000  C
  H225     1.0000 0.70189  0.17011  0.41730  Biso   1.000  H
  H226     1.0000 0.67562  0.23010  0.42049  Biso   1.000  H
  C279     1.0000 0.73130  0.22129  0.37179  Biso   1.000  C
  C280     1.0000 0.75000  0.25000  0.37531  Biso   1.000  C
  C281     1.0000 0.76870  0.27871  0.37179  Biso   1.000  C
  C282     1.0000 0.78310  0.32232  0.55539  Biso   1.000  C
  H227     1.0000 0.79811  0.32989  0.41730  Biso   1.000  H
  H228     1.0000 0.82442  0.26990  0.42049  Biso   1.000  H
  C283     1.0000 0.60322  0.18128  0.66279  Biso   1.000  C
  H229     1.0000 0.55262  0.25248  0.66139  Biso   1.000  H
  C284     1.0000 0.55490  0.17529  0.78140  Biso   1.000  C
  C285     1.0000 0.60322  0.31872  0.83721  Biso   1.000  C
  H230     1.0000 0.55262  0.24752  0.83861  Biso   1.000  H
  C286     1.0000 0.66279  0.39682  0.81872  Biso   1.000  C
  H231     1.0000 0.66139  0.44742  0.74752  Biso   1.000  H
  C287     1.0000 0.78140  0.44510  0.82471  Biso   1.000  C
  C288     1.0000 0.83721  0.39682  0.68133  Biso   1.000  C
  H232     1.0000 0.83861  0.44742  0.75252  Biso   1.000  H
  C289     1.0000 0.68133  0.16279  0.60322  Biso   1.000  C
  H233     1.0000 0.75252  0.16139  0.55262  Biso   1.000  H
  C290     1.0000 0.82471  0.21860  0.55490  Biso   1.000  C
  C291     1.0000 0.81872  0.33721  0.60322  Biso   1.000  C
  H234     1.0000 0.74752  0.33861  0.55262  Biso   1.000  H
  C292     1.0000 0.63512  0.19531  0.61749  Biso   1.000  C
  C293     1.0000 0.61749  0.13512  0.69531  Biso   1.000  C
  O40      1.0000 0.65899  0.15899  0.65899  Biso   1.000  O
  O41      1.0000 0.61608  0.12792  0.64012  Biso   1.000  O
  O42      1.0000 0.62792  0.14012  0.61608  Biso   1.000  O
  C294     1.0000 0.60442  0.16201  0.81619  Biso   1.000  C
  H235     1.0000 0.54940  0.15601  0.74760  Biso   1.000  H
  C295     1.0000 0.61749  0.36488  0.80469  Biso   1.000  C
  C296     1.0000 0.63512  0.30469  0.88251  Biso   1.000  C
  O43      1.0000 0.65899  0.34101  0.84101  Biso   1.000  O
  O44      1.0000 0.61608  0.37208  0.85992  Biso   1.000  O
  O45      1.0000 0.62792  0.35992  0.88392  Biso   1.000  O
  C297     1.0000 0.69531  0.38251  0.86493  Biso   1.000  C
  O46      1.0000 0.64012  0.38392  0.87212  Biso   1.000  O
  C298     1.0000 0.81619  0.39562  0.83799  Biso   1.000  C
  H236     1.0000 0.74760  0.45060  0.84399  Biso   1.000  H
  C299     1.0000 0.80469  0.38251  0.63512  Biso   1.000  C
  C300     1.0000 0.88251  0.36488  0.69531  Biso   1.000  C
  O47      1.0000 0.84101  0.34101  0.65899  Biso   1.000  O
  O48      1.0000 0.85992  0.38392  0.62792  Biso   1.000  O
  O49      1.0000 0.88392  0.37208  0.64012  Biso   1.000  O
  C301     1.0000 0.69531  0.11749  0.63512  Biso   1.000  C
  O50      1.0000 0.64012  0.11608  0.62792  Biso   1.000  O
  C302     1.0000 0.83799  0.18381  0.60442  Biso   1.000  C
  H237     1.0000 0.84399  0.25240  0.54940  Biso   1.000  H
  C303     1.0000 0.86493  0.30469  0.61749  Biso   1.000  C
  O51      1.0000 0.87212  0.35992  0.61608  Biso   1.000  O
  H238     1.0000 0.62589  0.22692  0.59602  Biso   1.000  H
  C304     1.0000 0.66279  0.10322  0.68133  Biso   1.000  C
  H239     1.0000 0.59602  0.12589  0.72692  Biso   1.000  H
  O52      1.0000 0.62701  0.12701  0.87299  Biso   1.000  O
  C305     1.0000 0.61811  0.19518  0.86211  Biso   1.000  C
  C306     1.0000 0.63789  0.11811  0.80482  Biso   1.000  C
  H240     1.0000 0.59602  0.37411  0.77313  Biso   1.000  H
  C307     1.0000 0.68133  0.33721  0.89682  Biso   1.000  C
  H241     1.0000 0.62589  0.27308  0.90402  Biso   1.000  H
  H242     1.0000 0.72692  0.40402  0.87411  Biso   1.000  H
  O53      1.0000 0.87299  0.37299  0.87299  Biso   1.000  O
  C308     1.0000 0.86211  0.38189  0.80482  Biso   1.000  C
  C309     1.0000 0.80482  0.36211  0.88189  Biso   1.000  C
  H243     1.0000 0.77313  0.40402  0.62589  Biso   1.000  H
  C310     1.0000 0.89682  0.31872  0.66279  Biso   1.000  C
  H244     1.0000 0.90402  0.37411  0.72692  Biso   1.000  H
  H245     1.0000 0.72692  0.09602  0.62589  Biso   1.000  H
  O54      1.0000 0.87299  0.12701  0.62701  Biso   1.000  O
  C311     1.0000 0.80482  0.13789  0.61811  Biso   1.000  C
  C312     1.0000 0.88189  0.19518  0.63789  Biso   1.000  C
  H246     1.0000 0.87411  0.27308  0.59602  Biso   1.000  H
  C313     1.0000 0.67768  0.05539  0.71690  Biso   1.000  C
  C314     1.0000 0.66201  0.18381  0.89562  Biso   1.000  C
  C315     1.0000 0.68381  0.10442  0.83799  Biso   1.000  C
  C316     1.0000 0.69523  0.13789  0.88189  Biso   1.000  C
  H247     1.0000 0.59590  0.22658  0.87010  Biso   1.000  H
  H248     1.0000 0.62990  0.09590  0.77342  Biso   1.000  H
  C317     1.0000 0.71690  0.32232  0.94461  Biso   1.000  C
  C318     1.0000 0.83799  0.31619  0.89562  Biso   1.000  C
  C319     1.0000 0.88189  0.30482  0.86211  Biso   1.000  C
  C320     1.0000 0.89562  0.33799  0.81619  Biso   1.000  C
  H249     1.0000 0.87010  0.40410  0.77342  Biso   1.000  H
  H250     1.0000 0.77342  0.37010  0.90410  Biso   1.000  H
  C321     1.0000 0.94461  0.28310  0.67768  Biso   1.000  C
  C322     1.0000 0.81619  0.10442  0.66201  Biso   1.000  C
  C323     1.0000 0.86211  0.11811  0.69523  Biso   1.000  C
  C324     1.0000 0.89562  0.16201  0.68381  Biso   1.000  C
  H251     1.0000 0.77342  0.12990  0.59590  Biso   1.000  H
  H252     1.0000 0.90410  0.22658  0.62990  Biso   1.000  H
  N49      1.0000 0.71111  0.01829  0.70172  Biso   1.000  N
  H253     1.0000 0.66139  0.05258  0.75252  Biso   1.000  H
  C325     1.0000 0.67529  0.21860  0.94510  Biso   1.000  C
  C326     1.0000 0.71860  0.05490  0.82471  Biso   1.000  C
  H254     1.0000 0.72663  0.12990  0.90410  Biso   1.000  H
  N50      1.0000 0.70172  0.28889  0.98171  Biso   1.000  N
  H255     1.0000 0.75252  0.33861  0.94742  Biso   1.000  H
  C327     1.0000 0.82471  0.28140  0.94510  Biso   1.000  C
  H256     1.0000 0.90410  0.27342  0.87010  Biso   1.000  H
  C328     1.0000 0.94510  0.32471  0.78140  Biso   1.000  C
  N51      1.0000 0.98171  0.29832  0.71111  Biso   1.000  N
  H257     1.0000 0.94742  0.24752  0.66139  Biso   1.000  H
  C329     1.0000 0.78140  0.05490  0.67529  Biso   1.000  C
  H258     1.0000 0.87010  0.09590  0.72663  Biso   1.000  H
  C330     1.0000 0.94510  0.17529  0.71860  Biso   1.000  C
  C331     1.0000 0.71980  0.97212  0.74020  Biso   1.000  C
  C332     1.0000 0.75650  0.97063  0.72431  Biso   1.000  C
  C333     1.0000 0.70391  0.95602  0.69440  Biso   1.000  C
  O55      1.0000 0.76299  0.98800  0.70499  Biso   1.000  O
  N52      1.0000 0.71099  0.20400  0.97919  Biso   1.000  N
  H259     1.0000 0.65601  0.25240  0.95060  Biso   1.000  H
  N53      1.0000 0.70400  0.02081  0.78901  Biso   1.000  N
  H260     1.0000 0.75240  0.04940  0.84399  Biso   1.000  H
  C334     1.0000 0.74020  0.28020  0.02788  Biso   1.000  C
  C335     1.0000 0.72431  0.24350  0.02941  Biso   1.000  C
  C336     1.0000 0.69440  0.29609  0.04402  Biso   1.000  C
  O56      1.0000 0.70499  0.23701  0.01200  Biso   1.000  O
  N54      1.0000 0.78901  0.29600  0.97919  Biso   1.000  N
  H261     1.0000 0.84399  0.24760  0.95060  Biso   1.000  H
  N55      1.0000 0.97919  0.28901  0.79600  Biso   1.000  N
  H262     1.0000 0.95060  0.34399  0.74760  Biso   1.000  H
  C337     1.0000 0.02788  0.25980  0.71980  Biso   1.000  C
  C338     1.0000 0.02941  0.27569  0.75650  Biso   1.000  C
  C339     1.0000 0.04402  0.30560  0.70391  Biso   1.000  C
  O57      1.0000 0.01200  0.29501  0.76299  Biso   1.000  O
  N56      1.0000 0.79600  0.02081  0.71099  Biso   1.000  N
  H263     1.0000 0.74760  0.04940  0.65601  Biso   1.000  H
  N57      1.0000 0.97919  0.21099  0.70400  Biso   1.000  N
  H264     1.0000 0.95060  0.15601  0.75240  Biso   1.000  H
  C340     1.0000 0.78020  0.97212  0.75980  Biso   1.000  C
  H265     1.0000 0.69432  0.97559  0.77259  Biso   1.000  H
  C341     1.0000 0.71000  0.91821  0.71119  Biso   1.000  C
  C342     1.0000 0.74350  0.97063  0.77569  Biso   1.000  C
  C343     1.0000 0.70631  0.91639  0.77259  Biso   1.000  C
  O58      1.0000 0.73701  0.98800  0.79501  Biso   1.000  O
  H266     1.0000 0.80573  0.97559  0.72741  Biso   1.000  H
  C344     1.0000 0.79369  0.91639  0.72741  Biso   1.000  C
  H267     1.0000 0.67011  0.91730  0.70189  Biso   1.000  H
  H268     1.0000 0.73010  0.92053  0.67562  Biso   1.000  H
  C345     1.0000 0.75980  0.21980  0.02788  Biso   1.000  C
  H269     1.0000 0.72741  0.19432  0.02441  Biso   1.000  H
  H270     1.0000 0.77259  0.30568  0.02441  Biso   1.000  H
  C346     1.0000 0.71119  0.29000  0.08179  Biso   1.000  C
  C347     1.0000 0.77569  0.25650  0.02941  Biso   1.000  C
  C348     1.0000 0.77259  0.29369  0.08361  Biso   1.000  C
  O59      1.0000 0.79501  0.26299  0.01200  Biso   1.000  O
  C349     1.0000 0.72741  0.20631  0.08361  Biso   1.000  C
  H271     1.0000 0.70189  0.32989  0.08270  Biso   1.000  H
  H272     1.0000 0.67562  0.26990  0.07951  Biso   1.000  H
  C350     1.0000 0.02788  0.24020  0.78020  Biso   1.000  C
  H273     1.0000 0.02441  0.27259  0.80573  Biso   1.000  H
  H274     1.0000 0.02441  0.22741  0.69432  Biso   1.000  H
  C351     1.0000 0.02941  0.22431  0.74350  Biso   1.000  C
  O60      1.0000 0.01200  0.20499  0.73701  Biso   1.000  O
  C352     1.0000 0.08179  0.28881  0.71000  Biso   1.000  C
  C353     1.0000 0.08361  0.22741  0.70631  Biso   1.000  C
  C354     1.0000 0.08361  0.27259  0.79369  Biso   1.000  C
  H275     1.0000 0.08270  0.29811  0.67011  Biso   1.000  H
  H276     1.0000 0.07951  0.32438  0.73010  Biso   1.000  H
  N58      1.0000 0.78889  0.01829  0.79832  Biso   1.000  N
  C355     1.0000 0.79000  0.91821  0.78881  Biso   1.000  C
  C356     1.0000 0.79609  0.95602  0.80560  Biso   1.000  C
  C357     1.0000 0.72129  0.87179  0.73130  Biso   1.000  C
  C358     1.0000 0.75000  0.87531  0.75000  Biso   1.000  C
  C359     1.0000 0.77871  0.87179  0.76870  Biso   1.000  C
  N59      1.0000 0.79832  0.21111  0.98171  Biso   1.000  N
  C360     1.0000 0.78881  0.21000  0.08179  Biso   1.000  C
  C361     1.0000 0.80560  0.20391  0.04402  Biso   1.000  C
  C362     1.0000 0.73130  0.27871  0.12821  Biso   1.000  C
  C363     1.0000 0.75000  0.25000  0.12469  Biso   1.000  C
  C364     1.0000 0.76870  0.22129  0.12821  Biso   1.000  C
  N60      1.0000 0.98171  0.20172  0.78889  Biso   1.000  N
  C365     1.0000 0.08179  0.21119  0.79000  Biso   1.000  C
  C366     1.0000 0.04402  0.19440  0.79609  Biso   1.000  C
  C367     1.0000 0.12821  0.26870  0.72129  Biso   1.000  C
  C368     1.0000 0.12469  0.25000  0.75000  Biso   1.000  C
  C369     1.0000 0.12821  0.23130  0.77871  Biso   1.000  C
  C370     1.0000 0.82232  0.05539  0.78310  Biso   1.000  C
  H277     1.0000 0.82993  0.91730  0.79811  Biso   1.000  H
  H278     1.0000 0.76990  0.92053  0.82442  Biso   1.000  H
  C371     1.0000 0.78310  0.17768  0.94461  Biso   1.000  C
  H279     1.0000 0.79811  0.17011  0.08270  Biso   1.000  H
  H280     1.0000 0.82442  0.23010  0.07951  Biso   1.000  H
  C372     1.0000 0.94461  0.21690  0.82232  Biso   1.000  C
  H281     1.0000 0.08270  0.20189  0.82993  Biso   1.000  H
  H282     1.0000 0.07951  0.17562  0.76990  Biso   1.000  H
  C373     1.0000 0.83721  0.10322  0.81872  Biso   1.000  C
  H283     1.0000 0.83861  0.05258  0.74752  Biso   1.000  H
  C374     1.0000 0.81872  0.16279  0.89682  Biso   1.000  C
  H284     1.0000 0.74752  0.16139  0.94742  Biso   1.000  H
  C375     1.0000 0.89682  0.18128  0.83721  Biso   1.000  C
  H285     1.0000 0.94742  0.25248  0.83861  Biso   1.000  H
  C376     1.0000 0.80469  0.11749  0.86493  Biso   1.000  C
  C377     1.0000 0.88251  0.13512  0.80469  Biso   1.000  C
  O61      1.0000 0.84101  0.15899  0.84101  Biso   1.000  O
  O62      1.0000 0.88392  0.12792  0.85992  Biso   1.000  O
  O63      1.0000 0.85992  0.11608  0.87212  Biso   1.000  O
  C378     1.0000 0.86493  0.19531  0.88251  Biso   1.000  C
  O64      1.0000 0.87212  0.14012  0.88392  Biso   1.000  O
  H286     1.0000 0.77313  0.09602  0.87411  Biso   1.000  H
  H287     1.0000 0.90402  0.12589  0.77313  Biso   1.000  H
  H288     1.0000 0.87411  0.22692  0.90402  Biso   1.000  H
  O65      1.0000 0.62701  0.62701  0.37299  Biso   1.000  O
  C379     1.0000 0.68381  0.60442  0.33799  Biso   1.000  C
  C380     1.0000 0.63789  0.61811  0.30482  Biso   1.000  C
  C381     1.0000 0.69523  0.63789  0.38189  Biso   1.000  C
  C382     1.0000 0.60442  0.66201  0.31619  Biso   1.000  C
  C383     1.0000 0.66201  0.68381  0.39562  Biso   1.000  C
  C384     1.0000 0.61811  0.69523  0.36211  Biso   1.000  C
  C385     1.0000 0.71860  0.55490  0.32471  Biso   1.000  C
  H289     1.0000 0.62990  0.59590  0.27342  Biso   1.000  H
  H290     1.0000 0.72663  0.62990  0.40410  Biso   1.000  H
  C386     1.0000 0.55490  0.67529  0.28140  Biso   1.000  C
  C387     1.0000 0.67529  0.71860  0.44510  Biso   1.000  C
  H291     1.0000 0.59590  0.72663  0.37010  Biso   1.000  H
  N61      1.0000 0.70400  0.52081  0.28901  Biso   1.000  N
  H292     1.0000 0.75240  0.54940  0.34399  Biso   1.000  H
  N62      1.0000 0.52081  0.71099  0.29600  Biso   1.000  N
  H293     1.0000 0.54940  0.65601  0.24760  Biso   1.000  H
  N63      1.0000 0.71099  0.70400  0.47919  Biso   1.000  N
  H294     1.0000 0.65601  0.75240  0.45060  Biso   1.000  H
  C388     1.0000 0.71980  0.47212  0.24020  Biso   1.000  C
  C389     1.0000 0.74350  0.47059  0.27569  Biso   1.000  C
  H295     1.0000 0.69432  0.47559  0.27259  Biso   1.000  H
  O66      1.0000 0.73701  0.48800  0.29501  Biso   1.000  O
  C390     1.0000 0.47059  0.72431  0.25650  Biso   1.000  C
  O67      1.0000 0.48800  0.70499  0.26299  Biso   1.000  O
  C391     1.0000 0.47212  0.75980  0.28020  Biso   1.000  C
  H296     1.0000 0.47559  0.72741  0.30568  Biso   1.000  H
  C392     1.0000 0.75980  0.71980  0.52792  Biso   1.000  C
  H297     1.0000 0.72741  0.69432  0.52441  Biso   1.000  H
  C393     1.0000 0.72431  0.74350  0.52941  Biso   1.000  C
  O68      1.0000 0.70499  0.73701  0.51200  Biso   1.000  O
  C394     1.0000 0.70631  0.41639  0.27259  Biso   1.000  C
  C395     1.0000 0.71000  0.41821  0.21119  Biso   1.000  C
  N64      1.0000 0.71111  0.51829  0.20172  Biso   1.000  N
  C396     1.0000 0.78020  0.47212  0.25980  Biso   1.000  C
  C397     1.0000 0.75650  0.47059  0.22431  Biso   1.000  C
  C398     1.0000 0.70391  0.45602  0.19440  Biso   1.000  C
  O69      1.0000 0.76299  0.48800  0.20499  Biso   1.000  O
  N65      1.0000 0.78889  0.51829  0.29832  Biso   1.000  N
  C399     1.0000 0.79000  0.41821  0.28881  Biso   1.000  C
  C400     1.0000 0.79609  0.45602  0.30560  Biso   1.000  C
  N66      1.0000 0.51829  0.70172  0.21111  Biso   1.000  N
  C401     1.0000 0.47212  0.74020  0.21980  Biso   1.000  C
  C402     1.0000 0.45602  0.69440  0.20391  Biso   1.000  C
  C403     1.0000 0.41821  0.71119  0.21000  Biso   1.000  C
  C404     1.0000 0.47059  0.77569  0.24350  Biso   1.000  C
  C405     1.0000 0.41639  0.72741  0.29369  Biso   1.000  C
  O70      1.0000 0.48800  0.79501  0.23701  Biso   1.000  O
  N67      1.0000 0.51829  0.79832  0.28889  Biso   1.000  N
  C406     1.0000 0.41821  0.78881  0.29000  Biso   1.000  C
  C407     1.0000 0.45602  0.80560  0.29609  Biso   1.000  C
  N68      1.0000 0.79832  0.71111  0.48171  Biso   1.000  N
  C408     1.0000 0.77569  0.75650  0.52941  Biso   1.000  C
  C409     1.0000 0.80560  0.70391  0.54402  Biso   1.000  C
  O71      1.0000 0.79501  0.76299  0.51200  Biso   1.000  O
  C410     1.0000 0.74020  0.78020  0.52792  Biso   1.000  C
  C411     1.0000 0.78881  0.71000  0.58179  Biso   1.000  C
  C412     1.0000 0.72741  0.70631  0.58361  Biso   1.000  C
  N69      1.0000 0.70172  0.78889  0.48171  Biso   1.000  N
  C413     1.0000 0.71119  0.79000  0.58179  Biso   1.000  C
  C414     1.0000 0.69440  0.79609  0.54402  Biso   1.000  C
  C415     1.0000 0.72129  0.37179  0.23130  Biso   1.000  C
  C416     1.0000 0.75000  0.37531  0.25000  Biso   1.000  C
  H298     1.0000 0.67011  0.41730  0.20189  Biso   1.000  H
  H299     1.0000 0.73010  0.42049  0.17562  Biso   1.000  H
  C417     1.0000 0.67768  0.55539  0.21690  Biso   1.000  C
  C418     1.0000 0.79369  0.41639  0.22741  Biso   1.000  C
  H300     1.0000 0.80573  0.47559  0.22741  Biso   1.000  H
  N70      1.0000 0.79600  0.52081  0.21099  Biso   1.000  N
  C419     1.0000 0.82232  0.55539  0.28310  Biso   1.000  C
  C420     1.0000 0.77871  0.37179  0.26870  Biso   1.000  C
  H301     1.0000 0.82993  0.41730  0.29811  Biso   1.000  H
  H302     1.0000 0.76990  0.42049  0.32438  Biso   1.000  H
  C421     1.0000 0.55539  0.71690  0.17768  Biso   1.000  C
  H303     1.0000 0.47559  0.77259  0.19432  Biso   1.000  H
  N71      1.0000 0.52081  0.78901  0.20400  Biso   1.000  N
  C422     1.0000 0.41639  0.77259  0.20631  Biso   1.000  C
  H304     1.0000 0.41730  0.70189  0.17011  Biso   1.000  H
  H305     1.0000 0.42049  0.67562  0.23010  Biso   1.000  H
  C423     1.0000 0.37179  0.73130  0.22129  Biso   1.000  C
  C424     1.0000 0.37531  0.75000  0.25000  Biso   1.000  C
  C425     1.0000 0.37179  0.76870  0.27871  Biso   1.000  C
  C426     1.0000 0.55539  0.78310  0.32232  Biso   1.000  C
  H306     1.0000 0.41730  0.79811  0.32989  Biso   1.000  H
  H307     1.0000 0.42049  0.82442  0.26990  Biso   1.000  H
  C427     1.0000 0.78310  0.67768  0.44461  Biso   1.000  C
  H308     1.0000 0.77259  0.80573  0.52441  Biso   1.000  H
  N72      1.0000 0.78901  0.79600  0.47919  Biso   1.000  N
  C428     1.0000 0.77259  0.79369  0.58361  Biso   1.000  C
  H309     1.0000 0.79811  0.67011  0.58270  Biso   1.000  H
  H310     1.0000 0.82442  0.73010  0.57951  Biso   1.000  H
  C429     1.0000 0.76870  0.72129  0.62821  Biso   1.000  C
  C430     1.0000 0.75000  0.75000  0.62469  Biso   1.000  C
  C431     1.0000 0.71690  0.82232  0.44461  Biso   1.000  C
  H311     1.0000 0.70189  0.82993  0.58270  Biso   1.000  H
  H312     1.0000 0.67562  0.76990  0.57951  Biso   1.000  H
  C432     1.0000 0.73130  0.77871  0.62821  Biso   1.000  C
  C433     1.0000 0.66279  0.60322  0.18128  Biso   1.000  C
  H313     1.0000 0.66139  0.55262  0.25248  Biso   1.000  H
  C434     1.0000 0.78140  0.55490  0.17529  Biso   1.000  C
  C435     1.0000 0.83721  0.60322  0.31872  Biso   1.000  C
  H314     1.0000 0.83861  0.55262  0.24752  Biso   1.000  H
  C436     1.0000 0.60322  0.68133  0.16279  Biso   1.000  C
  H315     1.0000 0.55262  0.75252  0.16139  Biso   1.000  H
  C437     1.0000 0.55490  0.82471  0.21860  Biso   1.000  C
  C438     1.0000 0.60322  0.81872  0.33721  Biso   1.000  C
  H316     1.0000 0.55262  0.74752  0.33861  Biso   1.000  H
  C439     1.0000 0.81872  0.66279  0.39682  Biso   1.000  C
  H317     1.0000 0.74752  0.66139  0.44742  Biso   1.000  H
  C440     1.0000 0.82471  0.78140  0.44510  Biso   1.000  C
  C441     1.0000 0.68133  0.83721  0.39682  Biso   1.000  C
  H318     1.0000 0.75252  0.83861  0.44742  Biso   1.000  H
  C442     1.0000 0.61749  0.63512  0.19531  Biso   1.000  C
  C443     1.0000 0.69531  0.61749  0.13512  Biso   1.000  C
  O72      1.0000 0.65899  0.65899  0.15899  Biso   1.000  O
  O73      1.0000 0.64012  0.61608  0.12792  Biso   1.000  O
  O74      1.0000 0.61608  0.62792  0.14012  Biso   1.000  O
  C444     1.0000 0.81619  0.60442  0.16201  Biso   1.000  C
  H319     1.0000 0.74760  0.54940  0.15601  Biso   1.000  H
  C445     1.0000 0.80469  0.61749  0.36488  Biso   1.000  C
  C446     1.0000 0.88251  0.63512  0.30469  Biso   1.000  C
  O75      1.0000 0.84101  0.65899  0.34101  Biso   1.000  O
  O76      1.0000 0.85992  0.61608  0.37208  Biso   1.000  O
  O77      1.0000 0.88392  0.62792  0.35992  Biso   1.000  O
  C447     1.0000 0.63512  0.69531  0.11749  Biso   1.000  C
  O78      1.0000 0.62792  0.64012  0.11608  Biso   1.000  O
  C448     1.0000 0.60442  0.83799  0.18381  Biso   1.000  C
  H320     1.0000 0.54940  0.84399  0.25240  Biso   1.000  H
  C449     1.0000 0.63512  0.80469  0.38251  Biso   1.000  C
  C450     1.0000 0.61749  0.86493  0.30469  Biso   1.000  C
  O79      1.0000 0.65899  0.84101  0.34101  Biso   1.000  O
  O80      1.0000 0.61608  0.87212  0.35992  Biso   1.000  O
  O81      1.0000 0.62792  0.85992  0.38392  Biso   1.000  O
  C451     1.0000 0.86493  0.69531  0.38251  Biso   1.000  C
  O82      1.0000 0.87212  0.64012  0.38392  Biso   1.000  O
  C452     1.0000 0.83799  0.81619  0.39562  Biso   1.000  C
  H321     1.0000 0.84399  0.74760  0.45060  Biso   1.000  H
  C453     1.0000 0.69531  0.88251  0.36488  Biso   1.000  C
  O83      1.0000 0.64012  0.88392  0.37208  Biso   1.000  O
  H322     1.0000 0.59602  0.62589  0.22692  Biso   1.000  H
  C454     1.0000 0.68133  0.66279  0.10322  Biso   1.000  C
  H323     1.0000 0.72692  0.59602  0.12589  Biso   1.000  H
  O84      1.0000 0.87299  0.62701  0.12701  Biso   1.000  O
  C455     1.0000 0.86211  0.61811  0.19518  Biso   1.000  C
  C456     1.0000 0.80482  0.63789  0.11811  Biso   1.000  C
  H324     1.0000 0.77313  0.59602  0.37411  Biso   1.000  H
  C457     1.0000 0.89682  0.68133  0.33721  Biso   1.000  C
  H325     1.0000 0.90402  0.62589  0.27308  Biso   1.000  H
  H326     1.0000 0.62589  0.72692  0.09602  Biso   1.000  H
  O85      1.0000 0.62701  0.87299  0.12701  Biso   1.000  O
  C458     1.0000 0.61811  0.80482  0.13789  Biso   1.000  C
  C459     1.0000 0.63789  0.88189  0.19518  Biso   1.000  C
  H327     1.0000 0.62589  0.77313  0.40402  Biso   1.000  H
  C460     1.0000 0.66279  0.89682  0.31872  Biso   1.000  C
  H328     1.0000 0.59602  0.87411  0.27308  Biso   1.000  H
  H329     1.0000 0.87411  0.72692  0.40402  Biso   1.000  H
  O86      1.0000 0.87299  0.87299  0.37299  Biso   1.000  O
  C461     1.0000 0.80482  0.86211  0.38189  Biso   1.000  C
  C462     1.0000 0.88189  0.80482  0.36211  Biso   1.000  C
  H330     1.0000 0.72692  0.90402  0.37411  Biso   1.000  H
  C463     1.0000 0.71690  0.67768  0.05539  Biso   1.000  C
  C464     1.0000 0.83799  0.68381  0.10442  Biso   1.000  C
  C465     1.0000 0.89562  0.66201  0.18381  Biso   1.000  C
  C466     1.0000 0.88189  0.69523  0.13789  Biso   1.000  C
  H331     1.0000 0.87010  0.59590  0.22658  Biso   1.000  H
  H332     1.0000 0.77342  0.62990  0.09590  Biso   1.000  H
  C467     1.0000 0.94461  0.71690  0.32232  Biso   1.000  C
  C468     1.0000 0.66201  0.81619  0.10442  Biso   1.000  C
  C469     1.0000 0.69523  0.86211  0.11811  Biso   1.000  C
  C470     1.0000 0.68381  0.89562  0.16201  Biso   1.000  C
  H333     1.0000 0.59590  0.77342  0.12990  Biso   1.000  H
  H334     1.0000 0.62990  0.90410  0.22658  Biso   1.000  H
  C471     1.0000 0.67768  0.94461  0.28310  Biso   1.000  C
  C472     1.0000 0.89562  0.83799  0.31619  Biso   1.000  C
  C473     1.0000 0.86211  0.88189  0.30482  Biso   1.000  C
  C474     1.0000 0.81619  0.89562  0.33799  Biso   1.000  C
  H335     1.0000 0.77342  0.87010  0.40410  Biso   1.000  H
  H336     1.0000 0.90410  0.77342  0.37010  Biso   1.000  H
  N73      1.0000 0.70172  0.71111  0.01829  Biso   1.000  N
  H337     1.0000 0.75252  0.66139  0.05258  Biso   1.000  H
  C475     1.0000 0.82471  0.71860  0.05490  Biso   1.000  C
  C476     1.0000 0.94510  0.67529  0.21860  Biso   1.000  C
  H338     1.0000 0.90410  0.72663  0.12990  Biso   1.000  H
  N74      1.0000 0.98171  0.70172  0.28889  Biso   1.000  N
  H339     1.0000 0.94742  0.75252  0.33861  Biso   1.000  H
  C477     1.0000 0.67529  0.78140  0.05490  Biso   1.000  C
  H340     1.0000 0.72663  0.87010  0.09590  Biso   1.000  H
  C478     1.0000 0.71860  0.94510  0.17529  Biso   1.000  C
  N75      1.0000 0.71111  0.98171  0.29832  Biso   1.000  N
  H341     1.0000 0.66139  0.94742  0.24752  Biso   1.000  H
  C479     1.0000 0.94510  0.82471  0.28140  Biso   1.000  C
  H342     1.0000 0.87010  0.90410  0.27342  Biso   1.000  H
  C480     1.0000 0.78140  0.94510  0.32471  Biso   1.000  C
  C481     1.0000 0.74020  0.71980  0.97212  Biso   1.000  C
  C482     1.0000 0.72431  0.75650  0.97063  Biso   1.000  C
  C483     1.0000 0.69440  0.70391  0.95602  Biso   1.000  C
  O87      1.0000 0.70499  0.76299  0.98800  Biso   1.000  O
  N76      1.0000 0.78901  0.70400  0.02081  Biso   1.000  N
  H343     1.0000 0.84399  0.75240  0.04940  Biso   1.000  H
  N77      1.0000 0.97919  0.71099  0.20400  Biso   1.000  N
  H344     1.0000 0.95060  0.65601  0.25240  Biso   1.000  H
  C484     1.0000 0.02788  0.74020  0.28020  Biso   1.000  C
  C485     1.0000 0.02941  0.72431  0.24350  Biso   1.000  C
  C486     1.0000 0.04402  0.69440  0.29609  Biso   1.000  C
  O88      1.0000 0.01200  0.70499  0.23701  Biso   1.000  O
  N78      1.0000 0.71099  0.79600  0.02081  Biso   1.000  N
  H345     1.0000 0.65601  0.74760  0.04940  Biso   1.000  H
  N79      1.0000 0.70400  0.97919  0.21099  Biso   1.000  N
  H346     1.0000 0.75240  0.95060  0.15601  Biso   1.000  H
  C487     1.0000 0.71980  0.02788  0.25980  Biso   1.000  C
  C488     1.0000 0.75650  0.02941  0.27569  Biso   1.000  C
  C489     1.0000 0.70391  0.04402  0.30560  Biso   1.000  C
  O89      1.0000 0.76299  0.01200  0.29501  Biso   1.000  O
  N80      1.0000 0.97919  0.78901  0.29600  Biso   1.000  N
  H347     1.0000 0.95060  0.84399  0.24760  Biso   1.000  H
  N81      1.0000 0.79600  0.97919  0.28901  Biso   1.000  N
  H348     1.0000 0.74760  0.95060  0.34399  Biso   1.000  H
  C490     1.0000 0.75980  0.78020  0.97212  Biso   1.000  C
  H349     1.0000 0.77259  0.69432  0.97559  Biso   1.000  H
  C491     1.0000 0.71119  0.71000  0.91821  Biso   1.000  C
  C492     1.0000 0.77569  0.74350  0.97063  Biso   1.000  C
  C493     1.0000 0.77259  0.70631  0.91639  Biso   1.000  C
  O90      1.0000 0.79501  0.73701  0.98800  Biso   1.000  O
  H350     1.0000 0.72741  0.80573  0.97559  Biso   1.000  H
  C494     1.0000 0.72741  0.79369  0.91639  Biso   1.000  C
  H351     1.0000 0.70189  0.67011  0.91730  Biso   1.000  H
  H352     1.0000 0.67562  0.73010  0.92053  Biso   1.000  H
  C495     1.0000 0.02788  0.75980  0.21980  Biso   1.000  C
  H353     1.0000 0.02441  0.72741  0.19432  Biso   1.000  H
  H354     1.0000 0.02441  0.77259  0.30568  Biso   1.000  H
  C496     1.0000 0.08179  0.71119  0.29000  Biso   1.000  C
  C497     1.0000 0.02941  0.77569  0.25650  Biso   1.000  C
  C498     1.0000 0.08361  0.77259  0.29369  Biso   1.000  C
  O91      1.0000 0.01200  0.79501  0.26299  Biso   1.000  O
  C499     1.0000 0.08361  0.72741  0.20631  Biso   1.000  C
  H355     1.0000 0.08270  0.70189  0.32989  Biso   1.000  H
  H356     1.0000 0.07951  0.67562  0.26990  Biso   1.000  H
  H357     1.0000 0.69432  0.02441  0.22741  Biso   1.000  H
  C500     1.0000 0.74350  0.02941  0.22431  Biso   1.000  C
  O92      1.0000 0.73701  0.01200  0.20499  Biso   1.000  O
  C501     1.0000 0.78020  0.02788  0.24020  Biso   1.000  C
  C502     1.0000 0.71000  0.08179  0.28881  Biso   1.000  C
  C503     1.0000 0.70631  0.08361  0.22741  Biso   1.000  C
  H358     1.0000 0.80573  0.02441  0.27259  Biso   1.000  H
  C504     1.0000 0.79369  0.08361  0.27259  Biso   1.000  C
  H359     1.0000 0.67011  0.08270  0.29811  Biso   1.000  H
  H360     1.0000 0.73010  0.07951  0.32438  Biso   1.000  H
  N82      1.0000 0.79832  0.78889  0.01829  Biso   1.000  N
  C505     1.0000 0.78881  0.79000  0.91821  Biso   1.000  C
  C506     1.0000 0.80560  0.79609  0.95602  Biso   1.000  C
  C507     1.0000 0.73130  0.72129  0.87179  Biso   1.000  C
  C508     1.0000 0.75000  0.75000  0.87531  Biso   1.000  C
  C509     1.0000 0.76870  0.77871  0.87179  Biso   1.000  C
  N83      1.0000 0.98171  0.79832  0.21111  Biso   1.000  N
  C510     1.0000 0.08179  0.78881  0.21000  Biso   1.000  C
  C511     1.0000 0.04402  0.80560  0.20391  Biso   1.000  C
  C512     1.0000 0.12821  0.73130  0.27871  Biso   1.000  C
  C513     1.0000 0.12469  0.75000  0.25000  Biso   1.000  C
  C514     1.0000 0.12821  0.76870  0.22129  Biso   1.000  C
  N84      1.0000 0.78889  0.98171  0.20172  Biso   1.000  N
  C515     1.0000 0.79000  0.08179  0.21119  Biso   1.000  C
  C516     1.0000 0.79609  0.04402  0.19440  Biso   1.000  C
  C517     1.0000 0.72129  0.12821  0.26870  Biso   1.000  C
  C518     1.0000 0.75000  0.12469  0.25000  Biso   1.000  C
  C519     1.0000 0.77871  0.12821  0.23130  Biso   1.000  C
  C520     1.0000 0.78310  0.82232  0.05539  Biso   1.000  C
  H361     1.0000 0.79811  0.82993  0.91730  Biso   1.000  H
  H362     1.0000 0.82442  0.76990  0.92053  Biso   1.000  H
  C521     1.0000 0.94461  0.78310  0.17768  Biso   1.000  C
  H363     1.0000 0.08270  0.79811  0.17011  Biso   1.000  H
  H364     1.0000 0.07951  0.82442  0.23010  Biso   1.000  H
  C522     1.0000 0.82232  0.94461  0.21690  Biso   1.000  C
  H365     1.0000 0.82993  0.08270  0.20189  Biso   1.000  H
  H366     1.0000 0.76990  0.07951  0.17562  Biso   1.000  H
  C523     1.0000 0.81872  0.83721  0.10322  Biso   1.000  C
  H367     1.0000 0.74752  0.83861  0.05258  Biso   1.000  H
  C524     1.0000 0.89682  0.81872  0.16279  Biso   1.000  C
  H368     1.0000 0.94742  0.74752  0.16139  Biso   1.000  H
  C525     1.0000 0.83721  0.89682  0.18128  Biso   1.000  C
  H369     1.0000 0.83861  0.94742  0.25248  Biso   1.000  H
  C526     1.0000 0.80469  0.88251  0.13512  Biso   1.000  C
  C527     1.0000 0.86493  0.80469  0.11749  Biso   1.000  C
  O93      1.0000 0.84101  0.84101  0.15899  Biso   1.000  O
  O94      1.0000 0.87212  0.85992  0.11608  Biso   1.000  O
  O95      1.0000 0.85992  0.88392  0.12792  Biso   1.000  O
  C528     1.0000 0.88251  0.86493  0.19531  Biso   1.000  C
  O96      1.0000 0.88392  0.87212  0.14012  Biso   1.000  O
  H370     1.0000 0.77313  0.90402  0.12589  Biso   1.000  H
  H371     1.0000 0.87411  0.77313  0.09602  Biso   1.000  H
  H372     1.0000 0.90402  0.87411  0.22692  Biso   1.000  H
  O97      1.0000 0.37299  0.62701  0.62701  Biso   1.000  O
  C529     1.0000 0.33799  0.68381  0.60442  Biso   1.000  C
  C530     1.0000 0.38189  0.69523  0.63789  Biso   1.000  C
  C531     1.0000 0.30482  0.63789  0.61811  Biso   1.000  C
  C532     1.0000 0.39562  0.66201  0.68381  Biso   1.000  C
  C533     1.0000 0.31619  0.60442  0.66201  Biso   1.000  C
  C534     1.0000 0.36211  0.61811  0.69523  Biso   1.000  C
  C535     1.0000 0.32471  0.71860  0.55490  Biso   1.000  C
  H373     1.0000 0.40410  0.72663  0.62990  Biso   1.000  H
  H374     1.0000 0.27342  0.62990  0.59590  Biso   1.000  H
  C536     1.0000 0.44510  0.67529  0.71860  Biso   1.000  C
  C537     1.0000 0.28140  0.55490  0.67529  Biso   1.000  C
  H375     1.0000 0.37010  0.59590  0.72663  Biso   1.000  H
  N85      1.0000 0.28901  0.70400  0.52081  Biso   1.000  N
  H376     1.0000 0.34399  0.75240  0.54940  Biso   1.000  H
  N86      1.0000 0.47919  0.71099  0.70400  Biso   1.000  N
  H377     1.0000 0.45060  0.65601  0.75240  Biso   1.000  H
  N87      1.0000 0.29600  0.52081  0.71099  Biso   1.000  N
  H378     1.0000 0.24760  0.54940  0.65601  Biso   1.000  H
  C538     1.0000 0.24020  0.71980  0.47212  Biso   1.000  C
  C539     1.0000 0.27569  0.74350  0.47059  Biso   1.000  C
  H379     1.0000 0.27259  0.69432  0.47559  Biso   1.000  H
  O98      1.0000 0.29501  0.73701  0.48800  Biso   1.000  O
  C540     1.0000 0.52792  0.75980  0.71980  Biso   1.000  C
  H380     1.0000 0.52441  0.72741  0.69432  Biso   1.000  H
  C541     1.0000 0.52941  0.72431  0.74350  Biso   1.000  C
  O99      1.0000 0.51200  0.70499  0.73701  Biso   1.000  O
  C542     1.0000 0.25650  0.47059  0.72431  Biso   1.000  C
  O100     1.0000 0.26299  0.48800  0.70499  Biso   1.000  O
  C543     1.0000 0.28020  0.47212  0.75980  Biso   1.000  C
  H381     1.0000 0.30568  0.47559  0.72741  Biso   1.000  H
  C544     1.0000 0.27259  0.70631  0.41639  Biso   1.000  C
  C545     1.0000 0.21119  0.71000  0.41821  Biso   1.000  C
  N88      1.0000 0.20172  0.71111  0.51829  Biso   1.000  N
  C546     1.0000 0.25980  0.78020  0.47212  Biso   1.000  C
  C547     1.0000 0.22431  0.75650  0.47059  Biso   1.000  C
  C548     1.0000 0.19440  0.70391  0.45602  Biso   1.000  C
  O101     1.0000 0.20499  0.76299  0.48800  Biso   1.000  O
  N89      1.0000 0.29832  0.78889  0.51829  Biso   1.000  N
  C549     1.0000 0.28881  0.79000  0.41821  Biso   1.000  C
  C550     1.0000 0.30560  0.79609  0.45602  Biso   1.000  C
  N90      1.0000 0.48171  0.79832  0.71111  Biso   1.000  N
  C551     1.0000 0.52941  0.77569  0.75650  Biso   1.000  C
  C552     1.0000 0.54402  0.80560  0.70391  Biso   1.000  C
  O102     1.0000 0.51200  0.79501  0.76299  Biso   1.000  O
  C553     1.0000 0.52792  0.74020  0.78020  Biso   1.000  C
  C554     1.0000 0.58179  0.78881  0.71000  Biso   1.000  C
  C555     1.0000 0.58361  0.72741  0.70631  Biso   1.000  C
  N91      1.0000 0.48171  0.70172  0.78889  Biso   1.000  N
  C556     1.0000 0.58179  0.71119  0.79000  Biso   1.000  C
  C557     1.0000 0.54402  0.69440  0.79609  Biso   1.000  C
  N92      1.0000 0.21111  0.51829  0.70172  Biso   1.000  N
  C558     1.0000 0.21980  0.47212  0.74020  Biso   1.000  C
  C559     1.0000 0.20391  0.45602  0.69440  Biso   1.000  C
  C560     1.0000 0.21000  0.41821  0.71119  Biso   1.000  C
  C561     1.0000 0.24350  0.47059  0.77569  Biso   1.000  C
  C562     1.0000 0.29369  0.41639  0.72741  Biso   1.000  C
  O103     1.0000 0.23701  0.48800  0.79501  Biso   1.000  O
  N93      1.0000 0.28889  0.51829  0.79832  Biso   1.000  N
  C563     1.0000 0.29000  0.41821  0.78881  Biso   1.000  C
  C564     1.0000 0.29609  0.45602  0.80560  Biso   1.000  C
  C565     1.0000 0.23130  0.72129  0.37179  Biso   1.000  C
  C566     1.0000 0.25000  0.75000  0.37531  Biso   1.000  C
  H382     1.0000 0.20189  0.67011  0.41730  Biso   1.000  H
  H383     1.0000 0.17562  0.73010  0.42049  Biso   1.000  H
  C567     1.0000 0.21690  0.67768  0.55539  Biso   1.000  C
  C568     1.0000 0.22741  0.79369  0.41639  Biso   1.000  C
  H384     1.0000 0.22741  0.80573  0.47559  Biso   1.000  H
  N94      1.0000 0.21099  0.79600  0.52081  Biso   1.000  N
  C569     1.0000 0.28310  0.82232  0.55539  Biso   1.000  C
  C570     1.0000 0.26870  0.77871  0.37179  Biso   1.000  C
  H385     1.0000 0.29811  0.82993  0.41730  Biso   1.000  H
  H386     1.0000 0.32438  0.76990  0.42049  Biso   1.000  H
  C571     1.0000 0.44461  0.78310  0.67768  Biso   1.000  C
  H387     1.0000 0.52441  0.77259  0.80573  Biso   1.000  H
  N95      1.0000 0.47919  0.78901  0.79600  Biso   1.000  N
  C572     1.0000 0.58361  0.77259  0.79369  Biso   1.000  C
  H388     1.0000 0.58270  0.79811  0.67011  Biso   1.000  H
  H389     1.0000 0.57951  0.82442  0.73010  Biso   1.000  H
  C573     1.0000 0.62821  0.76870  0.72129  Biso   1.000  C
  C574     1.0000 0.62469  0.75000  0.75000  Biso   1.000  C
  C575     1.0000 0.44461  0.71690  0.82232  Biso   1.000  C
  H390     1.0000 0.58270  0.70189  0.82993  Biso   1.000  H
  H391     1.0000 0.57951  0.67562  0.76990  Biso   1.000  H
  C576     1.0000 0.62821  0.73130  0.77871  Biso   1.000  C
  C577     1.0000 0.17768  0.55539  0.71690  Biso   1.000  C
  H392     1.0000 0.19432  0.47559  0.77259  Biso   1.000  H
  N96      1.0000 0.20400  0.52081  0.78901  Biso   1.000  N
  C578     1.0000 0.20631  0.41639  0.77259  Biso   1.000  C
  H393     1.0000 0.17011  0.41730  0.70189  Biso   1.000  H
  H394     1.0000 0.23010  0.42049  0.67562  Biso   1.000  H
  C579     1.0000 0.22129  0.37179  0.73130  Biso   1.000  C
  C580     1.0000 0.25000  0.37531  0.75000  Biso   1.000  C
  C581     1.0000 0.27871  0.37179  0.76870  Biso   1.000  C
  C582     1.0000 0.32232  0.55539  0.78310  Biso   1.000  C
  H395     1.0000 0.32989  0.41730  0.79811  Biso   1.000  H
  H396     1.0000 0.26990  0.42049  0.82442  Biso   1.000  H
  C583     1.0000 0.18128  0.66279  0.60322  Biso   1.000  C
  H397     1.0000 0.25248  0.66139  0.55262  Biso   1.000  H
  C584     1.0000 0.17529  0.78140  0.55490  Biso   1.000  C
  C585     1.0000 0.31872  0.83721  0.60322  Biso   1.000  C
  H398     1.0000 0.24752  0.83861  0.55262  Biso   1.000  H
  C586     1.0000 0.39682  0.81872  0.66279  Biso   1.000  C
  H399     1.0000 0.44742  0.74752  0.66139  Biso   1.000  H
  C587     1.0000 0.44510  0.82471  0.78140  Biso   1.000  C
  C588     1.0000 0.39682  0.68133  0.83721  Biso   1.000  C
  H400     1.0000 0.44742  0.75252  0.83861  Biso   1.000  H
  C589     1.0000 0.16279  0.60322  0.68133  Biso   1.000  C
  H401     1.0000 0.16139  0.55262  0.75252  Biso   1.000  H
  C590     1.0000 0.21860  0.55490  0.82471  Biso   1.000  C
  C591     1.0000 0.33721  0.60322  0.81872  Biso   1.000  C
  H402     1.0000 0.33861  0.55262  0.74752  Biso   1.000  H
  C592     1.0000 0.19531  0.61749  0.63512  Biso   1.000  C
  C593     1.0000 0.13512  0.69531  0.61749  Biso   1.000  C
  O104     1.0000 0.15899  0.65899  0.65899  Biso   1.000  O
  O105     1.0000 0.12792  0.64012  0.61608  Biso   1.000  O
  O106     1.0000 0.14012  0.61608  0.62792  Biso   1.000  O
  C594     1.0000 0.16201  0.81619  0.60442  Biso   1.000  C
  H403     1.0000 0.15601  0.74760  0.54940  Biso   1.000  H
  C595     1.0000 0.36488  0.80469  0.61749  Biso   1.000  C
  C596     1.0000 0.30469  0.88251  0.63512  Biso   1.000  C
  O107     1.0000 0.34101  0.84101  0.65899  Biso   1.000  O
  O108     1.0000 0.35992  0.88392  0.62792  Biso   1.000  O
  O109     1.0000 0.37208  0.85992  0.61608  Biso   1.000  O
  C597     1.0000 0.38251  0.86493  0.69531  Biso   1.000  C
  O110     1.0000 0.38392  0.87212  0.64012  Biso   1.000  O
  C598     1.0000 0.39562  0.83799  0.81619  Biso   1.000  C
  H404     1.0000 0.45060  0.84399  0.74760  Biso   1.000  H
  C599     1.0000 0.38251  0.63512  0.80469  Biso   1.000  C
  C600     1.0000 0.36488  0.69531  0.88251  Biso   1.000  C
  O111     1.0000 0.34101  0.65899  0.84101  Biso   1.000  O
  O112     1.0000 0.38392  0.62792  0.85992  Biso   1.000  O
  O113     1.0000 0.37208  0.64012  0.88392  Biso   1.000  O
  C601     1.0000 0.11749  0.63512  0.69531  Biso   1.000  C
  O114     1.0000 0.11608  0.62792  0.64012  Biso   1.000  O
  C602     1.0000 0.18381  0.60442  0.83799  Biso   1.000  C
  H405     1.0000 0.25240  0.54940  0.84399  Biso   1.000  H
  C603     1.0000 0.30469  0.61749  0.86493  Biso   1.000  C
  O115     1.0000 0.35992  0.61608  0.87212  Biso   1.000  O
  H406     1.0000 0.22692  0.59602  0.62589  Biso   1.000  H
  C604     1.0000 0.10322  0.68133  0.66279  Biso   1.000  C
  H407     1.0000 0.12589  0.72692  0.59602  Biso   1.000  H
  O116     1.0000 0.12701  0.87299  0.62701  Biso   1.000  O
  C605     1.0000 0.19518  0.86211  0.61811  Biso   1.000  C
  C606     1.0000 0.11811  0.80482  0.63789  Biso   1.000  C
  H408     1.0000 0.37411  0.77313  0.59602  Biso   1.000  H
  C607     1.0000 0.33721  0.89682  0.68133  Biso   1.000  C
  H409     1.0000 0.27308  0.90402  0.62589  Biso   1.000  H
  H410     1.0000 0.40402  0.87411  0.72692  Biso   1.000  H
  O117     1.0000 0.37299  0.87299  0.87299  Biso   1.000  O
  C608     1.0000 0.38189  0.80482  0.86211  Biso   1.000  C
  C609     1.0000 0.36211  0.88189  0.80482  Biso   1.000  C
  H411     1.0000 0.40402  0.62589  0.77313  Biso   1.000  H
  C610     1.0000 0.31872  0.66279  0.89682  Biso   1.000  C
  H412     1.0000 0.37411  0.72692  0.90402  Biso   1.000  H
  H413     1.0000 0.09602  0.62589  0.72692  Biso   1.000  H
  O118     1.0000 0.12701  0.62701  0.87299  Biso   1.000  O
  C611     1.0000 0.13789  0.61811  0.80482  Biso   1.000  C
  C612     1.0000 0.19518  0.63789  0.88189  Biso   1.000  C
  H414     1.0000 0.27308  0.59602  0.87411  Biso   1.000  H
  C613     1.0000 0.05539  0.71690  0.67768  Biso   1.000  C
  C614     1.0000 0.18381  0.89562  0.66201  Biso   1.000  C
  C615     1.0000 0.10442  0.83799  0.68381  Biso   1.000  C
  C616     1.0000 0.13789  0.88189  0.69523  Biso   1.000  C
  H415     1.0000 0.22658  0.87010  0.59590  Biso   1.000  H
  H416     1.0000 0.09590  0.77342  0.62990  Biso   1.000  H
  C617     1.0000 0.32232  0.94461  0.71690  Biso   1.000  C
  C618     1.0000 0.31619  0.89562  0.83799  Biso   1.000  C
  C619     1.0000 0.30482  0.86211  0.88189  Biso   1.000  C
  C620     1.0000 0.33799  0.81619  0.89562  Biso   1.000  C
  H417     1.0000 0.40410  0.77342  0.87010  Biso   1.000  H
  H418     1.0000 0.37010  0.90410  0.77342  Biso   1.000  H
  C621     1.0000 0.28310  0.67768  0.94461  Biso   1.000  C
  C622     1.0000 0.10442  0.66201  0.81619  Biso   1.000  C
  C623     1.0000 0.11811  0.69523  0.86211  Biso   1.000  C
  C624     1.0000 0.16201  0.68381  0.89562  Biso   1.000  C
  H419     1.0000 0.12990  0.59590  0.77342  Biso   1.000  H
  H420     1.0000 0.22658  0.62990  0.90410  Biso   1.000  H
  N97      1.0000 0.01829  0.70172  0.71111  Biso   1.000  N
  H421     1.0000 0.05258  0.75252  0.66139  Biso   1.000  H
  C625     1.0000 0.21860  0.94510  0.67529  Biso   1.000  C
  C626     1.0000 0.05490  0.82471  0.71860  Biso   1.000  C
  H422     1.0000 0.12990  0.90410  0.72663  Biso   1.000  H
  N98      1.0000 0.28889  0.98171  0.70172  Biso   1.000  N
  H423     1.0000 0.33861  0.94742  0.75252  Biso   1.000  H
  C627     1.0000 0.28140  0.94510  0.82471  Biso   1.000  C
  H424     1.0000 0.27342  0.87010  0.90410  Biso   1.000  H
  C628     1.0000 0.32471  0.78140  0.94510  Biso   1.000  C
  N99      1.0000 0.29832  0.71111  0.98171  Biso   1.000  N
  H425     1.0000 0.24752  0.66139  0.94742  Biso   1.000  H
  C629     1.0000 0.05490  0.67529  0.78140  Biso   1.000  C
  H426     1.0000 0.09590  0.72663  0.87010  Biso   1.000  H
  C630     1.0000 0.17529  0.71860  0.94510  Biso   1.000  C
  C631     1.0000 0.97212  0.74020  0.71980  Biso   1.000  C
  C632     1.0000 0.97063  0.72431  0.75650  Biso   1.000  C
  C633     1.0000 0.95602  0.69440  0.70391  Biso   1.000  C
  O119     1.0000 0.98800  0.70499  0.76299  Biso   1.000  O
  N100     1.0000 0.20400  0.97919  0.71099  Biso   1.000  N
  H427     1.0000 0.25240  0.95060  0.65601  Biso   1.000  H
  N101     1.0000 0.02081  0.78901  0.70400  Biso   1.000  N
  H428     1.0000 0.04940  0.84399  0.75240  Biso   1.000  H
  C634     1.0000 0.28020  0.02788  0.74020  Biso   1.000  C
  C635     1.0000 0.24350  0.02941  0.72431  Biso   1.000  C
  C636     1.0000 0.29609  0.04402  0.69440  Biso   1.000  C
  O120     1.0000 0.23701  0.01200  0.70499  Biso   1.000  O
  N102     1.0000 0.29600  0.97919  0.78901  Biso   1.000  N
  H429     1.0000 0.24760  0.95060  0.84399  Biso   1.000  H
  N103     1.0000 0.28901  0.79600  0.97919  Biso   1.000  N
  H430     1.0000 0.34399  0.74760  0.95060  Biso   1.000  H
  C637     1.0000 0.25980  0.71980  0.02788  Biso   1.000  C
  C638     1.0000 0.27569  0.75650  0.02941  Biso   1.000  C
  C639     1.0000 0.30560  0.70391  0.04402  Biso   1.000  C
  O121     1.0000 0.29501  0.76299  0.01200  Biso   1.000  O
  N104     1.0000 0.02081  0.71099  0.79600  Biso   1.000  N
  H431     1.0000 0.04940  0.65601  0.74760  Biso   1.000  H
  N105     1.0000 0.21099  0.70400  0.97919  Biso   1.000  N
  H432     1.0000 0.15601  0.75240  0.95060  Biso   1.000  H
  C640     1.0000 0.97212  0.75980  0.78020  Biso   1.000  C
  H433     1.0000 0.97559  0.77259  0.69432  Biso   1.000  H
  C641     1.0000 0.91821  0.71119  0.71000  Biso   1.000  C
  C642     1.0000 0.97063  0.77569  0.74350  Biso   1.000  C
  C643     1.0000 0.91639  0.77259  0.70631  Biso   1.000  C
  O122     1.0000 0.98800  0.79501  0.73701  Biso   1.000  O
  H434     1.0000 0.97559  0.72741  0.80573  Biso   1.000  H
  C644     1.0000 0.91639  0.72741  0.79369  Biso   1.000  C
  H435     1.0000 0.91730  0.70189  0.67011  Biso   1.000  H
  H436     1.0000 0.92053  0.67562  0.73010  Biso   1.000  H
  C645     1.0000 0.21980  0.02788  0.75980  Biso   1.000  C
  H437     1.0000 0.19432  0.02441  0.72741  Biso   1.000  H
  H438     1.0000 0.30568  0.02441  0.77259  Biso   1.000  H
  C646     1.0000 0.29000  0.08179  0.71119  Biso   1.000  C
  C647     1.0000 0.25650  0.02941  0.77569  Biso   1.000  C
  C648     1.0000 0.29369  0.08361  0.77259  Biso   1.000  C
  O123     1.0000 0.26299  0.01200  0.79501  Biso   1.000  O
  C649     1.0000 0.20631  0.08361  0.72741  Biso   1.000  C
  H439     1.0000 0.32989  0.08270  0.70189  Biso   1.000  H
  H440     1.0000 0.26990  0.07951  0.67562  Biso   1.000  H
  C650     1.0000 0.24020  0.78020  0.02788  Biso   1.000  C
  H441     1.0000 0.27259  0.80573  0.02441  Biso   1.000  H
  H442     1.0000 0.22741  0.69432  0.02441  Biso   1.000  H
  C651     1.0000 0.22431  0.74350  0.02941  Biso   1.000  C
  O124     1.0000 0.20499  0.73701  0.01200  Biso   1.000  O
  C652     1.0000 0.28881  0.71000  0.08179  Biso   1.000  C
  C653     1.0000 0.22741  0.70631  0.08361  Biso   1.000  C
  C654     1.0000 0.27259  0.79369  0.08361  Biso   1.000  C
  H443     1.0000 0.29811  0.67011  0.08270  Biso   1.000  H
  H444     1.0000 0.32438  0.73010  0.07951  Biso   1.000  H
  N106     1.0000 0.01829  0.79832  0.78889  Biso   1.000  N
  C655     1.0000 0.91821  0.78881  0.79000  Biso   1.000  C
  C656     1.0000 0.95602  0.80560  0.79609  Biso   1.000  C
  C657     1.0000 0.87179  0.73130  0.72129  Biso   1.000  C
  C658     1.0000 0.87531  0.75000  0.75000  Biso   1.000  C
  C659     1.0000 0.87179  0.76870  0.77871  Biso   1.000  C
  N107     1.0000 0.21111  0.98171  0.79832  Biso   1.000  N
  C660     1.0000 0.21000  0.08179  0.78881  Biso   1.000  C
  C661     1.0000 0.20391  0.04402  0.80560  Biso   1.000  C
  C662     1.0000 0.27871  0.12821  0.73130  Biso   1.000  C
  C663     1.0000 0.25000  0.12469  0.75000  Biso   1.000  C
  C664     1.0000 0.22129  0.12821  0.76870  Biso   1.000  C
  N108     1.0000 0.20172  0.78889  0.98171  Biso   1.000  N
  C665     1.0000 0.21119  0.79000  0.08179  Biso   1.000  C
  C666     1.0000 0.19440  0.79609  0.04402  Biso   1.000  C
  C667     1.0000 0.26870  0.72129  0.12821  Biso   1.000  C
  C668     1.0000 0.25000  0.75000  0.12469  Biso   1.000  C
  C669     1.0000 0.23130  0.77871  0.12821  Biso   1.000  C
  C670     1.0000 0.05539  0.78310  0.82232  Biso   1.000  C
  H445     1.0000 0.91730  0.79811  0.82993  Biso   1.000  H
  H446     1.0000 0.92053  0.82442  0.76990  Biso   1.000  H
  C671     1.0000 0.17768  0.94461  0.78310  Biso   1.000  C
  H447     1.0000 0.17011  0.08270  0.79811  Biso   1.000  H
  H448     1.0000 0.23010  0.07951  0.82442  Biso   1.000  H
  C672     1.0000 0.21690  0.82232  0.94461  Biso   1.000  C
  H449     1.0000 0.20189  0.82993  0.08270  Biso   1.000  H
  H450     1.0000 0.17562  0.76990  0.07951  Biso   1.000  H
  C673     1.0000 0.10322  0.81872  0.83721  Biso   1.000  C
  H451     1.0000 0.05258  0.74752  0.83861  Biso   1.000  H
  C674     1.0000 0.16279  0.89682  0.81872  Biso   1.000  C
  H452     1.0000 0.16139  0.94742  0.74752  Biso   1.000  H
  C675     1.0000 0.18128  0.83721  0.89682  Biso   1.000  C
  H453     1.0000 0.25248  0.83861  0.94742  Biso   1.000  H
  C676     1.0000 0.13512  0.80469  0.88251  Biso   1.000  C
  C677     1.0000 0.11749  0.86493  0.80469  Biso   1.000  C
  O125     1.0000 0.15899  0.84101  0.84101  Biso   1.000  O
  O126     1.0000 0.12792  0.85992  0.88392  Biso   1.000  O
  O127     1.0000 0.11608  0.87212  0.85992  Biso   1.000  O
  C678     1.0000 0.19531  0.88251  0.86493  Biso   1.000  C
  O128     1.0000 0.14012  0.88392  0.87212  Biso   1.000  O
  H454     1.0000 0.12589  0.77313  0.90402  Biso   1.000  H
  H455     1.0000 0.09602  0.87411  0.77313  Biso   1.000  H
  H456     1.0000 0.22692  0.90402  0.87411  Biso   1.000  H
  C679     1.0000 0.50302  0.38238  0.03111  Biso   1.000  C
  C680     1.0000 0.54058  0.33270  0.03529  Biso   1.000  C
  H457     1.0000 0.52081  0.41660  0.04509  Biso   1.000  H
  H458     1.0000 0.46732  0.37651  0.05018  Biso   1.000  H
  H459     1.0000 0.47820  0.39492  0.02511  Biso   1.000  H
  C681     1.0000 0.49702  0.38238  0.96889  Biso   1.000  C
  C682     1.0000 0.51059  0.27631  0.02921  Biso   1.000  C
  H460     1.0000 0.55961  0.33361  0.07149  Biso   1.000  H
  H461     1.0000 0.56930  0.33551  0.00621  Biso   1.000  H
  H462     1.0000 0.57831  0.33171  0.01920  Biso   1.000  H
  H463     1.0000 0.54261  0.34470  0.07438  Biso   1.000  H
  C683     1.0000 0.50000  0.37088  0.00000  Biso   1.000  C
  C684     1.0000 0.45942  0.33270  0.96471  Biso   1.000  C
  H464     1.0000 0.52180  0.39492  0.97489  Biso   1.000  H
  H465     1.0000 0.47919  0.41660  0.95491  Biso   1.000  H
  H466     1.0000 0.53272  0.37651  0.94982  Biso   1.000  H
  N109     1.0000 0.54749  0.23002  0.03818  Biso   1.000  N
  H467     1.0000 0.47299  0.27102  0.05200  Biso   1.000  H
  C685     1.0000 0.48941  0.27631  0.97079  Biso   1.000  C
  H468     1.0000 0.44039  0.33361  0.92851  Biso   1.000  H
  H469     1.0000 0.43070  0.33551  0.99379  Biso   1.000  H
  H470     1.0000 0.42169  0.33171  0.98080  Biso   1.000  H
  H471     1.0000 0.45739  0.34470  0.92562  Biso   1.000  H
  C686     1.0000 0.53351  0.19432  0.07430  Biso   1.000  C
  N110     1.0000 0.45251  0.23002  0.96182  Biso   1.000  N
  H472     1.0000 0.52701  0.27102  0.94800  Biso   1.000  H
  H473     1.0000 0.49992  0.19940  0.09391  Biso   1.000  H
  C687     1.0000 0.56752  0.14558  0.08659  Biso   1.000  C
  C688     1.0000 0.46649  0.19432  0.92570  Biso   1.000  C
  C689     1.0000 0.61302  0.13251  0.05461  Biso   1.000  C
  C690     1.0000 0.55461  0.11298  0.13251  Biso   1.000  C
  H474     1.0000 0.50012  0.19940  0.90609  Biso   1.000  H
  C691     1.0000 0.43248  0.14558  0.91341  Biso   1.000  C
  H475     1.0000 0.62212  0.15481  0.02350  Biso   1.000  H
  C692     1.0000 0.64562  0.08659  0.06752  Biso   1.000  C
  H476     1.0000 0.52350  0.12208  0.15481  Biso   1.000  H
  C693     1.0000 0.58659  0.06752  0.14558  Biso   1.000  C
  C694     1.0000 0.38702  0.13251  0.94539  Biso   1.000  C
  C695     1.0000 0.44539  0.11298  0.86749  Biso   1.000  C
  C696     1.0000 0.69432  0.07430  0.03351  Biso   1.000  C
  C697     1.0000 0.63251  0.05461  0.11298  Biso   1.000  C
  C698     1.0000 0.57430  0.03351  0.19432  Biso   1.000  C
  H477     1.0000 0.37792  0.15481  0.97650  Biso   1.000  H
  C699     1.0000 0.35442  0.08659  0.93253  Biso   1.000  C
  H478     1.0000 0.47650  0.12208  0.84519  Biso   1.000  H
  C700     1.0000 0.41341  0.06752  0.85442  Biso   1.000  C
  N111     1.0000 0.73002  0.03818  0.04749  Biso   1.000  N
  H479     1.0000 0.69940  0.09391  0.99992  Biso   1.000  H
  H480     1.0000 0.65481  0.02350  0.12208  Biso   1.000  H
  N112     1.0000 0.53818  0.04749  0.23002  Biso   1.000  N
  H481     1.0000 0.59391  0.99992  0.19940  Biso   1.000  H
  C701     1.0000 0.30568  0.07430  0.96649  Biso   1.000  C
  C702     1.0000 0.36749  0.05461  0.88702  Biso   1.000  C
  C703     1.0000 0.42570  0.03351  0.80573  Biso   1.000  C
  C704     1.0000 0.77631  0.02921  0.01059  Biso   1.000  C
  C705     1.0000 0.52921  0.01059  0.27631  Biso   1.000  C
  H482     1.0000 0.30060  0.09391  0.00008  Biso   1.000  H
  N113     1.0000 0.26998  0.03818  0.95251  Biso   1.000  N
  H483     1.0000 0.34519  0.02350  0.87792  Biso   1.000  H
  H484     1.0000 0.40609  0.99992  0.80060  Biso   1.000  H
  N114     1.0000 0.46182  0.04749  0.77002  Biso   1.000  N
  C706     1.0000 0.83270  0.03529  0.04058  Biso   1.000  C
  C707     1.0000 0.77631  0.97079  0.98941  Biso   1.000  C
  H485     1.0000 0.77102  0.05200  0.97303  Biso   1.000  H
  C708     1.0000 0.53529  0.04058  0.33270  Biso   1.000  C
  C709     1.0000 0.47079  0.98941  0.27631  Biso   1.000  C
  H486     1.0000 0.55200  0.97303  0.27102  Biso   1.000  H
  C710     1.0000 0.22369  0.02921  0.98941  Biso   1.000  C
  C711     1.0000 0.47079  0.01059  0.72369  Biso   1.000  C
  H487     1.0000 0.83361  0.07149  0.05961  Biso   1.000  H
  H488     1.0000 0.83551  0.00621  0.06930  Biso   1.000  H
  C712     1.0000 0.88243  0.03111  0.00302  Biso   1.000  C
  H489     1.0000 0.83171  0.01920  0.07831  Biso   1.000  H
  H490     1.0000 0.84470  0.07438  0.04261  Biso   1.000  H
  C713     1.0000 0.87093  0.00000  0.00000  Biso   1.000  C
  N115     1.0000 0.73002  0.96182  0.95251  Biso   1.000  N
  C714     1.0000 0.83270  0.96471  0.95942  Biso   1.000  C
  H491     1.0000 0.77102  0.94800  0.02701  Biso   1.000  H
  H492     1.0000 0.57149  0.05961  0.33361  Biso   1.000  H
  H493     1.0000 0.50621  0.06930  0.33551  Biso   1.000  H
  C715     1.0000 0.53111  0.00302  0.38238  Biso   1.000  C
  H494     1.0000 0.51920  0.07831  0.33171  Biso   1.000  H
  H495     1.0000 0.57442  0.04261  0.34470  Biso   1.000  H
  C716     1.0000 0.50000  0.00000  0.37088  Biso   1.000  C
  H496     1.0000 0.44800  0.02701  0.27102  Biso   1.000  H
  N116     1.0000 0.46182  0.95251  0.23002  Biso   1.000  N
  C717     1.0000 0.46471  0.95942  0.33270  Biso   1.000  C
  H497     1.0000 0.22898  0.05200  0.02701  Biso   1.000  H
  C718     1.0000 0.22369  0.97079  0.01059  Biso   1.000  C
  C719     1.0000 0.16730  0.03529  0.95942  Biso   1.000  C
  C720     1.0000 0.52921  0.98941  0.72369  Biso   1.000  C
  H498     1.0000 0.44800  0.97303  0.72903  Biso   1.000  H
  C721     1.0000 0.46471  0.04058  0.66730  Biso   1.000  C
  H499     1.0000 0.91660  0.04509  0.02081  Biso   1.000  H
  C722     1.0000 0.88243  0.96889  0.99702  Biso   1.000  C
  H500     1.0000 0.87651  0.05018  0.96732  Biso   1.000  H
  H501     1.0000 0.89492  0.02511  0.97820  Biso   1.000  H
  H502     1.0000 0.89492  0.97489  0.02180  Biso   1.000  H
  C723     1.0000 0.69432  0.92570  0.96649  Biso   1.000  C
  H503     1.0000 0.83361  0.92851  0.94043  Biso   1.000  H
  H504     1.0000 0.83551  0.99379  0.93070  Biso   1.000  H
  H505     1.0000 0.83171  0.98080  0.92173  Biso   1.000  H
  H506     1.0000 0.84470  0.92562  0.95739  Biso   1.000  H
  H507     1.0000 0.54509  0.02081  0.41660  Biso   1.000  H
  C724     1.0000 0.46889  0.99702  0.38238  Biso   1.000  C
  H508     1.0000 0.55022  0.96732  0.37651  Biso   1.000  H
  H509     1.0000 0.52511  0.97820  0.39492  Biso   1.000  H
  H510     1.0000 0.47489  0.02180  0.39492  Biso   1.000  H
  C725     1.0000 0.42570  0.96649  0.19432  Biso   1.000  C
  H511     1.0000 0.42851  0.94043  0.33361  Biso   1.000  H
  H512     1.0000 0.49379  0.93070  0.33551  Biso   1.000  H
  H513     1.0000 0.48080  0.92173  0.33171  Biso   1.000  H
  H514     1.0000 0.42562  0.95739  0.34470  Biso   1.000  H
  H515     1.0000 0.22898  0.94800  0.97303  Biso   1.000  H
  N117     1.0000 0.26998  0.96182  0.04749  Biso   1.000  N
  C726     1.0000 0.16730  0.96471  0.04058  Biso   1.000  C
  C727     1.0000 0.12912  0.00000  0.00000  Biso   1.000  C
  H516     1.0000 0.16639  0.07149  0.94043  Biso   1.000  H
  H517     1.0000 0.16449  0.00621  0.93070  Biso   1.000  H
  C728     1.0000 0.11762  0.03111  0.99702  Biso   1.000  C
  H518     1.0000 0.16829  0.01920  0.92173  Biso   1.000  H
  H519     1.0000 0.15530  0.07438  0.95739  Biso   1.000  H
  N118     1.0000 0.53818  0.95251  0.77002  Biso   1.000  N
  C729     1.0000 0.53529  0.95942  0.66730  Biso   1.000  C
  H520     1.0000 0.55200  0.02701  0.72903  Biso   1.000  H
  H521     1.0000 0.42851  0.05961  0.66639  Biso   1.000  H
  H522     1.0000 0.49379  0.06930  0.66449  Biso   1.000  H
  C730     1.0000 0.46889  0.00302  0.61762  Biso   1.000  C
  H523     1.0000 0.48080  0.07831  0.66829  Biso   1.000  H
  H524     1.0000 0.42562  0.04261  0.65530  Biso   1.000  H
  C731     1.0000 0.50000  0.00000  0.62912  Biso   1.000  C
  H525     1.0000 0.91660  0.95491  0.97919  Biso   1.000  H
  H526     1.0000 0.87651  0.94982  0.03268  Biso   1.000  H
  C732     1.0000 0.64562  0.91341  0.93253  Biso   1.000  C
  H527     1.0000 0.69940  0.90609  0.00008  Biso   1.000  H
  H528     1.0000 0.44982  0.03268  0.37651  Biso   1.000  H
  H529     1.0000 0.45491  0.97919  0.41660  Biso   1.000  H
  H530     1.0000 0.40609  0.00008  0.19940  Biso   1.000  H
  C733     1.0000 0.41341  0.93253  0.14558  Biso   1.000  C
  C734     1.0000 0.30568  0.92570  0.03351  Biso   1.000  C
  H531     1.0000 0.16639  0.92851  0.05961  Biso   1.000  H
  H532     1.0000 0.16449  0.99379  0.06930  Biso   1.000  H
  C735     1.0000 0.11762  0.96889  0.00302  Biso   1.000  C
  H533     1.0000 0.16829  0.98080  0.07831  Biso   1.000  H
  H534     1.0000 0.15530  0.92562  0.04261  Biso   1.000  H
  H535     1.0000 0.10508  0.02511  0.02180  Biso   1.000  H
  H536     1.0000 0.10508  0.97489  0.97820  Biso   1.000  H
  H537     1.0000 0.12349  0.05018  0.03268  Biso   1.000  H
  H538     1.0000 0.08340  0.04509  0.97919  Biso   1.000  H
  C736     1.0000 0.57430  0.96649  0.80573  Biso   1.000  C
  H539     1.0000 0.57149  0.94043  0.66639  Biso   1.000  H
  H540     1.0000 0.50621  0.93070  0.66449  Biso   1.000  H
  C737     1.0000 0.53111  0.99702  0.61762  Biso   1.000  C
  H541     1.0000 0.51920  0.92173  0.66829  Biso   1.000  H
  H542     1.0000 0.57442  0.95739  0.65530  Biso   1.000  H
  H543     1.0000 0.44982  0.96732  0.62349  Biso   1.000  H
  H544     1.0000 0.47489  0.97820  0.60512  Biso   1.000  H
  H545     1.0000 0.45491  0.02081  0.58340  Biso   1.000  H
  H546     1.0000 0.52511  0.02180  0.60512  Biso   1.000  H
  C738     1.0000 0.63251  0.94539  0.88702  Biso   1.000  C
  C739     1.0000 0.61302  0.86749  0.94539  Biso   1.000  C
  C740     1.0000 0.36749  0.94539  0.11298  Biso   1.000  C
  C741     1.0000 0.44539  0.88702  0.13251  Biso   1.000  C
  C742     1.0000 0.35442  0.91341  0.06752  Biso   1.000  C
  H547     1.0000 0.30060  0.90609  0.99992  Biso   1.000  H
  H548     1.0000 0.12349  0.94982  0.96732  Biso   1.000  H
  H549     1.0000 0.08340  0.95491  0.02081  Biso   1.000  H
  C743     1.0000 0.58659  0.93253  0.85442  Biso   1.000  C
  H550     1.0000 0.59391  0.00008  0.80060  Biso   1.000  H
  H551     1.0000 0.54509  0.97919  0.58340  Biso   1.000  H
  H552     1.0000 0.55022  0.03268  0.62349  Biso   1.000  H
  H553     1.0000 0.65481  0.97650  0.87792  Biso   1.000  H
  H554     1.0000 0.62212  0.84519  0.97650  Biso   1.000  H
  C744     1.0000 0.56752  0.85442  0.91341  Biso   1.000  C
  H555     1.0000 0.34519  0.97650  0.12208  Biso   1.000  H
  H556     1.0000 0.47650  0.87792  0.15481  Biso   1.000  H
  C745     1.0000 0.43248  0.85442  0.08659  Biso   1.000  C
  C746     1.0000 0.38702  0.86749  0.05461  Biso   1.000  C
  C747     1.0000 0.55461  0.88702  0.86749  Biso   1.000  C
  C748     1.0000 0.53351  0.80573  0.92570  Biso   1.000  C
  C749     1.0000 0.46649  0.80573  0.07430  Biso   1.000  C
  H557     1.0000 0.37792  0.84519  0.02350  Biso   1.000  H
  H558     1.0000 0.52350  0.87792  0.84519  Biso   1.000  H
  N119     1.0000 0.54749  0.77002  0.96182  Biso   1.000  N
  H559     1.0000 0.49992  0.80060  0.90609  Biso   1.000  H
  N120     1.0000 0.45251  0.77002  0.03818  Biso   1.000  N
  H560     1.0000 0.50012  0.80060  0.09391  Biso   1.000  H
  C750     1.0000 0.51059  0.72369  0.97079  Biso   1.000  C
  C751     1.0000 0.48941  0.72369  0.02921  Biso   1.000  C
  H561     1.0000 0.47299  0.72903  0.94800  Biso   1.000  H
  C752     1.0000 0.54058  0.66730  0.96471  Biso   1.000  C
  H562     1.0000 0.52701  0.72903  0.05200  Biso   1.000  H
  C753     1.0000 0.45942  0.66730  0.03529  Biso   1.000  C
  H563     1.0000 0.55961  0.66639  0.92851  Biso   1.000  H
  H564     1.0000 0.56930  0.66449  0.99379  Biso   1.000  H
  C754     1.0000 0.50302  0.61762  0.96889  Biso   1.000  C
  H565     1.0000 0.57831  0.66829  0.98080  Biso   1.000  H
  H566     1.0000 0.54261  0.65530  0.92562  Biso   1.000  H
  C755     1.0000 0.50000  0.62912  0.00000  Biso   1.000  C
  H567     1.0000 0.44039  0.66639  0.07149  Biso   1.000  H
  H568     1.0000 0.43070  0.66449  0.00621  Biso   1.000  H
  C756     1.0000 0.49702  0.61762  0.03111  Biso   1.000  C
  H569     1.0000 0.42169  0.66829  0.01920  Biso   1.000  H
  H570     1.0000 0.45739  0.65530  0.07438  Biso   1.000  H
  H571     1.0000 0.52081  0.58340  0.95491  Biso   1.000  H
  H572     1.0000 0.46732  0.62349  0.94982  Biso   1.000  H
  H573     1.0000 0.47820  0.60512  0.97489  Biso   1.000  H
  H574     1.0000 0.52180  0.60512  0.02511  Biso   1.000  H
  H575     1.0000 0.47919  0.58340  0.04509  Biso   1.000  H
  H576     1.0000 0.53272  0.62349  0.05018  Biso   1.000  H
  C757     1.0000 0.38238  0.03111  0.50302  Biso   1.000  C
  C758     1.0000 0.33270  0.03529  0.54058  Biso   1.000  C
  H577     1.0000 0.41660  0.04509  0.52081  Biso   1.000  H
  H578     1.0000 0.37651  0.05018  0.46732  Biso   1.000  H
  H579     1.0000 0.39492  0.02511  0.47820  Biso   1.000  H
  C759     1.0000 0.38238  0.96889  0.49702  Biso   1.000  C
  C760     1.0000 0.27631  0.02921  0.51059  Biso   1.000  C
  H580     1.0000 0.33361  0.07149  0.55961  Biso   1.000  H
  H581     1.0000 0.33551  0.00621  0.56930  Biso   1.000  H
  H582     1.0000 0.33171  0.01920  0.57831  Biso   1.000  H
  H583     1.0000 0.34470  0.07438  0.54261  Biso   1.000  H
  C761     1.0000 0.37088  0.00000  0.50000  Biso   1.000  C
  C762     1.0000 0.33270  0.96471  0.45942  Biso   1.000  C
  H584     1.0000 0.39492  0.97489  0.52180  Biso   1.000  H
  H585     1.0000 0.41660  0.95491  0.47919  Biso   1.000  H
  H586     1.0000 0.37651  0.94982  0.53272  Biso   1.000  H
  N121     1.0000 0.23002  0.03818  0.54749  Biso   1.000  N
  H587     1.0000 0.27102  0.05200  0.47299  Biso   1.000  H
  C763     1.0000 0.27631  0.97079  0.48941  Biso   1.000  C
  H588     1.0000 0.33361  0.92851  0.44039  Biso   1.000  H
  H589     1.0000 0.33551  0.99379  0.43070  Biso   1.000  H
  H590     1.0000 0.33171  0.98080  0.42169  Biso   1.000  H
  H591     1.0000 0.34470  0.92562  0.45739  Biso   1.000  H
  C764     1.0000 0.19432  0.07430  0.53351  Biso   1.000  C
  N122     1.0000 0.23002  0.96182  0.45251  Biso   1.000  N
  H592     1.0000 0.27102  0.94800  0.52701  Biso   1.000  H
  H593     1.0000 0.19940  0.09391  0.49992  Biso   1.000  H
  C765     1.0000 0.14558  0.08659  0.56752  Biso   1.000  C
  C766     1.0000 0.19432  0.92570  0.46649  Biso   1.000  C
  C767     1.0000 0.13251  0.05461  0.61302  Biso   1.000  C
  C768     1.0000 0.11298  0.13251  0.55461  Biso   1.000  C
  H594     1.0000 0.19940  0.90609  0.50012  Biso   1.000  H
  C769     1.0000 0.14558  0.91341  0.43248  Biso   1.000  C
  H595     1.0000 0.15481  0.02350  0.62212  Biso   1.000  H
  C770     1.0000 0.08659  0.06752  0.64562  Biso   1.000  C
  H596     1.0000 0.12208  0.15481  0.52350  Biso   1.000  H
  C771     1.0000 0.06752  0.14558  0.58659  Biso   1.000  C
  C772     1.0000 0.13251  0.94539  0.38702  Biso   1.000  C
  C773     1.0000 0.11298  0.86749  0.44539  Biso   1.000  C
  C774     1.0000 0.07430  0.03351  0.69432  Biso   1.000  C
  C775     1.0000 0.05461  0.11298  0.63251  Biso   1.000  C
  C776     1.0000 0.03351  0.19432  0.57430  Biso   1.000  C
  H597     1.0000 0.15481  0.97650  0.37792  Biso   1.000  H
  C777     1.0000 0.08659  0.93253  0.35442  Biso   1.000  C
  H598     1.0000 0.12208  0.84519  0.47650  Biso   1.000  H
  C778     1.0000 0.06752  0.85442  0.41341  Biso   1.000  C
  N123     1.0000 0.03818  0.04749  0.73002  Biso   1.000  N
  H599     1.0000 0.09391  0.99992  0.69940  Biso   1.000  H
  H600     1.0000 0.02350  0.12208  0.65481  Biso   1.000  H
  N124     1.0000 0.04749  0.23002  0.53818  Biso   1.000  N
  H601     1.0000 0.99992  0.19940  0.59391  Biso   1.000  H
  C779     1.0000 0.07430  0.96649  0.30568  Biso   1.000  C
  C780     1.0000 0.05461  0.88702  0.36749  Biso   1.000  C
  C781     1.0000 0.03351  0.80573  0.42570  Biso   1.000  C
  C782     1.0000 0.02921  0.01059  0.77631  Biso   1.000  C
  C783     1.0000 0.01059  0.27631  0.52921  Biso   1.000  C
  H602     1.0000 0.09391  0.00008  0.30060  Biso   1.000  H
  N125     1.0000 0.03818  0.95251  0.26998  Biso   1.000  N
  H603     1.0000 0.02350  0.87792  0.34519  Biso   1.000  H
  H604     1.0000 0.99992  0.80060  0.40609  Biso   1.000  H
  N126     1.0000 0.04749  0.77002  0.46182  Biso   1.000  N
  C784     1.0000 0.03529  0.04058  0.83270  Biso   1.000  C
  C785     1.0000 0.97079  0.98941  0.77631  Biso   1.000  C
  H605     1.0000 0.05200  0.97303  0.77102  Biso   1.000  H
  C786     1.0000 0.04058  0.33270  0.53529  Biso   1.000  C
  C787     1.0000 0.98941  0.27631  0.47079  Biso   1.000  C
  H606     1.0000 0.97303  0.27102  0.55200  Biso   1.000  H
  C788     1.0000 0.02921  0.98941  0.22369  Biso   1.000  C
  C789     1.0000 0.01059  0.72369  0.47079  Biso   1.000  C
  H607     1.0000 0.07149  0.05961  0.83361  Biso   1.000  H
  H608     1.0000 0.00621  0.06930  0.83551  Biso   1.000  H
  C790     1.0000 0.03111  0.00302  0.88243  Biso   1.000  C
  H609     1.0000 0.01920  0.07831  0.83171  Biso   1.000  H
  H610     1.0000 0.07438  0.04261  0.84470  Biso   1.000  H
  C791     1.0000 0.00000  0.00000  0.87093  Biso   1.000  C
  N127     1.0000 0.96182  0.95251  0.73002  Biso   1.000  N
  C792     1.0000 0.96471  0.95942  0.83270  Biso   1.000  C
  H611     1.0000 0.94800  0.02701  0.77102  Biso   1.000  H
  H612     1.0000 0.05961  0.33361  0.57149  Biso   1.000  H
  H613     1.0000 0.06930  0.33551  0.50621  Biso   1.000  H
  C793     1.0000 0.00302  0.38238  0.53111  Biso   1.000  C
  H614     1.0000 0.07831  0.33171  0.51920  Biso   1.000  H
  H615     1.0000 0.04261  0.34470  0.57442  Biso   1.000  H
  C794     1.0000 0.00000  0.37088  0.50000  Biso   1.000  C
  H616     1.0000 0.02701  0.27102  0.44800  Biso   1.000  H
  N128     1.0000 0.95251  0.23002  0.46182  Biso   1.000  N
  C795     1.0000 0.95942  0.33270  0.46471  Biso   1.000  C
  H617     1.0000 0.05200  0.02701  0.22898  Biso   1.000  H
  C796     1.0000 0.97079  0.01059  0.22369  Biso   1.000  C
  C797     1.0000 0.03529  0.95942  0.16730  Biso   1.000  C
  C798     1.0000 0.98941  0.72369  0.52921  Biso   1.000  C
  H618     1.0000 0.97303  0.72903  0.44800  Biso   1.000  H
  C799     1.0000 0.04058  0.66730  0.46471  Biso   1.000  C
  H619     1.0000 0.04509  0.02081  0.91660  Biso   1.000  H
  C800     1.0000 0.96889  0.99702  0.88243  Biso   1.000  C
  H620     1.0000 0.05018  0.96732  0.87651  Biso   1.000  H
  H621     1.0000 0.02511  0.97820  0.89492  Biso   1.000  H
  H622     1.0000 0.97489  0.02180  0.89492  Biso   1.000  H
  C801     1.0000 0.92570  0.96649  0.69432  Biso   1.000  C
  H623     1.0000 0.92851  0.94043  0.83361  Biso   1.000  H
  H624     1.0000 0.99379  0.93070  0.83551  Biso   1.000  H
  H625     1.0000 0.98080  0.92173  0.83171  Biso   1.000  H
  H626     1.0000 0.92562  0.95739  0.84470  Biso   1.000  H
  H627     1.0000 0.02081  0.41660  0.54509  Biso   1.000  H
  C802     1.0000 0.99702  0.38238  0.46889  Biso   1.000  C
  H628     1.0000 0.96732  0.37651  0.55022  Biso   1.000  H
  H629     1.0000 0.97820  0.39492  0.52511  Biso   1.000  H
  H630     1.0000 0.02180  0.39492  0.47489  Biso   1.000  H
  C803     1.0000 0.96649  0.19432  0.42570  Biso   1.000  C
  H631     1.0000 0.94043  0.33361  0.42851  Biso   1.000  H
  H632     1.0000 0.93070  0.33551  0.49379  Biso   1.000  H
  H633     1.0000 0.92173  0.33171  0.48080  Biso   1.000  H
  H634     1.0000 0.95739  0.34470  0.42562  Biso   1.000  H
  H635     1.0000 0.94800  0.97303  0.22898  Biso   1.000  H
  N129     1.0000 0.96182  0.04749  0.26998  Biso   1.000  N
  C804     1.0000 0.96471  0.04058  0.16730  Biso   1.000  C
  C805     1.0000 0.00000  0.00000  0.12912  Biso   1.000  C
  H636     1.0000 0.07149  0.94043  0.16639  Biso   1.000  H
  H637     1.0000 0.00621  0.93070  0.16449  Biso   1.000  H
  C806     1.0000 0.03111  0.99702  0.11762  Biso   1.000  C
  H638     1.0000 0.01920  0.92173  0.16829  Biso   1.000  H
  H639     1.0000 0.07438  0.95739  0.15530  Biso   1.000  H
  N130     1.0000 0.95251  0.77002  0.53818  Biso   1.000  N
  C807     1.0000 0.95942  0.66730  0.53529  Biso   1.000  C
  H640     1.0000 0.02701  0.72903  0.55200  Biso   1.000  H
  H641     1.0000 0.05961  0.66639  0.42851  Biso   1.000  H
  H642     1.0000 0.06930  0.66449  0.49379  Biso   1.000  H
  C808     1.0000 0.00302  0.61762  0.46889  Biso   1.000  C
  H643     1.0000 0.07831  0.66829  0.48080  Biso   1.000  H
  H644     1.0000 0.04261  0.65530  0.42562  Biso   1.000  H
  C809     1.0000 0.00000  0.62912  0.50000  Biso   1.000  C
  H645     1.0000 0.95491  0.97919  0.91660  Biso   1.000  H
  H646     1.0000 0.94982  0.03268  0.87651  Biso   1.000  H
  C810     1.0000 0.91341  0.93253  0.64562  Biso   1.000  C
  H647     1.0000 0.90609  0.00008  0.69940  Biso   1.000  H
  H648     1.0000 0.03268  0.37651  0.44982  Biso   1.000  H
  H649     1.0000 0.97919  0.41660  0.45491  Biso   1.000  H
  H650     1.0000 0.00008  0.19940  0.40609  Biso   1.000  H
  C811     1.0000 0.93253  0.14558  0.41341  Biso   1.000  C
  C812     1.0000 0.92570  0.03351  0.30568  Biso   1.000  C
  H651     1.0000 0.92851  0.05961  0.16639  Biso   1.000  H
  H652     1.0000 0.99379  0.06930  0.16449  Biso   1.000  H
  C813     1.0000 0.96889  0.00302  0.11762  Biso   1.000  C
  H653     1.0000 0.98080  0.07831  0.16829  Biso   1.000  H
  H654     1.0000 0.92562  0.04261  0.15530  Biso   1.000  H
  H655     1.0000 0.02511  0.02180  0.10508  Biso   1.000  H
  H656     1.0000 0.97489  0.97820  0.10508  Biso   1.000  H
  H657     1.0000 0.05018  0.03268  0.12349  Biso   1.000  H
  H658     1.0000 0.04509  0.97919  0.08340  Biso   1.000  H
  C814     1.0000 0.96649  0.80573  0.57430  Biso   1.000  C
  H659     1.0000 0.94043  0.66639  0.57149  Biso   1.000  H
  H660     1.0000 0.93070  0.66449  0.50621  Biso   1.000  H
  C815     1.0000 0.99702  0.61762  0.53111  Biso   1.000  C
  H661     1.0000 0.92173  0.66829  0.51920  Biso   1.000  H
  H662     1.0000 0.95739  0.65530  0.57442  Biso   1.000  H
  H663     1.0000 0.96732  0.62349  0.44982  Biso   1.000  H
  H664     1.0000 0.97820  0.60512  0.47489  Biso   1.000  H
  H665     1.0000 0.02081  0.58340  0.45491  Biso   1.000  H
  H666     1.0000 0.02180  0.60512  0.52511  Biso   1.000  H
  C816     1.0000 0.86749  0.94539  0.61302  Biso   1.000  C
  C817     1.0000 0.94539  0.88702  0.63251  Biso   1.000  C
  C818     1.0000 0.88702  0.13251  0.44539  Biso   1.000  C
  C819     1.0000 0.94539  0.11298  0.36749  Biso   1.000  C
  C820     1.0000 0.91341  0.06752  0.35442  Biso   1.000  C
  H667     1.0000 0.90609  0.99992  0.30060  Biso   1.000  H
  H668     1.0000 0.94982  0.96732  0.12349  Biso   1.000  H
  H669     1.0000 0.95491  0.02081  0.08340  Biso   1.000  H
  C821     1.0000 0.93253  0.85442  0.58659  Biso   1.000  C
  H670     1.0000 0.00008  0.80060  0.59391  Biso   1.000  H
  H671     1.0000 0.97919  0.58340  0.54509  Biso   1.000  H
  H672     1.0000 0.03268  0.62349  0.55022  Biso   1.000  H
  H673     1.0000 0.84519  0.97650  0.62212  Biso   1.000  H
  C822     1.0000 0.85442  0.91341  0.56752  Biso   1.000  C
  H674     1.0000 0.97650  0.87792  0.65481  Biso   1.000  H
  H675     1.0000 0.87792  0.15481  0.47650  Biso   1.000  H
  C823     1.0000 0.85442  0.08659  0.43248  Biso   1.000  C
  H676     1.0000 0.97650  0.12208  0.34519  Biso   1.000  H
  C824     1.0000 0.86749  0.05461  0.38702  Biso   1.000  C
  C825     1.0000 0.88702  0.86749  0.55461  Biso   1.000  C
  C826     1.0000 0.80573  0.92570  0.53351  Biso   1.000  C
  C827     1.0000 0.80573  0.07430  0.46649  Biso   1.000  C
  H677     1.0000 0.84519  0.02350  0.37792  Biso   1.000  H
  H678     1.0000 0.87792  0.84519  0.52350  Biso   1.000  H
  N131     1.0000 0.77002  0.96182  0.54749  Biso   1.000  N
  H679     1.0000 0.80060  0.90609  0.49992  Biso   1.000  H
  N132     1.0000 0.77002  0.03818  0.45251  Biso   1.000  N
  H680     1.0000 0.80060  0.09391  0.50012  Biso   1.000  H
  C828     1.0000 0.72369  0.97079  0.51059  Biso   1.000  C
  C829     1.0000 0.72369  0.02921  0.48941  Biso   1.000  C
  H681     1.0000 0.72903  0.94800  0.47299  Biso   1.000  H
  C830     1.0000 0.66730  0.96471  0.54058  Biso   1.000  C
  H682     1.0000 0.72903  0.05200  0.52701  Biso   1.000  H
  C831     1.0000 0.66730  0.03529  0.45942  Biso   1.000  C
  H683     1.0000 0.66639  0.92851  0.55961  Biso   1.000  H
  H684     1.0000 0.66449  0.99379  0.56930  Biso   1.000  H
  C832     1.0000 0.61762  0.96889  0.50302  Biso   1.000  C
  H685     1.0000 0.66829  0.98080  0.57831  Biso   1.000  H
  H686     1.0000 0.65530  0.92562  0.54261  Biso   1.000  H
  C833     1.0000 0.62912  0.00000  0.50000  Biso   1.000  C
  H687     1.0000 0.66639  0.07149  0.44039  Biso   1.000  H
  H688     1.0000 0.66449  0.00621  0.43070  Biso   1.000  H
  C834     1.0000 0.61762  0.03111  0.49702  Biso   1.000  C
  H689     1.0000 0.66829  0.01920  0.42169  Biso   1.000  H
  H690     1.0000 0.65530  0.07438  0.45739  Biso   1.000  H
  H691     1.0000 0.58340  0.95491  0.52081  Biso   1.000  H
  H692     1.0000 0.62349  0.94982  0.46732  Biso   1.000  H
  H693     1.0000 0.60512  0.97489  0.47820  Biso   1.000  H
  H694     1.0000 0.60512  0.02511  0.52180  Biso   1.000  H
  H695     1.0000 0.58340  0.04509  0.47919  Biso   1.000  H
  H696     1.0000 0.62349  0.05018  0.53272  Biso   1.000  H
  C835     1.0000 0.03111  0.50302  0.38238  Biso   1.000  C
  C836     1.0000 0.03529  0.54058  0.33270  Biso   1.000  C
  H697     1.0000 0.04509  0.52081  0.41660  Biso   1.000  H
  H698     1.0000 0.05018  0.46732  0.37651  Biso   1.000  H
  H699     1.0000 0.02511  0.47820  0.39492  Biso   1.000  H
  C837     1.0000 0.96889  0.49702  0.38238  Biso   1.000  C
  C838     1.0000 0.02921  0.51059  0.27631  Biso   1.000  C
  H700     1.0000 0.07149  0.55961  0.33361  Biso   1.000  H
  H701     1.0000 0.00621  0.56930  0.33551  Biso   1.000  H
  H702     1.0000 0.01920  0.57831  0.33171  Biso   1.000  H
  H703     1.0000 0.07438  0.54261  0.34470  Biso   1.000  H
  C839     1.0000 0.00000  0.50000  0.37088  Biso   1.000  C
  C840     1.0000 0.96471  0.45942  0.33270  Biso   1.000  C
  H704     1.0000 0.97489  0.52180  0.39492  Biso   1.000  H
  H705     1.0000 0.95491  0.47919  0.41660  Biso   1.000  H
  H706     1.0000 0.94982  0.53272  0.37651  Biso   1.000  H
  N133     1.0000 0.03818  0.54749  0.23002  Biso   1.000  N
  H707     1.0000 0.05200  0.47299  0.27102  Biso   1.000  H
  C841     1.0000 0.97079  0.48941  0.27631  Biso   1.000  C
  H708     1.0000 0.92851  0.44039  0.33361  Biso   1.000  H
  H709     1.0000 0.99379  0.43070  0.33551  Biso   1.000  H
  H710     1.0000 0.98080  0.42169  0.33171  Biso   1.000  H
  H711     1.0000 0.92562  0.45739  0.34470  Biso   1.000  H
  C842     1.0000 0.07430  0.53351  0.19432  Biso   1.000  C
  N134     1.0000 0.96182  0.45251  0.23002  Biso   1.000  N
  H712     1.0000 0.94800  0.52701  0.27102  Biso   1.000  H
  H713     1.0000 0.09391  0.49992  0.19940  Biso   1.000  H
  C843     1.0000 0.08659  0.56752  0.14558  Biso   1.000  C
  C844     1.0000 0.92570  0.46649  0.19432  Biso   1.000  C
  C845     1.0000 0.13251  0.55461  0.11298  Biso   1.000  C
  C846     1.0000 0.05461  0.61302  0.13251  Biso   1.000  C
  H714     1.0000 0.90609  0.50012  0.19940  Biso   1.000  H
  C847     1.0000 0.91341  0.43248  0.14558  Biso   1.000  C
  H715     1.0000 0.15481  0.52350  0.12208  Biso   1.000  H
  C848     1.0000 0.14558  0.58659  0.06752  Biso   1.000  C
  H716     1.0000 0.02350  0.62212  0.15481  Biso   1.000  H
  C849     1.0000 0.06752  0.64562  0.08659  Biso   1.000  C
  C850     1.0000 0.86749  0.44539  0.11298  Biso   1.000  C
  C851     1.0000 0.94539  0.38702  0.13251  Biso   1.000  C
  C852     1.0000 0.19432  0.57430  0.03351  Biso   1.000  C
  C853     1.0000 0.11298  0.63251  0.05461  Biso   1.000  C
  C854     1.0000 0.03351  0.69432  0.07430  Biso   1.000  C
  H717     1.0000 0.84519  0.47650  0.12208  Biso   1.000  H
  C855     1.0000 0.85442  0.41341  0.06752  Biso   1.000  C
  H718     1.0000 0.97650  0.37792  0.15481  Biso   1.000  H
  C856     1.0000 0.93253  0.35442  0.08659  Biso   1.000  C
  N135     1.0000 0.23002  0.53818  0.04749  Biso   1.000  N
  H719     1.0000 0.19940  0.59391  0.99992  Biso   1.000  H
  H720     1.0000 0.12208  0.65481  0.02350  Biso   1.000  H
  N136     1.0000 0.04749  0.73002  0.03818  Biso   1.000  N
  H721     1.0000 0.99992  0.69940  0.09391  Biso   1.000  H
  C857     1.0000 0.80573  0.42570  0.03351  Biso   1.000  C
  C858     1.0000 0.88702  0.36749  0.05461  Biso   1.000  C
  C859     1.0000 0.96649  0.30568  0.07430  Biso   1.000  C
  C860     1.0000 0.27631  0.52921  0.01059  Biso   1.000  C
  C861     1.0000 0.01059  0.77631  0.02921  Biso   1.000  C
  H722     1.0000 0.80060  0.40609  0.99992  Biso   1.000  H
  N137     1.0000 0.77002  0.46182  0.04749  Biso   1.000  N
  H723     1.0000 0.87792  0.34519  0.02350  Biso   1.000  H
  H724     1.0000 0.00008  0.30060  0.09391  Biso   1.000  H
  N138     1.0000 0.95251  0.26998  0.03818  Biso   1.000  N
  C862     1.0000 0.33270  0.53529  0.04058  Biso   1.000  C
  C863     1.0000 0.27631  0.47079  0.98941  Biso   1.000  C
  H725     1.0000 0.27102  0.55200  0.97303  Biso   1.000  H
  C864     1.0000 0.04058  0.83270  0.03529  Biso   1.000  C
  C865     1.0000 0.98941  0.77631  0.97079  Biso   1.000  C
  H726     1.0000 0.97303  0.77102  0.05200  Biso   1.000  H
  C866     1.0000 0.72369  0.47079  0.01059  Biso   1.000  C
  C867     1.0000 0.98941  0.22369  0.02921  Biso   1.000  C
  H727     1.0000 0.33361  0.57149  0.05961  Biso   1.000  H
  H728     1.0000 0.33551  0.50621  0.06930  Biso   1.000  H
  C868     1.0000 0.38238  0.53111  0.00302  Biso   1.000  C
  H729     1.0000 0.33171  0.51920  0.07831  Biso   1.000  H
  H730     1.0000 0.34470  0.57442  0.04261  Biso   1.000  H
  C869     1.0000 0.37088  0.50000  0.00000  Biso   1.000  C
  H731     1.0000 0.27102  0.44800  0.02701  Biso   1.000  H
  N139     1.0000 0.23002  0.46182  0.95251  Biso   1.000  N
  C870     1.0000 0.33270  0.46471  0.95942  Biso   1.000  C
  H732     1.0000 0.05961  0.83361  0.07149  Biso   1.000  H
  H733     1.0000 0.06930  0.83551  0.00621  Biso   1.000  H
  C871     1.0000 0.00302  0.88243  0.03111  Biso   1.000  C
  H734     1.0000 0.07831  0.83171  0.01920  Biso   1.000  H
  H735     1.0000 0.04261  0.84470  0.07438  Biso   1.000  H
  C872     1.0000 0.00000  0.87093  0.00000  Biso   1.000  C
  N140     1.0000 0.95251  0.73002  0.96182  Biso   1.000  N
  C873     1.0000 0.95942  0.83270  0.96471  Biso   1.000  C
  H736     1.0000 0.02701  0.77102  0.94800  Biso   1.000  H
  C874     1.0000 0.72369  0.52921  0.98941  Biso   1.000  C
  H737     1.0000 0.72903  0.44800  0.97303  Biso   1.000  H
  C875     1.0000 0.66730  0.46471  0.04058  Biso   1.000  C
  H738     1.0000 0.02701  0.22898  0.05200  Biso   1.000  H
  C876     1.0000 0.95942  0.16730  0.03529  Biso   1.000  C
  C877     1.0000 0.01059  0.22369  0.97079  Biso   1.000  C
  H739     1.0000 0.41660  0.54509  0.02081  Biso   1.000  H
  C878     1.0000 0.38238  0.46889  0.99702  Biso   1.000  C
  H740     1.0000 0.37651  0.55022  0.96732  Biso   1.000  H
  H741     1.0000 0.39492  0.52511  0.97820  Biso   1.000  H
  H742     1.0000 0.39492  0.47489  0.02180  Biso   1.000  H
  C879     1.0000 0.19432  0.42570  0.96649  Biso   1.000  C
  H743     1.0000 0.33361  0.42851  0.94043  Biso   1.000  H
  H744     1.0000 0.33551  0.49379  0.93070  Biso   1.000  H
  H745     1.0000 0.33171  0.48080  0.92173  Biso   1.000  H
  H746     1.0000 0.34470  0.42562  0.95739  Biso   1.000  H
  H747     1.0000 0.02081  0.91660  0.04509  Biso   1.000  H
  C880     1.0000 0.99702  0.88243  0.96889  Biso   1.000  C
  H748     1.0000 0.96732  0.87651  0.05018  Biso   1.000  H
  H749     1.0000 0.97820  0.89492  0.02511  Biso   1.000  H
  H750     1.0000 0.02180  0.89492  0.97489  Biso   1.000  H
  C881     1.0000 0.96649  0.69432  0.92570  Biso   1.000  C
  H751     1.0000 0.94043  0.83361  0.92851  Biso   1.000  H
  H752     1.0000 0.93070  0.83551  0.99379  Biso   1.000  H
  H753     1.0000 0.92173  0.83171  0.98080  Biso   1.000  H
  H754     1.0000 0.95739  0.84470  0.92562  Biso   1.000  H
  N141     1.0000 0.77002  0.53818  0.95251  Biso   1.000  N
  C882     1.0000 0.66730  0.53529  0.95942  Biso   1.000  C
  H755     1.0000 0.72903  0.55200  0.02701  Biso   1.000  H
  H756     1.0000 0.66639  0.42851  0.05961  Biso   1.000  H
  H757     1.0000 0.66449  0.49379  0.06930  Biso   1.000  H
  C883     1.0000 0.61762  0.46889  0.00302  Biso   1.000  C
  H758     1.0000 0.66829  0.48080  0.07831  Biso   1.000  H
  H759     1.0000 0.65530  0.42562  0.04261  Biso   1.000  H
  C884     1.0000 0.62912  0.50000  0.00000  Biso   1.000  C
  C885     1.0000 0.00000  0.12912  0.00000  Biso   1.000  C
  H760     1.0000 0.94043  0.16639  0.07149  Biso   1.000  H
  H761     1.0000 0.93070  0.16449  0.00621  Biso   1.000  H
  C886     1.0000 0.99702  0.11762  0.03111  Biso   1.000  C
  H762     1.0000 0.92173  0.16829  0.01920  Biso   1.000  H
  H763     1.0000 0.95739  0.15530  0.07438  Biso   1.000  H
  H764     1.0000 0.97303  0.22898  0.94800  Biso   1.000  H
  N142     1.0000 0.04749  0.26998  0.96182  Biso   1.000  N
  C887     1.0000 0.04058  0.16730  0.96471  Biso   1.000  C
  H765     1.0000 0.37651  0.44982  0.03268  Biso   1.000  H
  H766     1.0000 0.41660  0.45491  0.97919  Biso   1.000  H
  H767     1.0000 0.19940  0.40609  0.00008  Biso   1.000  H
  C888     1.0000 0.14558  0.41341  0.93253  Biso   1.000  C
  H768     1.0000 0.97919  0.91660  0.95491  Biso   1.000  H
  H769     1.0000 0.03268  0.87651  0.94982  Biso   1.000  H
  C889     1.0000 0.93253  0.64562  0.91341  Biso   1.000  C
  H770     1.0000 0.00008  0.69940  0.90609  Biso   1.000  H
  C890     1.0000 0.80573  0.57430  0.96649  Biso   1.000  C
  H771     1.0000 0.66639  0.57149  0.94043  Biso   1.000  H
  H772     1.0000 0.66449  0.50621  0.93070  Biso   1.000  H
  C891     1.0000 0.61762  0.53111  0.99702  Biso   1.000  C
  H773     1.0000 0.66829  0.51920  0.92173  Biso   1.000  H
  H774     1.0000 0.65530  0.57442  0.95739  Biso   1.000  H
  H775     1.0000 0.62349  0.44982  0.96732  Biso   1.000  H
  H776     1.0000 0.60512  0.47489  0.97820  Biso   1.000  H
  H777     1.0000 0.58340  0.45491  0.02081  Biso   1.000  H
  H778     1.0000 0.60512  0.52511  0.02180  Biso   1.000  H
  H779     1.0000 0.02180  0.10508  0.02511  Biso   1.000  H
  H780     1.0000 0.97820  0.10508  0.97489  Biso   1.000  H
  H781     1.0000 0.03268  0.12349  0.05018  Biso   1.000  H
  H782     1.0000 0.97919  0.08340  0.04509  Biso   1.000  H
  C892     1.0000 0.00302  0.11762  0.96889  Biso   1.000  C
  C893     1.0000 0.03351  0.30568  0.92570  Biso   1.000  C
  H783     1.0000 0.05961  0.16639  0.92851  Biso   1.000  H
  H784     1.0000 0.06930  0.16449  0.99379  Biso   1.000  H
  H785     1.0000 0.07831  0.16829  0.98080  Biso   1.000  H
  H786     1.0000 0.04261  0.15530  0.92562  Biso   1.000  H
  C894     1.0000 0.13251  0.44539  0.88702  Biso   1.000  C
  C895     1.0000 0.11298  0.36749  0.94539  Biso   1.000  C
  C896     1.0000 0.88702  0.63251  0.94539  Biso   1.000  C
  C897     1.0000 0.94539  0.61302  0.86749  Biso   1.000  C
  C898     1.0000 0.85442  0.58659  0.93253  Biso   1.000  C
  H787     1.0000 0.80060  0.59391  0.00008  Biso   1.000  H
  H788     1.0000 0.58340  0.54509  0.97919  Biso   1.000  H
  H789     1.0000 0.62349  0.55022  0.03268  Biso   1.000  H
  H790     1.0000 0.96732  0.12349  0.94982  Biso   1.000  H
  H791     1.0000 0.02081  0.08340  0.95491  Biso   1.000  H
  C899     1.0000 0.06752  0.35442  0.91341  Biso   1.000  C
  H792     1.0000 0.99992  0.30060  0.90609  Biso   1.000  H
  H793     1.0000 0.15481  0.47650  0.87792  Biso   1.000  H
  C900     1.0000 0.08659  0.43248  0.85442  Biso   1.000  C
  H794     1.0000 0.12208  0.34519  0.97650  Biso   1.000  H
  H795     1.0000 0.87792  0.65481  0.97650  Biso   1.000  H
  H796     1.0000 0.97650  0.62212  0.84519  Biso   1.000  H
  C901     1.0000 0.91341  0.56752  0.85442  Biso   1.000  C
  C902     1.0000 0.86749  0.55461  0.88702  Biso   1.000  C
  C903     1.0000 0.05461  0.38702  0.86749  Biso   1.000  C
  C904     1.0000 0.07430  0.46649  0.80573  Biso   1.000  C
  C905     1.0000 0.92570  0.53351  0.80573  Biso   1.000  C
  H797     1.0000 0.84519  0.52350  0.87792  Biso   1.000  H
  H798     1.0000 0.02350  0.37792  0.84519  Biso   1.000  H
  N143     1.0000 0.03818  0.45251  0.77002  Biso   1.000  N
  H799     1.0000 0.09391  0.50012  0.80060  Biso   1.000  H
  N144     1.0000 0.96182  0.54749  0.77002  Biso   1.000  N
  H800     1.0000 0.90609  0.49992  0.80060  Biso   1.000  H
  C906     1.0000 0.02921  0.48941  0.72369  Biso   1.000  C
  C907     1.0000 0.97079  0.51059  0.72369  Biso   1.000  C
  H801     1.0000 0.05200  0.52701  0.72903  Biso   1.000  H
  C908     1.0000 0.03529  0.45942  0.66730  Biso   1.000  C
  H802     1.0000 0.94800  0.47299  0.72903  Biso   1.000  H
  C909     1.0000 0.96471  0.54058  0.66730  Biso   1.000  C
  H803     1.0000 0.07149  0.44039  0.66639  Biso   1.000  H
  H804     1.0000 0.00621  0.43070  0.66449  Biso   1.000  H
  C910     1.0000 0.03111  0.49702  0.61762  Biso   1.000  C
  H805     1.0000 0.01920  0.42169  0.66829  Biso   1.000  H
  H806     1.0000 0.07438  0.45739  0.65530  Biso   1.000  H
  C911     1.0000 0.00000  0.50000  0.62912  Biso   1.000  C
  H807     1.0000 0.92851  0.55961  0.66639  Biso   1.000  H
  H808     1.0000 0.99379  0.56930  0.66449  Biso   1.000  H
  C912     1.0000 0.96889  0.50302  0.61762  Biso   1.000  C
  H809     1.0000 0.98080  0.57831  0.66829  Biso   1.000  H
  H810     1.0000 0.92562  0.54261  0.65530  Biso   1.000  H
  H811     1.0000 0.04509  0.47919  0.58340  Biso   1.000  H
  H812     1.0000 0.05018  0.53272  0.62349  Biso   1.000  H
  H813     1.0000 0.02511  0.52180  0.60512  Biso   1.000  H
  H814     1.0000 0.97489  0.47820  0.60512  Biso   1.000  H
  H815     1.0000 0.95491  0.52081  0.58340  Biso   1.000  H
  H816     1.0000 0.94982  0.46732  0.62349  Biso   1.000  H
  Ne1      1.0000 0.50000  0.50000  0.50000  Biso   1.000  Ne
  He1      1.0000 0.43355  0.56645  0.56646  Biso   1.000  He
  He2      1.0000 0.56569  0.43432  0.56568  Biso   1.000  He
  He3      1.0000 0.56872  0.56873  0.43128  Biso   1.000  He
  He4      1.0000 0.43156  0.43155  0.43156  Biso   1.000  He
  Ar1      1.0000 0.50000  0.50000  0.50000  Biso   1.000  Ar
  Ne2      1.0000 0.50000  0.00000  0.00000  Biso   1.000  Ne
  He5      1.0000 0.43355  0.06645  0.06645  Biso   1.000  He
  He6      1.0000 0.56567  0.93433  0.06566  Biso   1.000  He
  He7      1.0000 0.56871  0.06871  0.93130  Biso   1.000  He
  He8      1.0000 0.43155  0.93156  0.93156  Biso   1.000  He
  Ar2      1.0000 0.50000  0.00001  0.00000  Biso   1.000  Ar
  Ne3      1.0000 0.00000  0.00000  0.50000  Biso   1.000  Ne
  He9      1.0000 0.93355  0.06644  0.56645  Biso   1.000  He
  He10     1.0000 0.06568  0.93433  0.56568  Biso   1.000  He
  He11     1.0000 0.06871  0.06871  0.43129  Biso   1.000  He
  He12     1.0000 0.93156  0.93156  0.43156  Biso   1.000  He
  Ar3      1.0000 0.00001  0.00000  0.50000  Biso   1.000  Ar
  Ne4      1.0000 0.00000  0.50000  0.00000  Biso   1.000  Ne
  He13     1.0000 0.93356  0.56645  0.06645  Biso   1.000  He
  He14     1.0000 0.06567  0.43433  0.06567  Biso   1.000  He
  He15     1.0000 0.06872  0.56873  0.93127  Biso   1.000  He
  He16     1.0000 0.93156  0.43156  0.93155  Biso   1.000  He
  Ar4      1.0000 0.00000  0.50000  0.00001  Biso   1.000  Ar
