data_image0
_cell_length_a       17.558
_cell_length_b       17.558
_cell_length_c       28.692
_cell_angle_alpha    90
_cell_angle_beta     90
_cell_angle_gamma    120

_symmetry_space_group_name_H-M    "P 1"
_symmetry_int_tables_number       1

loop_
  _symmetry_equiv_pos_as_xyz
  'x, y, z'

loop_
  _atom_site_label
  _atom_site_occupancy
  _atom_site_fract_x
  _atom_site_fract_y
  _atom_site_fract_z
  _atom_site_thermal_displace_type
  _atom_site_B_iso_or_equiv
  _atom_site_type_symbol
  C1       1.0000 0.70348  0.58215  0.48571  Biso   1.000  C
  C2       1.0000 0.77399  0.63240  0.44779  Biso   1.000  C
  H1       1.0000 0.71420  0.62181  0.51251  Biso   1.000  H
  H2       1.0000 0.64458  0.56459  0.47288  Biso   1.000  H
  C3       1.0000 0.70477  0.50146  0.50230  Biso   1.000  C
  N1       1.0000 0.77479  0.71315  0.43611  Biso   1.000  N
  H3       1.0000 0.75980  0.59478  0.41932  Biso   1.000  H
  C4       1.0000 0.86475  0.65456  0.46619  Biso   1.000  C
  H4       1.0000 0.69080  0.46009  0.47599  Biso   1.000  H
  H5       1.0000 0.65957  0.47167  0.52670  Biso   1.000  H
  C5       1.0000 0.79605  0.52717  0.52210  Biso   1.000  C
  C6       1.0000 0.75676  0.72335  0.39551  Biso   1.000  C
  N2       1.0000 0.92786  0.69329  0.42789  Biso   1.000  N
  C7       1.0000 0.86308  0.57308  0.48289  Biso   1.000  C
  H6       1.0000 0.88217  0.69770  0.49240  Biso   1.000  H
  H7       1.0000 0.80999  0.56735  0.54900  Biso   1.000  H
  H8       1.0000 0.79728  0.47417  0.53259  Biso   1.000  H
  C8       1.0000 0.75240  0.80266  0.38150  Biso   1.000  C
  H9       1.0000 0.74560  0.67948  0.37289  Biso   1.000  H
  C9       1.0000 0.98336  0.77478  0.43270  Biso   1.000  C
  H10      1.0000 0.92238  0.58846  0.49421  Biso   1.000  H
  H11      1.0000 0.84836  0.53178  0.45640  Biso   1.000  H
  C10      1.0000 0.72120  0.80496  0.33731  Biso   1.000  C
  C11      1.0000 0.77559  0.87217  0.41221  Biso   1.000  C
  H12      1.0000 0.97839  0.80529  0.45870  Biso   1.000  H
  C12      1.0000 0.05609  0.82377  0.39872  Biso   1.000  C
  C13      1.0000 0.71324  0.87665  0.32378  Biso   1.000  C
  H13      1.0000 0.70537  0.75748  0.31629  Biso   1.000  H
  C14      1.0000 0.76769  0.94386  0.39872  Biso   1.000  C
  H14      1.0000 0.79688  0.87066  0.44239  Biso   1.000  H
  C15      1.0000 0.05382  0.79030  0.35449  Biso   1.000  C
  C16      1.0000 0.12778  0.90335  0.41221  Biso   1.000  C
  C17      1.0000 0.67616  0.87869  0.27670  Biso   1.000  C
  C18      1.0000 0.73649  0.94616  0.35449  Biso   1.000  C
  C19      1.0000 0.79135  0.01657  0.43270  Biso   1.000  C
  C20      1.0000 0.12333  0.83660  0.32378  Biso   1.000  C
  H15      1.0000 0.00482  0.73591  0.34522  Biso   1.000  H
  H16      1.0000 0.12928  0.92617  0.44239  Biso   1.000  H
  C21      1.0000 0.19729  0.94965  0.38150  Biso   1.000  C
  N3       1.0000 0.65086  0.81726  0.24840  Biso   1.000  N
  H17      1.0000 0.67209  0.92886  0.26830  Biso   1.000  H
  H18      1.0000 0.73109  0.99515  0.34522  Biso   1.000  H
  N4       1.0000 0.76539  0.07208  0.42789  Biso   1.000  N
  H19      1.0000 0.82688  0.02157  0.45870  Biso   1.000  H
  C22      1.0000 0.12131  0.79747  0.27670  Biso   1.000  C
  C23      1.0000 0.19501  0.91617  0.33731  Biso   1.000  C
  C24      1.0000 0.27659  0.03341  0.39551  Biso   1.000  C
  C25      1.0000 0.61335  0.82745  0.20319  Biso   1.000  C
  C26      1.0000 0.78978  0.13521  0.46619  Biso   1.000  C
  N5       1.0000 0.18270  0.83357  0.24840  Biso   1.000  N
  H20      1.0000 0.07111  0.74321  0.26830  Biso   1.000  H
  H21      1.0000 0.24247  0.94787  0.31629  Biso   1.000  H
  N6       1.0000 0.28682  0.06162  0.43611  Biso   1.000  N
  H22      1.0000 0.32049  0.06609  0.37289  Biso   1.000  H
  C27      1.0000 0.51596  0.75866  0.19880  Biso   1.000  C
  C28      1.0000 0.66627  0.81825  0.16350  Biso   1.000  C
  H23      1.0000 0.62008  0.88750  0.20201  Biso   1.000  H
  C29      1.0000 0.85834  0.22597  0.44779  Biso   1.000  C
  C30      1.0000 0.70999  0.13692  0.48289  Biso   1.000  C
  H24      1.0000 0.81547  0.11778  0.49240  Biso   1.000  H
  C31      1.0000 0.17248  0.78589  0.20319  Biso   1.000  C
  C32      1.0000 0.36758  0.14159  0.44779  Biso   1.000  C
  C33      1.0000 0.48098  0.76478  0.15178  Biso   1.000  C
  H25      1.0000 0.50828  0.69921  0.20281  Biso   1.000  H
  H26      1.0000 0.48230  0.76787  0.22362  Biso   1.000  H
  C34      1.0000 0.62837  0.82298  0.11630  Biso   1.000  C
  N7       1.0000 0.75626  0.89059  0.16639  Biso   1.000  N
  H27      1.0000 0.66526  0.76110  0.16639  Biso   1.000  H
  N8       1.0000 0.93837  0.22518  0.43611  Biso   1.000  N
  H28      1.0000 0.83497  0.24017  0.41932  Biso   1.000  H
  C35      1.0000 0.87867  0.29647  0.48571  Biso   1.000  C
  C36      1.0000 0.73105  0.20387  0.52210  Biso   1.000  C
  H29      1.0000 0.66609  0.07760  0.49421  Biso   1.000  H
  H30      1.0000 0.68338  0.15159  0.45640  Biso   1.000  H
  C37      1.0000 0.18170  0.84797  0.16350  Biso   1.000  C
  C38      1.0000 0.24127  0.75728  0.19880  Biso   1.000  C
  H31      1.0000 0.11249  0.73256  0.20201  Biso   1.000  H
  C39      1.0000 0.34538  0.21018  0.46619  Biso   1.000  C
  H32      1.0000 0.40520  0.16500  0.41932  Biso   1.000  H
  C40      1.0000 0.41779  0.12127  0.48571  Biso   1.000  C
  C41      1.0000 0.52995  0.75406  0.11261  Biso   1.000  C
  H33      1.0000 0.41830  0.71881  0.14959  Biso   1.000  H
  H34      1.0000 0.48446  0.82265  0.14900  Biso   1.000  H
  H35      1.0000 0.66100  0.81305  0.09121  Biso   1.000  H
  H36      1.0000 0.63632  0.88250  0.11209  Biso   1.000  H
  C42      1.0000 0.81777  0.86928  0.16820  Biso   1.000  C
  C43      1.0000 0.96657  0.24320  0.39551  Biso   1.000  C
  H37      1.0000 0.90757  0.28581  0.51251  Biso   1.000  H
  H38      1.0000 0.91998  0.35539  0.47288  Biso   1.000  H
  C44      1.0000 0.79672  0.29522  0.50230  Biso   1.000  C
  H39      1.0000 0.75737  0.18999  0.54900  Biso   1.000  H
  H40      1.0000 0.67686  0.20269  0.53259  Biso   1.000  H
  N9       1.0000 0.10939  0.86566  0.16639  Biso   1.000  N
  H41      1.0000 0.23892  0.90420  0.16639  Biso   1.000  H
  C45      1.0000 0.17697  0.80536  0.11630  Biso   1.000  C
  C46      1.0000 0.23518  0.71618  0.15178  Biso   1.000  C
  H42      1.0000 0.30078  0.80911  0.20281  Biso   1.000  H
  H43      1.0000 0.23213  0.71440  0.22362  Biso   1.000  H
  N10      1.0000 0.30666  0.23458  0.42789  Biso   1.000  N
  C47      1.0000 0.42688  0.29002  0.48289  Biso   1.000  C
  H44      1.0000 0.30228  0.18447  0.49240  Biso   1.000  H
  H45      1.0000 0.37819  0.09240  0.51251  Biso   1.000  H
  H46      1.0000 0.43536  0.07997  0.47288  Biso   1.000  H
  C48      1.0000 0.49850  0.20328  0.50230  Biso   1.000  C
  H47      1.0000 0.50649  0.76136  0.08260  Biso   1.000  H
  H48      1.0000 0.52227  0.69428  0.11341  Biso   1.000  H
  C49      1.0000 0.91108  0.93754  0.16851  Biso   1.000  C
  H49      1.0000 0.80198  0.80911  0.16939  Biso   1.000  H
  H50      1.0000 0.93389  0.25438  0.37289  Biso   1.000  H
  C50      1.0000 0.05033  0.24760  0.38150  Biso   1.000  C
  H51      1.0000 0.76929  0.30916  0.47599  Biso   1.000  H
  H52      1.0000 0.81207  0.34040  0.52670  Biso   1.000  H
  C51      1.0000 0.13068  0.94846  0.16820  Biso   1.000  C
  H53      1.0000 0.18691  0.84791  0.09121  Biso   1.000  H
  H54      1.0000 0.11753  0.75380  0.11209  Biso   1.000  H
  C52      1.0000 0.24590  0.77589  0.11261  Biso   1.000  C
  H55      1.0000 0.28117  0.69948  0.14959  Biso   1.000  H
  H56      1.0000 0.17729  0.66179  0.14900  Biso   1.000  H
  C53      1.0000 0.22522  0.20861  0.43270  Biso   1.000  C
  C54      1.0000 0.47282  0.26891  0.52210  Biso   1.000  C
  H57      1.0000 0.41151  0.33389  0.49421  Biso   1.000  H
  H58      1.0000 0.46818  0.31659  0.45640  Biso   1.000  H
  H59      1.0000 0.53989  0.23070  0.47599  Biso   1.000  H
  H60      1.0000 0.52828  0.18789  0.52670  Biso   1.000  H
  C55      1.0000 0.97437  0.91150  0.16890  Biso   1.000  C
  C56      1.0000 0.93704  0.02558  0.16890  Biso   1.000  C
  C57      1.0000 0.09659  0.22439  0.41221  Biso   1.000  C
  C58      1.0000 0.08380  0.27878  0.33731  Biso   1.000  C
  C59      1.0000 0.06236  0.97345  0.16851  Biso   1.000  C
  H61      1.0000 0.19087  0.99285  0.16939  Biso   1.000  H
  H62      1.0000 0.23857  0.74505  0.08260  Biso   1.000  H
  H63      1.0000 0.30572  0.82798  0.11341  Biso   1.000  H
  C60      1.0000 0.17617  0.23228  0.39872  Biso   1.000  C
  H64      1.0000 0.19470  0.17309  0.45870  Biso   1.000  H
  H65      1.0000 0.43261  0.24261  0.54900  Biso   1.000  H
  H66      1.0000 0.52577  0.32310  0.53259  Biso   1.000  H
  H67      1.0000 0.95655  0.85067  0.16949  Biso   1.000  H
  H68      1.0000 0.89407  0.04340  0.16949  Biso   1.000  H
  C61      1.0000 0.02652  0.08891  0.16851  Biso   1.000  C
  H69      1.0000 0.07380  0.20308  0.44239  Biso   1.000  H
  C62      1.0000 0.16338  0.28667  0.32378  Biso   1.000  C
  H70      1.0000 0.05211  0.29456  0.31629  Biso   1.000  H
  C63      1.0000 0.08850  0.06287  0.16890  Biso   1.000  C
  C64      1.0000 0.20973  0.26352  0.35449  Biso   1.000  C
  C65      1.0000 0.05150  0.18217  0.16820  Biso   1.000  C
  C66      1.0000 0.20249  0.32376  0.27670  Biso   1.000  C
  H71      1.0000 0.14931  0.10588  0.16949  Biso   1.000  H
  H72      1.0000 0.26408  0.26891  0.34522  Biso   1.000  H
  N11      1.0000 0.13434  0.24372  0.16639  Biso   1.000  N
  H73      1.0000 0.00709  0.19802  0.16939  Biso   1.000  H
  N12      1.0000 0.16640  0.34908  0.24840  Biso   1.000  N
  H74      1.0000 0.25679  0.32790  0.26830  Biso   1.000  H
  C67      1.0000 0.15198  0.33369  0.16350  Biso   1.000  C
  C68      1.0000 0.21407  0.38657  0.20319  Biso   1.000  C
  H75      1.0000 0.09580  0.33468  0.16639  Biso   1.000  H
  C69      1.0000 0.19461  0.37157  0.11630  Biso   1.000  C
  C70      1.0000 0.24267  0.48396  0.19880  Biso   1.000  C
  H76      1.0000 0.26739  0.37986  0.20201  Biso   1.000  H
  H77      1.0000 0.15208  0.33902  0.09121  Biso   1.000  H
  H78      1.0000 0.24620  0.36368  0.11209  Biso   1.000  H
  C71      1.0000 0.22410  0.46996  0.11261  Biso   1.000  C
  C72      1.0000 0.28383  0.51902  0.15178  Biso   1.000  C
  H79      1.0000 0.19087  0.49166  0.20281  Biso   1.000  H
  H80      1.0000 0.28562  0.51770  0.22362  Biso   1.000  H
  H81      1.0000 0.25489  0.49350  0.08260  Biso   1.000  H
  H82      1.0000 0.17199  0.47772  0.11341  Biso   1.000  H
  H83      1.0000 0.30047  0.58169  0.14959  Biso   1.000  H
  H84      1.0000 0.33821  0.51547  0.14900  Biso   1.000  H
  C73      1.0000 0.58218  0.70349  0.51429  Biso   1.000  C
  C74      1.0000 0.50151  0.70480  0.49770  Biso   1.000  C
  C75      1.0000 0.63241  0.77399  0.55221  Biso   1.000  C
  H85      1.0000 0.62177  0.71421  0.48749  Biso   1.000  H
  H86      1.0000 0.56456  0.64456  0.52712  Biso   1.000  H
  H87      1.0000 0.46010  0.69079  0.52401  Biso   1.000  H
  H88      1.0000 0.47165  0.65956  0.47330  Biso   1.000  H
  C76      1.0000 0.52721  0.79608  0.47790  Biso   1.000  C
  N13      1.0000 0.71317  0.77478  0.56389  Biso   1.000  N
  H89      1.0000 0.59478  0.75978  0.58072  Biso   1.000  H
  C77      1.0000 0.65455  0.86474  0.53381  Biso   1.000  C
  H90      1.0000 0.56736  0.80996  0.45100  Biso   1.000  H
  H91      1.0000 0.47416  0.79727  0.46741  Biso   1.000  H
  C78      1.0000 0.57308  0.86310  0.51711  Biso   1.000  C
  C79      1.0000 0.72335  0.75676  0.60449  Biso   1.000  C
  N14      1.0000 0.69329  0.92788  0.57211  Biso   1.000  N
  H92      1.0000 0.69766  0.88217  0.50760  Biso   1.000  H
  H93      1.0000 0.58847  0.92235  0.50579  Biso   1.000  H
  H94      1.0000 0.53177  0.84837  0.54360  Biso   1.000  H
  C80      1.0000 0.80265  0.75235  0.61850  Biso   1.000  C
  H95      1.0000 0.67949  0.74558  0.62711  Biso   1.000  H
  C81      1.0000 0.77481  0.98338  0.56730  Biso   1.000  C
  C82      1.0000 0.87218  0.77557  0.58779  Biso   1.000  C
  C83      1.0000 0.80500  0.72118  0.66269  Biso   1.000  C
  H96      1.0000 0.80529  0.97838  0.54130  Biso   1.000  H
  C84      1.0000 0.82375  0.05610  0.60132  Biso   1.000  C
  C85      1.0000 0.94387  0.76767  0.60132  Biso   1.000  C
  H97      1.0000 0.87070  0.79687  0.55761  Biso   1.000  H
  C86      1.0000 0.87669  0.71329  0.67622  Biso   1.000  C
  H98      1.0000 0.75747  0.70539  0.68371  Biso   1.000  H
  C87      1.0000 0.79025  0.05380  0.64551  Biso   1.000  C
  C88      1.0000 0.90339  0.12778  0.58779  Biso   1.000  C
  C89      1.0000 0.94616  0.73650  0.64551  Biso   1.000  C
  C90      1.0000 0.01659  0.79135  0.56730  Biso   1.000  C
  C91      1.0000 0.87871  0.67619  0.72330  Biso   1.000  C
  C92      1.0000 0.83657  0.12331  0.67622  Biso   1.000  C
  H99      1.0000 0.73586  0.00480  0.65482  Biso   1.000  H
  H100     1.0000 0.92619  0.12929  0.55761  Biso   1.000  H
  C93      1.0000 0.94966  0.19729  0.61850  Biso   1.000  C
  H101     1.0000 0.99518  0.73111  0.65482  Biso   1.000  H
  N15      1.0000 0.07212  0.76537  0.57211  Biso   1.000  N
  H102     1.0000 0.02159  0.82686  0.54130  Biso   1.000  H
  N16      1.0000 0.81729  0.65088  0.75160  Biso   1.000  N
  H103     1.0000 0.92886  0.67205  0.73170  Biso   1.000  H
  C94      1.0000 0.79745  0.12127  0.72330  Biso   1.000  C
  C95      1.0000 0.91615  0.19499  0.66269  Biso   1.000  C
  C96      1.0000 0.03339  0.27661  0.60449  Biso   1.000  C
  C97      1.0000 0.13517  0.78977  0.53381  Biso   1.000  C
  C98      1.0000 0.82748  0.61339  0.79681  Biso   1.000  C
  N17      1.0000 0.83357  0.18269  0.75160  Biso   1.000  N
  H104     1.0000 0.74320  0.07109  0.73170  Biso   1.000  H
  H105     1.0000 0.94787  0.24248  0.68371  Biso   1.000  H
  N18      1.0000 0.06161  0.28680  0.56389  Biso   1.000  N
  H106     1.0000 0.06609  0.32047  0.62711  Biso   1.000  H
  C99      1.0000 0.22597  0.85836  0.55221  Biso   1.000  C
  C100     1.0000 0.13692  0.71000  0.51711  Biso   1.000  C
  H107     1.0000 0.11779  0.81549  0.50760  Biso   1.000  H
  C101     1.0000 0.81827  0.66626  0.83650  Biso   1.000  C
  C102     1.0000 0.75868  0.51599  0.80120  Biso   1.000  C
  H108     1.0000 0.88751  0.62010  0.79799  Biso   1.000  H
  C103     1.0000 0.78587  0.17250  0.79681  Biso   1.000  C
  C104     1.0000 0.14158  0.36756  0.55221  Biso   1.000  C
  N19      1.0000 0.22521  0.93840  0.56389  Biso   1.000  N
  H109     1.0000 0.24018  0.83495  0.58072  Biso   1.000  H
  C105     1.0000 0.29650  0.87869  0.51429  Biso   1.000  C
  C106     1.0000 0.20392  0.73111  0.47790  Biso   1.000  C
  H110     1.0000 0.07759  0.66607  0.50579  Biso   1.000  H
  H111     1.0000 0.15157  0.68336  0.54360  Biso   1.000  H
  N20      1.0000 0.89056  0.75630  0.83361  Biso   1.000  N
  H112     1.0000 0.76110  0.66528  0.83361  Biso   1.000  H
  C107     1.0000 0.82296  0.62838  0.88370  Biso   1.000  C
  C108     1.0000 0.76476  0.48100  0.84822  Biso   1.000  C
  H113     1.0000 0.69919  0.50830  0.79719  Biso   1.000  H
  H114     1.0000 0.76784  0.48225  0.77642  Biso   1.000  H
  C109     1.0000 0.84800  0.18171  0.83650  Biso   1.000  C
  C110     1.0000 0.75728  0.24129  0.80120  Biso   1.000  C
  H115     1.0000 0.73259  0.11252  0.79799  Biso   1.000  H
  H116     1.0000 0.16500  0.40518  0.58072  Biso   1.000  H
  C111     1.0000 0.12131  0.41780  0.51429  Biso   1.000  C
  C112     1.0000 0.21017  0.34540  0.53381  Biso   1.000  C
  C113     1.0000 0.24316  0.96655  0.60449  Biso   1.000  C
  H117     1.0000 0.28576  0.90756  0.48749  Biso   1.000  H
  H118     1.0000 0.35537  0.91999  0.52712  Biso   1.000  H
  C114     1.0000 0.29519  0.79668  0.49770  Biso   1.000  C
  H119     1.0000 0.18999  0.75735  0.45100  Biso   1.000  H
  H120     1.0000 0.20270  0.67685  0.46741  Biso   1.000  H
  C115     1.0000 0.86925  0.81779  0.83180  Biso   1.000  C
  H121     1.0000 0.81307  0.66100  0.90879  Biso   1.000  H
  H122     1.0000 0.88250  0.63628  0.88791  Biso   1.000  H
  C116     1.0000 0.75406  0.53000  0.88739  Biso   1.000  C
  H123     1.0000 0.71876  0.41826  0.85041  Biso   1.000  H
  H124     1.0000 0.82266  0.48449  0.85100  Biso   1.000  H
  N21      1.0000 0.86565  0.10937  0.83361  Biso   1.000  N
  H125     1.0000 0.90418  0.23892  0.83361  Biso   1.000  H
  C117     1.0000 0.80537  0.17697  0.88370  Biso   1.000  C
  C118     1.0000 0.71618  0.23518  0.84822  Biso   1.000  C
  H126     1.0000 0.80908  0.30081  0.79719  Biso   1.000  H
  H127     1.0000 0.71440  0.23208  0.77642  Biso   1.000  H
  H128     1.0000 0.09240  0.37821  0.48749  Biso   1.000  H
  H129     1.0000 0.07997  0.43536  0.52712  Biso   1.000  H
  C119     1.0000 0.20329  0.49850  0.49770  Biso   1.000  C
  N22      1.0000 0.23460  0.30666  0.57211  Biso   1.000  N
  C120     1.0000 0.28999  0.42688  0.51711  Biso   1.000  C
  H130     1.0000 0.18454  0.30232  0.50760  Biso   1.000  H
  H131     1.0000 0.25438  0.93386  0.62711  Biso   1.000  H
  C121     1.0000 0.24762  0.05031  0.61850  Biso   1.000  C
  H132     1.0000 0.30916  0.76925  0.52401  Biso   1.000  H
  H133     1.0000 0.34036  0.81207  0.47330  Biso   1.000  H
  C122     1.0000 0.93758  0.91104  0.83149  Biso   1.000  C
  H134     1.0000 0.80908  0.80200  0.83061  Biso   1.000  H
  H135     1.0000 0.76137  0.50646  0.91740  Biso   1.000  H
  H136     1.0000 0.69429  0.52231  0.88659  Biso   1.000  H
  C123     1.0000 0.94847  0.13067  0.83180  Biso   1.000  C
  H137     1.0000 0.84787  0.18690  0.90879  Biso   1.000  H
  H138     1.0000 0.75377  0.11752  0.88791  Biso   1.000  H
  C124     1.0000 0.77587  0.24590  0.88739  Biso   1.000  C
  H139     1.0000 0.69950  0.28121  0.85041  Biso   1.000  H
  H140     1.0000 0.66178  0.17730  0.85100  Biso   1.000  H
  H141     1.0000 0.23069  0.53986  0.52401  Biso   1.000  H
  H142     1.0000 0.18788  0.52829  0.47330  Biso   1.000  H
  C125     1.0000 0.26891  0.47278  0.47790  Biso   1.000  C
  C126     1.0000 0.20861  0.22518  0.56730  Biso   1.000  C
  H143     1.0000 0.33389  0.41149  0.50579  Biso   1.000  H
  H144     1.0000 0.31656  0.46818  0.54360  Biso   1.000  H
  C127     1.0000 0.22441  0.09661  0.58779  Biso   1.000  C
  C128     1.0000 0.27876  0.08378  0.66269  Biso   1.000  C
  C129     1.0000 0.91149  0.97437  0.83110  Biso   1.000  C
  C130     1.0000 0.02561  0.93708  0.83110  Biso   1.000  C
  C131     1.0000 0.97345  0.06241  0.83149  Biso   1.000  C
  H145     1.0000 0.99288  0.19092  0.83061  Biso   1.000  H
  H146     1.0000 0.74505  0.23860  0.91740  Biso   1.000  H
  H147     1.0000 0.82797  0.30568  0.88659  Biso   1.000  H
  H148     1.0000 0.24261  0.43260  0.45100  Biso   1.000  H
  H149     1.0000 0.32310  0.52579  0.46741  Biso   1.000  H
  C132     1.0000 0.23230  0.17618  0.60132  Biso   1.000  C
  H150     1.0000 0.17308  0.19466  0.54130  Biso   1.000  H
  H151     1.0000 0.20309  0.07379  0.55761  Biso   1.000  H
  C133     1.0000 0.28669  0.16343  0.67622  Biso   1.000  C
  H152     1.0000 0.29458  0.05209  0.68371  Biso   1.000  H
  H153     1.0000 0.85064  0.95655  0.83051  Biso   1.000  H
  H154     1.0000 0.04340  0.89407  0.83051  Biso   1.000  H
  C134     1.0000 0.08889  0.02650  0.83149  Biso   1.000  C
  C135     1.0000 0.06288  0.08852  0.83110  Biso   1.000  C
  C136     1.0000 0.26348  0.20972  0.64551  Biso   1.000  C
  C137     1.0000 0.32376  0.20249  0.72330  Biso   1.000  C
  C138     1.0000 0.18220  0.05149  0.83180  Biso   1.000  C
  H155     1.0000 0.10591  0.14929  0.83051  Biso   1.000  H
  H156     1.0000 0.26892  0.26411  0.65482  Biso   1.000  H
  N23      1.0000 0.34911  0.16639  0.75160  Biso   1.000  N
  H157     1.0000 0.32792  0.25681  0.73170  Biso   1.000  H
  N24      1.0000 0.24370  0.13429  0.83361  Biso   1.000  N
  H158     1.0000 0.19799  0.00710  0.83061  Biso   1.000  H
  C139     1.0000 0.38656  0.21406  0.79681  Biso   1.000  C
  C140     1.0000 0.33371  0.15198  0.83650  Biso   1.000  C
  C141     1.0000 0.48396  0.24267  0.80120  Biso   1.000  C
  H159     1.0000 0.37991  0.26740  0.79799  Biso   1.000  H
  H160     1.0000 0.33467  0.09582  0.83361  Biso   1.000  H
  C142     1.0000 0.37159  0.19460  0.88370  Biso   1.000  C
  C143     1.0000 0.51898  0.28378  0.84822  Biso   1.000  C
  H161     1.0000 0.49169  0.19092  0.79719  Biso   1.000  H
  H162     1.0000 0.51768  0.28562  0.77642  Biso   1.000  H
  H163     1.0000 0.33901  0.15211  0.90879  Biso   1.000  H
  H164     1.0000 0.36369  0.24622  0.88791  Biso   1.000  H
  C144     1.0000 0.46999  0.22406  0.88739  Biso   1.000  C
  H165     1.0000 0.58167  0.30048  0.85041  Biso   1.000  H
  H166     1.0000 0.51548  0.33816  0.85100  Biso   1.000  H
  H167     1.0000 0.49350  0.25490  0.91740  Biso   1.000  H
  H168     1.0000 0.47766  0.17198  0.88659  Biso   1.000  H
  C145     1.0000 0.50980  0.55519  0.40701  Biso   1.000  C
  C146     1.0000 0.49479  0.49988  0.36550  Biso   1.000  C
  H169     1.0000 0.50897  0.52290  0.43500  Biso   1.000  H
  H170     1.0000 0.46338  0.57058  0.40910  Biso   1.000  H
  H171     1.0000 0.56712  0.60911  0.40429  Biso   1.000  H
  C147     1.0000 0.40255  0.42727  0.35811  Biso   1.000  C
  C148     1.0000 0.51099  0.55940  0.32709  Biso   1.000  C
  C149     1.0000 0.51899  0.56196  0.31699  Biso   1.000  C
  N25      1.0000 0.56198  0.47331  0.36390  Biso   1.000  N
  N26      1.0000 0.43610  0.40472  0.31692  Biso   1.000  N
  H172     1.0000 0.40066  0.39137  0.33149  Biso   1.000  H
  C150     1.0000 0.46198  0.48199  0.34769  Biso   1.000  C
  H173     1.0000 0.36470  0.45227  0.35191  Biso   1.000  H
  H174     1.0000 0.38178  0.39051  0.38610  Biso   1.000  H
  H175     1.0000 0.40898  0.48239  0.35909  Biso   1.000  H
  N27      1.0000 0.50708  0.52060  0.27830  Biso   1.000  N
  H176     1.0000 0.57012  0.61181  0.33131  Biso   1.000  H
  H177     1.0000 0.46750  0.57926  0.32849  Biso   1.000  H
  N28      1.0000 0.60569  0.56860  0.31371  Biso   1.000  N
  H178     1.0000 0.50117  0.59991  0.30259  Biso   1.000  H
  H179     1.0000 0.49568  0.47969  0.37481  Biso   1.000  H
  C151     1.0000 0.54187  0.39288  0.36540  Biso   1.000  C
  C152     1.0000 0.43875  0.33586  0.32211  Biso   1.000  C
  C153     1.0000 0.56446  0.56176  0.24690  Biso   1.000  C
  C154     1.0000 0.64260  0.59287  0.27429  Biso   1.000  C
  C155     1.0000 0.60678  0.36381  0.36700  Biso   1.000  C
  H180     1.0000 0.48139  0.34928  0.36540  Biso   1.000  H
  C156     1.0000 0.41570  0.26687  0.28569  Biso   1.000  C
  H181     1.0000 0.45696  0.32639  0.35170  Biso   1.000  H
  C157     1.0000 0.55787  0.52171  0.20159  Biso   1.000  C
  H182     1.0000 0.61207  0.61918  0.25310  Biso   1.000  H
  H183     1.0000 0.61352  0.60760  0.25112  Biso   1.000  H
  C158     1.0000 0.72849  0.60017  0.26161  Biso   1.000  C
  C159     1.0000 0.69661  0.42261  0.36738  Biso   1.000  C
  C160     1.0000 0.57736  0.27398  0.36738  Biso   1.000  C
  O1       1.0000 0.34021  0.25622  0.25139  Biso   1.000  O
  C161     1.0000 0.38865  0.27746  0.24181  Biso   1.000  C
  H184     1.0000 0.46989  0.31067  0.26080  Biso   1.000  H
  C162     1.0000 0.42128  0.19236  0.29552  Biso   1.000  C
  C163     1.0000 0.48384  0.44326  0.18859  Biso   1.000  C
  C164     1.0000 0.62648  0.56597  0.17012  Biso   1.000  C
  C165     1.0000 0.76619  0.62727  0.21769  Biso   1.000  C
  O2       1.0000 0.76728  0.67376  0.27360  Biso   1.000  O
  C166     1.0000 0.77105  0.57867  0.29552  Biso   1.000  C
  H185     1.0000 0.71715  0.48396  0.36801  Biso   1.000  H
  C167     1.0000 0.75698  0.39321  0.36700  Biso   1.000  C
  C168     1.0000 0.63619  0.24300  0.36700  Biso   1.000  C
  H186     1.0000 0.51596  0.23320  0.36801  Biso   1.000  H
  C169     1.0000 0.36719  0.21347  0.20779  Biso   1.000  C
  H187     1.0000 0.38477  0.32836  0.23501  Biso   1.000  H
  C170     1.0000 0.41982  0.25050  0.25620  Biso   1.000  C
  C171     1.0000 0.26961  0.17369  0.23662  Biso   1.000  C
  C172     1.0000 0.39978  0.12831  0.26161  Biso   1.000  C
  H188     1.0000 0.43979  0.18519  0.32549  Biso   1.000  H
  H189     1.0000 0.41119  0.21012  0.32671  Biso   1.000  H
  H190     1.0000 0.47547  0.18822  0.29569  Biso   1.000  H
  C173     1.0000 0.47849  0.40919  0.14429  Biso   1.000  C
  H191     1.0000 0.43711  0.41300  0.21009  Biso   1.000  H
  C174     1.0000 0.62112  0.53191  0.12571  Biso   1.000  C
  H192     1.0000 0.67708  0.61957  0.17900  Biso   1.000  H
  C175     1.0000 0.84630  0.63279  0.20779  Biso   1.000  C
  H193     1.0000 0.73711  0.64200  0.19451  Biso   1.000  H
  C176     1.0000 0.85198  0.74360  0.26990  Biso   1.000  C
  H194     1.0000 0.74541  0.56019  0.32549  Biso   1.000  H
  C177     1.0000 0.85119  0.58426  0.28569  Biso   1.000  C
  C178     1.0000 0.83070  0.58018  0.25620  Biso   1.000  C
  H195     1.0000 0.79890  0.58879  0.32671  Biso   1.000  H
  H196     1.0000 0.71269  0.52448  0.29569  Biso   1.000  H
  C179     1.0000 0.72595  0.30337  0.36738  Biso   1.000  C
  C180     1.0000 0.85100  0.45812  0.36540  Biso   1.000  C
  C181     1.0000 0.60709  0.14902  0.36540  Biso   1.000  C
  C182     1.0000 0.37267  0.13890  0.21769  Biso   1.000  C
  C183     1.0000 0.33918  0.22682  0.16248  Biso   1.000  C
  H197     1.0000 0.42978  0.22840  0.22640  Biso   1.000  H
  H198     1.0000 0.28351  0.15810  0.20581  Biso   1.000  H
  H199     1.0000 0.21541  0.17737  0.23341  Biso   1.000  H
  C184     1.0000 0.25638  0.10838  0.26990  Biso   1.000  C
  O3       1.0000 0.32618  0.09352  0.27360  Biso   1.000  O
  C185     1.0000 0.40708  0.04972  0.27429  Biso   1.000  C
  C186     1.0000 0.39487  0.32580  0.13188  Biso   1.000  C
  C187     1.0000 0.54712  0.45351  0.11278  Biso   1.000  C
  C188     1.0000 0.69402  0.57781  0.08999  Biso   1.000  C
  C189     1.0000 0.88758  0.66081  0.16248  Biso   1.000  C
  C190     1.0000 0.88880  0.61128  0.24181  Biso   1.000  C
  O4       1.0000 0.91593  0.65975  0.25139  Biso   1.000  O
  H200     1.0000 0.79859  0.57018  0.22640  Biso   1.000  H
  C191     1.0000 0.90409  0.73039  0.23662  Biso   1.000  C
  H201     1.0000 0.87460  0.71651  0.20581  Biso   1.000  H
  H202     1.0000 0.88078  0.75439  0.30082  Biso   1.000  H
  H203     1.0000 0.84946  0.79687  0.26129  Biso   1.000  H
  O5       1.0000 0.91038  0.83068  0.28750  Biso   1.000  O
  C192     1.0000 0.89706  0.56117  0.32211  Biso   1.000  C
  H204     1.0000 0.84078  0.53007  0.26080  Biso   1.000  H
  H205     1.0000 0.76675  0.28279  0.36801  Biso   1.000  H
  N29      1.0000 0.91127  0.43799  0.36390  Biso   1.000  N
  H206     1.0000 0.86783  0.51856  0.36540  Biso   1.000  H
  N30      1.0000 0.52670  0.08872  0.36390  Biso   1.000  N
  H207     1.0000 0.65069  0.13212  0.36540  Biso   1.000  H
  H208     1.0000 0.35800  0.09510  0.19451  Biso   1.000  H
  H209     1.0000 0.35250  0.29390  0.15530  Biso   1.000  H
  N31      1.0000 0.32019  0.17040  0.13241  Biso   1.000  N
  H210     1.0000 0.33572  0.27812  0.15621  Biso   1.000  H
  H211     1.0000 0.24557  0.12640  0.30082  Biso   1.000  H
  H212     1.0000 0.20309  0.05261  0.26129  Biso   1.000  H
  O6       1.0000 0.16931  0.07971  0.28750  Biso   1.000  O
  C193     1.0000 0.43819  0.00270  0.24690  Biso   1.000  C
  N32      1.0000 0.43141  0.03709  0.31371  Biso   1.000  N
  H213     1.0000 0.39241  0.00592  0.25112  Biso   1.000  H
  H214     1.0000 0.38075  0.99285  0.25310  Biso   1.000  H
  N33      1.0000 0.38120  0.29811  0.08989  Biso   1.000  N
  H215     1.0000 0.54337  0.43017  0.08250  Biso   1.000  H
  N34      1.0000 0.76367  0.64660  0.09849  Biso   1.000  N
  H216     1.0000 0.68578  0.55256  0.05981  Biso   1.000  H
  C194     1.0000 0.72799  0.52296  0.05500  Biso   1.000  C
  H217     1.0000 0.68672  0.54190  0.06159  Biso   1.000  H
  N35      1.0000 0.85021  0.67981  0.13241  Biso   1.000  N
  C195     1.0000 0.93087  0.60510  0.13188  Biso   1.000  C
  H218     1.0000 0.94134  0.64746  0.15530  Biso   1.000  H
  H219     1.0000 0.94235  0.66429  0.15621  Biso   1.000  H
  H220     1.0000 0.94359  0.61517  0.23501  Biso   1.000  H
  H221     1.0000 0.96200  0.78458  0.23341  Biso   1.000  H
  N36      1.0000 0.96857  0.56387  0.31692  Biso   1.000  N
  H222     1.0000 0.86938  0.54296  0.35170  Biso   1.000  H
  H223     1.0000 0.98395  0.50429  0.37481  Biso   1.000  H
  C196     1.0000 0.00514  0.50521  0.36550  Biso   1.000  C
  C197     1.0000 0.50012  0.99489  0.36550  Biso   1.000  C
  H224     1.0000 0.52029  0.01598  0.37481  Biso   1.000  H
  N37      1.0000 0.35342  0.11713  0.09849  Biso   1.000  N
  C198     1.0000 0.27799  0.17599  0.08908  Biso   1.000  C
  C199     1.0000 0.47827  0.03617  0.20159  Biso   1.000  C
  N38      1.0000 0.47940  0.98647  0.27830  Biso   1.000  N
  C200     1.0000 0.44058  0.95155  0.32709  Biso   1.000  C
  H225     1.0000 0.38817  0.95826  0.33131  Biso   1.000  H
  C201     1.0000 0.43798  0.95695  0.31699  Biso   1.000  C
  C202     1.0000 0.30199  0.22307  0.08260  Biso   1.000  C
  C203     1.0000 0.83740  0.69428  0.06361  Biso   1.000  C
  C204     1.0000 0.82699  0.67199  0.05089  Biso   1.000  C
  C205     1.0000 0.76997  0.70500  0.04852  Biso   1.000  C
  H226     1.0000 0.73141  0.68540  0.07581  Biso   1.000  H
  N39      1.0000 0.80199  0.57801  0.04841  Biso   1.000  N
  C206     1.0000 0.69396  0.42267  0.05381  Biso   1.000  C
  C207     1.0000 0.89795  0.72197  0.08908  Biso   1.000  C
  N40      1.0000 0.91686  0.61878  0.08989  Biso   1.000  N
  C208     1.0000 0.93071  0.52152  0.14429  Biso   1.000  C
  H227     1.0000 0.99068  0.59932  0.33149  Biso   1.000  H
  C209     1.0000 0.02470  0.59741  0.35811  Biso   1.000  C
  C210     1.0000 0.01998  0.53796  0.34769  Biso   1.000  C
  C211     1.0000 0.04839  0.48896  0.32709  Biso   1.000  C
  C212     1.0000 0.04542  0.49021  0.40701  Biso   1.000  C
  C213     1.0000 0.04299  0.48100  0.31699  Biso   1.000  C
  C214     1.0000 0.44477  0.95458  0.40701  Biso   1.000  C
  C215     1.0000 0.57268  0.97529  0.35811  Biso   1.000  C
  C216     1.0000 0.30569  0.14310  0.06361  Biso   1.000  C
  C217     1.0000 0.42221  0.11621  0.08999  Biso   1.000  C
  C218     1.0000 0.32799  0.15501  0.05089  Biso   1.000  C
  C219     1.0000 0.29499  0.06498  0.04852  Biso   1.000  C
  H228     1.0000 0.31459  0.04597  0.07581  Biso   1.000  H
  H229     1.0000 0.26941  0.20598  0.11251  Biso   1.000  H
  H230     1.0000 0.28680  0.23610  0.08490  Biso   1.000  H
  H231     1.0000 0.21458  0.13311  0.08891  Biso   1.000  H
  C220     1.0000 0.55668  0.04058  0.18859  Biso   1.000  C
  C221     1.0000 0.43400  0.06050  0.17012  Biso   1.000  C
  H232     1.0000 0.42067  0.88816  0.32849  Biso   1.000  H
  H233     1.0000 0.40005  0.90124  0.30259  Biso   1.000  H
  C222     1.0000 0.51800  0.97996  0.34769  Biso   1.000  C
  H234     1.0000 0.26749  0.23721  0.06050  Biso   1.000  H
  C223     1.0000 0.92109  0.69796  0.08260  Biso   1.000  C
  C224     1.0000 0.84565  0.78037  0.05270  Biso   1.000  C
  C225     1.0000 0.81530  0.64200  0.01722  Biso   1.000  C
  H235     1.0000 0.78762  0.77241  0.04548  Biso   1.000  H
  H236     1.0000 0.73476  0.68356  0.02011  Biso   1.000  H
  H237     1.0000 0.80413  0.76945  0.04799  Biso   1.000  H
  H238     1.0000 0.82328  0.59096  0.02119  Biso   1.000  H
  C226     1.0000 0.60471  0.36000  0.05531  Biso   1.000  C
  O7       1.0000 0.71598  0.38196  0.00701  Biso   1.000  O
  C227     1.0000 0.75529  0.39531  0.05531  Biso   1.000  C
  H239     1.0000 0.93660  0.73058  0.11251  Biso   1.000  H
  H240     1.0000 0.94924  0.71315  0.08490  Biso   1.000  H
  H241     1.0000 0.91848  0.78536  0.08891  Biso   1.000  H
  C228     1.0000 0.95936  0.51606  0.18859  Biso   1.000  C
  C229     1.0000 0.90635  0.45286  0.11278  Biso   1.000  C
  H242     1.0000 0.08761  0.63529  0.35191  Biso   1.000  H
  H243     1.0000 0.00872  0.61819  0.38610  Biso   1.000  H
  H244     1.0000 0.07336  0.59096  0.35909  Biso   1.000  H
  N41      1.0000 0.96288  0.39426  0.31371  Biso   1.000  N
  N42      1.0000 0.01351  0.49291  0.27830  Biso   1.000  N
  H245     1.0000 0.04170  0.42991  0.33131  Biso   1.000  H
  H246     1.0000 0.11179  0.53250  0.32849  Biso   1.000  H
  H247     1.0000 0.09868  0.49876  0.30259  Biso   1.000  H
  H248     1.0000 0.01393  0.49100  0.43500  Biso   1.000  H
  H249     1.0000 0.10716  0.53658  0.40910  Biso   1.000  H
  H250     1.0000 0.04198  0.43286  0.40429  Biso   1.000  H
  H251     1.0000 0.47709  0.98608  0.43500  Biso   1.000  H
  H252     1.0000 0.42941  0.89276  0.40910  Biso   1.000  H
  H253     1.0000 0.39089  0.95800  0.40429  Biso   1.000  H
  N43      1.0000 0.59525  0.03137  0.31692  Biso   1.000  N
  H254     1.0000 0.51756  0.92656  0.35909  Biso   1.000  H
  H255     1.0000 0.60858  0.00927  0.33149  Biso   1.000  H
  H256     1.0000 0.54770  0.91236  0.35191  Biso   1.000  H
  H257     1.0000 0.60949  0.99127  0.38610  Biso   1.000  H
  C230     1.0000 0.21958  0.06530  0.05270  Biso   1.000  C
  C231     1.0000 0.35797  0.17329  0.01722  Biso   1.000  C
  C232     1.0000 0.46810  0.08918  0.12571  Biso   1.000  C
  H258     1.0000 0.44738  0.13317  0.05981  Biso   1.000  H
  C233     1.0000 0.47697  0.20499  0.05500  Biso   1.000  C
  H259     1.0000 0.45810  0.14481  0.06159  Biso   1.000  H
  N44      1.0000 0.42200  0.22400  0.04841  Biso   1.000  N
  H260     1.0000 0.22761  0.01519  0.04548  Biso   1.000  H
  H261     1.0000 0.31642  0.05123  0.02011  Biso   1.000  H
  H262     1.0000 0.23048  0.03472  0.04799  Biso   1.000  H
  H263     1.0000 0.58699  0.02407  0.21009  Biso   1.000  H
  C234     1.0000 0.59081  0.06932  0.14429  Biso   1.000  C
  H264     1.0000 0.38037  0.05748  0.17900  Biso   1.000  H
  H265     1.0000 0.96967  0.73249  0.06050  Biso   1.000  H
  H266     1.0000 0.88446  0.80628  0.02569  Biso   1.000  H
  H267     1.0000 0.87066  0.81969  0.07960  Biso   1.000  H
  H268     1.0000 0.75416  0.62200  0.00861  Biso   1.000  H
  H269     1.0000 0.85458  0.68001  0.99261  Biso   1.000  H
  C235     1.0000 0.57726  0.27128  0.05381  Biso   1.000  C
  O8       1.0000 0.61797  0.33402  0.00701  Biso   1.000  O
  H270     1.0000 0.56227  0.37867  0.05730  Biso   1.000  H
  O9       1.0000 0.66596  0.28397  0.00701  Biso   1.000  O
  O10      1.0000 0.66668  0.33336  0.95999  Biso   1.000  O
  C236     1.0000 0.72869  0.30600  0.05381  Biso   1.000  C
  H271     1.0000 0.81634  0.43767  0.05730  Biso   1.000  H
  C237     1.0000 0.96377  0.44207  0.20159  Biso   1.000  C
  H272     1.0000 0.97588  0.56288  0.21009  Biso   1.000  H
  C238     1.0000 0.91076  0.37887  0.12571  Biso   1.000  C
  H273     1.0000 0.88681  0.45661  0.08250  Biso   1.000  H
  C239     1.0000 0.95024  0.35737  0.27429  Biso   1.000  C
  C240     1.0000 0.99728  0.43550  0.24690  Biso   1.000  C
  C241     1.0000 0.66412  0.10292  0.32211  Biso   1.000  C
  H274     1.0000 0.19367  0.07819  0.02569  Biso   1.000  H
  H275     1.0000 0.18029  0.05097  0.07960  Biso   1.000  H
  H276     1.0000 0.40900  0.23228  0.02119  Biso   1.000  H
  H277     1.0000 0.37797  0.13219  0.00861  Biso   1.000  H
  H278     1.0000 0.32002  0.17461  0.99261  Biso   1.000  H
  C242     1.0000 0.54645  0.09358  0.11278  Biso   1.000  C
  C243     1.0000 0.67421  0.06912  0.13188  Biso   1.000  C
  C244     1.0000 0.64001  0.24471  0.05531  Biso   1.000  C
  C245     1.0000 0.79496  0.27200  0.05500  Biso   1.000  C
  C246     1.0000 0.93944  0.37348  0.17012  Biso   1.000  C
  C247     1.0000 0.88378  0.30600  0.08999  Biso   1.000  C
  C248     1.0000 0.87164  0.27148  0.26161  Biso   1.000  C
  H279     1.0000 0.99408  0.38650  0.25112  Biso   1.000  H
  H280     1.0000 0.00707  0.38788  0.25310  Biso   1.000  H
  C249     1.0000 0.73309  0.14883  0.28569  Biso   1.000  C
  H281     1.0000 0.67357  0.13061  0.35170  Biso   1.000  H
  H282     1.0000 0.56980  0.11318  0.08250  Biso   1.000  H
  N45      1.0000 0.70189  0.08313  0.08989  Biso   1.000  N
  H283     1.0000 0.70608  0.05860  0.15530  Biso   1.000  H
  C250     1.0000 0.77319  0.11239  0.16248  Biso   1.000  C
  H284     1.0000 0.72188  0.05761  0.15621  Biso   1.000  H
  H285     1.0000 0.62131  0.18362  0.05730  Biso   1.000  H
  H286     1.0000 0.86678  0.31416  0.05981  Biso   1.000  H
  N46      1.0000 0.77597  0.19802  0.04841  Biso   1.000  N
  H287     1.0000 0.85519  0.31330  0.06159  Biso   1.000  H
  H288     1.0000 0.94246  0.32291  0.17900  Biso   1.000  H
  N47      1.0000 0.88287  0.23629  0.09849  Biso   1.000  N
  C251     1.0000 0.80756  0.22886  0.29552  Biso   1.000  C
  C252     1.0000 0.86106  0.23379  0.21769  Biso   1.000  C
  O11      1.0000 0.90646  0.23268  0.27360  Biso   1.000  O
  C253     1.0000 0.72248  0.11121  0.24181  Biso   1.000  C
  O12      1.0000 0.74378  0.08398  0.25139  Biso   1.000  O
  H289     1.0000 0.68930  0.15922  0.26080  Biso   1.000  H
  C254     1.0000 0.77690  0.07892  0.08260  Biso   1.000  C
  N48      1.0000 0.82960  0.14981  0.13241  Biso   1.000  N
  C255     1.0000 0.78649  0.15369  0.20779  Biso   1.000  C
  C256     1.0000 0.84497  0.17303  0.05089  Biso   1.000  C
  C257     1.0000 0.82664  0.18467  0.01722  Biso   1.000  C
  H290     1.0000 0.76770  0.17671  0.02119  Biso   1.000  H
  C258     1.0000 0.85689  0.16257  0.06361  Biso   1.000  C
  C259     1.0000 0.93496  0.22998  0.04852  Biso   1.000  C
  H291     1.0000 0.95398  0.26858  0.07581  Biso   1.000  H
  C260     1.0000 0.74946  0.16928  0.25620  Biso   1.000  C
  H292     1.0000 0.81478  0.25458  0.32549  Biso   1.000  H
  H293     1.0000 0.78987  0.20111  0.32671  Biso   1.000  H
  H294     1.0000 0.81176  0.28726  0.29569  Biso   1.000  H
  H295     1.0000 0.90487  0.26286  0.19451  Biso   1.000  H
  C261     1.0000 0.89156  0.14797  0.26990  Biso   1.000  C
  H296     1.0000 0.67157  0.05643  0.23501  Biso   1.000  H
  C262     1.0000 0.82628  0.09589  0.23662  Biso   1.000  C
  H297     1.0000 0.76280  0.03032  0.06050  Biso   1.000  H
  H298     1.0000 0.79397  0.06340  0.11251  Biso   1.000  H
  C263     1.0000 0.82398  0.10200  0.08908  Biso   1.000  C
  H299     1.0000 0.77155  0.20137  0.22640  Biso   1.000  H
  H300     1.0000 0.84190  0.12541  0.20581  Biso   1.000  H
  H301     1.0000 0.86778  0.24576  0.00861  Biso   1.000  H
  H302     1.0000 0.82541  0.14541  0.99261  Biso   1.000  H
  C264     1.0000 0.93464  0.15428  0.05270  Biso   1.000  C
  H303     1.0000 0.98478  0.21242  0.04548  Biso   1.000  H
  H304     1.0000 0.96525  0.19578  0.04799  Biso   1.000  H
  H305     1.0000 0.94873  0.26516  0.02011  Biso   1.000  H
  H306     1.0000 0.87357  0.11917  0.30082  Biso   1.000  H
  H307     1.0000 0.94737  0.15047  0.26129  Biso   1.000  H
  O13      1.0000 0.92028  0.08957  0.28750  Biso   1.000  O
  H308     1.0000 0.82257  0.03801  0.23341  Biso   1.000  H
  H309     1.0000 0.76388  0.05070  0.08490  Biso   1.000  H
  H310     1.0000 0.86686  0.08148  0.08891  Biso   1.000  H
  H311     1.0000 0.92179  0.11548  0.02569  Biso   1.000  H
  H312     1.0000 0.94897  0.12929  0.07960  Biso   1.000  H
  C265     1.0000 0.55522  0.50981  0.59299  Biso   1.000  C
  C266     1.0000 0.49989  0.49482  0.63450  Biso   1.000  C
  H313     1.0000 0.52285  0.50895  0.56500  Biso   1.000  H
  H314     1.0000 0.57057  0.46338  0.59090  Biso   1.000  H
  H315     1.0000 0.60910  0.56709  0.59571  Biso   1.000  H
  N49      1.0000 0.47326  0.56196  0.63610  Biso   1.000  N
  C267     1.0000 0.55940  0.51099  0.67291  Biso   1.000  C
  C268     1.0000 0.42730  0.40261  0.64189  Biso   1.000  C
  C269     1.0000 0.56199  0.51902  0.68301  Biso   1.000  C
  C270     1.0000 0.39289  0.54190  0.63460  Biso   1.000  C
  H316     1.0000 0.47970  0.49567  0.62519  Biso   1.000  H
  N50      1.0000 0.52061  0.50711  0.72170  Biso   1.000  N
  H317     1.0000 0.61180  0.57012  0.66869  Biso   1.000  H
  H318     1.0000 0.57927  0.46746  0.67151  Biso   1.000  H
  N51      1.0000 0.56860  0.60569  0.68629  Biso   1.000  N
  H319     1.0000 0.59990  0.50119  0.69741  Biso   1.000  H
  C271     1.0000 0.48200  0.46200  0.65231  Biso   1.000  C
  H320     1.0000 0.39138  0.40071  0.66851  Biso   1.000  H
  H321     1.0000 0.45230  0.36467  0.64809  Biso   1.000  H
  H322     1.0000 0.39045  0.38177  0.61390  Biso   1.000  H
  N52      1.0000 0.40468  0.43609  0.68312  Biso   1.000  N
  H323     1.0000 0.48238  0.40899  0.64091  Biso   1.000  H
  C272     1.0000 0.36378  0.60681  0.63300  Biso   1.000  C
  H324     1.0000 0.34931  0.48140  0.63460  Biso   1.000  H
  C273     1.0000 0.56176  0.56446  0.75310  Biso   1.000  C
  C274     1.0000 0.59291  0.64259  0.72571  Biso   1.000  C
  C275     1.0000 0.33586  0.43878  0.67789  Biso   1.000  C
  C276     1.0000 0.42262  0.69658  0.63262  Biso   1.000  C
  C277     1.0000 0.27401  0.57742  0.63262  Biso   1.000  C
  C278     1.0000 0.52168  0.55788  0.79841  Biso   1.000  C
  H325     1.0000 0.61917  0.61207  0.74690  Biso   1.000  H
  H326     1.0000 0.60756  0.61346  0.74892  Biso   1.000  H
  C279     1.0000 0.60020  0.72848  0.73839  Biso   1.000  C
  C280     1.0000 0.26691  0.41570  0.71431  Biso   1.000  C
  H327     1.0000 0.32640  0.45700  0.64830  Biso   1.000  H
  H328     1.0000 0.48400  0.71717  0.63199  Biso   1.000  H
  C281     1.0000 0.39317  0.75695  0.63300  Biso   1.000  C
  H329     1.0000 0.23322  0.51599  0.63199  Biso   1.000  H
  C282     1.0000 0.24298  0.63621  0.63300  Biso   1.000  C
  C283     1.0000 0.44328  0.48390  0.81141  Biso   1.000  C
  C284     1.0000 0.56600  0.62648  0.82992  Biso   1.000  C
  C285     1.0000 0.62730  0.76616  0.78231  Biso   1.000  C
  O14      1.0000 0.67376  0.76728  0.72640  Biso   1.000  O
  C286     1.0000 0.57868  0.77109  0.70452  Biso   1.000  C
  C287     1.0000 0.27749  0.38867  0.75819  Biso   1.000  C
  O15      1.0000 0.25622  0.34020  0.74861  Biso   1.000  O
  H330     1.0000 0.31069  0.46989  0.73920  Biso   1.000  H
  C288     1.0000 0.19242  0.42129  0.70452  Biso   1.000  C
  C289     1.0000 0.30342  0.72598  0.63262  Biso   1.000  C
  C290     1.0000 0.45808  0.85100  0.63460  Biso   1.000  C
  C291     1.0000 0.14896  0.60708  0.63460  Biso   1.000  C
  H331     1.0000 0.41298  0.43707  0.78991  Biso   1.000  H
  C292     1.0000 0.40920  0.47851  0.85571  Biso   1.000  C
  C293     1.0000 0.53187  0.62108  0.87432  Biso   1.000  C
  H332     1.0000 0.61959  0.67705  0.82100  Biso   1.000  H
  C294     1.0000 0.63278  0.84626  0.79221  Biso   1.000  C
  H333     1.0000 0.64198  0.73709  0.80549  Biso   1.000  H
  C295     1.0000 0.74357  0.85198  0.73010  Biso   1.000  C
  H334     1.0000 0.56018  0.74538  0.67451  Biso   1.000  H
  C296     1.0000 0.58427  0.85120  0.71431  Biso   1.000  C
  C297     1.0000 0.58016  0.83068  0.74380  Biso   1.000  C
  H335     1.0000 0.58880  0.79885  0.67329  Biso   1.000  H
  H336     1.0000 0.52448  0.71269  0.70431  Biso   1.000  H
  C298     1.0000 0.21348  0.36717  0.79221  Biso   1.000  C
  H337     1.0000 0.32840  0.38479  0.76499  Biso   1.000  H
  C299     1.0000 0.25050  0.41978  0.74380  Biso   1.000  C
  C300     1.0000 0.17368  0.26957  0.76342  Biso   1.000  C
  C301     1.0000 0.12830  0.39978  0.73839  Biso   1.000  C
  H338     1.0000 0.18520  0.43977  0.67451  Biso   1.000  H
  H339     1.0000 0.21008  0.41116  0.67329  Biso   1.000  H
  H340     1.0000 0.18819  0.47548  0.70431  Biso   1.000  H
  H341     1.0000 0.28280  0.76675  0.63199  Biso   1.000  H
  N53      1.0000 0.43800  0.91130  0.63610  Biso   1.000  N
  H342     1.0000 0.51858  0.86790  0.63460  Biso   1.000  H
  N54      1.0000 0.08873  0.52671  0.63610  Biso   1.000  N
  H343     1.0000 0.13209  0.65068  0.63460  Biso   1.000  H
  C302     1.0000 0.45347  0.54710  0.88722  Biso   1.000  C
  C303     1.0000 0.32583  0.39492  0.86812  Biso   1.000  C
  C304     1.0000 0.57775  0.69395  0.91001  Biso   1.000  C
  C305     1.0000 0.61125  0.88875  0.75819  Biso   1.000  C
  C306     1.0000 0.66078  0.88756  0.83752  Biso   1.000  C
  O16      1.0000 0.65978  0.91597  0.74861  Biso   1.000  O
  H344     1.0000 0.57021  0.79858  0.77360  Biso   1.000  H
  C307     1.0000 0.73037  0.90407  0.76342  Biso   1.000  C
  H345     1.0000 0.71649  0.87461  0.79419  Biso   1.000  H
  H346     1.0000 0.75438  0.88079  0.69922  Biso   1.000  H
  H347     1.0000 0.79688  0.84949  0.73871  Biso   1.000  H
  O17      1.0000 0.83069  0.91038  0.71250  Biso   1.000  O
  C308     1.0000 0.56120  0.89710  0.67789  Biso   1.000  C
  H348     1.0000 0.53010  0.84080  0.73920  Biso   1.000  H
  C309     1.0000 0.13890  0.37269  0.78231  Biso   1.000  C
  C310     1.0000 0.22679  0.33922  0.83752  Biso   1.000  C
  H349     1.0000 0.22839  0.42977  0.77360  Biso   1.000  H
  H350     1.0000 0.15810  0.28351  0.79419  Biso   1.000  H
  H351     1.0000 0.17740  0.21538  0.76659  Biso   1.000  H
  C311     1.0000 0.10839  0.25642  0.73010  Biso   1.000  C
  C312     1.0000 0.04971  0.40708  0.72571  Biso   1.000  C
  O18      1.0000 0.09350  0.32619  0.72640  Biso   1.000  O
  H352     1.0000 0.50429  0.98397  0.62519  Biso   1.000  H
  C313     1.0000 0.50518  0.00513  0.63450  Biso   1.000  C
  H353     1.0000 0.01597  0.52027  0.62519  Biso   1.000  H
  C314     1.0000 0.99488  0.50008  0.63450  Biso   1.000  C
  H354     1.0000 0.43021  0.54342  0.91750  Biso   1.000  H
  N55      1.0000 0.29806  0.38117  0.91011  Biso   1.000  N
  H355     1.0000 0.29392  0.35250  0.84470  Biso   1.000  H
  H356     1.0000 0.27810  0.33566  0.84379  Biso   1.000  H
  N56      1.0000 0.64655  0.76366  0.90151  Biso   1.000  N
  H357     1.0000 0.55260  0.68580  0.94019  Biso   1.000  H
  C315     1.0000 0.52299  0.72795  0.94500  Biso   1.000  C
  H358     1.0000 0.54187  0.68665  0.93841  Biso   1.000  H
  H359     1.0000 0.61521  0.94360  0.76499  Biso   1.000  H
  C316     1.0000 0.60510  0.93090  0.86812  Biso   1.000  C
  H360     1.0000 0.64747  0.94136  0.84470  Biso   1.000  H
  N57      1.0000 0.67977  0.85014  0.86759  Biso   1.000  N
  H361     1.0000 0.66425  0.94235  0.84379  Biso   1.000  H
  H362     1.0000 0.78454  0.96194  0.76659  Biso   1.000  H
  N58      1.0000 0.56391  0.96859  0.68312  Biso   1.000  N
  H363     1.0000 0.54294  0.86935  0.64830  Biso   1.000  H
  H364     1.0000 0.09509  0.35796  0.80549  Biso   1.000  H
  N59      1.0000 0.17041  0.32021  0.86759  Biso   1.000  N
  H365     1.0000 0.12637  0.24557  0.69922  Biso   1.000  H
  H366     1.0000 0.05262  0.20308  0.73871  Biso   1.000  H
  O19      1.0000 0.07968  0.16928  0.71250  Biso   1.000  O
  C317     1.0000 0.00273  0.43819  0.75310  Biso   1.000  C
  N60      1.0000 0.03710  0.43142  0.68629  Biso   1.000  N
  H367     1.0000 0.00593  0.39242  0.74892  Biso   1.000  H
  H368     1.0000 0.99287  0.38078  0.74690  Biso   1.000  H
  C318     1.0000 0.48900  0.04840  0.67291  Biso   1.000  C
  C319     1.0000 0.49017  0.04538  0.59299  Biso   1.000  C
  C320     1.0000 0.59740  0.02473  0.64189  Biso   1.000  C
  C321     1.0000 0.48101  0.04301  0.68301  Biso   1.000  C
  C322     1.0000 0.95157  0.44056  0.67291  Biso   1.000  C
  C323     1.0000 0.95459  0.44477  0.59299  Biso   1.000  C
  C324     1.0000 0.97526  0.57268  0.64189  Biso   1.000  C
  C325     1.0000 0.95695  0.43799  0.68301  Biso   1.000  C
  C326     1.0000 0.22310  0.30199  0.91740  Biso   1.000  C
  C327     1.0000 0.69429  0.83738  0.93639  Biso   1.000  C
  C328     1.0000 0.67201  0.82699  0.94911  Biso   1.000  C
  C329     1.0000 0.70496  0.76998  0.95152  Biso   1.000  C
  H369     1.0000 0.68537  0.73137  0.92419  Biso   1.000  H
  N61      1.0000 0.57801  0.80200  0.95159  Biso   1.000  N
  C330     1.0000 0.42267  0.69395  0.94619  Biso   1.000  C
  N62      1.0000 0.61877  0.91689  0.91011  Biso   1.000  N
  C331     1.0000 0.52151  0.93071  0.85571  Biso   1.000  C
  C332     1.0000 0.72196  0.89795  0.91092  Biso   1.000  C
  H370     1.0000 0.59928  0.99068  0.66851  Biso   1.000  H
  C333     1.0000 0.53796  0.01999  0.65231  Biso   1.000  C
  N63      1.0000 0.11714  0.35342  0.90151  Biso   1.000  N
  C334     1.0000 0.17601  0.27799  0.91092  Biso   1.000  C
  C335     1.0000 0.03623  0.47831  0.79841  Biso   1.000  C
  N64      1.0000 0.98646  0.47936  0.72170  Biso   1.000  N
  H371     1.0000 0.95826  0.38821  0.66869  Biso   1.000  H
  N65      1.0000 0.39429  0.96286  0.68629  Biso   1.000  N
  N66      1.0000 0.49290  0.01348  0.72170  Biso   1.000  N
  H372     1.0000 0.42989  0.04169  0.66869  Biso   1.000  H
  H373     1.0000 0.53249  0.11180  0.67151  Biso   1.000  H
  H374     1.0000 0.49878  0.09871  0.69741  Biso   1.000  H
  H375     1.0000 0.49099  0.01388  0.56500  Biso   1.000  H
  H376     1.0000 0.53657  0.10720  0.59090  Biso   1.000  H
  H377     1.0000 0.43290  0.04202  0.59571  Biso   1.000  H
  H378     1.0000 0.63527  0.08760  0.64809  Biso   1.000  H
  H379     1.0000 0.61819  0.00868  0.61390  Biso   1.000  H
  H380     1.0000 0.59097  0.07339  0.64091  Biso   1.000  H
  H381     1.0000 0.88816  0.42070  0.67151  Biso   1.000  H
  H382     1.0000 0.90128  0.40011  0.69741  Biso   1.000  H
  C336     1.0000 0.97996  0.51796  0.65231  Biso   1.000  C
  H383     1.0000 0.98605  0.47706  0.56500  Biso   1.000  H
  H384     1.0000 0.89279  0.42938  0.59090  Biso   1.000  H
  H385     1.0000 0.95795  0.39091  0.59571  Biso   1.000  H
  H386     1.0000 0.00933  0.60859  0.66851  Biso   1.000  H
  N67      1.0000 0.03139  0.59530  0.68312  Biso   1.000  N
  H387     1.0000 0.91236  0.54769  0.64809  Biso   1.000  H
  H388     1.0000 0.99128  0.60951  0.61390  Biso   1.000  H
  H389     1.0000 0.92657  0.51757  0.64091  Biso   1.000  H
  H390     1.0000 0.23716  0.26747  0.93950  Biso   1.000  H
  H391     1.0000 0.20599  0.26937  0.88749  Biso   1.000  H
  C337     1.0000 0.14310  0.30568  0.93639  Biso   1.000  C
  C338     1.0000 0.15499  0.32797  0.94911  Biso   1.000  C
  C339     1.0000 0.69799  0.92110  0.91740  Biso   1.000  C
  C340     1.0000 0.78039  0.84567  0.94730  Biso   1.000  C
  C341     1.0000 0.64201  0.81529  0.98282  Biso   1.000  C
  H392     1.0000 0.77237  0.78760  0.95452  Biso   1.000  H
  H393     1.0000 0.68360  0.73479  0.97989  Biso   1.000  H
  H394     1.0000 0.76950  0.80417  0.95201  Biso   1.000  H
  H395     1.0000 0.59097  0.82325  0.97881  Biso   1.000  H
  C342     1.0000 0.35999  0.60471  0.94469  Biso   1.000  C
  C343     1.0000 0.39531  0.75531  0.94469  Biso   1.000  C
  O20      1.0000 0.38197  0.71598  0.99299  Biso   1.000  O
  C344     1.0000 0.51608  0.95938  0.81141  Biso   1.000  C
  C345     1.0000 0.45290  0.90637  0.88722  Biso   1.000  C
  H396     1.0000 0.73055  0.93656  0.88749  Biso   1.000  H
  H397     1.0000 0.71315  0.94925  0.91510  Biso   1.000  H
  H398     1.0000 0.78536  0.91847  0.91109  Biso   1.000  H
  C346     1.0000 0.11622  0.42221  0.91001  Biso   1.000  C
  C347     1.0000 0.06504  0.29502  0.95152  Biso   1.000  C
  H399     1.0000 0.04602  0.31462  0.92419  Biso   1.000  H
  H400     1.0000 0.23612  0.28680  0.91510  Biso   1.000  H
  H401     1.0000 0.13310  0.21459  0.91109  Biso   1.000  H
  C348     1.0000 0.04062  0.55670  0.81141  Biso   1.000  C
  C349     1.0000 0.06048  0.43398  0.82992  Biso   1.000  C
  C350     1.0000 0.35743  0.95030  0.72571  Biso   1.000  C
  C351     1.0000 0.43547  0.99726  0.75310  Biso   1.000  C
  C352     1.0000 0.10292  0.66409  0.67789  Biso   1.000  C
  C353     1.0000 0.06531  0.21959  0.94730  Biso   1.000  C
  C354     1.0000 0.17328  0.35796  0.98282  Biso   1.000  C
  N68      1.0000 0.22399  0.42201  0.95159  Biso   1.000  N
  H402     1.0000 0.73249  0.96970  0.93950  Biso   1.000  H
  H403     1.0000 0.80629  0.88447  0.97431  Biso   1.000  H
  H404     1.0000 0.81966  0.87066  0.92040  Biso   1.000  H
  H405     1.0000 0.62200  0.75419  0.99139  Biso   1.000  H
  H406     1.0000 0.67998  0.85455  0.00739  Biso   1.000  H
  H407     1.0000 0.37871  0.56229  0.94270  Biso   1.000  H
  C355     1.0000 0.27127  0.57728  0.94619  Biso   1.000  C
  O21      1.0000 0.33400  0.61799  0.99299  Biso   1.000  O
  H408     1.0000 0.43771  0.81641  0.94270  Biso   1.000  H
  C356     1.0000 0.30602  0.72868  0.94619  Biso   1.000  C
  O22      1.0000 0.28402  0.66600  0.99299  Biso   1.000  O
  O23      1.0000 0.33339  0.66666  0.04001  Biso   1.000  O
  C357     1.0000 0.44208  0.96378  0.79841  Biso   1.000  C
  H409     1.0000 0.56289  0.97589  0.78991  Biso   1.000  H
  H410     1.0000 0.45660  0.88677  0.91750  Biso   1.000  H
  C358     1.0000 0.37890  0.91078  0.87432  Biso   1.000  C
  C359     1.0000 0.08922  0.46811  0.87432  Biso   1.000  C
  H411     1.0000 0.13320  0.44740  0.94019  Biso   1.000  H
  C360     1.0000 0.20501  0.47699  0.94500  Biso   1.000  C
  H412     1.0000 0.14482  0.45812  0.93841  Biso   1.000  H
  H413     1.0000 0.01522  0.22761  0.95452  Biso   1.000  H
  H414     1.0000 0.05118  0.31640  0.97989  Biso   1.000  H
  H415     1.0000 0.03472  0.23051  0.95201  Biso   1.000  H
  H416     1.0000 0.02408  0.58695  0.78991  Biso   1.000  H
  C361     1.0000 0.06928  0.59077  0.85571  Biso   1.000  C
  H417     1.0000 0.05749  0.38038  0.82100  Biso   1.000  H
  C362     1.0000 0.27145  0.87165  0.73839  Biso   1.000  C
  H418     1.0000 0.38650  0.99410  0.74892  Biso   1.000  H
  H419     1.0000 0.38788  0.00710  0.74690  Biso   1.000  H
  C363     1.0000 0.14881  0.73308  0.71431  Biso   1.000  C
  H420     1.0000 0.13061  0.67356  0.64830  Biso   1.000  H
  H421     1.0000 0.07821  0.19368  0.97431  Biso   1.000  H
  H422     1.0000 0.05104  0.18033  0.92040  Biso   1.000  H
  H423     1.0000 0.23229  0.40899  0.97881  Biso   1.000  H
  H424     1.0000 0.13223  0.37802  0.99139  Biso   1.000  H
  H425     1.0000 0.17459  0.32001  0.00739  Biso   1.000  H
  C364     1.0000 0.24469  0.63996  0.94469  Biso   1.000  C
  C365     1.0000 0.27201  0.79497  0.94500  Biso   1.000  C
  C366     1.0000 0.37347  0.93945  0.82992  Biso   1.000  C
  C367     1.0000 0.30598  0.88375  0.91001  Biso   1.000  C
  C368     1.0000 0.09362  0.54651  0.88722  Biso   1.000  C
  C369     1.0000 0.06911  0.67416  0.86812  Biso   1.000  C
  C370     1.0000 0.23381  0.86106  0.78231  Biso   1.000  C
  O24      1.0000 0.23273  0.90650  0.72640  Biso   1.000  O
  C371     1.0000 0.22889  0.80759  0.70452  Biso   1.000  C
  C372     1.0000 0.11122  0.72249  0.75819  Biso   1.000  C
  O25      1.0000 0.08400  0.74380  0.74861  Biso   1.000  O
  H426     1.0000 0.15920  0.68928  0.73920  Biso   1.000  H
  H427     1.0000 0.18358  0.62128  0.94270  Biso   1.000  H
  H428     1.0000 0.31419  0.86678  0.94019  Biso   1.000  H
  N69      1.0000 0.19798  0.77596  0.95159  Biso   1.000  N
  H429     1.0000 0.31330  0.85521  0.93841  Biso   1.000  H
  H430     1.0000 0.32287  0.94248  0.82100  Biso   1.000  H
  N70      1.0000 0.23630  0.88289  0.90151  Biso   1.000  N
  H431     1.0000 0.11318  0.56979  0.91750  Biso   1.000  H
  N71      1.0000 0.08310  0.70191  0.91011  Biso   1.000  N
  H432     1.0000 0.05857  0.70605  0.84470  Biso   1.000  H
  C373     1.0000 0.11242  0.77320  0.83752  Biso   1.000  C
  H433     1.0000 0.05761  0.72190  0.84379  Biso   1.000  H
  C374     1.0000 0.15369  0.78648  0.79221  Biso   1.000  C
  H434     1.0000 0.26289  0.90486  0.80549  Biso   1.000  H
  C375     1.0000 0.14797  0.89158  0.73010  Biso   1.000  C
  H435     1.0000 0.25457  0.81476  0.67451  Biso   1.000  H
  C376     1.0000 0.16930  0.74946  0.74380  Biso   1.000  C
  H436     1.0000 0.20108  0.78990  0.67329  Biso   1.000  H
  H437     1.0000 0.28732  0.81180  0.70431  Biso   1.000  H
  H438     1.0000 0.05638  0.67159  0.76499  Biso   1.000  H
  C377     1.0000 0.09590  0.82627  0.76342  Biso   1.000  C
  C378     1.0000 0.18466  0.82667  0.98282  Biso   1.000  C
  H439     1.0000 0.17669  0.76767  0.97881  Biso   1.000  H
  C379     1.0000 0.17296  0.84495  0.94911  Biso   1.000  C
  C380     1.0000 0.16256  0.85685  0.93639  Biso   1.000  C
  N72      1.0000 0.14977  0.82956  0.86759  Biso   1.000  N
  C381     1.0000 0.22999  0.93498  0.95152  Biso   1.000  C
  H440     1.0000 0.26860  0.95399  0.92419  Biso   1.000  H
  C382     1.0000 0.07890  0.77688  0.91740  Biso   1.000  C
  H441     1.0000 0.20136  0.77155  0.77360  Biso   1.000  H
  H442     1.0000 0.12539  0.84186  0.79419  Biso   1.000  H
  H443     1.0000 0.11920  0.87356  0.69922  Biso   1.000  H
  H444     1.0000 0.15046  0.94734  0.73871  Biso   1.000  H
  O26      1.0000 0.08958  0.92025  0.71250  Biso   1.000  O
  H445     1.0000 0.03802  0.82259  0.76659  Biso   1.000  H
  H446     1.0000 0.24576  0.86777  0.99139  Biso   1.000  H
  H447     1.0000 0.14539  0.82535  0.00739  Biso   1.000  H
  C383     1.0000 0.10198  0.82397  0.91092  Biso   1.000  C
  C384     1.0000 0.15431  0.93465  0.94730  Biso   1.000  C
  H448     1.0000 0.21240  0.98476  0.95452  Biso   1.000  H
  H449     1.0000 0.26520  0.94879  0.97989  Biso   1.000  H
  H450     1.0000 0.19583  0.96530  0.95201  Biso   1.000  H
  H451     1.0000 0.03034  0.76281  0.93950  Biso   1.000  H
  H452     1.0000 0.06341  0.79398  0.88749  Biso   1.000  H
  H453     1.0000 0.05068  0.76386  0.91510  Biso   1.000  H
  H454     1.0000 0.08150  0.86685  0.91109  Biso   1.000  H
  H455     1.0000 0.11551  0.92176  0.97431  Biso   1.000  H
  H456     1.0000 0.12930  0.94899  0.92040  Biso   1.000  H
  Ne1      1.0000 0.99998  0.99998  0.31971  Biso   1.000  Ne
  He1      1.0000 1.00000  0.99998  0.41760  Biso   1.000  He
  He2      1.0000 0.91647  0.08720  0.28329  Biso   1.000  He
  He3      1.0000 0.17565  0.08592  0.28241  Biso   1.000  He
  He4      1.0000 0.91229  0.82827  0.28312  Biso   1.000  He
  Ar1      1.0000 0.99996  0.99995  0.31386  Biso   1.000  Ar
  Ne2      1.0000 0.99998  0.99999  0.68030  Biso   1.000  Ne
  He5      1.0000 0.08454  0.17289  0.71710  Biso   1.000  He
  He6      1.0000 0.82319  0.90970  0.71780  Biso   1.000  He
  He7      1.0000 0.08825  0.91544  0.71708  Biso   1.000  He
  He8      1.0000 0.99999  0.99997  0.58241  Biso   1.000  He
  Ar2      1.0000 0.99998  1.00000  0.68616  Biso   1.000  Ar
