data_image0
_cell_length_a       24.318
_cell_length_b       24.318
_cell_length_c       24.318
_cell_angle_alpha    90
_cell_angle_beta     90
_cell_angle_gamma    90

_symmetry_space_group_name_H-M    "P 1"
_symmetry_int_tables_number       1

loop_
  _symmetry_equiv_pos_as_xyz
  'x, y, z'

loop_
  _atom_site_label
  _atom_site_occupancy
  _atom_site_fract_x
  _atom_site_fract_y
  _atom_site_fract_z
  _atom_site_thermal_displace_type
  _atom_site_B_iso_or_equiv
  _atom_site_type_symbol
  C1       1.0000 0.63480  0.39909  0.51559  Biso   1.000  C
  C2       1.0000 0.67300  0.37770  0.55950  Biso   1.000  C
  H1       1.0000 0.65610  0.40871  0.48281  Biso   1.000  H
  H2       1.0000 0.61572  0.43190  0.52932  Biso   1.000  H
  H3       1.0000 0.60778  0.37071  0.50629  Biso   1.000  H
  H4       1.0000 0.65030  0.39148  0.52870  Biso   1.000  H
  N1       1.0000 0.69710  0.32499  0.54449  Biso   1.000  N
  C3       1.0000 0.63809  0.37178  0.60971  Biso   1.000  C
  H5       1.0000 0.70269  0.40468  0.56662  Biso   1.000  H
  C4       1.0000 0.74780  0.32441  0.53351  Biso   1.000  C
  N2       1.0000 0.67251  0.35891  0.65848  Biso   1.000  N
  H6       1.0000 0.61781  0.40649  0.61621  Biso   1.000  H
  H7       1.0000 0.61091  0.34209  0.60400  Biso   1.000  H
  C5       1.0000 0.60930  0.42450  0.60762  Biso   1.000  C
  H8       1.0000 0.76811  0.35760  0.53639  Biso   1.000  H
  C6       1.0000 0.77650  0.27399  0.51641  Biso   1.000  C
  C7       1.0000 0.65700  0.32009  0.68842  Biso   1.000  C
  H9       1.0000 0.57279  0.42051  0.62431  Biso   1.000  H
  H10      1.0000 0.60519  0.43601  0.56921  Biso   1.000  H
  H11      1.0000 0.63040  0.45222  0.62781  Biso   1.000  H
  C8       1.0000 0.74739  0.22531  0.50711  Biso   1.000  C
  C9       1.0000 0.83251  0.27371  0.51098  Biso   1.000  C
  C10      1.0000 0.68599  0.30270  0.73731  Biso   1.000  C
  H12      1.0000 0.62439  0.30101  0.67839  Biso   1.000  H
  H13      1.0000 0.70861  0.22490  0.51119  Biso   1.000  H
  C11      1.0000 0.77420  0.17880  0.49231  Biso   1.000  C
  C12      1.0000 0.86101  0.22609  0.49609  Biso   1.000  C
  H14      1.0000 0.85250  0.30660  0.51760  Biso   1.000  H
  C13      1.0000 0.66901  0.25709  0.76639  Biso   1.000  C
  C14      1.0000 0.73361  0.33099  0.75709  Biso   1.000  C
  C15      1.0000 0.83132  0.17802  0.48639  Biso   1.000  C
  C16      1.0000 0.74180  0.12830  0.48240  Biso   1.000  C
  C17      1.0000 0.92142  0.22531  0.48960  Biso   1.000  C
  H15      1.0000 0.63710  0.23801  0.75438  Biso   1.000  H
  C18      1.0000 0.69730  0.23731  0.81401  Biso   1.000  C
  H16      1.0000 0.74562  0.36290  0.73801  Biso   1.000  H
  C19      1.0000 0.76269  0.31401  0.80270  Biso   1.000  C
  H17      1.0000 0.84970  0.14520  0.47590  Biso   1.000  H
  N3       1.0000 0.76215  0.08261  0.46920  Biso   1.000  N
  H18      1.0000 0.70302  0.13048  0.48631  Biso   1.000  H
  N4       1.0000 0.95152  0.26700  0.49622  Biso   1.000  N
  H19      1.0000 0.93848  0.19150  0.47981  Biso   1.000  H
  C20      1.0000 0.74291  0.26639  0.83099  Biso   1.000  C
  C21      1.0000 0.67991  0.18842  0.84300  Biso   1.000  C
  C22      1.0000 0.81158  0.34300  0.82009  Biso   1.000  C
  C23      1.0000 0.72329  0.03841  0.45830  Biso   1.000  C
  C24      1.0000 0.00970  0.26121  0.48688  Biso   1.000  C
  H20      1.0000 0.76199  0.25438  0.86290  Biso   1.000  H
  N5       1.0000 0.64109  0.15848  0.82749  Biso   1.000  N
  H21      1.0000 0.69899  0.17839  0.87561  Biso   1.000  H
  N6       1.0000 0.84152  0.32749  0.85891  Biso   1.000  N
  H22      1.0000 0.82161  0.37561  0.80101  Biso   1.000  H
  C25      1.0000 0.72099  0.02759  0.39769  Biso   1.000  C
  H23      1.0000 0.72300  0.03010  0.41841  Biso   1.000  H
  H24      1.0000 0.68579  0.05029  0.46899  Biso   1.000  H
  C26      1.0000 0.73879  0.98688  0.49030  Biso   1.000  C
  H25      1.0000 0.02101  0.28518  0.45608  Biso   1.000  H
  H26      1.0000 0.01809  0.22272  0.47681  Biso   1.000  H
  C27      1.0000 0.04170  0.27671  0.53841  Biso   1.000  C
  C28      1.0000 0.02800  0.27099  0.43198  Biso   1.000  C
  C29      1.0000 0.62822  0.10971  0.86191  Biso   1.000  C
  C30      1.0000 0.89029  0.36191  0.87178  Biso   1.000  C
  H27      1.0000 0.71182  0.06168  0.37828  Biso   1.000  H
  H28      1.0000 0.75689  0.01419  0.38511  Biso   1.000  H
  H29      1.0000 0.69290  0.99971  0.39008  Biso   1.000  H
  N7       1.0000 0.73300  0.99622  0.54848  Biso   1.000  N
  H30      1.0000 0.71482  0.95608  0.47899  Biso   1.000  H
  H31      1.0000 0.77728  0.97681  0.48191  Biso   1.000  H
  C31      1.0000 0.72901  0.93198  0.47200  Biso   1.000  C
  N8       1.0000 0.03080  0.23785  0.58261  Biso   1.000  N
  C32      1.0000 0.10231  0.27901  0.52759  Biso   1.000  C
  H32      1.0000 0.08159  0.27700  0.53010  Biso   1.000  H
  H33      1.0000 0.03101  0.31421  0.55029  Biso   1.000  H
  H34      1.0000 0.99840  0.28789  0.41060  Biso   1.000  H
  H35      1.0000 0.03882  0.23608  0.41492  Biso   1.000  H
  H36      1.0000 0.05991  0.29591  0.43268  Biso   1.000  H
  H37      1.0000 0.59351  0.11621  0.88219  Biso   1.000  H
  H38      1.0000 0.65791  0.10400  0.88909  Biso   1.000  H
  C33      1.0000 0.62230  0.05950  0.82700  Biso   1.000  C
  C34      1.0000 0.57550  0.10762  0.89070  Biso   1.000  C
  H39      1.0000 0.88379  0.38219  0.90649  Biso   1.000  H
  H40      1.0000 0.89600  0.38909  0.84209  Biso   1.000  H
  C35      1.0000 0.94050  0.32700  0.87770  Biso   1.000  C
  C36      1.0000 0.89238  0.39070  0.92450  Biso   1.000  C
  C37      1.0000 0.77469  0.98960  0.57858  Biso   1.000  C
  H41      1.0000 0.76392  0.91492  0.46118  Biso   1.000  H
  H42      1.0000 0.70409  0.93268  0.44009  Biso   1.000  H
  H43      1.0000 0.71211  0.91060  0.50160  Biso   1.000  H
  C38      1.0000 0.01760  0.25820  0.62830  Biso   1.000  C
  H44      1.0000 0.12172  0.28818  0.56168  Biso   1.000  H
  H45      1.0000 0.10992  0.30710  0.49971  Biso   1.000  H
  H46      1.0000 0.11489  0.24311  0.51419  Biso   1.000  H
  N9       1.0000 0.67501  0.04449  0.80290  Biso   1.000  N
  C39      1.0000 0.60091  0.01559  0.86520  Biso   1.000  C
  H47      1.0000 0.60852  0.02870  0.84970  Biso   1.000  H
  H48      1.0000 0.59532  0.06662  0.79731  Biso   1.000  H
  H49      1.0000 0.57949  0.12431  0.92721  Biso   1.000  H
  H50      1.0000 0.56399  0.06921  0.89481  Biso   1.000  H
  H51      1.0000 0.54778  0.12781  0.86960  Biso   1.000  H
  N10      1.0000 0.95551  0.30290  0.82499  Biso   1.000  N
  C40      1.0000 0.98441  0.36520  0.89909  Biso   1.000  C
  H52      1.0000 0.97130  0.34970  0.89148  Biso   1.000  H
  H53      1.0000 0.93338  0.29731  0.90468  Biso   1.000  H
  H54      1.0000 0.87569  0.42721  0.92051  Biso   1.000  H
  H55      1.0000 0.93079  0.39481  0.93601  Biso   1.000  H
  H56      1.0000 0.87219  0.36960  0.95222  Biso   1.000  H
  C41      1.0000 0.77391  0.99609  0.63899  Biso   1.000  C
  H57      1.0000 0.80850  0.97981  0.56152  Biso   1.000  H
  C42      1.0000 0.00769  0.22580  0.67880  Biso   1.000  C
  H58      1.0000 0.01369  0.29698  0.63048  Biso   1.000  H
  C43      1.0000 0.67559  0.03351  0.75220  Biso   1.000  C
  H59      1.0000 0.56810  0.02932  0.88428  Biso   1.000  H
  H60      1.0000 0.62929  0.00629  0.89222  Biso   1.000  H
  H61      1.0000 0.59129  0.98281  0.84390  Biso   1.000  H
  C44      1.0000 0.96649  0.25220  0.82441  Biso   1.000  C
  H62      1.0000 0.97068  0.38428  0.93190  Biso   1.000  H
  H63      1.0000 0.99371  0.39222  0.87071  Biso   1.000  H
  H64      1.0000 0.01719  0.34390  0.90871  Biso   1.000  H
  C45      1.0000 0.72629  0.01098  0.66749  Biso   1.000  C
  C46      1.0000 0.82198  0.98639  0.66868  Biso   1.000  C
  C47      1.0000 0.99289  0.25261  0.72531  Biso   1.000  C
  C48      1.0000 0.01361  0.16868  0.67802  Biso   1.000  C
  H65      1.0000 0.64240  0.03639  0.73189  Biso   1.000  H
  C49      1.0000 0.72601  0.01641  0.72350  Biso   1.000  C
  H66      1.0000 0.96361  0.23189  0.85760  Biso   1.000  H
  C50      1.0000 0.98359  0.22350  0.77399  Biso   1.000  C
  H67      1.0000 0.69340  0.01760  0.64750  Biso   1.000  H
  C51      1.0000 0.82120  0.99231  0.72580  Biso   1.000  C
  H68      1.0000 0.85480  0.97590  0.65030  Biso   1.000  H
  H69      1.0000 0.98881  0.29139  0.72490  Biso   1.000  H
  H70      1.0000 0.02410  0.15030  0.64520  Biso   1.000  H
  C52      1.0000 0.00391  0.13899  0.72609  Biso   1.000  C
  C53      1.0000 0.77469  0.00711  0.75261  Biso   1.000  C
  C54      1.0000 0.98902  0.16749  0.77371  Biso   1.000  C
  C55      1.0000 0.87170  0.98240  0.75820  Biso   1.000  C
  C56      1.0000 0.01040  0.07858  0.72531  Biso   1.000  C
  H71      1.0000 0.77510  0.01119  0.79139  Biso   1.000  H
  H72      1.0000 0.98240  0.14750  0.80660  Biso   1.000  H
  N11      1.0000 0.91739  0.96920  0.73785  Biso   1.000  N
  H73      1.0000 0.86952  0.98631  0.79698  Biso   1.000  H
  N12      1.0000 0.00378  0.04848  0.76700  Biso   1.000  N
  H74      1.0000 0.02019  0.06152  0.69150  Biso   1.000  H
  C57      1.0000 0.96159  0.95830  0.77671  Biso   1.000  C
  C58      1.0000 0.01312  0.99030  0.76121  Biso   1.000  C
  C59      1.0000 0.97241  0.89769  0.77901  Biso   1.000  C
  H75      1.0000 0.96990  0.91841  0.77700  Biso   1.000  H
  H76      1.0000 0.94971  0.96899  0.81421  Biso   1.000  H
  H77      1.0000 0.04392  0.97899  0.78518  Biso   1.000  H
  H78      1.0000 0.02319  0.98191  0.72272  Biso   1.000  H
  C60      1.0000 0.06802  0.97200  0.77099  Biso   1.000  C
  H79      1.0000 0.93832  0.87828  0.78818  Biso   1.000  H
  H80      1.0000 0.98581  0.88511  0.74311  Biso   1.000  H
  H81      1.0000 0.00029  0.89008  0.80710  Biso   1.000  H
  H82      1.0000 0.08508  0.96118  0.73608  Biso   1.000  H
  H83      1.0000 0.06732  0.94009  0.79591  Biso   1.000  H
  H84      1.0000 0.08940  0.00160  0.78789  Biso   1.000  H
  C61      1.0000 0.51559  0.63480  0.39909  Biso   1.000  C
  C62      1.0000 0.55950  0.67300  0.37770  Biso   1.000  C
  H85      1.0000 0.48281  0.65610  0.40871  Biso   1.000  H
  H86      1.0000 0.52932  0.61572  0.43190  Biso   1.000  H
  H87      1.0000 0.50629  0.60778  0.37071  Biso   1.000  H
  H88      1.0000 0.52870  0.65030  0.39148  Biso   1.000  H
  N13      1.0000 0.54449  0.69710  0.32499  Biso   1.000  N
  C63      1.0000 0.60971  0.63809  0.37178  Biso   1.000  C
  H89      1.0000 0.56662  0.70269  0.40468  Biso   1.000  H
  C64      1.0000 0.53351  0.74780  0.32441  Biso   1.000  C
  N14      1.0000 0.65848  0.67251  0.35891  Biso   1.000  N
  H90      1.0000 0.61621  0.61781  0.40649  Biso   1.000  H
  H91      1.0000 0.60400  0.61091  0.34209  Biso   1.000  H
  C65      1.0000 0.60762  0.60930  0.42450  Biso   1.000  C
  H92      1.0000 0.53639  0.76811  0.35760  Biso   1.000  H
  C66      1.0000 0.51641  0.77650  0.27399  Biso   1.000  C
  C67      1.0000 0.68842  0.65700  0.32009  Biso   1.000  C
  H93      1.0000 0.62431  0.57279  0.42051  Biso   1.000  H
  H94      1.0000 0.56921  0.60519  0.43601  Biso   1.000  H
  H95      1.0000 0.62781  0.63040  0.45222  Biso   1.000  H
  C68      1.0000 0.50711  0.74739  0.22531  Biso   1.000  C
  C69      1.0000 0.51098  0.83251  0.27371  Biso   1.000  C
  C70      1.0000 0.73731  0.68599  0.30270  Biso   1.000  C
  H96      1.0000 0.67839  0.62439  0.30101  Biso   1.000  H
  H97      1.0000 0.51119  0.70861  0.22490  Biso   1.000  H
  C71      1.0000 0.49231  0.77420  0.17880  Biso   1.000  C
  C72      1.0000 0.49609  0.86101  0.22609  Biso   1.000  C
  H98      1.0000 0.51760  0.85250  0.30660  Biso   1.000  H
  C73      1.0000 0.76639  0.66901  0.25709  Biso   1.000  C
  C74      1.0000 0.75709  0.73361  0.33099  Biso   1.000  C
  C75      1.0000 0.48639  0.83132  0.17802  Biso   1.000  C
  C76      1.0000 0.48240  0.74180  0.12830  Biso   1.000  C
  C77      1.0000 0.48960  0.92142  0.22531  Biso   1.000  C
  H99      1.0000 0.75438  0.63710  0.23801  Biso   1.000  H
  C78      1.0000 0.81401  0.69730  0.23731  Biso   1.000  C
  H100     1.0000 0.73801  0.74562  0.36290  Biso   1.000  H
  C79      1.0000 0.80270  0.76269  0.31401  Biso   1.000  C
  H101     1.0000 0.47590  0.84970  0.14520  Biso   1.000  H
  N15      1.0000 0.46920  0.76215  0.08261  Biso   1.000  N
  H102     1.0000 0.48631  0.70302  0.13048  Biso   1.000  H
  N16      1.0000 0.49622  0.95152  0.26700  Biso   1.000  N
  H103     1.0000 0.47981  0.93848  0.19150  Biso   1.000  H
  C80      1.0000 0.83099  0.74291  0.26639  Biso   1.000  C
  C81      1.0000 0.84300  0.67991  0.18842  Biso   1.000  C
  C82      1.0000 0.82009  0.81158  0.34300  Biso   1.000  C
  C83      1.0000 0.45830  0.72329  0.03841  Biso   1.000  C
  C84      1.0000 0.48688  0.00970  0.26121  Biso   1.000  C
  H104     1.0000 0.86290  0.76199  0.25438  Biso   1.000  H
  N17      1.0000 0.82749  0.64109  0.15848  Biso   1.000  N
  H105     1.0000 0.87561  0.69899  0.17839  Biso   1.000  H
  N18      1.0000 0.85891  0.84152  0.32749  Biso   1.000  N
  H106     1.0000 0.80101  0.82161  0.37561  Biso   1.000  H
  C85      1.0000 0.39769  0.72099  0.02759  Biso   1.000  C
  H107     1.0000 0.41841  0.72300  0.03010  Biso   1.000  H
  H108     1.0000 0.46899  0.68579  0.05029  Biso   1.000  H
  C86      1.0000 0.49030  0.73879  0.98688  Biso   1.000  C
  H109     1.0000 0.45608  0.02101  0.28518  Biso   1.000  H
  H110     1.0000 0.47681  0.01809  0.22272  Biso   1.000  H
  C87      1.0000 0.53841  0.04170  0.27671  Biso   1.000  C
  C88      1.0000 0.43198  0.02800  0.27099  Biso   1.000  C
  C89      1.0000 0.86191  0.62822  0.10971  Biso   1.000  C
  C90      1.0000 0.87178  0.89029  0.36191  Biso   1.000  C
  H111     1.0000 0.37828  0.71182  0.06168  Biso   1.000  H
  H112     1.0000 0.38511  0.75689  0.01419  Biso   1.000  H
  H113     1.0000 0.39008  0.69290  0.99971  Biso   1.000  H
  N19      1.0000 0.54848  0.73300  0.99622  Biso   1.000  N
  H114     1.0000 0.47899  0.71482  0.95608  Biso   1.000  H
  H115     1.0000 0.48191  0.77728  0.97681  Biso   1.000  H
  C91      1.0000 0.47200  0.72901  0.93198  Biso   1.000  C
  N20      1.0000 0.58261  0.03080  0.23785  Biso   1.000  N
  C92      1.0000 0.52759  0.10231  0.27901  Biso   1.000  C
  H116     1.0000 0.53010  0.08159  0.27700  Biso   1.000  H
  H117     1.0000 0.55029  0.03101  0.31421  Biso   1.000  H
  H118     1.0000 0.41060  0.99840  0.28789  Biso   1.000  H
  H119     1.0000 0.41492  0.03882  0.23608  Biso   1.000  H
  H120     1.0000 0.43268  0.05991  0.29591  Biso   1.000  H
  H121     1.0000 0.88219  0.59351  0.11621  Biso   1.000  H
  H122     1.0000 0.88909  0.65791  0.10400  Biso   1.000  H
  C93      1.0000 0.82700  0.62230  0.05950  Biso   1.000  C
  C94      1.0000 0.89070  0.57550  0.10762  Biso   1.000  C
  H123     1.0000 0.90649  0.88379  0.38219  Biso   1.000  H
  H124     1.0000 0.84209  0.89600  0.38909  Biso   1.000  H
  C95      1.0000 0.87770  0.94050  0.32700  Biso   1.000  C
  C96      1.0000 0.92450  0.89238  0.39070  Biso   1.000  C
  C97      1.0000 0.57858  0.77469  0.98960  Biso   1.000  C
  H125     1.0000 0.46118  0.76392  0.91492  Biso   1.000  H
  H126     1.0000 0.44009  0.70409  0.93268  Biso   1.000  H
  H127     1.0000 0.50160  0.71211  0.91060  Biso   1.000  H
  C98      1.0000 0.62830  0.01760  0.25820  Biso   1.000  C
  H128     1.0000 0.56168  0.12172  0.28818  Biso   1.000  H
  H129     1.0000 0.49971  0.10992  0.30710  Biso   1.000  H
  H130     1.0000 0.51419  0.11489  0.24311  Biso   1.000  H
  N21      1.0000 0.80290  0.67501  0.04449  Biso   1.000  N
  C99      1.0000 0.86520  0.60091  0.01559  Biso   1.000  C
  H131     1.0000 0.84970  0.60852  0.02870  Biso   1.000  H
  H132     1.0000 0.79731  0.59532  0.06662  Biso   1.000  H
  H133     1.0000 0.92721  0.57949  0.12431  Biso   1.000  H
  H134     1.0000 0.89481  0.56399  0.06921  Biso   1.000  H
  H135     1.0000 0.86960  0.54778  0.12781  Biso   1.000  H
  N22      1.0000 0.82499  0.95551  0.30290  Biso   1.000  N
  C100     1.0000 0.89909  0.98441  0.36520  Biso   1.000  C
  H136     1.0000 0.89148  0.97130  0.34970  Biso   1.000  H
  H137     1.0000 0.90468  0.93338  0.29731  Biso   1.000  H
  H138     1.0000 0.92051  0.87569  0.42721  Biso   1.000  H
  H139     1.0000 0.93601  0.93079  0.39481  Biso   1.000  H
  H140     1.0000 0.95222  0.87219  0.36960  Biso   1.000  H
  C101     1.0000 0.63899  0.77391  0.99609  Biso   1.000  C
  H141     1.0000 0.56152  0.80850  0.97981  Biso   1.000  H
  C102     1.0000 0.67880  0.00769  0.22580  Biso   1.000  C
  H142     1.0000 0.63048  0.01369  0.29698  Biso   1.000  H
  C103     1.0000 0.75220  0.67559  0.03351  Biso   1.000  C
  H143     1.0000 0.88428  0.56810  0.02932  Biso   1.000  H
  H144     1.0000 0.89222  0.62929  0.00629  Biso   1.000  H
  H145     1.0000 0.84390  0.59129  0.98281  Biso   1.000  H
  C104     1.0000 0.82441  0.96649  0.25220  Biso   1.000  C
  H146     1.0000 0.93190  0.97068  0.38428  Biso   1.000  H
  H147     1.0000 0.87071  0.99371  0.39222  Biso   1.000  H
  H148     1.0000 0.90871  0.01719  0.34390  Biso   1.000  H
  C105     1.0000 0.66749  0.72629  0.01098  Biso   1.000  C
  C106     1.0000 0.66868  0.82198  0.98639  Biso   1.000  C
  C107     1.0000 0.72531  0.99289  0.25261  Biso   1.000  C
  C108     1.0000 0.67802  0.01361  0.16868  Biso   1.000  C
  H149     1.0000 0.73189  0.64240  0.03639  Biso   1.000  H
  C109     1.0000 0.72350  0.72601  0.01641  Biso   1.000  C
  H150     1.0000 0.85760  0.96361  0.23189  Biso   1.000  H
  C110     1.0000 0.77399  0.98359  0.22350  Biso   1.000  C
  H151     1.0000 0.64750  0.69340  0.01760  Biso   1.000  H
  C111     1.0000 0.72580  0.82120  0.99231  Biso   1.000  C
  H152     1.0000 0.65030  0.85480  0.97590  Biso   1.000  H
  H153     1.0000 0.72490  0.98881  0.29139  Biso   1.000  H
  H154     1.0000 0.64520  0.02410  0.15030  Biso   1.000  H
  C112     1.0000 0.72609  0.00391  0.13899  Biso   1.000  C
  C113     1.0000 0.75261  0.77469  0.00711  Biso   1.000  C
  C114     1.0000 0.77371  0.98902  0.16749  Biso   1.000  C
  C115     1.0000 0.75820  0.87170  0.98240  Biso   1.000  C
  C116     1.0000 0.72531  0.01040  0.07858  Biso   1.000  C
  H155     1.0000 0.79139  0.77510  0.01119  Biso   1.000  H
  H156     1.0000 0.80660  0.98240  0.14750  Biso   1.000  H
  N23      1.0000 0.73785  0.91739  0.96920  Biso   1.000  N
  H157     1.0000 0.79698  0.86952  0.98631  Biso   1.000  H
  N24      1.0000 0.76700  0.00378  0.04848  Biso   1.000  N
  H158     1.0000 0.69150  0.02019  0.06152  Biso   1.000  H
  C117     1.0000 0.77671  0.96159  0.95830  Biso   1.000  C
  C118     1.0000 0.76121  0.01312  0.99030  Biso   1.000  C
  C119     1.0000 0.77901  0.97241  0.89769  Biso   1.000  C
  H159     1.0000 0.77700  0.96990  0.91841  Biso   1.000  H
  H160     1.0000 0.81421  0.94971  0.96899  Biso   1.000  H
  H161     1.0000 0.78518  0.04392  0.97899  Biso   1.000  H
  H162     1.0000 0.72272  0.02319  0.98191  Biso   1.000  H
  C120     1.0000 0.77099  0.06802  0.97200  Biso   1.000  C
  H163     1.0000 0.78818  0.93832  0.87828  Biso   1.000  H
  H164     1.0000 0.74311  0.98581  0.88511  Biso   1.000  H
  H165     1.0000 0.80710  0.00029  0.89008  Biso   1.000  H
  H166     1.0000 0.73608  0.08508  0.96118  Biso   1.000  H
  H167     1.0000 0.79591  0.06732  0.94009  Biso   1.000  H
  H168     1.0000 0.78789  0.08940  0.00160  Biso   1.000  H
  C121     1.0000 0.39909  0.51559  0.63480  Biso   1.000  C
  C122     1.0000 0.37770  0.55950  0.67300  Biso   1.000  C
  H169     1.0000 0.40871  0.48281  0.65610  Biso   1.000  H
  H170     1.0000 0.43190  0.52932  0.61572  Biso   1.000  H
  H171     1.0000 0.37071  0.50629  0.60778  Biso   1.000  H
  H172     1.0000 0.39148  0.52870  0.65030  Biso   1.000  H
  N25      1.0000 0.32499  0.54449  0.69710  Biso   1.000  N
  C123     1.0000 0.37178  0.60971  0.63809  Biso   1.000  C
  H173     1.0000 0.40468  0.56662  0.70269  Biso   1.000  H
  C124     1.0000 0.32441  0.53351  0.74780  Biso   1.000  C
  N26      1.0000 0.35891  0.65848  0.67251  Biso   1.000  N
  H174     1.0000 0.40649  0.61621  0.61781  Biso   1.000  H
  H175     1.0000 0.34209  0.60400  0.61091  Biso   1.000  H
  C125     1.0000 0.42450  0.60762  0.60930  Biso   1.000  C
  H176     1.0000 0.35760  0.53639  0.76811  Biso   1.000  H
  C126     1.0000 0.27399  0.51641  0.77650  Biso   1.000  C
  C127     1.0000 0.32009  0.68842  0.65700  Biso   1.000  C
  H177     1.0000 0.42051  0.62431  0.57279  Biso   1.000  H
  H178     1.0000 0.43601  0.56921  0.60519  Biso   1.000  H
  H179     1.0000 0.45222  0.62781  0.63040  Biso   1.000  H
  C128     1.0000 0.22531  0.50711  0.74739  Biso   1.000  C
  C129     1.0000 0.27371  0.51098  0.83251  Biso   1.000  C
  C130     1.0000 0.30270  0.73731  0.68599  Biso   1.000  C
  H180     1.0000 0.30101  0.67839  0.62439  Biso   1.000  H
  H181     1.0000 0.22490  0.51119  0.70861  Biso   1.000  H
  C131     1.0000 0.17880  0.49231  0.77420  Biso   1.000  C
  C132     1.0000 0.22609  0.49609  0.86101  Biso   1.000  C
  H182     1.0000 0.30660  0.51760  0.85250  Biso   1.000  H
  C133     1.0000 0.33099  0.75709  0.73361  Biso   1.000  C
  C134     1.0000 0.25709  0.76639  0.66901  Biso   1.000  C
  C135     1.0000 0.17802  0.48639  0.83132  Biso   1.000  C
  C136     1.0000 0.12830  0.48240  0.74180  Biso   1.000  C
  C137     1.0000 0.22531  0.48960  0.92142  Biso   1.000  C
  H183     1.0000 0.36290  0.73801  0.74562  Biso   1.000  H
  C138     1.0000 0.31401  0.80270  0.76269  Biso   1.000  C
  H184     1.0000 0.23801  0.75438  0.63710  Biso   1.000  H
  C139     1.0000 0.23731  0.81401  0.69730  Biso   1.000  C
  H185     1.0000 0.14520  0.47590  0.84970  Biso   1.000  H
  N27      1.0000 0.08261  0.46920  0.76215  Biso   1.000  N
  H186     1.0000 0.13048  0.48631  0.70302  Biso   1.000  H
  N28      1.0000 0.26700  0.49622  0.95152  Biso   1.000  N
  H187     1.0000 0.19150  0.47981  0.93848  Biso   1.000  H
  C140     1.0000 0.26639  0.83099  0.74291  Biso   1.000  C
  C141     1.0000 0.34300  0.82009  0.81158  Biso   1.000  C
  C142     1.0000 0.18842  0.84300  0.67991  Biso   1.000  C
  C143     1.0000 0.03841  0.45830  0.72329  Biso   1.000  C
  C144     1.0000 0.26121  0.48688  0.00970  Biso   1.000  C
  H188     1.0000 0.25438  0.86290  0.76199  Biso   1.000  H
  N29      1.0000 0.32749  0.85891  0.84152  Biso   1.000  N
  H189     1.0000 0.37561  0.80101  0.82161  Biso   1.000  H
  N30      1.0000 0.15848  0.82749  0.64109  Biso   1.000  N
  H190     1.0000 0.17839  0.87561  0.69899  Biso   1.000  H
  C145     1.0000 0.02759  0.39769  0.72099  Biso   1.000  C
  H191     1.0000 0.03010  0.41841  0.72300  Biso   1.000  H
  H192     1.0000 0.05029  0.46899  0.68579  Biso   1.000  H
  C146     1.0000 0.98688  0.49030  0.73879  Biso   1.000  C
  H193     1.0000 0.28518  0.45608  0.02101  Biso   1.000  H
  H194     1.0000 0.22272  0.47681  0.01809  Biso   1.000  H
  C147     1.0000 0.27671  0.53841  0.04170  Biso   1.000  C
  C148     1.0000 0.27099  0.43198  0.02800  Biso   1.000  C
  C149     1.0000 0.36191  0.87178  0.89029  Biso   1.000  C
  C150     1.0000 0.10971  0.86191  0.62822  Biso   1.000  C
  H195     1.0000 0.06168  0.37828  0.71182  Biso   1.000  H
  H196     1.0000 0.01419  0.38511  0.75689  Biso   1.000  H
  H197     1.0000 0.99971  0.39008  0.69290  Biso   1.000  H
  N31      1.0000 0.99622  0.54848  0.73300  Biso   1.000  N
  H198     1.0000 0.95608  0.47899  0.71482  Biso   1.000  H
  H199     1.0000 0.97681  0.48191  0.77728  Biso   1.000  H
  C151     1.0000 0.93198  0.47200  0.72901  Biso   1.000  C
  N32      1.0000 0.23785  0.58261  0.03080  Biso   1.000  N
  C152     1.0000 0.27901  0.52759  0.10231  Biso   1.000  C
  H200     1.0000 0.27700  0.53010  0.08159  Biso   1.000  H
  H201     1.0000 0.31421  0.55029  0.03101  Biso   1.000  H
  H202     1.0000 0.28789  0.41060  0.99840  Biso   1.000  H
  H203     1.0000 0.23608  0.41492  0.03882  Biso   1.000  H
  H204     1.0000 0.29591  0.43268  0.05991  Biso   1.000  H
  H205     1.0000 0.38219  0.90649  0.88379  Biso   1.000  H
  H206     1.0000 0.38909  0.84209  0.89600  Biso   1.000  H
  C153     1.0000 0.32700  0.87770  0.94050  Biso   1.000  C
  C154     1.0000 0.39070  0.92450  0.89238  Biso   1.000  C
  H207     1.0000 0.11621  0.88219  0.59351  Biso   1.000  H
  H208     1.0000 0.10400  0.88909  0.65791  Biso   1.000  H
  C155     1.0000 0.05950  0.82700  0.62230  Biso   1.000  C
  C156     1.0000 0.10762  0.89070  0.57550  Biso   1.000  C
  C157     1.0000 0.98960  0.57858  0.77469  Biso   1.000  C
  H209     1.0000 0.91492  0.46118  0.76392  Biso   1.000  H
  H210     1.0000 0.93268  0.44009  0.70409  Biso   1.000  H
  H211     1.0000 0.91060  0.50160  0.71211  Biso   1.000  H
  C158     1.0000 0.25820  0.62830  0.01760  Biso   1.000  C
  H212     1.0000 0.28818  0.56168  0.12172  Biso   1.000  H
  H213     1.0000 0.30710  0.49971  0.10992  Biso   1.000  H
  H214     1.0000 0.24311  0.51419  0.11489  Biso   1.000  H
  N33      1.0000 0.30290  0.82499  0.95551  Biso   1.000  N
  C159     1.0000 0.36520  0.89909  0.98441  Biso   1.000  C
  H215     1.0000 0.34970  0.89148  0.97130  Biso   1.000  H
  H216     1.0000 0.29731  0.90468  0.93338  Biso   1.000  H
  H217     1.0000 0.42721  0.92051  0.87569  Biso   1.000  H
  H218     1.0000 0.39481  0.93601  0.93079  Biso   1.000  H
  H219     1.0000 0.36960  0.95222  0.87219  Biso   1.000  H
  N34      1.0000 0.04449  0.80290  0.67501  Biso   1.000  N
  C160     1.0000 0.01559  0.86520  0.60091  Biso   1.000  C
  H220     1.0000 0.02870  0.84970  0.60852  Biso   1.000  H
  H221     1.0000 0.06662  0.79731  0.59532  Biso   1.000  H
  H222     1.0000 0.12431  0.92721  0.57949  Biso   1.000  H
  H223     1.0000 0.06921  0.89481  0.56399  Biso   1.000  H
  H224     1.0000 0.12781  0.86960  0.54778  Biso   1.000  H
  C161     1.0000 0.99609  0.63899  0.77391  Biso   1.000  C
  H225     1.0000 0.97981  0.56152  0.80850  Biso   1.000  H
  C162     1.0000 0.22580  0.67880  0.00769  Biso   1.000  C
  H226     1.0000 0.29698  0.63048  0.01369  Biso   1.000  H
  C163     1.0000 0.25220  0.82441  0.96649  Biso   1.000  C
  H227     1.0000 0.38428  0.93190  0.97068  Biso   1.000  H
  H228     1.0000 0.39222  0.87071  0.99371  Biso   1.000  H
  H229     1.0000 0.34390  0.90871  0.01719  Biso   1.000  H
  C164     1.0000 0.03351  0.75220  0.67559  Biso   1.000  C
  H230     1.0000 0.02932  0.88428  0.56810  Biso   1.000  H
  H231     1.0000 0.00629  0.89222  0.62929  Biso   1.000  H
  H232     1.0000 0.98281  0.84390  0.59129  Biso   1.000  H
  C165     1.0000 0.01098  0.66749  0.72629  Biso   1.000  C
  C166     1.0000 0.98639  0.66868  0.82198  Biso   1.000  C
  C167     1.0000 0.25261  0.72531  0.99289  Biso   1.000  C
  C168     1.0000 0.16868  0.67802  0.01361  Biso   1.000  C
  H233     1.0000 0.23189  0.85760  0.96361  Biso   1.000  H
  C169     1.0000 0.22350  0.77399  0.98359  Biso   1.000  C
  H234     1.0000 0.03639  0.73189  0.64240  Biso   1.000  H
  C170     1.0000 0.01641  0.72350  0.72601  Biso   1.000  C
  H235     1.0000 0.01760  0.64750  0.69340  Biso   1.000  H
  C171     1.0000 0.99231  0.72580  0.82120  Biso   1.000  C
  H236     1.0000 0.97590  0.65030  0.85480  Biso   1.000  H
  H237     1.0000 0.29139  0.72490  0.98881  Biso   1.000  H
  H238     1.0000 0.15030  0.64520  0.02410  Biso   1.000  H
  C172     1.0000 0.13899  0.72609  0.00391  Biso   1.000  C
  C173     1.0000 0.16749  0.77371  0.98902  Biso   1.000  C
  C174     1.0000 0.00711  0.75261  0.77469  Biso   1.000  C
  C175     1.0000 0.98240  0.75820  0.87170  Biso   1.000  C
  C176     1.0000 0.07858  0.72531  0.01040  Biso   1.000  C
  H239     1.0000 0.14750  0.80660  0.98240  Biso   1.000  H
  H240     1.0000 0.01119  0.79139  0.77510  Biso   1.000  H
  N35      1.0000 0.96920  0.73785  0.91739  Biso   1.000  N
  H241     1.0000 0.98631  0.79698  0.86952  Biso   1.000  H
  N36      1.0000 0.04848  0.76700  0.00378  Biso   1.000  N
  H242     1.0000 0.06152  0.69150  0.02019  Biso   1.000  H
  C177     1.0000 0.95830  0.77671  0.96159  Biso   1.000  C
  C178     1.0000 0.99030  0.76121  0.01312  Biso   1.000  C
  C179     1.0000 0.89769  0.77901  0.97241  Biso   1.000  C
  H243     1.0000 0.91841  0.77700  0.96990  Biso   1.000  H
  H244     1.0000 0.96899  0.81421  0.94971  Biso   1.000  H
  H245     1.0000 0.97899  0.78518  0.04392  Biso   1.000  H
  H246     1.0000 0.98191  0.72272  0.02319  Biso   1.000  H
  C180     1.0000 0.97200  0.77099  0.06802  Biso   1.000  C
  H247     1.0000 0.87828  0.78818  0.93832  Biso   1.000  H
  H248     1.0000 0.88511  0.74311  0.98581  Biso   1.000  H
  H249     1.0000 0.89008  0.80710  0.00029  Biso   1.000  H
  H250     1.0000 0.96118  0.73608  0.08508  Biso   1.000  H
  H251     1.0000 0.94009  0.79591  0.06732  Biso   1.000  H
  H252     1.0000 0.00160  0.78789  0.08940  Biso   1.000  H
  C181     1.0000 0.51040  0.42142  0.27469  Biso   1.000  C
  C182     1.0000 0.50391  0.36101  0.27391  Biso   1.000  C
  N37      1.0000 0.50378  0.45152  0.23300  Biso   1.000  N
  H253     1.0000 0.52019  0.43848  0.30850  Biso   1.000  H
  C183     1.0000 0.48902  0.33251  0.22629  Biso   1.000  C
  C184     1.0000 0.51361  0.33132  0.32198  Biso   1.000  C
  C185     1.0000 0.51312  0.50970  0.23879  Biso   1.000  C
  C186     1.0000 0.48359  0.27650  0.22601  Biso   1.000  C
  H254     1.0000 0.48240  0.35250  0.19340  Biso   1.000  H
  C187     1.0000 0.50769  0.27420  0.32120  Biso   1.000  C
  H255     1.0000 0.52410  0.34970  0.35480  Biso   1.000  H
  H256     1.0000 0.54392  0.52101  0.21482  Biso   1.000  H
  H257     1.0000 0.52319  0.51809  0.27728  Biso   1.000  H
  C188     1.0000 0.46159  0.54170  0.22329  Biso   1.000  C
  C189     1.0000 0.56802  0.52800  0.22901  Biso   1.000  C
  C190     1.0000 0.46649  0.24780  0.17559  Biso   1.000  C
  C191     1.0000 0.49289  0.24739  0.27469  Biso   1.000  C
  C192     1.0000 0.51760  0.24180  0.37170  Biso   1.000  C
  N38      1.0000 0.41739  0.53080  0.26215  Biso   1.000  N
  C193     1.0000 0.47241  0.60231  0.22099  Biso   1.000  C
  H258     1.0000 0.46990  0.58159  0.22300  Biso   1.000  H
  H259     1.0000 0.44971  0.53101  0.18579  Biso   1.000  H
  H260     1.0000 0.58508  0.53882  0.26392  Biso   1.000  H
  H261     1.0000 0.56732  0.55991  0.20409  Biso   1.000  H
  H262     1.0000 0.58940  0.49840  0.21211  Biso   1.000  H
  N39      1.0000 0.45551  0.19710  0.17501  Biso   1.000  N
  H263     1.0000 0.46361  0.26811  0.14240  Biso   1.000  H
  H264     1.0000 0.48881  0.20861  0.27510  Biso   1.000  H
  N40      1.0000 0.53080  0.26215  0.41739  Biso   1.000  N
  H265     1.0000 0.51369  0.20302  0.36952  Biso   1.000  H
  C194     1.0000 0.37170  0.51760  0.24180  Biso   1.000  C
  H266     1.0000 0.43832  0.62172  0.21182  Biso   1.000  H
  H267     1.0000 0.50029  0.60992  0.19290  Biso   1.000  H
  H268     1.0000 0.48581  0.61489  0.25689  Biso   1.000  H
  C195     1.0000 0.44050  0.17300  0.12230  Biso   1.000  C
  C196     1.0000 0.54170  0.22329  0.46159  Biso   1.000  C
  C197     1.0000 0.32120  0.50769  0.27420  Biso   1.000  C
  H269     1.0000 0.36952  0.51369  0.20302  Biso   1.000  H
  C198     1.0000 0.39029  0.13809  0.12822  Biso   1.000  C
  C199     1.0000 0.48441  0.13480  0.10091  Biso   1.000  C
  H270     1.0000 0.47130  0.15030  0.10852  Biso   1.000  H
  H271     1.0000 0.43338  0.20269  0.09532  Biso   1.000  H
  C200     1.0000 0.50970  0.23879  0.51312  Biso   1.000  C
  C201     1.0000 0.60231  0.22099  0.47241  Biso   1.000  C
  H272     1.0000 0.58159  0.22300  0.46990  Biso   1.000  H
  H273     1.0000 0.53101  0.18579  0.44971  Biso   1.000  H
  C202     1.0000 0.27469  0.49289  0.24739  Biso   1.000  C
  C203     1.0000 0.32198  0.51361  0.33132  Biso   1.000  C
  N41      1.0000 0.34152  0.17251  0.14109  Biso   1.000  N
  H274     1.0000 0.38379  0.11781  0.09351  Biso   1.000  H
  H275     1.0000 0.39600  0.11091  0.15791  Biso   1.000  H
  C204     1.0000 0.39238  0.10930  0.07550  Biso   1.000  C
  H276     1.0000 0.51719  0.15610  0.09129  Biso   1.000  H
  H277     1.0000 0.47068  0.11572  0.06810  Biso   1.000  H
  H278     1.0000 0.49371  0.10778  0.12929  Biso   1.000  H
  N42      1.0000 0.45152  0.23300  0.50378  Biso   1.000  N
  H279     1.0000 0.52101  0.21482  0.54392  Biso   1.000  H
  H280     1.0000 0.51809  0.27728  0.52319  Biso   1.000  H
  C205     1.0000 0.52800  0.22901  0.56802  Biso   1.000  C
  H281     1.0000 0.62172  0.21182  0.43832  Biso   1.000  H
  H282     1.0000 0.60992  0.19290  0.50029  Biso   1.000  H
  H283     1.0000 0.61489  0.25689  0.48581  Biso   1.000  H
  C206     1.0000 0.22601  0.48359  0.27650  Biso   1.000  C
  H284     1.0000 0.27510  0.48881  0.20861  Biso   1.000  H
  C207     1.0000 0.27391  0.50391  0.36101  Biso   1.000  C
  H285     1.0000 0.35480  0.52410  0.34970  Biso   1.000  H
  C208     1.0000 0.31158  0.15700  0.17991  Biso   1.000  C
  H286     1.0000 0.37569  0.07279  0.07949  Biso   1.000  H
  H287     1.0000 0.43079  0.10519  0.06399  Biso   1.000  H
  H288     1.0000 0.37219  0.13040  0.04778  Biso   1.000  H
  C209     1.0000 0.42142  0.27469  0.51040  Biso   1.000  C
  H289     1.0000 0.53882  0.26392  0.58508  Biso   1.000  H
  H290     1.0000 0.55991  0.20409  0.56732  Biso   1.000  H
  H291     1.0000 0.49840  0.21211  0.58940  Biso   1.000  H
  C210     1.0000 0.17559  0.46649  0.24780  Biso   1.000  C
  C211     1.0000 0.22629  0.48902  0.33251  Biso   1.000  C
  C212     1.0000 0.27469  0.51040  0.42142  Biso   1.000  C
  C213     1.0000 0.26269  0.18599  0.19730  Biso   1.000  C
  H292     1.0000 0.32161  0.12439  0.19899  Biso   1.000  H
  C214     1.0000 0.36101  0.27391  0.50391  Biso   1.000  C
  H293     1.0000 0.43848  0.30850  0.52019  Biso   1.000  H
  N43      1.0000 0.17501  0.45551  0.19710  Biso   1.000  N
  H294     1.0000 0.14240  0.46361  0.26811  Biso   1.000  H
  H295     1.0000 0.19340  0.48240  0.35250  Biso   1.000  H
  N44      1.0000 0.23300  0.50378  0.45152  Biso   1.000  N
  H296     1.0000 0.30850  0.52019  0.43848  Biso   1.000  H
  C215     1.0000 0.23361  0.16901  0.24291  Biso   1.000  C
  C216     1.0000 0.24291  0.23361  0.16901  Biso   1.000  C
  C217     1.0000 0.33251  0.22629  0.48902  Biso   1.000  C
  C218     1.0000 0.33132  0.32198  0.51361  Biso   1.000  C
  C219     1.0000 0.12230  0.44050  0.17300  Biso   1.000  C
  C220     1.0000 0.23879  0.51312  0.50970  Biso   1.000  C
  H297     1.0000 0.24562  0.13710  0.26199  Biso   1.000  H
  C221     1.0000 0.18599  0.19730  0.26269  Biso   1.000  C
  H298     1.0000 0.26199  0.24562  0.13710  Biso   1.000  H
  C222     1.0000 0.19730  0.26269  0.18599  Biso   1.000  C
  C223     1.0000 0.27650  0.22601  0.48359  Biso   1.000  C
  H299     1.0000 0.35250  0.19340  0.48240  Biso   1.000  H
  C224     1.0000 0.27420  0.32120  0.50769  Biso   1.000  C
  H300     1.0000 0.34970  0.35480  0.52410  Biso   1.000  H
  C225     1.0000 0.12822  0.39029  0.13809  Biso   1.000  C
  C226     1.0000 0.10091  0.48441  0.13480  Biso   1.000  C
  H301     1.0000 0.10852  0.47130  0.15030  Biso   1.000  H
  H302     1.0000 0.09532  0.43338  0.20269  Biso   1.000  H
  C227     1.0000 0.22329  0.46159  0.54170  Biso   1.000  C
  H303     1.0000 0.21482  0.54392  0.52101  Biso   1.000  H
  H304     1.0000 0.27728  0.52319  0.51809  Biso   1.000  H
  C228     1.0000 0.22901  0.56802  0.52800  Biso   1.000  C
  C229     1.0000 0.16901  0.24291  0.23361  Biso   1.000  C
  C230     1.0000 0.15700  0.17991  0.31158  Biso   1.000  C
  C231     1.0000 0.17991  0.31158  0.15700  Biso   1.000  C
  C232     1.0000 0.24780  0.17559  0.46649  Biso   1.000  C
  C233     1.0000 0.24739  0.27469  0.49289  Biso   1.000  C
  C234     1.0000 0.24180  0.37170  0.51760  Biso   1.000  C
  N45      1.0000 0.14109  0.34152  0.17251  Biso   1.000  N
  H305     1.0000 0.09351  0.38379  0.11781  Biso   1.000  H
  H306     1.0000 0.15791  0.39600  0.11091  Biso   1.000  H
  C235     1.0000 0.07550  0.39238  0.10930  Biso   1.000  C
  H307     1.0000 0.09129  0.51719  0.15610  Biso   1.000  H
  H308     1.0000 0.06810  0.47068  0.11572  Biso   1.000  H
  H309     1.0000 0.12929  0.49371  0.10778  Biso   1.000  H
  N46      1.0000 0.26215  0.41739  0.53080  Biso   1.000  N
  C236     1.0000 0.22099  0.47241  0.60231  Biso   1.000  C
  H310     1.0000 0.22300  0.46990  0.58159  Biso   1.000  H
  H311     1.0000 0.18579  0.44971  0.53101  Biso   1.000  H
  H312     1.0000 0.26392  0.58508  0.53882  Biso   1.000  H
  H313     1.0000 0.20409  0.56732  0.55991  Biso   1.000  H
  H314     1.0000 0.21211  0.58940  0.49840  Biso   1.000  H
  H315     1.0000 0.13710  0.26199  0.24562  Biso   1.000  H
  N47      1.0000 0.17251  0.14109  0.34152  Biso   1.000  N
  H316     1.0000 0.12439  0.19899  0.32161  Biso   1.000  H
  H317     1.0000 0.19899  0.32161  0.12439  Biso   1.000  H
  N48      1.0000 0.19710  0.17501  0.45551  Biso   1.000  N
  H318     1.0000 0.26811  0.14240  0.46361  Biso   1.000  H
  H319     1.0000 0.20861  0.27510  0.48881  Biso   1.000  H
  H320     1.0000 0.20302  0.36952  0.51369  Biso   1.000  H
  H321     1.0000 0.07949  0.37569  0.07279  Biso   1.000  H
  H322     1.0000 0.06399  0.43079  0.10519  Biso   1.000  H
  H323     1.0000 0.04778  0.37219  0.13040  Biso   1.000  H
  H324     1.0000 0.21182  0.43832  0.62172  Biso   1.000  H
  H325     1.0000 0.19290  0.50029  0.60992  Biso   1.000  H
  H326     1.0000 0.25689  0.48581  0.61489  Biso   1.000  H
  C237     1.0000 0.13809  0.12822  0.39029  Biso   1.000  C
  C238     1.0000 0.17300  0.12230  0.44050  Biso   1.000  C
  H327     1.0000 0.11781  0.09351  0.38379  Biso   1.000  H
  H328     1.0000 0.11091  0.15791  0.39600  Biso   1.000  H
  C239     1.0000 0.10930  0.07550  0.39238  Biso   1.000  C
  C240     1.0000 0.13480  0.10091  0.48441  Biso   1.000  C
  H329     1.0000 0.15030  0.10852  0.47130  Biso   1.000  H
  H330     1.0000 0.20269  0.09532  0.43338  Biso   1.000  H
  H331     1.0000 0.07279  0.07949  0.37569  Biso   1.000  H
  H332     1.0000 0.10519  0.06399  0.43079  Biso   1.000  H
  H333     1.0000 0.13040  0.04778  0.37219  Biso   1.000  H
  H334     1.0000 0.15610  0.09129  0.51719  Biso   1.000  H
  H335     1.0000 0.11572  0.06810  0.47068  Biso   1.000  H
  H336     1.0000 0.10778  0.12929  0.49371  Biso   1.000  H
  C241     1.0000 0.74990  0.52151  0.44140  Biso   1.000  C
  C242     1.0000 0.73649  0.48849  0.39370  Biso   1.000  C
  C243     1.0000 0.74570  0.57871  0.44148  Biso   1.000  C
  C244     1.0000 0.76680  0.49511  0.48988  Biso   1.000  C
  N49      1.0000 0.72202  0.50810  0.34801  Biso   1.000  N
  H337     1.0000 0.73879  0.44958  0.39711  Biso   1.000  H
  C245     1.0000 0.75771  0.60959  0.48779  Biso   1.000  C
  H338     1.0000 0.73439  0.59701  0.40892  Biso   1.000  H
  C246     1.0000 0.77979  0.52471  0.53680  Biso   1.000  C
  H339     1.0000 0.76939  0.45621  0.49058  Biso   1.000  H
  C247     1.0000 0.70758  0.46969  0.30401  Biso   1.000  C
  C248     1.0000 0.77469  0.58109  0.53631  Biso   1.000  C
  C249     1.0000 0.75290  0.66839  0.48581  Biso   1.000  C
  C250     1.0000 0.79752  0.49560  0.58701  Biso   1.000  C
  C251     1.0000 0.64639  0.47829  0.28909  Biso   1.000  C
  H340     1.0000 0.66790  0.47290  0.29542  Biso   1.000  H
  C252     1.0000 0.74089  0.48248  0.25380  Biso   1.000  C
  H341     1.0000 0.71498  0.43149  0.31610  Biso   1.000  H
  H342     1.0000 0.78259  0.60141  0.56880  Biso   1.000  H
  N50      1.0000 0.76199  0.69919  0.52599  Biso   1.000  N
  H343     1.0000 0.74221  0.68488  0.45201  Biso   1.000  H
  N51      1.0000 0.80381  0.44502  0.58792  Biso   1.000  N
  H344     1.0000 0.80422  0.51620  0.61958  Biso   1.000  H
  H345     1.0000 0.62328  0.46788  0.32050  Biso   1.000  H
  H346     1.0000 0.63689  0.45530  0.25730  Biso   1.000  H
  H347     1.0000 0.64002  0.51698  0.28008  Biso   1.000  H
  N52      1.0000 0.80081  0.47401  0.26199  Biso   1.000  N
  C253     1.0000 0.72502  0.43548  0.21749  Biso   1.000  C
  H348     1.0000 0.72818  0.45880  0.22321  Biso   1.000  H
  H349     1.0000 0.73431  0.52122  0.24299  Biso   1.000  H
  C254     1.0000 0.75380  0.75911  0.51752  Biso   1.000  C
  C255     1.0000 0.81939  0.41969  0.63969  Biso   1.000  C
  C256     1.0000 0.83161  0.51419  0.25290  Biso   1.000  C
  H350     1.0000 0.75701  0.42360  0.19611  Biso   1.000  H
  H351     1.0000 0.69562  0.44720  0.19249  Biso   1.000  H
  H352     1.0000 0.71182  0.40489  0.24019  Biso   1.000  H
  C257     1.0000 0.80401  0.79242  0.53031  Biso   1.000  C
  C258     1.0000 0.71749  0.77498  0.56452  Biso   1.000  C
  H353     1.0000 0.72321  0.77182  0.54120  Biso   1.000  H
  H354     1.0000 0.74299  0.76569  0.47878  Biso   1.000  H
  C259     1.0000 0.86829  0.38280  0.63171  Biso   1.000  C
  C260     1.0000 0.79698  0.38161  0.66901  Biso   1.000  C
  H355     1.0000 0.78810  0.39789  0.65421  Biso   1.000  H
  H356     1.0000 0.82840  0.44860  0.66691  Biso   1.000  H
  C261     1.0000 0.89041  0.51221  0.25771  Biso   1.000  C
  H357     1.0000 0.81512  0.54799  0.24221  Biso   1.000  H
  N53      1.0000 0.84801  0.77798  0.49190  Biso   1.000  N
  H358     1.0000 0.79542  0.83210  0.52710  Biso   1.000  H
  H359     1.0000 0.81610  0.78502  0.56851  Biso   1.000  H
  C262     1.0000 0.78909  0.85361  0.52171  Biso   1.000  C
  H360     1.0000 0.69611  0.74299  0.57640  Biso   1.000  H
  H361     1.0000 0.69249  0.80438  0.55280  Biso   1.000  H
  H362     1.0000 0.74019  0.78818  0.59511  Biso   1.000  H
  N54      1.0000 0.91578  0.41632  0.61629  Biso   1.000  N
  H363     1.0000 0.87618  0.36261  0.66621  Biso   1.000  H
  H364     1.0000 0.86051  0.35558  0.60252  Biso   1.000  H
  C263     1.0000 0.88021  0.35221  0.68579  Biso   1.000  C
  H365     1.0000 0.76129  0.39440  0.68242  Biso   1.000  H
  H366     1.0000 0.82091  0.37248  0.69981  Biso   1.000  H
  H367     1.0000 0.79151  0.34880  0.64582  Biso   1.000  H
  C264     1.0000 0.91891  0.46369  0.27469  Biso   1.000  C
  C265     1.0000 0.92129  0.55852  0.24570  Biso   1.000  C
  C266     1.0000 0.89370  0.76351  0.51151  Biso   1.000  C
  H368     1.0000 0.82050  0.87672  0.53212  Biso   1.000  H
  H369     1.0000 0.75730  0.86311  0.54470  Biso   1.000  H
  H370     1.0000 0.78008  0.85998  0.48302  Biso   1.000  H
  C267     1.0000 0.93951  0.40600  0.57110  Biso   1.000  C
  H371     1.0000 0.91410  0.33070  0.68188  Biso   1.000  H
  H372     1.0000 0.84949  0.32749  0.69430  Biso   1.000  H
  H373     1.0000 0.88469  0.37890  0.71560  Biso   1.000  H
  C268     1.0000 0.97529  0.46320  0.27979  Biso   1.000  C
  H374     1.0000 0.89859  0.43120  0.28259  Biso   1.000  H
  H375     1.0000 0.90299  0.59108  0.23439  Biso   1.000  H
  C269     1.0000 0.97849  0.55860  0.24990  Biso   1.000  C
  C270     1.0000 0.94140  0.75010  0.47849  Biso   1.000  C
  H376     1.0000 0.89711  0.76121  0.55042  Biso   1.000  H
  C271     1.0000 0.98709  0.43700  0.55190  Biso   1.000  C
  H377     1.0000 0.92561  0.37709  0.54881  Biso   1.000  H
  C272     1.0000 0.00440  0.41299  0.29752  Biso   1.000  C
  C273     1.0000 0.00489  0.51012  0.26680  Biso   1.000  C
  C274     1.0000 0.01151  0.60630  0.23649  Biso   1.000  C
  C275     1.0000 0.94148  0.75430  0.42129  Biso   1.000  C
  C276     1.0000 0.98988  0.73320  0.50489  Biso   1.000  C
  C277     1.0000 0.01612  0.41899  0.50580  Biso   1.000  C
  C278     1.0000 0.00580  0.48388  0.58101  Biso   1.000  C
  H378     1.0000 0.98380  0.38042  0.30422  Biso   1.000  H
  N55      1.0000 0.05498  0.41208  0.30381  Biso   1.000  N
  H379     1.0000 0.04379  0.50942  0.26939  Biso   1.000  H
  N56      1.0000 0.99190  0.65199  0.22202  Biso   1.000  N
  H380     1.0000 0.05042  0.60289  0.23879  Biso   1.000  H
  C279     1.0000 0.98779  0.74229  0.39041  Biso   1.000  C
  H381     1.0000 0.90892  0.76561  0.40299  Biso   1.000  H
  H382     1.0000 0.99058  0.73061  0.54379  Biso   1.000  H
  C280     1.0000 0.03680  0.72021  0.47529  Biso   1.000  C
  C281     1.0000 0.06300  0.44810  0.48709  Biso   1.000  C
  H383     1.0000 0.00432  0.38700  0.48672  Biso   1.000  H
  H384     1.0000 0.98672  0.49568  0.61300  Biso   1.000  H
  C282     1.0000 0.05190  0.51291  0.56300  Biso   1.000  C
  C283     1.0000 0.08031  0.36031  0.31939  Biso   1.000  C
  C284     1.0000 0.03031  0.69599  0.20758  Biso   1.000  C
  C285     1.0000 0.98581  0.74710  0.33161  Biso   1.000  C
  C286     1.0000 0.03631  0.72531  0.41891  Biso   1.000  C
  C287     1.0000 0.08701  0.70248  0.50440  Biso   1.000  C
  C288     1.0000 0.09400  0.42890  0.43951  Biso   1.000  C
  C289     1.0000 0.08101  0.49420  0.51612  Biso   1.000  C
  C290     1.0000 0.07110  0.56049  0.59400  Biso   1.000  C
  C291     1.0000 0.11720  0.36829  0.36829  Biso   1.000  C
  C292     1.0000 0.11839  0.33099  0.29698  Biso   1.000  C
  H385     1.0000 0.10211  0.34579  0.28810  Biso   1.000  H
  H386     1.0000 0.05140  0.33309  0.32840  Biso   1.000  H
  C293     1.0000 0.01752  0.74620  0.24089  Biso   1.000  C
  H387     1.0000 0.02710  0.70458  0.16790  Biso   1.000  H
  H388     1.0000 0.06851  0.68390  0.21498  Biso   1.000  H
  C294     1.0000 0.02171  0.71091  0.14639  Biso   1.000  C
  N57      1.0000 0.02599  0.73801  0.30081  Biso   1.000  N
  H389     1.0000 0.95201  0.75779  0.31512  Biso   1.000  H
  H390     1.0000 0.06880  0.71741  0.39859  Biso   1.000  H
  N58      1.0000 0.08792  0.69619  0.55498  Biso   1.000  N
  H391     1.0000 0.11958  0.69578  0.48380  Biso   1.000  H
  N59      1.0000 0.08368  0.38371  0.41578  Biso   1.000  N
  H392     1.0000 0.12291  0.45119  0.42561  Biso   1.000  H
  H393     1.0000 0.11300  0.51328  0.50432  Biso   1.000  H
  N60      1.0000 0.11629  0.58422  0.58368  Biso   1.000  N
  H394     1.0000 0.04881  0.57439  0.62291  Biso   1.000  H
  H395     1.0000 0.13739  0.33379  0.37618  Biso   1.000  H
  H396     1.0000 0.14442  0.39748  0.36051  Biso   1.000  H
  C295     1.0000 0.14779  0.31421  0.38021  Biso   1.000  C
  H397     1.0000 0.10560  0.31758  0.26129  Biso   1.000  H
  H398     1.0000 0.12752  0.30019  0.32091  Biso   1.000  H
  H399     1.0000 0.15120  0.35418  0.29151  Biso   1.000  H
  H400     1.0000 0.97878  0.75701  0.23431  Biso   1.000  H
  C296     1.0000 0.06452  0.78251  0.22502  Biso   1.000  C
  H401     1.0000 0.04120  0.77679  0.22818  Biso   1.000  H
  H402     1.0000 0.98302  0.71992  0.14002  Biso   1.000  H
  H403     1.0000 0.03212  0.67950  0.12328  Biso   1.000  H
  H404     1.0000 0.04470  0.74270  0.13689  Biso   1.000  H
  C297     1.0000 0.13969  0.68061  0.58031  Biso   1.000  C
  C298     1.0000 0.13171  0.63171  0.61720  Biso   1.000  C
  H405     1.0000 0.16930  0.31812  0.41410  Biso   1.000  H
  H406     1.0000 0.17251  0.30570  0.34949  Biso   1.000  H
  H407     1.0000 0.12110  0.28440  0.38469  Biso   1.000  H
  H408     1.0000 0.07640  0.80389  0.25701  Biso   1.000  H
  H409     1.0000 0.05280  0.80751  0.19562  Biso   1.000  H
  H410     1.0000 0.09511  0.75981  0.21182  Biso   1.000  H
  C299     1.0000 0.16901  0.70302  0.61839  Biso   1.000  C
  H411     1.0000 0.15421  0.71190  0.60211  Biso   1.000  H
  H412     1.0000 0.16691  0.67160  0.55140  Biso   1.000  H
  H413     1.0000 0.16621  0.62382  0.63739  Biso   1.000  H
  H414     1.0000 0.10252  0.63949  0.64442  Biso   1.000  H
  C300     1.0000 0.18579  0.61979  0.64779  Biso   1.000  C
  H415     1.0000 0.18242  0.73871  0.60560  Biso   1.000  H
  H416     1.0000 0.19981  0.67909  0.62752  Biso   1.000  H
  H417     1.0000 0.14582  0.70849  0.65120  Biso   1.000  H
  H418     1.0000 0.18188  0.58590  0.66930  Biso   1.000  H
  H419     1.0000 0.19430  0.65051  0.67251  Biso   1.000  H
  H420     1.0000 0.21560  0.61531  0.62110  Biso   1.000  H
  C301     1.0000 0.52151  0.44140  0.74990  Biso   1.000  C
  C302     1.0000 0.48849  0.39370  0.73649  Biso   1.000  C
  C303     1.0000 0.57871  0.44148  0.74570  Biso   1.000  C
  C304     1.0000 0.49511  0.48988  0.76680  Biso   1.000  C
  N61      1.0000 0.50810  0.34801  0.72202  Biso   1.000  N
  H421     1.0000 0.44958  0.39711  0.73879  Biso   1.000  H
  C305     1.0000 0.60959  0.48779  0.75771  Biso   1.000  C
  H422     1.0000 0.59701  0.40892  0.73439  Biso   1.000  H
  C306     1.0000 0.52471  0.53680  0.77979  Biso   1.000  C
  H423     1.0000 0.45621  0.49058  0.76939  Biso   1.000  H
  C307     1.0000 0.46969  0.30401  0.70758  Biso   1.000  C
  C308     1.0000 0.58109  0.53631  0.77469  Biso   1.000  C
  C309     1.0000 0.66839  0.48581  0.75290  Biso   1.000  C
  C310     1.0000 0.49560  0.58701  0.79752  Biso   1.000  C
  C311     1.0000 0.47829  0.28909  0.64639  Biso   1.000  C
  H424     1.0000 0.47290  0.29542  0.66790  Biso   1.000  H
  C312     1.0000 0.48248  0.25380  0.74089  Biso   1.000  C
  H425     1.0000 0.43149  0.31610  0.71498  Biso   1.000  H
  H426     1.0000 0.60141  0.56880  0.78259  Biso   1.000  H
  N62      1.0000 0.69919  0.52599  0.76199  Biso   1.000  N
  H427     1.0000 0.68488  0.45201  0.74221  Biso   1.000  H
  N63      1.0000 0.44502  0.58792  0.80381  Biso   1.000  N
  H428     1.0000 0.51620  0.61958  0.80422  Biso   1.000  H
  H429     1.0000 0.46788  0.32050  0.62328  Biso   1.000  H
  H430     1.0000 0.45530  0.25730  0.63689  Biso   1.000  H
  H431     1.0000 0.51698  0.28008  0.64002  Biso   1.000  H
  N64      1.0000 0.47401  0.26199  0.80081  Biso   1.000  N
  C313     1.0000 0.43548  0.21749  0.72502  Biso   1.000  C
  H432     1.0000 0.45880  0.22321  0.72818  Biso   1.000  H
  H433     1.0000 0.52122  0.24299  0.73431  Biso   1.000  H
  C314     1.0000 0.75911  0.51752  0.75380  Biso   1.000  C
  C315     1.0000 0.41969  0.63969  0.81939  Biso   1.000  C
  C316     1.0000 0.51419  0.25290  0.83161  Biso   1.000  C
  H434     1.0000 0.42360  0.19611  0.75701  Biso   1.000  H
  H435     1.0000 0.44720  0.19249  0.69562  Biso   1.000  H
  H436     1.0000 0.40489  0.24019  0.71182  Biso   1.000  H
  C317     1.0000 0.79242  0.53031  0.80401  Biso   1.000  C
  C318     1.0000 0.77498  0.56452  0.71749  Biso   1.000  C
  H437     1.0000 0.77182  0.54120  0.72321  Biso   1.000  H
  H438     1.0000 0.76569  0.47878  0.74299  Biso   1.000  H
  C319     1.0000 0.38280  0.63171  0.86829  Biso   1.000  C
  C320     1.0000 0.38161  0.66901  0.79698  Biso   1.000  C
  H439     1.0000 0.39789  0.65421  0.78810  Biso   1.000  H
  H440     1.0000 0.44860  0.66691  0.82840  Biso   1.000  H
  C321     1.0000 0.51221  0.25771  0.89041  Biso   1.000  C
  H441     1.0000 0.54799  0.24221  0.81512  Biso   1.000  H
  N65      1.0000 0.77798  0.49190  0.84801  Biso   1.000  N
  H442     1.0000 0.83210  0.52710  0.79542  Biso   1.000  H
  H443     1.0000 0.78502  0.56851  0.81610  Biso   1.000  H
  C322     1.0000 0.85361  0.52171  0.78909  Biso   1.000  C
  H444     1.0000 0.74299  0.57640  0.69611  Biso   1.000  H
  H445     1.0000 0.80438  0.55280  0.69249  Biso   1.000  H
  H446     1.0000 0.78818  0.59511  0.74019  Biso   1.000  H
  N66      1.0000 0.41632  0.61629  0.91578  Biso   1.000  N
  H447     1.0000 0.36261  0.66621  0.87618  Biso   1.000  H
  H448     1.0000 0.35558  0.60252  0.86051  Biso   1.000  H
  C323     1.0000 0.35221  0.68579  0.88021  Biso   1.000  C
  H449     1.0000 0.39440  0.68242  0.76129  Biso   1.000  H
  H450     1.0000 0.37248  0.69981  0.82091  Biso   1.000  H
  H451     1.0000 0.34880  0.64582  0.79151  Biso   1.000  H
  C324     1.0000 0.46369  0.27469  0.91891  Biso   1.000  C
  C325     1.0000 0.55852  0.24570  0.92129  Biso   1.000  C
  C326     1.0000 0.76351  0.51151  0.89370  Biso   1.000  C
  H452     1.0000 0.87672  0.53212  0.82050  Biso   1.000  H
  H453     1.0000 0.86311  0.54470  0.75730  Biso   1.000  H
  H454     1.0000 0.85998  0.48302  0.78008  Biso   1.000  H
  C327     1.0000 0.40600  0.57110  0.93951  Biso   1.000  C
  H455     1.0000 0.33070  0.68188  0.91410  Biso   1.000  H
  H456     1.0000 0.32749  0.69430  0.84949  Biso   1.000  H
  H457     1.0000 0.37890  0.71560  0.88469  Biso   1.000  H
  C328     1.0000 0.46320  0.27979  0.97529  Biso   1.000  C
  H458     1.0000 0.43120  0.28259  0.89859  Biso   1.000  H
  H459     1.0000 0.59108  0.23439  0.90299  Biso   1.000  H
  C329     1.0000 0.55860  0.24990  0.97849  Biso   1.000  C
  C330     1.0000 0.75010  0.47849  0.94140  Biso   1.000  C
  H460     1.0000 0.76121  0.55042  0.89711  Biso   1.000  H
  C331     1.0000 0.43700  0.55190  0.98709  Biso   1.000  C
  H461     1.0000 0.37709  0.54881  0.92561  Biso   1.000  H
  C332     1.0000 0.41299  0.29752  0.00440  Biso   1.000  C
  C333     1.0000 0.51012  0.26680  0.00489  Biso   1.000  C
  C334     1.0000 0.60630  0.23649  0.01151  Biso   1.000  C
  C335     1.0000 0.75430  0.42129  0.94148  Biso   1.000  C
  C336     1.0000 0.73320  0.50489  0.98988  Biso   1.000  C
  C337     1.0000 0.48388  0.58101  0.00580  Biso   1.000  C
  C338     1.0000 0.41899  0.50580  0.01612  Biso   1.000  C
  H462     1.0000 0.38042  0.30422  0.98380  Biso   1.000  H
  N67      1.0000 0.41208  0.30381  0.05498  Biso   1.000  N
  H463     1.0000 0.50942  0.26939  0.04379  Biso   1.000  H
  N68      1.0000 0.65199  0.22202  0.99190  Biso   1.000  N
  H464     1.0000 0.60289  0.23879  0.05042  Biso   1.000  H
  C339     1.0000 0.74229  0.39041  0.98779  Biso   1.000  C
  H465     1.0000 0.76561  0.40299  0.90892  Biso   1.000  H
  H466     1.0000 0.73061  0.54379  0.99058  Biso   1.000  H
  C340     1.0000 0.72021  0.47529  0.03680  Biso   1.000  C
  H467     1.0000 0.49568  0.61300  0.98672  Biso   1.000  H
  C341     1.0000 0.51291  0.56300  0.05190  Biso   1.000  C
  C342     1.0000 0.44810  0.48709  0.06300  Biso   1.000  C
  H468     1.0000 0.38700  0.48672  0.00432  Biso   1.000  H
  C343     1.0000 0.36031  0.31939  0.08031  Biso   1.000  C
  C344     1.0000 0.69599  0.20758  0.03031  Biso   1.000  C
  C345     1.0000 0.74710  0.33161  0.98581  Biso   1.000  C
  C346     1.0000 0.72531  0.41891  0.03631  Biso   1.000  C
  C347     1.0000 0.70248  0.50440  0.08701  Biso   1.000  C
  C348     1.0000 0.49420  0.51612  0.08101  Biso   1.000  C
  C349     1.0000 0.56049  0.59400  0.07110  Biso   1.000  C
  C350     1.0000 0.42890  0.43951  0.09400  Biso   1.000  C
  C351     1.0000 0.36829  0.36829  0.11720  Biso   1.000  C
  C352     1.0000 0.33099  0.29698  0.11839  Biso   1.000  C
  H469     1.0000 0.34579  0.28810  0.10211  Biso   1.000  H
  H470     1.0000 0.33309  0.32840  0.05140  Biso   1.000  H
  C353     1.0000 0.74620  0.24089  0.01752  Biso   1.000  C
  H471     1.0000 0.70458  0.16790  0.02710  Biso   1.000  H
  H472     1.0000 0.68390  0.21498  0.06851  Biso   1.000  H
  C354     1.0000 0.71091  0.14639  0.02171  Biso   1.000  C
  N69      1.0000 0.73801  0.30081  0.02599  Biso   1.000  N
  H473     1.0000 0.75779  0.31512  0.95201  Biso   1.000  H
  H474     1.0000 0.71741  0.39859  0.06880  Biso   1.000  H
  N70      1.0000 0.69619  0.55498  0.08792  Biso   1.000  N
  H475     1.0000 0.69578  0.48380  0.11958  Biso   1.000  H
  H476     1.0000 0.51328  0.50432  0.11300  Biso   1.000  H
  N71      1.0000 0.58422  0.58368  0.11629  Biso   1.000  N
  H477     1.0000 0.57439  0.62291  0.04881  Biso   1.000  H
  N72      1.0000 0.38371  0.41578  0.08368  Biso   1.000  N
  H478     1.0000 0.45119  0.42561  0.12291  Biso   1.000  H
  H479     1.0000 0.33379  0.37618  0.13739  Biso   1.000  H
  H480     1.0000 0.39748  0.36051  0.14442  Biso   1.000  H
  C355     1.0000 0.31421  0.38021  0.14779  Biso   1.000  C
  H481     1.0000 0.31758  0.26129  0.10560  Biso   1.000  H
  H482     1.0000 0.30019  0.32091  0.12752  Biso   1.000  H
  H483     1.0000 0.35418  0.29151  0.15120  Biso   1.000  H
  H484     1.0000 0.75701  0.23431  0.97878  Biso   1.000  H
  C356     1.0000 0.78251  0.22502  0.06452  Biso   1.000  C
  H485     1.0000 0.77679  0.22818  0.04120  Biso   1.000  H
  H486     1.0000 0.71992  0.14002  0.98302  Biso   1.000  H
  H487     1.0000 0.67950  0.12328  0.03212  Biso   1.000  H
  H488     1.0000 0.74270  0.13689  0.04470  Biso   1.000  H
  C357     1.0000 0.68061  0.58031  0.13969  Biso   1.000  C
  C358     1.0000 0.63171  0.61720  0.13171  Biso   1.000  C
  H489     1.0000 0.31812  0.41410  0.16930  Biso   1.000  H
  H490     1.0000 0.30570  0.34949  0.17251  Biso   1.000  H
  H491     1.0000 0.28440  0.38469  0.12110  Biso   1.000  H
  H492     1.0000 0.80389  0.25701  0.07640  Biso   1.000  H
  H493     1.0000 0.80751  0.19562  0.05280  Biso   1.000  H
  H494     1.0000 0.75981  0.21182  0.09511  Biso   1.000  H
  C359     1.0000 0.70302  0.61839  0.16901  Biso   1.000  C
  H495     1.0000 0.71190  0.60211  0.15421  Biso   1.000  H
  H496     1.0000 0.67160  0.55140  0.16691  Biso   1.000  H
  H497     1.0000 0.62382  0.63739  0.16621  Biso   1.000  H
  H498     1.0000 0.63949  0.64442  0.10252  Biso   1.000  H
  C360     1.0000 0.61979  0.64779  0.18579  Biso   1.000  C
  H499     1.0000 0.73871  0.60560  0.18242  Biso   1.000  H
  H500     1.0000 0.67909  0.62752  0.19981  Biso   1.000  H
  H501     1.0000 0.70849  0.65120  0.14582  Biso   1.000  H
  H502     1.0000 0.58590  0.66930  0.18188  Biso   1.000  H
  H503     1.0000 0.65051  0.67251  0.19430  Biso   1.000  H
  H504     1.0000 0.61531  0.62110  0.21560  Biso   1.000  H
  C361     1.0000 0.44140  0.74990  0.52151  Biso   1.000  C
  C362     1.0000 0.39370  0.73649  0.48849  Biso   1.000  C
  C363     1.0000 0.44148  0.74570  0.57871  Biso   1.000  C
  C364     1.0000 0.48988  0.76680  0.49511  Biso   1.000  C
  N73      1.0000 0.34801  0.72202  0.50810  Biso   1.000  N
  H505     1.0000 0.39711  0.73879  0.44958  Biso   1.000  H
  C365     1.0000 0.48779  0.75771  0.60959  Biso   1.000  C
  H506     1.0000 0.40892  0.73439  0.59701  Biso   1.000  H
  C366     1.0000 0.53680  0.77979  0.52471  Biso   1.000  C
  H507     1.0000 0.49058  0.76939  0.45621  Biso   1.000  H
  C367     1.0000 0.30401  0.70758  0.46969  Biso   1.000  C
  C368     1.0000 0.53631  0.77469  0.58109  Biso   1.000  C
  C369     1.0000 0.48581  0.75290  0.66839  Biso   1.000  C
  C370     1.0000 0.58701  0.79752  0.49560  Biso   1.000  C
  C371     1.0000 0.28909  0.64639  0.47829  Biso   1.000  C
  H508     1.0000 0.29542  0.66790  0.47290  Biso   1.000  H
  C372     1.0000 0.25380  0.74089  0.48248  Biso   1.000  C
  H509     1.0000 0.31610  0.71498  0.43149  Biso   1.000  H
  H510     1.0000 0.56880  0.78259  0.60141  Biso   1.000  H
  N74      1.0000 0.52599  0.76199  0.69919  Biso   1.000  N
  H511     1.0000 0.45201  0.74221  0.68488  Biso   1.000  H
  N75      1.0000 0.58792  0.80381  0.44502  Biso   1.000  N
  H512     1.0000 0.61958  0.80422  0.51620  Biso   1.000  H
  H513     1.0000 0.32050  0.62328  0.46788  Biso   1.000  H
  H514     1.0000 0.25730  0.63689  0.45530  Biso   1.000  H
  H515     1.0000 0.28008  0.64002  0.51698  Biso   1.000  H
  N76      1.0000 0.26199  0.80081  0.47401  Biso   1.000  N
  C373     1.0000 0.21749  0.72502  0.43548  Biso   1.000  C
  H516     1.0000 0.22321  0.72818  0.45880  Biso   1.000  H
  H517     1.0000 0.24299  0.73431  0.52122  Biso   1.000  H
  C374     1.0000 0.51752  0.75380  0.75911  Biso   1.000  C
  C375     1.0000 0.63969  0.81939  0.41969  Biso   1.000  C
  C376     1.0000 0.25290  0.83161  0.51419  Biso   1.000  C
  H518     1.0000 0.19611  0.75701  0.42360  Biso   1.000  H
  H519     1.0000 0.19249  0.69562  0.44720  Biso   1.000  H
  H520     1.0000 0.24019  0.71182  0.40489  Biso   1.000  H
  C377     1.0000 0.53031  0.80401  0.79242  Biso   1.000  C
  C378     1.0000 0.56452  0.71749  0.77498  Biso   1.000  C
  H521     1.0000 0.54120  0.72321  0.77182  Biso   1.000  H
  H522     1.0000 0.47878  0.74299  0.76569  Biso   1.000  H
  C379     1.0000 0.63171  0.86829  0.38280  Biso   1.000  C
  C380     1.0000 0.66901  0.79698  0.38161  Biso   1.000  C
  H523     1.0000 0.65421  0.78810  0.39789  Biso   1.000  H
  H524     1.0000 0.66691  0.82840  0.44860  Biso   1.000  H
  C381     1.0000 0.25771  0.89041  0.51221  Biso   1.000  C
  H525     1.0000 0.24221  0.81512  0.54799  Biso   1.000  H
  N77      1.0000 0.49190  0.84801  0.77798  Biso   1.000  N
  H526     1.0000 0.52710  0.79542  0.83210  Biso   1.000  H
  H527     1.0000 0.56851  0.81610  0.78502  Biso   1.000  H
  C382     1.0000 0.52171  0.78909  0.85361  Biso   1.000  C
  H528     1.0000 0.57640  0.69611  0.74299  Biso   1.000  H
  H529     1.0000 0.55280  0.69249  0.80438  Biso   1.000  H
  H530     1.0000 0.59511  0.74019  0.78818  Biso   1.000  H
  N78      1.0000 0.61629  0.91578  0.41632  Biso   1.000  N
  H531     1.0000 0.66621  0.87618  0.36261  Biso   1.000  H
  H532     1.0000 0.60252  0.86051  0.35558  Biso   1.000  H
  C383     1.0000 0.68579  0.88021  0.35221  Biso   1.000  C
  H533     1.0000 0.68242  0.76129  0.39440  Biso   1.000  H
  H534     1.0000 0.69981  0.82091  0.37248  Biso   1.000  H
  H535     1.0000 0.64582  0.79151  0.34880  Biso   1.000  H
  C384     1.0000 0.27469  0.91891  0.46369  Biso   1.000  C
  C385     1.0000 0.24570  0.92129  0.55852  Biso   1.000  C
  C386     1.0000 0.51151  0.89370  0.76351  Biso   1.000  C
  H536     1.0000 0.53212  0.82050  0.87672  Biso   1.000  H
  H537     1.0000 0.54470  0.75730  0.86311  Biso   1.000  H
  H538     1.0000 0.48302  0.78008  0.85998  Biso   1.000  H
  C387     1.0000 0.57110  0.93951  0.40600  Biso   1.000  C
  H539     1.0000 0.68188  0.91410  0.33070  Biso   1.000  H
  H540     1.0000 0.69430  0.84949  0.32749  Biso   1.000  H
  H541     1.0000 0.71560  0.88469  0.37890  Biso   1.000  H
  C388     1.0000 0.27979  0.97529  0.46320  Biso   1.000  C
  H542     1.0000 0.28259  0.89859  0.43120  Biso   1.000  H
  H543     1.0000 0.23439  0.90299  0.59108  Biso   1.000  H
  C389     1.0000 0.24990  0.97849  0.55860  Biso   1.000  C
  C390     1.0000 0.47849  0.94140  0.75010  Biso   1.000  C
  H544     1.0000 0.55042  0.89711  0.76121  Biso   1.000  H
  C391     1.0000 0.55190  0.98709  0.43700  Biso   1.000  C
  H545     1.0000 0.54881  0.92561  0.37709  Biso   1.000  H
  C392     1.0000 0.29752  0.00440  0.41299  Biso   1.000  C
  C393     1.0000 0.26680  0.00489  0.51012  Biso   1.000  C
  C394     1.0000 0.23649  0.01151  0.60630  Biso   1.000  C
  C395     1.0000 0.42129  0.94148  0.75430  Biso   1.000  C
  C396     1.0000 0.50489  0.98988  0.73320  Biso   1.000  C
  C397     1.0000 0.50580  0.01612  0.41899  Biso   1.000  C
  C398     1.0000 0.58101  0.00580  0.48388  Biso   1.000  C
  H546     1.0000 0.30422  0.98380  0.38042  Biso   1.000  H
  N79      1.0000 0.30381  0.05498  0.41208  Biso   1.000  N
  H547     1.0000 0.26939  0.04379  0.50942  Biso   1.000  H
  N80      1.0000 0.22202  0.99190  0.65199  Biso   1.000  N
  H548     1.0000 0.23879  0.05042  0.60289  Biso   1.000  H
  C399     1.0000 0.39041  0.98779  0.74229  Biso   1.000  C
  H549     1.0000 0.40299  0.90892  0.76561  Biso   1.000  H
  H550     1.0000 0.54379  0.99058  0.73061  Biso   1.000  H
  C400     1.0000 0.47529  0.03680  0.72021  Biso   1.000  C
  C401     1.0000 0.48709  0.06300  0.44810  Biso   1.000  C
  H551     1.0000 0.48672  0.00432  0.38700  Biso   1.000  H
  H552     1.0000 0.61300  0.98672  0.49568  Biso   1.000  H
  C402     1.0000 0.56300  0.05190  0.51291  Biso   1.000  C
  C403     1.0000 0.31939  0.08031  0.36031  Biso   1.000  C
  C404     1.0000 0.20758  0.03031  0.69599  Biso   1.000  C
  C405     1.0000 0.33161  0.98581  0.74710  Biso   1.000  C
  C406     1.0000 0.41891  0.03631  0.72531  Biso   1.000  C
  C407     1.0000 0.50440  0.08701  0.70248  Biso   1.000  C
  C408     1.0000 0.43951  0.09400  0.42890  Biso   1.000  C
  C409     1.0000 0.51612  0.08101  0.49420  Biso   1.000  C
  C410     1.0000 0.59400  0.07110  0.56049  Biso   1.000  C
  C411     1.0000 0.36829  0.11720  0.36829  Biso   1.000  C
  C412     1.0000 0.29698  0.11839  0.33099  Biso   1.000  C
  H553     1.0000 0.28810  0.10211  0.34579  Biso   1.000  H
  H554     1.0000 0.32840  0.05140  0.33309  Biso   1.000  H
  C413     1.0000 0.24089  0.01752  0.74620  Biso   1.000  C
  H555     1.0000 0.16790  0.02710  0.70458  Biso   1.000  H
  H556     1.0000 0.21498  0.06851  0.68390  Biso   1.000  H
  C414     1.0000 0.14639  0.02171  0.71091  Biso   1.000  C
  N81      1.0000 0.30081  0.02599  0.73801  Biso   1.000  N
  H557     1.0000 0.31512  0.95201  0.75779  Biso   1.000  H
  H558     1.0000 0.39859  0.06880  0.71741  Biso   1.000  H
  N82      1.0000 0.55498  0.08792  0.69619  Biso   1.000  N
  H559     1.0000 0.48380  0.11958  0.69578  Biso   1.000  H
  N83      1.0000 0.41578  0.08368  0.38371  Biso   1.000  N
  H560     1.0000 0.42561  0.12291  0.45119  Biso   1.000  H
  H561     1.0000 0.50432  0.11300  0.51328  Biso   1.000  H
  N84      1.0000 0.58368  0.11629  0.58422  Biso   1.000  N
  H562     1.0000 0.62291  0.04881  0.57439  Biso   1.000  H
  H563     1.0000 0.37618  0.13739  0.33379  Biso   1.000  H
  H564     1.0000 0.36051  0.14442  0.39748  Biso   1.000  H
  C415     1.0000 0.38021  0.14779  0.31421  Biso   1.000  C
  H565     1.0000 0.26129  0.10560  0.31758  Biso   1.000  H
  H566     1.0000 0.32091  0.12752  0.30019  Biso   1.000  H
  H567     1.0000 0.29151  0.15120  0.35418  Biso   1.000  H
  H568     1.0000 0.23431  0.97878  0.75701  Biso   1.000  H
  C416     1.0000 0.22502  0.06452  0.78251  Biso   1.000  C
  H569     1.0000 0.22818  0.04120  0.77679  Biso   1.000  H
  H570     1.0000 0.14002  0.98302  0.71992  Biso   1.000  H
  H571     1.0000 0.12328  0.03212  0.67950  Biso   1.000  H
  H572     1.0000 0.13689  0.04470  0.74270  Biso   1.000  H
  C417     1.0000 0.58031  0.13969  0.68061  Biso   1.000  C
  C418     1.0000 0.61720  0.13171  0.63171  Biso   1.000  C
  H573     1.0000 0.41410  0.16930  0.31812  Biso   1.000  H
  H574     1.0000 0.34949  0.17251  0.30570  Biso   1.000  H
  H575     1.0000 0.38469  0.12110  0.28440  Biso   1.000  H
  H576     1.0000 0.25701  0.07640  0.80389  Biso   1.000  H
  H577     1.0000 0.19562  0.05280  0.80751  Biso   1.000  H
  H578     1.0000 0.21182  0.09511  0.75981  Biso   1.000  H
  C419     1.0000 0.61839  0.16901  0.70302  Biso   1.000  C
  H579     1.0000 0.60211  0.15421  0.71190  Biso   1.000  H
  H580     1.0000 0.55140  0.16691  0.67160  Biso   1.000  H
  H581     1.0000 0.63739  0.16621  0.62382  Biso   1.000  H
  H582     1.0000 0.64442  0.10252  0.63949  Biso   1.000  H
  C420     1.0000 0.64779  0.18579  0.61979  Biso   1.000  C
  H583     1.0000 0.60560  0.18242  0.73871  Biso   1.000  H
  H584     1.0000 0.62752  0.19981  0.67909  Biso   1.000  H
  H585     1.0000 0.65120  0.14582  0.70849  Biso   1.000  H
  H586     1.0000 0.66930  0.18188  0.58590  Biso   1.000  H
  H587     1.0000 0.67251  0.19430  0.65051  Biso   1.000  H
  H588     1.0000 0.62110  0.21560  0.61531  Biso   1.000  H
  C421     1.0000 0.35361  0.97829  0.21091  Biso   1.000  C
  C422     1.0000 0.29242  0.96969  0.19599  Biso   1.000  C
  H589     1.0000 0.33210  0.97290  0.20458  Biso   1.000  H
  H590     1.0000 0.35998  0.01698  0.21992  Biso   1.000  H
  H591     1.0000 0.37672  0.96788  0.17950  Biso   1.000  H
  H592     1.0000 0.36311  0.95530  0.24270  Biso   1.000  H
  N85      1.0000 0.27798  0.00810  0.15199  Biso   1.000  N
  C423     1.0000 0.25911  0.98248  0.24620  Biso   1.000  C
  H593     1.0000 0.28502  0.93149  0.18390  Biso   1.000  H
  C424     1.0000 0.26351  0.98849  0.10630  Biso   1.000  C
  H594     1.0000 0.26569  0.02122  0.25701  Biso   1.000  H
  N86      1.0000 0.19919  0.97401  0.23801  Biso   1.000  N
  C425     1.0000 0.27498  0.93548  0.28251  Biso   1.000  C
  H595     1.0000 0.27182  0.95880  0.27679  Biso   1.000  H
  C426     1.0000 0.25010  0.02151  0.05860  Biso   1.000  C
  H596     1.0000 0.26121  0.94958  0.10289  Biso   1.000  H
  C427     1.0000 0.16839  0.01419  0.24710  Biso   1.000  C
  H597     1.0000 0.24299  0.92360  0.30389  Biso   1.000  H
  H598     1.0000 0.30438  0.94720  0.30751  Biso   1.000  H
  H599     1.0000 0.28818  0.90489  0.25981  Biso   1.000  H
  C428     1.0000 0.25430  0.07871  0.05852  Biso   1.000  C
  C429     1.0000 0.23320  0.99511  0.01012  Biso   1.000  C
  C430     1.0000 0.10959  0.01221  0.24229  Biso   1.000  C
  H600     1.0000 0.18488  0.04799  0.25779  Biso   1.000  H
  C431     1.0000 0.24229  0.10959  0.01221  Biso   1.000  C
  H601     1.0000 0.26561  0.09701  0.09108  Biso   1.000  H
  C432     1.0000 0.22021  0.02471  0.96320  Biso   1.000  C
  H602     1.0000 0.23061  0.95621  0.00942  Biso   1.000  H
  C433     1.0000 0.07871  0.05852  0.25430  Biso   1.000  C
  C434     1.0000 0.08109  0.96369  0.22531  Biso   1.000  C
  C435     1.0000 0.24710  0.16839  0.01419  Biso   1.000  C
  C436     1.0000 0.22531  0.08109  0.96369  Biso   1.000  C
  C437     1.0000 0.20248  0.99560  0.91299  Biso   1.000  C
  H603     1.0000 0.09701  0.09108  0.26561  Biso   1.000  H
  C438     1.0000 0.02151  0.05860  0.25010  Biso   1.000  C
  C439     1.0000 0.02471  0.96320  0.22021  Biso   1.000  C
  H604     1.0000 0.10141  0.93120  0.21741  Biso   1.000  H
  H605     1.0000 0.25779  0.18488  0.04799  Biso   1.000  H
  N87      1.0000 0.23801  0.19919  0.97401  Biso   1.000  N
  H606     1.0000 0.21741  0.10141  0.93120  Biso   1.000  H
  N88      1.0000 0.19619  0.94502  0.91208  Biso   1.000  N
  H607     1.0000 0.19578  0.01620  0.88042  Biso   1.000  H
  C440     1.0000 0.99511  0.01012  0.23320  Biso   1.000  C
  C441     1.0000 0.98849  0.10630  0.26351  Biso   1.000  C
  C442     1.0000 0.99560  0.91299  0.20248  Biso   1.000  C
  C443     1.0000 0.24620  0.25911  0.98248  Biso   1.000  C
  C444     1.0000 0.18061  0.91969  0.86031  Biso   1.000  C
  H608     1.0000 0.95621  0.00942  0.23061  Biso   1.000  H
  N89      1.0000 0.00810  0.15199  0.27798  Biso   1.000  N
  H609     1.0000 0.94958  0.10289  0.26121  Biso   1.000  H
  N90      1.0000 0.94502  0.91208  0.19619  Biso   1.000  N
  H610     1.0000 0.01620  0.88042  0.19578  Biso   1.000  H
  H611     1.0000 0.25701  0.26569  0.02122  Biso   1.000  H
  C445     1.0000 0.19599  0.29242  0.96969  Biso   1.000  C
  C446     1.0000 0.28251  0.27498  0.93548  Biso   1.000  C
  H612     1.0000 0.27679  0.27182  0.95880  Biso   1.000  H
  C447     1.0000 0.13171  0.88280  0.86829  Biso   1.000  C
  C448     1.0000 0.20302  0.88161  0.83099  Biso   1.000  C
  H613     1.0000 0.21190  0.89789  0.84579  Biso   1.000  H
  H614     1.0000 0.17160  0.94860  0.83309  Biso   1.000  H
  C449     1.0000 0.96969  0.19599  0.29242  Biso   1.000  C
  C450     1.0000 0.91969  0.86031  0.18061  Biso   1.000  C
  N91      1.0000 0.15199  0.27798  0.00810  Biso   1.000  N
  H615     1.0000 0.20458  0.33210  0.97290  Biso   1.000  H
  H616     1.0000 0.18390  0.28502  0.93149  Biso   1.000  H
  C451     1.0000 0.21091  0.35361  0.97829  Biso   1.000  C
  H617     1.0000 0.30389  0.24299  0.92360  Biso   1.000  H
  H618     1.0000 0.30751  0.30438  0.94720  Biso   1.000  H
  H619     1.0000 0.25981  0.28818  0.90489  Biso   1.000  H
  N92      1.0000 0.08422  0.91632  0.88371  Biso   1.000  N
  H620     1.0000 0.12382  0.86261  0.83379  Biso   1.000  H
  H621     1.0000 0.13949  0.85558  0.89748  Biso   1.000  H
  C452     1.0000 0.11979  0.85221  0.81421  Biso   1.000  C
  H622     1.0000 0.23871  0.89440  0.81758  Biso   1.000  H
  H623     1.0000 0.17909  0.87248  0.80019  Biso   1.000  H
  H624     1.0000 0.20849  0.84880  0.85418  Biso   1.000  H
  C453     1.0000 0.98248  0.24620  0.25911  Biso   1.000  C
  H625     1.0000 0.97290  0.20458  0.33210  Biso   1.000  H
  H626     1.0000 0.93149  0.18390  0.28502  Biso   1.000  H
  C454     1.0000 0.97829  0.21091  0.35361  Biso   1.000  C
  C455     1.0000 0.88280  0.86829  0.13171  Biso   1.000  C
  C456     1.0000 0.88161  0.83099  0.20302  Biso   1.000  C
  H627     1.0000 0.89789  0.84579  0.21190  Biso   1.000  H
  H628     1.0000 0.94860  0.83309  0.17160  Biso   1.000  H
  C457     1.0000 0.10630  0.26351  0.98849  Biso   1.000  C
  H629     1.0000 0.21992  0.35998  0.01698  Biso   1.000  H
  H630     1.0000 0.17950  0.37672  0.96788  Biso   1.000  H
  H631     1.0000 0.24270  0.36311  0.95530  Biso   1.000  H
  C458     1.0000 0.06049  0.90600  0.92890  Biso   1.000  C
  H632     1.0000 0.08590  0.83070  0.81812  Biso   1.000  H
  H633     1.0000 0.15051  0.82749  0.80570  Biso   1.000  H
  H634     1.0000 0.11531  0.87890  0.78440  Biso   1.000  H
  N93      1.0000 0.97401  0.23801  0.19919  Biso   1.000  N
  H635     1.0000 0.02122  0.25701  0.26569  Biso   1.000  H
  C459     1.0000 0.93548  0.28251  0.27498  Biso   1.000  C
  H636     1.0000 0.95880  0.27679  0.27182  Biso   1.000  H
  H637     1.0000 0.01698  0.21992  0.35998  Biso   1.000  H
  H638     1.0000 0.96788  0.17950  0.37672  Biso   1.000  H
  H639     1.0000 0.95530  0.24270  0.36311  Biso   1.000  H
  N94      1.0000 0.91632  0.88371  0.08422  Biso   1.000  N
  H640     1.0000 0.86261  0.83379  0.12382  Biso   1.000  H
  H641     1.0000 0.85558  0.89748  0.13949  Biso   1.000  H
  C460     1.0000 0.85221  0.81421  0.11979  Biso   1.000  C
  H642     1.0000 0.89440  0.81758  0.23871  Biso   1.000  H
  H643     1.0000 0.87248  0.80019  0.17909  Biso   1.000  H
  H644     1.0000 0.84880  0.85418  0.20849  Biso   1.000  H
  C461     1.0000 0.05860  0.25010  0.02151  Biso   1.000  C
  H645     1.0000 0.10289  0.26121  0.94958  Biso   1.000  H
  C462     1.0000 0.01291  0.93700  0.94810  Biso   1.000  C
  H646     1.0000 0.07439  0.87709  0.95119  Biso   1.000  H
  C463     1.0000 0.01419  0.24710  0.16839  Biso   1.000  C
  H647     1.0000 0.92360  0.30389  0.24299  Biso   1.000  H
  H648     1.0000 0.94720  0.30751  0.30438  Biso   1.000  H
  H649     1.0000 0.90489  0.25981  0.28818  Biso   1.000  H
  C464     1.0000 0.90600  0.92890  0.06049  Biso   1.000  C
  H650     1.0000 0.83070  0.81812  0.08590  Biso   1.000  H
  H651     1.0000 0.82749  0.80570  0.15051  Biso   1.000  H
  H652     1.0000 0.87890  0.78440  0.11531  Biso   1.000  H
  C465     1.0000 0.05852  0.25430  0.07871  Biso   1.000  C
  C466     1.0000 0.01012  0.23320  0.99511  Biso   1.000  C
  C467     1.0000 0.98388  0.91899  0.99420  Biso   1.000  C
  C468     1.0000 0.99420  0.98388  0.91899  Biso   1.000  C
  C469     1.0000 0.01221  0.24229  0.10959  Biso   1.000  C
  H653     1.0000 0.04799  0.25779  0.18488  Biso   1.000  H
  C470     1.0000 0.93700  0.94810  0.01291  Biso   1.000  C
  H654     1.0000 0.87709  0.95119  0.07439  Biso   1.000  H
  H655     1.0000 0.09108  0.26561  0.09701  Biso   1.000  H
  C471     1.0000 0.96320  0.22021  0.02471  Biso   1.000  C
  H656     1.0000 0.00942  0.23061  0.95621  Biso   1.000  H
  H657     1.0000 0.99568  0.88700  0.01328  Biso   1.000  H
  C472     1.0000 0.94810  0.01291  0.93700  Biso   1.000  C
  H658     1.0000 0.01328  0.99568  0.88700  Biso   1.000  H
  C473     1.0000 0.96369  0.22531  0.08109  Biso   1.000  C
  C474     1.0000 0.91899  0.99420  0.98388  Biso   1.000  C
  C475     1.0000 0.91299  0.20248  0.99560  Biso   1.000  C
  C476     1.0000 0.92890  0.06049  0.90600  Biso   1.000  C
  H659     1.0000 0.93120  0.21741  0.10141  Biso   1.000  H
  H660     1.0000 0.88700  0.01328  0.99568  Biso   1.000  H
  N95      1.0000 0.91208  0.19619  0.94502  Biso   1.000  N
  H661     1.0000 0.88042  0.19578  0.01620  Biso   1.000  H
  N96      1.0000 0.88371  0.08422  0.91632  Biso   1.000  N
  H662     1.0000 0.95119  0.07439  0.87709  Biso   1.000  H
  C477     1.0000 0.86031  0.18061  0.91969  Biso   1.000  C
  C478     1.0000 0.86829  0.13171  0.88280  Biso   1.000  C
  C479     1.0000 0.83099  0.20302  0.88161  Biso   1.000  C
  H663     1.0000 0.84579  0.21190  0.89789  Biso   1.000  H
  H664     1.0000 0.83309  0.17160  0.94860  Biso   1.000  H
  H665     1.0000 0.83379  0.12382  0.86261  Biso   1.000  H
  H666     1.0000 0.89748  0.13949  0.85558  Biso   1.000  H
  C480     1.0000 0.81421  0.11979  0.85221  Biso   1.000  C
  H667     1.0000 0.81758  0.23871  0.89440  Biso   1.000  H
  H668     1.0000 0.80019  0.17909  0.87248  Biso   1.000  H
  H669     1.0000 0.85418  0.20849  0.84880  Biso   1.000  H
  H670     1.0000 0.81812  0.08590  0.83070  Biso   1.000  H
  H671     1.0000 0.80570  0.15051  0.82749  Biso   1.000  H
  H672     1.0000 0.78440  0.11531  0.87890  Biso   1.000  H
  Ne1      1.0000 0.82378  0.17622  0.67622  Biso   1.000  Ne
  He1      1.0000 0.83547  0.14505  0.79545  Biso   1.000  He
  He2      1.0000 0.85409  0.29245  0.66488  Biso   1.000  He
  He3      1.0000 0.70780  0.16491  0.64598  Biso   1.000  He
  He4      1.0000 0.89484  0.10516  0.60516  Biso   1.000  He
  Ar1      1.0000 0.82378  0.17622  0.67622  Biso   1.000  Ar
  Ne2      1.0000 0.67622  0.82378  0.17622  Biso   1.000  Ne
  He5      1.0000 0.66474  0.85442  0.29361  Biso   1.000  He
  He6      1.0000 0.64496  0.70425  0.16449  Biso   1.000  He
  He7      1.0000 0.78535  0.83429  0.14796  Biso   1.000  He
  He8      1.0000 0.60920  0.89080  0.10920  Biso   1.000  He
  Ar2      1.0000 0.67622  0.82378  0.17622  Biso   1.000  Ar
  Ne3      1.0000 0.17622  0.67622  0.82378  Biso   1.000  Ne
  He9      1.0000 0.10537  0.60537  0.89463  Biso   1.000  He
  He10     1.0000 0.29177  0.66496  0.85389  Biso   1.000  He
  He11     1.0000 0.14637  0.79084  0.83493  Biso   1.000  He
  He12     1.0000 0.16435  0.64461  0.70303  Biso   1.000  He
  Ar3      1.0000 0.17622  0.67622  0.82378  Biso   1.000  Ar
  Ne4      1.0000 0.32378  0.32378  0.32378  Biso   1.000  Ne
  He13     1.0000 0.39252  0.39252  0.39252  Biso   1.000  He
  He14     1.0000 0.21083  0.33474  0.35314  Biso   1.000  He
  He15     1.0000 0.35454  0.20600  0.33530  Biso   1.000  He
  He16     1.0000 0.33512  0.35408  0.20756  Biso   1.000  He
  Ar4      1.0000 0.32166  0.32166  0.32166  Biso   1.000  Ar
  Ne5      1.0000 0.93478  0.56522  0.43478  Biso   1.000  Ne
  He17     1.0000 0.92305  0.60479  0.54630  Biso   1.000  He
  He18     1.0000 0.89520  0.45368  0.42305  Biso   1.000  He
  He19     1.0000 0.04612  0.57694  0.39527  Biso   1.000  He
  He20     1.0000 0.86779  0.63221  0.36779  Biso   1.000  He
  Ar5      1.0000 0.93165  0.56835  0.43165  Biso   1.000  Ar
  Ne6      1.0000 0.56522  0.43478  0.93478  Biso   1.000  Ne
  He21     1.0000 0.57690  0.39546  0.04548  Biso   1.000  He
  He22     1.0000 0.60399  0.54365  0.92323  Biso   1.000  He
  He23     1.0000 0.45751  0.42330  0.89636  Biso   1.000  He
  He24     1.0000 0.63632  0.36367  0.86367  Biso   1.000  He
  Ar6      1.0000 0.56835  0.43165  0.93165  Biso   1.000  Ar
  Ne7      1.0000 0.43478  0.93478  0.56522  Biso   1.000  Ne
  He25     1.0000 0.36360  0.86360  0.63640  Biso   1.000  He
  He26     1.0000 0.54308  0.92327  0.60382  Biso   1.000  He
  He27     1.0000 0.39543  0.04557  0.57690  Biso   1.000  He
  He28     1.0000 0.42321  0.89595  0.45619  Biso   1.000  He
  Ar7      1.0000 0.43165  0.93165  0.56835  Biso   1.000  Ar
  Ne8      1.0000 0.06522  0.06522  0.06522  Biso   1.000  Ne
  He29     1.0000 0.13388  0.13388  0.13388  Biso   1.000  He
  He30     1.0000 0.95092  0.07713  0.10562  Biso   1.000  He
  He31     1.0000 0.10382  0.95692  0.07674  Biso   1.000  He
  He32     1.0000 0.07659  0.10315  0.95916  Biso   1.000  He
  Ar8      1.0000 0.06835  0.06834  0.06835  Biso   1.000  Ar
