data_image0
_cell_length_a       25.004
_cell_length_b       25.004
_cell_length_c       20.623
_cell_angle_alpha    90
_cell_angle_beta     90
_cell_angle_gamma    120

_symmetry_space_group_name_H-M    "P 1"
_symmetry_int_tables_number       1

loop_
  _symmetry_equiv_pos_as_xyz
  'x, y, z'

loop_
  _atom_site_label
  _atom_site_occupancy
  _atom_site_fract_x
  _atom_site_fract_y
  _atom_site_fract_z
  _atom_site_thermal_displace_type
  _atom_site_B_iso_or_equiv
  _atom_site_type_symbol
  C1       1.0000 0.35498  0.62686  0.45963  Biso   1.000  C
  C2       1.0000 0.37638  0.57975  0.46763  Biso   1.000  C
  C3       1.0000 0.29195  0.60621  0.46031  Biso   1.000  C
  C4       1.0000 0.39378  0.68574  0.46031  Biso   1.000  C
  N1       1.0000 0.38378  0.55264  0.42094  Biso   1.000  N
  H1       1.0000 0.38437  0.57070  0.51011  Biso   1.000  H
  C5       1.0000 0.27189  0.64505  0.45963  Biso   1.000  C
  C6       1.0000 0.24888  0.53824  0.48431  Biso   1.000  C
  C7       1.0000 0.37318  0.72813  0.45963  Biso   1.000  C
  C8       1.0000 0.46178  0.71063  0.48431  Biso   1.000  C
  C9       1.0000 0.40267  0.49995  0.43131  Biso   1.000  C
  C10      1.0000 0.31427  0.70804  0.46031  Biso   1.000  C
  C11      1.0000 0.20335  0.62362  0.46763  Biso   1.000  C
  H2       1.0000 0.27530  0.52133  0.49852  Biso   1.000  H
  H3       1.0000 0.22597  0.53953  0.52286  Biso   1.000  H
  C12      1.0000 0.20667  0.49732  0.44033  Biso   1.000  C
  C13      1.0000 0.42026  0.79662  0.46763  Biso   1.000  C
  H4       1.0000 0.47866  0.75399  0.49852  Biso   1.000  H
  H5       1.0000 0.46048  0.68643  0.52286  Biso   1.000  H
  C14      1.0000 0.50268  0.70933  0.44033  Biso   1.000  C
  C15      1.0000 0.41025  0.48711  0.50512  Biso   1.000  C
  H6       1.0000 0.37063  0.46107  0.41124  Biso   1.000  H
  H7       1.0000 0.44204  0.51270  0.40848  Biso   1.000  H
  C16      1.0000 0.28938  0.75113  0.48431  Biso   1.000  C
  N2       1.0000 0.16886  0.61623  0.42094  Biso   1.000  N
  H8       1.0000 0.18632  0.61563  0.51011  Biso   1.000  H
  H9       1.0000 0.18242  0.45691  0.46021  Biso   1.000  H
  H10      1.0000 0.17897  0.51279  0.42666  Biso   1.000  H
  H11      1.0000 0.22852  0.49455  0.40222  Biso   1.000  H
  N3       1.0000 0.44735  0.83111  0.42094  Biso   1.000  N
  H12      1.0000 0.42930  0.81366  0.51011  Biso   1.000  H
  H13      1.0000 0.54310  0.72554  0.46021  Biso   1.000  H
  H14      1.0000 0.48720  0.66620  0.42666  Biso   1.000  H
  H15      1.0000 0.50543  0.73395  0.40222  Biso   1.000  H
  C17      1.0000 0.36046  0.43913  0.53722  Biso   1.000  C
  C18      1.0000 0.46646  0.52115  0.53673  Biso   1.000  C
  H16      1.0000 0.24599  0.72467  0.49852  Biso   1.000  H
  H17      1.0000 0.31355  0.77403  0.52286  Biso   1.000  H
  C19      1.0000 0.29069  0.79334  0.44033  Biso   1.000  C
  C20      1.0000 0.09727  0.59735  0.43131  Biso   1.000  C
  C21      1.0000 0.50008  0.90274  0.43131  Biso   1.000  C
  C22      1.0000 0.29265  0.39614  0.50041  Biso   1.000  C
  C23      1.0000 0.36695  0.42523  0.60093  Biso   1.000  C
  C24      1.0000 0.47296  0.50734  0.60054  Biso   1.000  C
  C25      1.0000 0.52147  0.58054  0.49784  Biso   1.000  C
  H18      1.0000 0.27449  0.81758  0.46021  Biso   1.000  H
  H19      1.0000 0.33379  0.82100  0.42666  Biso   1.000  H
  H20      1.0000 0.26605  0.77149  0.40222  Biso   1.000  H
  C26      1.0000 0.07686  0.58973  0.50512  Biso   1.000  C
  H21      1.0000 0.09045  0.62940  0.41124  Biso   1.000  H
  H22      1.0000 0.07065  0.55795  0.40848  Biso   1.000  H
  C27      1.0000 0.51289  0.92315  0.50512  Biso   1.000  C
  H23      1.0000 0.53897  0.90957  0.41124  Biso   1.000  H
  H24      1.0000 0.48731  0.92934  0.40848  Biso   1.000  H
  C28      1.0000 0.29325  0.33943  0.46923  Biso   1.000  C
  H25      1.0000 0.25861  0.38196  0.53232  Biso   1.000  H
  H26      1.0000 0.28652  0.42066  0.46661  Biso   1.000  H
  C29      1.0000 0.42315  0.45931  0.63264  Biso   1.000  C
  C30      1.0000 0.31387  0.36921  0.63812  Biso   1.000  C
  C31      1.0000 0.53776  0.54553  0.63424  Biso   1.000  C
  H27      1.0000 0.50466  0.58963  0.45852  Biso   1.000  H
  H28      1.0000 0.54001  0.61762  0.52592  Biso   1.000  H
  C32      1.0000 0.57058  0.56294  0.47883  Biso   1.000  C
  C33      1.0000 0.05468  0.53352  0.53673  Biso   1.000  C
  C34      1.0000 0.07870  0.63956  0.53722  Biso   1.000  C
  C35      1.0000 0.47886  0.94532  0.53673  Biso   1.000  C
  C36      1.0000 0.56086  0.92135  0.53722  Biso   1.000  C
  H29      1.0000 0.25389  0.31334  0.44722  Biso   1.000  H
  H30      1.0000 0.32709  0.35407  0.43772  Biso   1.000  H
  H31      1.0000 0.29931  0.31555  0.50313  Biso   1.000  H
  C37      1.0000 0.43705  0.45192  0.71003  Biso   1.000  C
  N4       1.0000 0.26969  0.38644  0.68104  Biso   1.000  N
  H32      1.0000 0.33248  0.35148  0.66731  Biso   1.000  H
  H33      1.0000 0.28791  0.33698  0.60626  Biso   1.000  H
  N5       1.0000 0.54857  0.60233  0.68196  Biso   1.000  N
  H34      1.0000 0.56954  0.56262  0.59977  Biso   1.000  H
  H35      1.0000 0.54523  0.51639  0.65989  Biso   1.000  H
  H36      1.0000 0.60436  0.59730  0.45541  Biso   1.000  H
  H37      1.0000 0.58683  0.55408  0.51816  Biso   1.000  H
  H38      1.0000 0.55167  0.52623  0.45105  Biso   1.000  H
  C38      1.0000 0.03434  0.52701  0.60054  Biso   1.000  C
  C39      1.0000 0.05905  0.47852  0.49784  Biso   1.000  C
  C40      1.0000 0.05828  0.63304  0.60093  Biso   1.000  C
  C41      1.0000 0.10347  0.70735  0.50041  Biso   1.000  C
  C42      1.0000 0.49266  0.96564  0.60054  Biso   1.000  C
  C43      1.0000 0.41947  0.94093  0.49784  Biso   1.000  C
  C44      1.0000 0.57476  0.94172  0.60093  Biso   1.000  C
  C45      1.0000 0.60389  0.89655  0.50041  Biso   1.000  C
  H39      1.0000 0.46848  0.49247  0.72759  Biso   1.000  H
  H40      1.0000 0.39875  0.43691  0.73573  Biso   1.000  H
  C46      1.0000 0.46066  0.40533  0.71483  Biso   1.000  C
  C47      1.0000 0.28095  0.44144  0.67381  Biso   1.000  C
  C48      1.0000 0.50757  0.61785  0.67473  Biso   1.000  C
  C49      1.0000 0.00775  0.46222  0.63424  Biso   1.000  C
  C50      1.0000 0.03618  0.57684  0.63264  Biso   1.000  C
  H41      1.0000 0.08497  0.49533  0.45852  Biso   1.000  H
  H42      1.0000 0.07759  0.46001  0.52592  Biso   1.000  H
  C51      1.0000 0.99235  0.42943  0.47883  Biso   1.000  C
  C52      1.0000 0.05536  0.68615  0.63812  Biso   1.000  C
  H43      1.0000 0.12333  0.74138  0.53232  Biso   1.000  H
  H44      1.0000 0.13414  0.71349  0.46661  Biso   1.000  H
  C53      1.0000 0.04618  0.70675  0.46923  Biso   1.000  C
  C54      1.0000 0.54067  0.96384  0.63264  Biso   1.000  C
  C55      1.0000 0.45449  0.99224  0.63424  Biso   1.000  C
  H45      1.0000 0.41036  0.91502  0.45852  Biso   1.000  H
  H46      1.0000 0.38242  0.92241  0.52592  Biso   1.000  H
  C56      1.0000 0.43706  0.00762  0.47883  Biso   1.000  C
  C57      1.0000 0.63077  0.94462  0.63812  Biso   1.000  C
  H47      1.0000 0.61801  0.87665  0.53232  Biso   1.000  H
  H48      1.0000 0.57936  0.86589  0.46661  Biso   1.000  H
  C58      1.0000 0.66056  0.95381  0.46923  Biso   1.000  C
  H49      1.0000 0.46901  0.40076  0.76032  Biso   1.000  H
  H50      1.0000 0.42928  0.36529  0.69772  Biso   1.000  H
  H51      1.0000 0.49879  0.42071  0.68957  Biso   1.000  H
  C59      1.0000 0.24027  0.45991  0.71105  Biso   1.000  C
  H52      1.0000 0.31329  0.46980  0.64637  Biso   1.000  H
  C60      1.0000 0.51178  0.67313  0.71032  Biso   1.000  C
  H53      1.0000 0.47369  0.59439  0.64661  Biso   1.000  H
  N6       1.0000 0.05378  0.45142  0.68196  Biso   1.000  N
  H54      1.0000 0.99308  0.43050  0.59977  Biso   1.000  H
  H55      1.0000 0.97113  0.45474  0.65989  Biso   1.000  H
  C61      1.0000 0.01487  0.56294  0.71003  Biso   1.000  C
  H56      1.0000 0.99293  0.39563  0.45541  Biso   1.000  H
  H57      1.0000 0.96724  0.41313  0.51816  Biso   1.000  H
  H58      1.0000 0.97456  0.44832  0.45105  Biso   1.000  H
  N7       1.0000 0.11677  0.73035  0.68104  Biso   1.000  N
  H59      1.0000 0.01902  0.66754  0.66731  Biso   1.000  H
  H60      1.0000 0.04910  0.71211  0.60626  Biso   1.000  H
  H61      1.0000 0.05942  0.74609  0.44722  Biso   1.000  H
  H62      1.0000 0.02698  0.67290  0.43772  Biso   1.000  H
  H63      1.0000 0.01624  0.70070  0.50313  Biso   1.000  H
  C62      1.0000 0.54807  0.98513  0.71003  Biso   1.000  C
  N8       1.0000 0.39765  0.94624  0.68196  Biso   1.000  N
  H64      1.0000 0.43739  0.00693  0.59977  Biso   1.000  H
  H65      1.0000 0.48360  0.02886  0.65989  Biso   1.000  H
  H66      1.0000 0.40267  0.00707  0.45541  Biso   1.000  H
  H67      1.0000 0.44590  0.03274  0.51816  Biso   1.000  H
  H68      1.0000 0.47377  0.02545  0.45105  Biso   1.000  H
  N9       1.0000 0.61356  0.88325  0.68104  Biso   1.000  N
  H69      1.0000 0.64850  0.98097  0.66731  Biso   1.000  H
  H70      1.0000 0.66302  0.95091  0.60626  Biso   1.000  H
  H71      1.0000 0.68669  0.94056  0.44722  Biso   1.000  H
  H72      1.0000 0.64597  0.97303  0.43772  Biso   1.000  H
  H73      1.0000 0.68446  0.98379  0.50313  Biso   1.000  H
  C63      1.0000 0.25735  0.48383  0.77331  Biso   1.000  C
  C64      1.0000 0.19227  0.46213  0.67953  Biso   1.000  C
  C65      1.0000 0.53787  0.73012  0.67953  Biso   1.000  C
  C66      1.0000 0.48787  0.66634  0.77263  Biso   1.000  C
  C67      1.0000 0.11027  0.49242  0.67473  Biso   1.000  C
  H74      1.0000 0.02401  0.53154  0.72759  Biso   1.000  H
  H75      1.0000 0.03813  0.60123  0.73573  Biso   1.000  H
  C68      1.0000 0.94468  0.53934  0.71483  Biso   1.000  C
  C69      1.0000 0.16047  0.71903  0.67381  Biso   1.000  C
  H76      1.0000 0.50751  0.97598  0.72759  Biso   1.000  H
  H77      1.0000 0.56311  0.96185  0.73573  Biso   1.000  H
  C70      1.0000 0.59465  0.05532  0.71483  Biso   1.000  C
  C71      1.0000 0.38215  0.88972  0.67473  Biso   1.000  C
  C72      1.0000 0.55858  0.83952  0.67381  Biso   1.000  C
  C73      1.0000 0.22645  0.50993  0.80405  Biso   1.000  C
  C74      1.0000 0.31265  0.48333  0.80885  Biso   1.000  C
  C75      1.0000 0.16136  0.48822  0.71032  Biso   1.000  C
  C76      1.0000 0.17489  0.43945  0.60772  Biso   1.000  C
  C77      1.0000 0.54005  0.78031  0.71105  Biso   1.000  C
  C78      1.0000 0.56056  0.73543  0.60772  Biso   1.000  C
  C79      1.0000 0.49009  0.71654  0.80405  Biso   1.000  C
  C80      1.0000 0.46436  0.60404  0.81075  Biso   1.000  C
  H78      1.0000 0.12070  0.52632  0.64661  Biso   1.000  H
  H79      1.0000 0.93175  0.53098  0.76032  Biso   1.000  H
  H80      1.0000 0.93603  0.57075  0.69772  Biso   1.000  H
  H81      1.0000 0.92189  0.50120  0.68957  Biso   1.000  H
  C81      1.0000 0.21964  0.75972  0.71105  Biso   1.000  C
  H82      1.0000 0.15650  0.68671  0.64637  Biso   1.000  H
  H83      1.0000 0.59924  0.06825  0.76032  Biso   1.000  H
  H84      1.0000 0.63475  0.06401  0.69772  Biso   1.000  H
  H85      1.0000 0.57932  0.07809  0.68957  Biso   1.000  H
  C82      1.0000 0.32685  0.83864  0.71032  Biso   1.000  C
  H86      1.0000 0.40563  0.87933  0.64661  Biso   1.000  H
  H87      1.0000 0.53021  0.84349  0.64637  Biso   1.000  H
  C83      1.0000 0.17848  0.51214  0.77263  Biso   1.000  C
  C84      1.0000 0.24555  0.53653  0.87262  Biso   1.000  C
  H88      1.0000 0.34116  0.48388  0.77511  Biso   1.000  H
  H89      1.0000 0.33535  0.52240  0.83344  Biso   1.000  H
  C85      1.0000 0.30027  0.43553  0.85085  Biso   1.000  C
  H90      1.0000 0.16113  0.46615  0.58668  Biso   1.000  H
  H91      1.0000 0.21328  0.44744  0.58556  Biso   1.000  H
  C86      1.0000 0.13078  0.37914  0.59502  Biso   1.000  C
  C87      1.0000 0.51618  0.77353  0.77331  Biso   1.000  C
  H92      1.0000 0.53386  0.69497  0.58668  Biso   1.000  H
  H93      1.0000 0.55258  0.76586  0.58556  Biso   1.000  H
  C88      1.0000 0.62086  0.75164  0.59502  Biso   1.000  C
  C89      1.0000 0.46345  0.70901  0.87262  Biso   1.000  C
  H94      1.0000 0.43019  0.59795  0.83965  Biso   1.000  H
  H95      1.0000 0.44763  0.56955  0.77932  Biso   1.000  H
  C90      1.0000 0.50948  0.60183  0.84755  Biso   1.000  C
  C91      1.0000 0.22646  0.74263  0.77331  Biso   1.000  C
  C92      1.0000 0.26985  0.80775  0.67953  Biso   1.000  C
  C93      1.0000 0.33367  0.82155  0.77263  Biso   1.000  C
  C94      1.0000 0.13969  0.53565  0.81075  Biso   1.000  C
  N10      1.0000 0.22105  0.50434  0.92276  Biso   1.000  N
  H96      1.0000 0.27679  0.57846  0.87756  Biso   1.000  H
  H97      1.0000 0.33904  0.44149  0.86918  Biso   1.000  H
  H98      1.0000 0.27354  0.43493  0.88595  Biso   1.000  H
  H99      1.0000 0.27938  0.39623  0.82738  Biso   1.000  H
  H100     1.0000 0.12555  0.37277  0.54798  Biso   1.000  H
  H101     1.0000 0.14388  0.35134  0.61339  Biso   1.000  H
  H102     1.0000 0.09139  0.37018  0.61456  Biso   1.000  H
  C95      1.0000 0.51664  0.82931  0.80885  Biso   1.000  C
  H103     1.0000 0.62724  0.75279  0.54798  Biso   1.000  H
  H104     1.0000 0.64865  0.79251  0.61339  Biso   1.000  H
  H105     1.0000 0.62980  0.72120  0.61456  Biso   1.000  H
  N11      1.0000 0.49566  0.71672  0.92276  Biso   1.000  N
  H106     1.0000 0.42152  0.69834  0.87756  Biso   1.000  H
  H107     1.0000 0.49161  0.56193  0.86985  Biso   1.000  H
  H108     1.0000 0.54311  0.60677  0.81923  Biso   1.000  H
  H109     1.0000 0.52563  0.63517  0.87965  Biso   1.000  H
  C96      1.0000 0.28346  0.77353  0.80405  Biso   1.000  C
  C97      1.0000 0.17066  0.68735  0.80885  Biso   1.000  C
  C98      1.0000 0.26456  0.82516  0.60772  Biso   1.000  C
  C99      1.0000 0.39598  0.86035  0.81075  Biso   1.000  C
  H110     1.0000 0.16777  0.56982  0.83965  Biso   1.000  H
  H111     1.0000 0.12193  0.55237  0.77932  Biso   1.000  H
  C100     1.0000 0.09237  0.49053  0.84755  Biso   1.000  C
  C101     1.0000 0.24055  0.53172  0.99695  Biso   1.000  C
  H112     1.0000 0.51615  0.85730  0.77511  Biso   1.000  H
  H113     1.0000 0.47759  0.81296  0.83344  Biso   1.000  H
  C102     1.0000 0.56447  0.86473  0.85085  Biso   1.000  C
  C103     1.0000 0.46828  0.70883  0.99695  Biso   1.000  C
  C104     1.0000 0.29096  0.75445  0.87262  Biso   1.000  C
  H114     1.0000 0.14270  0.65886  0.77511  Biso   1.000  H
  H115     1.0000 0.18702  0.66463  0.83344  Biso   1.000  H
  C105     1.0000 0.13526  0.69973  0.85085  Biso   1.000  C
  H116     1.0000 0.30501  0.83887  0.58668  Biso   1.000  H
  H117     1.0000 0.23413  0.78669  0.58556  Biso   1.000  H
  C106     1.0000 0.24836  0.86921  0.59502  Biso   1.000  C
  H118     1.0000 0.40203  0.83222  0.83965  Biso   1.000  H
  H119     1.0000 0.43044  0.87808  0.77932  Biso   1.000  H
  C107     1.0000 0.39819  0.90763  0.84755  Biso   1.000  C
  H120     1.0000 0.07031  0.50840  0.86985  Biso   1.000  H
  H121     1.0000 0.06362  0.45686  0.81923  Biso   1.000  H
  H122     1.0000 0.10956  0.47437  0.87965  Biso   1.000  H
  C108     1.0000 0.29128  0.60215  0.99054  Biso   1.000  C
  H123     1.0000 0.20413  0.52729  0.02066  Biso   1.000  H
  H124     1.0000 0.25730  0.50900  0.02090  Biso   1.000  H
  H125     1.0000 0.55853  0.89757  0.86918  Biso   1.000  H
  H126     1.0000 0.56503  0.83859  0.88595  Biso   1.000  H
  H127     1.0000 0.60379  0.88316  0.82738  Biso   1.000  H
  C109     1.0000 0.39789  0.68915  0.99054  Biso   1.000  C
  H128     1.0000 0.47271  0.67682  0.02066  Biso   1.000  H
  H129     1.0000 0.49098  0.74831  0.02090  Biso   1.000  H
  N12      1.0000 0.28328  0.77893  0.92276  Biso   1.000  N
  H130     1.0000 0.30164  0.72319  0.87756  Biso   1.000  H
  H131     1.0000 0.10243  0.66094  0.86918  Biso   1.000  H
  H132     1.0000 0.16143  0.72647  0.88595  Biso   1.000  H
  H133     1.0000 0.11682  0.72060  0.82738  Biso   1.000  H
  H134     1.0000 0.24721  0.87443  0.54798  Biso   1.000  H
  H135     1.0000 0.20751  0.85614  0.61339  Biso   1.000  H
  H136     1.0000 0.27877  0.90860  0.61456  Biso   1.000  H
  H137     1.0000 0.43808  0.92966  0.86985  Biso   1.000  H
  H138     1.0000 0.39323  0.93636  0.81923  Biso   1.000  H
  H139     1.0000 0.36484  0.89045  0.87965  Biso   1.000  H
  C110     1.0000 0.26957  0.64385  0.99025  Biso   1.000  C
  C111     1.0000 0.35619  0.62575  0.99025  Biso   1.000  C
  C112     1.0000 0.37426  0.73044  0.99025  Biso   1.000  C
  C113     1.0000 0.29117  0.75944  0.99695  Biso   1.000  C
  C114     1.0000 0.31085  0.70873  0.99054  Biso   1.000  C
  C115     1.0000 0.19565  0.62422  0.98633  Biso   1.000  C
  C116     1.0000 0.37579  0.57144  0.98633  Biso   1.000  C
  C117     1.0000 0.42856  0.80433  0.98633  Biso   1.000  C
  H140     1.0000 0.32315  0.79588  0.02066  Biso   1.000  H
  H141     1.0000 0.25172  0.74268  0.02090  Biso   1.000  H
  H142     1.0000 0.19093  0.65549  0.96145  Biso   1.000  H
  H143     1.0000 0.17138  0.58377  0.96460  Biso   1.000  H
  C118     1.0000 0.17274  0.62071  0.05731  Biso   1.000  C
  H144     1.0000 0.34452  0.53546  0.96145  Biso   1.000  H
  H145     1.0000 0.41624  0.58765  0.96460  Biso   1.000  H
  C119     1.0000 0.37929  0.55204  0.05731  Biso   1.000  C
  H146     1.0000 0.46455  0.80904  0.96145  Biso   1.000  H
  H147     1.0000 0.41239  0.82862  0.96460  Biso   1.000  H
  C120     1.0000 0.44797  0.82723  0.05731  Biso   1.000  C
  H148     1.0000 0.12909  0.60917  0.05693  Biso   1.000  H
  H149     1.0000 0.17764  0.58963  0.08137  Biso   1.000  H
  H150     1.0000 0.19710  0.66103  0.07821  Biso   1.000  H
  H151     1.0000 0.39081  0.51990  0.05693  Biso   1.000  H
  H152     1.0000 0.41039  0.58802  0.08137  Biso   1.000  H
  H153     1.0000 0.33894  0.53606  0.07821  Biso   1.000  H
  H154     1.0000 0.48009  0.87092  0.05693  Biso   1.000  H
  H155     1.0000 0.41197  0.82234  0.08137  Biso   1.000  H
  H156     1.0000 0.46392  0.80290  0.07821  Biso   1.000  H
  C121     1.0000 0.58169  0.53588  0.26170  Biso   1.000  C
  C122     1.0000 0.59787  0.49178  0.27440  Biso   1.000  C
  H157     1.0000 0.58054  0.54110  0.21466  Biso   1.000  H
  H158     1.0000 0.54084  0.52281  0.28008  Biso   1.000  H
  H159     1.0000 0.61210  0.57527  0.28119  Biso   1.000  H
  C123     1.0000 0.60319  0.47441  0.34622  Biso   1.000  C
  H160     1.0000 0.63835  0.50554  0.25331  Biso   1.000  H
  H161     1.0000 0.56746  0.45336  0.25219  Biso   1.000  H
  C124     1.0000 0.55298  0.42639  0.37769  Biso   1.000  C
  C125     1.0000 0.66019  0.50531  0.37701  Biso   1.000  C
  C126     1.0000 0.49380  0.38570  0.34049  Biso   1.000  C
  C127     1.0000 0.55979  0.40930  0.43999  Biso   1.000  C
  C128     1.0000 0.66700  0.48822  0.43932  Biso   1.000  C
  C129     1.0000 0.71548  0.55638  0.34141  Biso   1.000  C
  N13      1.0000 0.45011  0.39701  0.34772  Biso   1.000  N
  H162     1.0000 0.48984  0.35337  0.31305  Biso   1.000  H
  C130     1.0000 0.61679  0.44019  0.47069  Biso   1.000  C
  C131     1.0000 0.50400  0.35402  0.47549  Biso   1.000  C
  C132     1.0000 0.72931  0.52701  0.47738  Biso   1.000  C
  N14      1.0000 0.73099  0.61291  0.34859  Biso   1.000  N
  H163     1.0000 0.73896  0.54599  0.31329  Biso   1.000  H
  C133     1.0000 0.38870  0.35282  0.30481  Biso   1.000  C
  C134     1.0000 0.62429  0.42112  0.53930  Biso   1.000  C
  H164     1.0000 0.47601  0.32548  0.44179  Biso   1.000  H
  H165     1.0000 0.52035  0.33130  0.50007  Biso   1.000  H
  C135     1.0000 0.46859  0.36640  0.51748  Biso   1.000  C
  H166     1.0000 0.73537  0.49889  0.50633  Biso   1.000  H
  H167     1.0000 0.76377  0.54475  0.44596  Biso   1.000  H
  C136     1.0000 0.73152  0.57430  0.51418  Biso   1.000  C
  C137     1.0000 0.78782  0.65891  0.30088  Biso   1.000  C
  C138     1.0000 0.39162  0.29971  0.26761  Biso   1.000  C
  H168     1.0000 0.35235  0.33421  0.33395  Biso   1.000  H
  H169     1.0000 0.38244  0.37877  0.27295  Biso   1.000  H
  N15      1.0000 0.61662  0.44560  0.58939  Biso   1.000  N
  H170     1.0000 0.63498  0.38986  0.54425  Biso   1.000  H
  H171     1.0000 0.43576  0.32761  0.53586  Biso   1.000  H
  H172     1.0000 0.49476  0.39314  0.55264  Biso   1.000  H
  H173     1.0000 0.45015  0.38727  0.49401  Biso   1.000  H
  H174     1.0000 0.77141  0.59633  0.53654  Biso   1.000  H
  H175     1.0000 0.72657  0.60303  0.48591  Biso   1.000  H
  H176     1.0000 0.69817  0.55712  0.54633  Biso   1.000  H
  C139     1.0000 0.82599  0.63231  0.26718  Biso   1.000  C
  H177     1.0000 0.77073  0.67359  0.26645  Biso   1.000  H
  H178     1.0000 0.81693  0.69553  0.32653  Biso   1.000  H
  C140     1.0000 0.41201  0.30618  0.20390  Biso   1.000  C
  C141     1.0000 0.36952  0.24351  0.29928  Biso   1.000  C
  C142     1.0000 0.62451  0.42611  0.66358  Biso   1.000  C
  C143     1.0000 0.81219  0.61199  0.20341  Biso   1.000  C
  C144     1.0000 0.87400  0.63050  0.29928  Biso   1.000  C
  C145     1.0000 0.41019  0.25639  0.17180  Biso   1.000  C
  C146     1.0000 0.43681  0.37402  0.16709  Biso   1.000  C
  C147     1.0000 0.36768  0.19368  0.26718  Biso   1.000  C
  C148     1.0000 0.34821  0.22961  0.37672  Biso   1.000  C
  C149     1.0000 0.64419  0.37540  0.65718  Biso   1.000  C
  H179     1.0000 0.65648  0.46255  0.68729  Biso   1.000  H
  H180     1.0000 0.58505  0.40935  0.68758  Biso   1.000  H
  C150     1.0000 0.84622  0.58982  0.17180  Biso   1.000  C
  C151     1.0000 0.75281  0.60760  0.16448  Biso   1.000  C
  C152     1.0000 0.90810  0.60838  0.26761  Biso   1.000  C
  C153     1.0000 0.88141  0.65179  0.37672  Biso   1.000  C
  C154     1.0000 0.38801  0.20019  0.20341  Biso   1.000  C
  C155     1.0000 0.43060  0.26401  0.09800  Biso   1.000  C
  H181     1.0000 0.45667  0.40805  0.19895  Biso   1.000  H
  H182     1.0000 0.46748  0.38016  0.13330  Biso   1.000  H
  C156     1.0000 0.37952  0.37342  0.13592  Biso   1.000  C
  C157     1.0000 0.34108  0.12889  0.30088  Biso   1.000  C
  H183     1.0000 0.35734  0.19821  0.39422  Biso   1.000  H
  H184     1.0000 0.37147  0.26789  0.40241  Biso   1.000  H
  C158     1.0000 0.27802  0.20601  0.38152  Biso   1.000  C
  C159     1.0000 0.60291  0.31052  0.65689  Biso   1.000  C
  C160     1.0000 0.70759  0.39711  0.65689  Biso   1.000  C
  C161     1.0000 0.83342  0.56941  0.09800  Biso   1.000  C
  C162     1.0000 0.89419  0.58802  0.20390  Biso   1.000  C
  H185     1.0000 0.74369  0.58169  0.12515  Biso   1.000  H
  H186     1.0000 0.71575  0.58908  0.19260  Biso   1.000  H
  C163     1.0000 0.77039  0.67428  0.14552  Biso   1.000  C
  C164     1.0000 0.96410  0.61129  0.30481  Biso   1.000  C
  H187     1.0000 0.84084  0.64265  0.39422  Biso   1.000  H
  H188     1.0000 0.89645  0.62852  0.40241  Biso   1.000  H
  C165     1.0000 0.92798  0.72199  0.38152  Biso   1.000  C
  C166     1.0000 0.39238  0.14519  0.16448  Biso   1.000  C
  N16      1.0000 0.50219  0.28290  0.08762  Biso   1.000  N
  H189     1.0000 0.42379  0.29606  0.07792  Biso   1.000  H
  H190     1.0000 0.40398  0.22462  0.07516  Biso   1.000  H
  H191     1.0000 0.39275  0.41276  0.11385  Biso   1.000  H
  H192     1.0000 0.36031  0.33957  0.10440  Biso   1.000  H
  H193     1.0000 0.34958  0.36737  0.16981  Biso   1.000  H
  N17      1.0000 0.38711  0.11808  0.34859  Biso   1.000  N
  H194     1.0000 0.32639  0.09712  0.26645  Biso   1.000  H
  H195     1.0000 0.30447  0.12141  0.32653  Biso   1.000  H
  H196     1.0000 0.26508  0.19765  0.42700  Biso   1.000  H
  H197     1.0000 0.26936  0.23741  0.36440  Biso   1.000  H
  H198     1.0000 0.25523  0.16787  0.35625  Biso   1.000  H
  C167     1.0000 0.62461  0.26882  0.65718  Biso   1.000  C
  C168     1.0000 0.52898  0.29089  0.65301  Biso   1.000  C
  C169     1.0000 0.73122  0.35582  0.65718  Biso   1.000  C
  C170     1.0000 0.76189  0.47100  0.65301  Biso   1.000  C
  N18      1.0000 0.78069  0.49778  0.08762  Biso   1.000  N
  H199     1.0000 0.87231  0.57624  0.07792  Biso   1.000  H
  H200     1.0000 0.82064  0.59601  0.07516  Biso   1.000  H
  C171     1.0000 0.93722  0.56322  0.16709  Biso   1.000  C
  H201     1.0000 0.73600  0.67373  0.12210  Biso   1.000  H
  H202     1.0000 0.77923  0.69941  0.18484  Biso   1.000  H
  H203     1.0000 0.80710  0.69211  0.11773  Biso   1.000  H
  N19      1.0000 0.94689  0.54992  0.34772  Biso   1.000  N
  H204     1.0000 0.98183  0.64764  0.33395  Biso   1.000  H
  H205     1.0000 0.99636  0.61757  0.27295  Biso   1.000  H
  H206     1.0000 0.93257  0.73492  0.42700  Biso   1.000  H
  H207     1.0000 0.96808  0.73067  0.36440  Biso   1.000  H
  H208     1.0000 0.91265  0.74476  0.35625  Biso   1.000  H
  H209     1.0000 0.41831  0.16200  0.12515  Biso   1.000  H
  H210     1.0000 0.41092  0.12667  0.19260  Biso   1.000  H
  C172     1.0000 0.32569  0.09610  0.14552  Biso   1.000  C
  C173     1.0000 0.53668  0.29029  0.13432  Biso   1.000  C
  C174     1.0000 0.44361  0.15909  0.34141  Biso   1.000  C
  C175     1.0000 0.57388  0.19839  0.66358  Biso   1.000  C
  C176     1.0000 0.68952  0.29242  0.65689  Biso   1.000  C
  H211     1.0000 0.52426  0.32216  0.62809  Biso   1.000  H
  H212     1.0000 0.50472  0.25044  0.63129  Biso   1.000  H
  C177     1.0000 0.50607  0.28738  0.72400  Biso   1.000  C
  C178     1.0000 0.80161  0.37549  0.66358  Biso   1.000  C
  H213     1.0000 0.79788  0.47571  0.62809  Biso   1.000  H
  H214     1.0000 0.74572  0.49529  0.63129  Biso   1.000  H
  C179     1.0000 0.78131  0.49390  0.72400  Biso   1.000  C
  C180     1.0000 0.75360  0.46328  0.13432  Biso   1.000  C
  H215     1.0000 0.95135  0.54332  0.19895  Biso   1.000  H
  H216     1.0000 0.91269  0.53256  0.13330  Biso   1.000  H
  C181     1.0000 0.99389  0.62048  0.13592  Biso   1.000  C
  C182     1.0000 0.89191  0.50619  0.34049  Biso   1.000  C
  H217     1.0000 0.32626  0.06230  0.12210  Biso   1.000  H
  H218     1.0000 0.30058  0.07980  0.18484  Biso   1.000  H
  H219     1.0000 0.30789  0.11499  0.11773  Biso   1.000  H
  C183     1.0000 0.60523  0.31172  0.12632  Biso   1.000  C
  H220     1.0000 0.51965  0.28230  0.17679  Biso   1.000  H
  C184     1.0000 0.49470  0.15489  0.37701  Biso   1.000  C
  H221     1.0000 0.45404  0.19299  0.31329  Biso   1.000  H
  N20      1.0000 0.55439  0.17101  0.58939  Biso   1.000  N
  H222     1.0000 0.53747  0.19396  0.68729  Biso   1.000  H
  H223     1.0000 0.59064  0.17567  0.68758  Biso   1.000  H
  C185     1.0000 0.70912  0.23811  0.65301  Biso   1.000  C
  H224     1.0000 0.46243  0.27584  0.72356  Biso   1.000  H
  H225     1.0000 0.51097  0.25630  0.74805  Biso   1.000  H
  H226     1.0000 0.53043  0.32770  0.74490  Biso   1.000  H
  N21      1.0000 0.82899  0.38339  0.58939  Biso   1.000  N
  H227     1.0000 0.80604  0.34349  0.68729  Biso   1.000  H
  H228     1.0000 0.82431  0.41498  0.68758  Biso   1.000  H
  H229     1.0000 0.81343  0.53759  0.72356  Biso   1.000  H
  H230     1.0000 0.74530  0.48901  0.74805  Biso   1.000  H
  H231     1.0000 0.79725  0.46956  0.74490  Biso   1.000  H
  C186     1.0000 0.70652  0.39480  0.12632  Biso   1.000  C
  H232     1.0000 0.76264  0.48032  0.17679  Biso   1.000  H
  H233     1.0000 0.97930  0.63969  0.10440  Biso   1.000  H
  H234     1.0000 0.02002  0.60723  0.11385  Biso   1.000  H
  H235     1.0000 0.01780  0.65045  0.16981  Biso   1.000  H
  C187     1.0000 0.87339  0.44698  0.37769  Biso   1.000  C
  H236     1.0000 0.86354  0.51016  0.31305  Biso   1.000  H
  C188     1.0000 0.64760  0.37471  0.12699  Biso   1.000  C
  C189     1.0000 0.62528  0.27288  0.12699  Biso   1.000  C
  C190     1.0000 0.52561  0.12880  0.34622  Biso   1.000  C
  C191     1.0000 0.51182  0.17881  0.43932  Biso   1.000  C
  C192     1.0000 0.57888  0.20319  0.53930  Biso   1.000  C
  H237     1.0000 0.67785  0.20213  0.62809  Biso   1.000  H
  H238     1.0000 0.74958  0.25432  0.63129  Biso   1.000  H
  C193     1.0000 0.71262  0.21871  0.72400  Biso   1.000  C
  C194     1.0000 0.79678  0.37568  0.53930  Biso   1.000  C
  C195     1.0000 0.72711  0.35240  0.12699  Biso   1.000  C
  C196     1.0000 0.84952  0.44019  0.43999  Biso   1.000  C
  C197     1.0000 0.87120  0.39678  0.34622  Biso   1.000  C
  C198     1.0000 0.62271  0.41780  0.15100  Biso   1.000  C
  C199     1.0000 0.68829  0.29348  0.12632  Biso   1.000  C
  C200     1.0000 0.58221  0.20490  0.15100  Biso   1.000  C
  C201     1.0000 0.57361  0.12658  0.37769  Biso   1.000  C
  C202     1.0000 0.50821  0.10608  0.27440  Biso   1.000  C
  C203     1.0000 0.55978  0.17659  0.47069  Biso   1.000  C
  C204     1.0000 0.47302  0.20232  0.47738  Biso   1.000  C
  H239     1.0000 0.61013  0.24513  0.54425  Biso   1.000  H
  H240     1.0000 0.72414  0.18657  0.72356  Biso   1.000  H
  H241     1.0000 0.74372  0.25469  0.74805  Biso   1.000  H
  H242     1.0000 0.67228  0.20273  0.74490  Biso   1.000  H
  C205     1.0000 0.82342  0.38321  0.47069  Biso   1.000  C
  H243     1.0000 0.75485  0.36501  0.54425  Biso   1.000  H
  C206     1.0000 0.79511  0.37730  0.15100  Biso   1.000  C
  C207     1.0000 0.84997  0.49598  0.47549  Biso   1.000  C
  C208     1.0000 0.84511  0.33980  0.37701  Biso   1.000  C
  C209     1.0000 0.89390  0.40209  0.27440  Biso   1.000  C
  H244     1.0000 0.57933  0.39133  0.16516  Biso   1.000  H
  H245     1.0000 0.64688  0.44070  0.18955  Biso   1.000  H
  C210     1.0000 0.62402  0.46001  0.10702  Biso   1.000  C
  C211     1.0000 0.70972  0.24642  0.13432  Biso   1.000  C
  H246     1.0000 0.60864  0.18800  0.16516  Biso   1.000  H
  H247     1.0000 0.55931  0.20620  0.18955  Biso   1.000  H
  C212     1.0000 0.54000  0.16399  0.10702  Biso   1.000  C
  C213     1.0000 0.59069  0.15050  0.43999  Biso   1.000  C
  C214     1.0000 0.61428  0.10811  0.34049  Biso   1.000  C
  H248     1.0000 0.49446  0.13282  0.25331  Biso   1.000  H
  H249     1.0000 0.54662  0.11411  0.25219  Biso   1.000  H
  C215     1.0000 0.46412  0.04581  0.26170  Biso   1.000  C
  H250     1.0000 0.50110  0.23649  0.50633  Biso   1.000  H
  H251     1.0000 0.45526  0.21903  0.44596  Biso   1.000  H
  C216     1.0000 0.42570  0.15720  0.51418  Biso   1.000  C
  C217     1.0000 0.82120  0.33301  0.43932  Biso   1.000  C
  H252     1.0000 0.81199  0.42066  0.16516  Biso   1.000  H
  H253     1.0000 0.79381  0.35310  0.18955  Biso   1.000  H
  C218     1.0000 0.83602  0.37600  0.10702  Biso   1.000  C
  H254     1.0000 0.84949  0.52397  0.44179  Biso   1.000  H
  H255     1.0000 0.81092  0.47963  0.50007  Biso   1.000  H
  C219     1.0000 0.89780  0.53140  0.51748  Biso   1.000  C
  C220     1.0000 0.84091  0.28452  0.34141  Biso   1.000  C
  H256     1.0000 0.86719  0.36164  0.25331  Biso   1.000  H
  H257     1.0000 0.88592  0.43253  0.25219  Biso   1.000  H
  C221     1.0000 0.95419  0.41830  0.26170  Biso   1.000  C
  H258     1.0000 0.60783  0.48425  0.12690  Biso   1.000  H
  H259     1.0000 0.66713  0.48767  0.09329  Biso   1.000  H
  H260     1.0000 0.59938  0.43816  0.06886  Biso   1.000  H
  N22      1.0000 0.71712  0.21931  0.08762  Biso   1.000  N
  H261     1.0000 0.71771  0.23737  0.17679  Biso   1.000  H
  H262     1.0000 0.51576  0.12358  0.12690  Biso   1.000  H
  H263     1.0000 0.51230  0.17946  0.09329  Biso   1.000  H
  H264     1.0000 0.56185  0.16122  0.06886  Biso   1.000  H
  C222     1.0000 0.64599  0.14999  0.47549  Biso   1.000  C
  N23      1.0000 0.60302  0.05311  0.34772  Biso   1.000  N
  H265     1.0000 0.64662  0.13646  0.31305  Biso   1.000  H
  H266     1.0000 0.45889  0.03944  0.21466  Biso   1.000  H
  H267     1.0000 0.47721  0.01801  0.28008  Biso   1.000  H
  H268     1.0000 0.42472  0.03685  0.28119  Biso   1.000  H
  H269     1.0000 0.40364  0.17507  0.53654  Biso   1.000  H
  H270     1.0000 0.39695  0.12353  0.48591  Biso   1.000  H
  H271     1.0000 0.44290  0.14104  0.54633  Biso   1.000  H
  C223     1.0000 0.79769  0.27071  0.47738  Biso   1.000  C
  H272     1.0000 0.87644  0.39221  0.12690  Biso   1.000  H
  H273     1.0000 0.82053  0.33287  0.09329  Biso   1.000  H
  H274     1.0000 0.83877  0.40062  0.06886  Biso   1.000  H
  H275     1.0000 0.89186  0.56423  0.53586  Biso   1.000  H
  H276     1.0000 0.89837  0.50526  0.55264  Biso   1.000  H
  H277     1.0000 0.93713  0.54983  0.49401  Biso   1.000  H
  N24      1.0000 0.88190  0.26900  0.34859  Biso   1.000  N
  H278     1.0000 0.80700  0.26101  0.31329  Biso   1.000  H
  H279     1.0000 0.96057  0.41946  0.21466  Biso   1.000  H
  H280     1.0000 0.98199  0.45917  0.28008  Biso   1.000  H
  H281     1.0000 0.96313  0.38787  0.28119  Biso   1.000  H
  C224     1.0000 0.73601  0.16662  0.09800  Biso   1.000  C
  H282     1.0000 0.67450  0.15055  0.44179  Biso   1.000  H
  H283     1.0000 0.66868  0.18906  0.50007  Biso   1.000  H
  C225     1.0000 0.63361  0.10220  0.51748  Biso   1.000  C
  C226     1.0000 0.64720  0.03588  0.30481  Biso   1.000  C
  H284     1.0000 0.76353  0.26462  0.50633  Biso   1.000  H
  H285     1.0000 0.78096  0.23621  0.44596  Biso   1.000  H
  C227     1.0000 0.84281  0.26849  0.51418  Biso   1.000  C
  C228     1.0000 0.87110  0.21220  0.30088  Biso   1.000  C
  C229     1.0000 0.74358  0.15378  0.17180  Biso   1.000  C
  H286     1.0000 0.70397  0.12774  0.07792  Biso   1.000  H
  H287     1.0000 0.77537  0.17937  0.07516  Biso   1.000  H
  H288     1.0000 0.67238  0.10816  0.53586  Biso   1.000  H
  H289     1.0000 0.60687  0.10160  0.55264  Biso   1.000  H
  H290     1.0000 0.61272  0.06290  0.49401  Biso   1.000  H
  C230     1.0000 0.70029  0.09190  0.26761  Biso   1.000  C
  H291     1.0000 0.66581  0.01815  0.33395  Biso   1.000  H
  H292     1.0000 0.62125  0.00365  0.27295  Biso   1.000  H
  H293     1.0000 0.82494  0.22859  0.53654  Biso   1.000  H
  H294     1.0000 0.87644  0.27344  0.48591  Biso   1.000  H
  H295     1.0000 0.85897  0.30184  0.54633  Biso   1.000  H
  C231     1.0000 0.80629  0.17401  0.26718  Biso   1.000  C
  H296     1.0000 0.90288  0.22929  0.26645  Biso   1.000  H
  H297     1.0000 0.87856  0.18306  0.32653  Biso   1.000  H
  C232     1.0000 0.79980  0.18782  0.20341  Biso   1.000  C
  C233     1.0000 0.69380  0.10580  0.20390  Biso   1.000  C
  C234     1.0000 0.75648  0.12598  0.29928  Biso   1.000  C
  C235     1.0000 0.85481  0.24720  0.16448  Biso   1.000  C
  C236     1.0000 0.62599  0.06281  0.16709  Biso   1.000  C
  C237     1.0000 0.77038  0.11859  0.37672  Biso   1.000  C
  H298     1.0000 0.83800  0.25630  0.12515  Biso   1.000  H
  H299     1.0000 0.87335  0.28429  0.19260  Biso   1.000  H
  C238     1.0000 0.90392  0.22961  0.14552  Biso   1.000  C
  H300     1.0000 0.59194  0.04863  0.19895  Biso   1.000  H
  H301     1.0000 0.61983  0.08728  0.13330  Biso   1.000  H
  C239     1.0000 0.62659  0.00610  0.13592  Biso   1.000  C
  H302     1.0000 0.80181  0.15914  0.39422  Biso   1.000  H
  H303     1.0000 0.73208  0.10358  0.40241  Biso   1.000  H
  C240     1.0000 0.79400  0.07200  0.38152  Biso   1.000  C
  H304     1.0000 0.93770  0.26397  0.12210  Biso   1.000  H
  H305     1.0000 0.92016  0.22074  0.18484  Biso   1.000  H
  H306     1.0000 0.88500  0.19290  0.11773  Biso   1.000  H
  H307     1.0000 0.66042  0.02074  0.10440  Biso   1.000  H
  H308     1.0000 0.58722  0.98000  0.11385  Biso   1.000  H
  H309     1.0000 0.63265  0.98222  0.16981  Biso   1.000  H
  H310     1.0000 0.80235  0.06742  0.42700  Biso   1.000  H
  H311     1.0000 0.76262  0.03196  0.36440  Biso   1.000  H
  H312     1.0000 0.83212  0.08737  0.35625  Biso   1.000  H
  C241     1.0000 0.12733  0.73866  0.04815  Biso   1.000  C
  C242     1.0000 0.10371  0.78526  0.04335  Biso   1.000  C
  H313     1.0000 0.13568  0.73409  0.09368  Biso   1.000  H
  H314     1.0000 0.09595  0.69862  0.03103  Biso   1.000  H
  H315     1.0000 0.16545  0.75404  0.02294  Biso   1.000  H
  H316     1.0000 0.13515  0.82580  0.06090  Biso   1.000  H
  H317     1.0000 0.06541  0.77025  0.06905  Biso   1.000  H
  C243     1.0000 0.08981  0.79264  0.96596  Biso   1.000  C
  C244     1.0000 0.13962  0.84067  0.93386  Biso   1.000  C
  C245     1.0000 0.03362  0.75856  0.93425  Biso   1.000  C
  C246     1.0000 0.13313  0.85448  0.87005  Biso   1.000  C
  C247     1.0000 0.20443  0.87886  0.96756  Biso   1.000  C
  C248     1.0000 0.98053  0.70255  0.97149  Biso   1.000  C
  C249     1.0000 0.02713  0.77246  0.87058  Biso   1.000  C
  C250     1.0000 0.07692  0.82045  0.83848  Biso   1.000  C
  C251     1.0000 0.18814  0.91387  0.83116  Biso   1.000  C
  N25      1.0000 0.21523  0.93567  0.01527  Biso   1.000  N
  H318     1.0000 0.23621  0.89595  0.93308  Biso   1.000  H
  H319     1.0000 0.21190  0.84972  0.99321  Biso   1.000  H
  H320     1.0000 0.95458  0.67031  0.93958  Biso   1.000  H
  N26      1.0000 0.93635  0.71977  0.01435  Biso   1.000  N
  H321     1.0000 0.99914  0.68481  0.00063  Biso   1.000  H
  C252     1.0000 0.95932  0.72947  0.83378  Biso   1.000  C
  C253     1.0000 0.06934  0.83328  0.76468  Biso   1.000  C
  H322     1.0000 0.17133  0.92297  0.79183  Biso   1.000  H
  H323     1.0000 0.20668  0.95095  0.85923  Biso   1.000  H
  C254     1.0000 0.23725  0.89627  0.81215  Biso   1.000  C
  C255     1.0000 0.17424  0.95118  0.00805  Biso   1.000  C
  C256     1.0000 0.94762  0.77477  0.00718  Biso   1.000  C
  H324     1.0000 0.92528  0.71529  0.86564  Biso   1.000  H
  H325     1.0000 0.95318  0.75399  0.79998  Biso   1.000  H
  C257     1.0000 0.95992  0.67276  0.80255  Biso   1.000  C
  N27      1.0000 0.05045  0.88598  0.75425  Biso   1.000  N
  H326     1.0000 0.03730  0.79440  0.74461  Biso   1.000  H
  H327     1.0000 0.10870  0.84603  0.74179  Biso   1.000  H
  H328     1.0000 0.27103  0.93063  0.78873  Biso   1.000  H
  H329     1.0000 0.25349  0.88741  0.85148  Biso   1.000  H
  H330     1.0000 0.21833  0.85956  0.78442  Biso   1.000  H
  H331     1.0000 0.14035  0.92772  0.97993  Biso   1.000  H
  C258     1.0000 0.17844  0.00647  0.04369  Biso   1.000  C
  H332     1.0000 0.97995  0.80313  0.97973  Biso   1.000  H
  C259     1.0000 0.90694  0.79324  0.04437  Biso   1.000  C
  H333     1.0000 0.92056  0.64667  0.78054  Biso   1.000  H
  H334     1.0000 0.99376  0.68740  0.77103  Biso   1.000  H
  H335     1.0000 0.96598  0.64888  0.83649  Biso   1.000  H
  C260     1.0000 0.04305  0.91308  0.80095  Biso   1.000  C
  C261     1.0000 0.15453  0.99967  0.10595  Biso   1.000  C
  C262     1.0000 0.20454  0.06345  0.01285  Biso   1.000  C
  C263     1.0000 0.92402  0.81717  0.10668  Biso   1.000  C
  C264     1.0000 0.85894  0.79546  0.01285  Biso   1.000  C
  C265     1.0000 0.02165  0.96019  0.79295  Biso   1.000  C
  H336     1.0000 0.05104  0.90403  0.84343  Biso   1.000  H
  C266     1.0000 0.13102  0.93737  0.14406  Biso   1.000  C
  C267     1.0000 0.15676  0.04988  0.13737  Biso   1.000  C
  C268     1.0000 0.22723  0.06876  0.94109  Biso   1.000  C
  C269     1.0000 0.20672  0.11365  0.04437  Biso   1.000  C
  C270     1.0000 0.89311  0.84326  0.13737  Biso   1.000  C
  C271     1.0000 0.97932  0.81666  0.14217  Biso   1.000  C
  C272     1.0000 0.84156  0.77279  0.94109  Biso   1.000  C
  C273     1.0000 0.82803  0.82155  0.04369  Biso   1.000  C
  C274     1.0000 0.95861  0.93954  0.79368  Biso   1.000  C
  C275     1.0000 0.06045  0.01907  0.79368  Biso   1.000  C
  H337     1.0000 0.09686  0.93128  0.17301  Biso   1.000  H
  H338     1.0000 0.11429  0.90288  0.11264  Biso   1.000  H
  C276     1.0000 0.17615  0.93516  0.18087  Biso   1.000  C
  C277     1.0000 0.18285  0.10686  0.10668  Biso   1.000  C
  C278     1.0000 0.13012  0.04235  0.20598  Biso   1.000  C
  H339     1.0000 0.20052  0.02831  0.91999  Biso   1.000  H
  H340     1.0000 0.21925  0.09920  0.91888  Biso   1.000  H
  C279     1.0000 0.28753  0.08497  0.92838  Biso   1.000  C
  C280     1.0000 0.22524  0.17285  0.00718  Biso   1.000  C
  C281     1.0000 0.84515  0.84548  0.10595  Biso   1.000  C
  C282     1.0000 0.91221  0.86986  0.20598  Biso   1.000  C
  H341     1.0000 0.00783  0.81721  0.10847  Biso   1.000  H
  H342     1.0000 0.00201  0.85573  0.16676  Biso   1.000  H
  C283     1.0000 0.96694  0.76886  0.18416  Biso   1.000  C
  H343     1.0000 0.82779  0.79948  0.91999  Biso   1.000  H
  H344     1.0000 0.87995  0.78078  0.91888  Biso   1.000  H
  C284     1.0000 0.79745  0.71247  0.92838  Biso   1.000  C
  C285     1.0000 0.77694  0.82576  0.00805  Biso   1.000  C
  C286     1.0000 0.93856  0.97838  0.79295  Biso   1.000  C
  C287     1.0000 0.91555  0.87157  0.81768  Biso   1.000  C
  C288     1.0000 0.03985  0.06147  0.79295  Biso   1.000  C
  C289     1.0000 0.12844  0.04396  0.81768  Biso   1.000  C
  H345     1.0000 0.15828  0.89526  0.20317  Biso   1.000  H
  H346     1.0000 0.20977  0.94010  0.15255  Biso   1.000  H
  H347     1.0000 0.19230  0.96850  0.21301  Biso   1.000  H
  C290     1.0000 0.18331  0.16265  0.14217  Biso   1.000  C
  N28      1.0000 0.16233  0.05006  0.25607  Biso   1.000  N
  H348     1.0000 0.08819  0.03168  0.21088  Biso   1.000  H
  H349     1.0000 0.29390  0.08613  0.88135  Biso   1.000  H
  H350     1.0000 0.31532  0.12584  0.94676  Biso   1.000  H
  H351     1.0000 0.29647  0.05454  0.94787  Biso   1.000  H
  H352     1.0000 0.19688  0.17683  0.97973  Biso   1.000  H
  N29      1.0000 0.28023  0.21659  0.01435  Biso   1.000  N
  C291     1.0000 0.80635  0.86898  0.14406  Biso   1.000  C
  N30      1.0000 0.88772  0.83767  0.25607  Biso   1.000  N
  H353     1.0000 0.94346  0.91179  0.21088  Biso   1.000  H
  H354     1.0000 0.00571  0.77482  0.20249  Biso   1.000  H
  H355     1.0000 0.94020  0.76826  0.21927  Biso   1.000  H
  H356     1.0000 0.94605  0.72956  0.16069  Biso   1.000  H
  H357     1.0000 0.79222  0.70610  0.88135  Biso   1.000  H
  H358     1.0000 0.81054  0.68467  0.94676  Biso   1.000  H
  H359     1.0000 0.75805  0.70352  0.94787  Biso   1.000  H
  H360     1.0000 0.78737  0.85965  0.97993  Biso   1.000  H
  N31      1.0000 0.72044  0.78475  0.01527  Biso   1.000  N
  C292     1.0000 0.87001  0.95696  0.80095  Biso   1.000  C
  C293     1.0000 0.98094  0.04138  0.79368  Biso   1.000  C
  H361     1.0000 0.94197  0.85466  0.83184  Biso   1.000  H
  H362     1.0000 0.89264  0.87286  0.85618  Biso   1.000  H
  C294     1.0000 0.87333  0.83065  0.77365  Biso   1.000  C
  C295     1.0000 0.08693  0.12995  0.80095  Biso   1.000  C
  H363     1.0000 0.14533  0.08733  0.83184  Biso   1.000  H
  H364     1.0000 0.12714  0.01977  0.85618  Biso   1.000  H
  C296     1.0000 0.16935  0.04267  0.77365  Biso   1.000  C
  H365     1.0000 0.18282  0.19063  0.10847  Biso   1.000  H
  H366     1.0000 0.14426  0.14630  0.16676  Biso   1.000  H
  C297     1.0000 0.23113  0.19807  0.18416  Biso   1.000  C
  C298     1.0000 0.13494  0.04216  0.33026  Biso   1.000  C
  C299     1.0000 0.29744  0.27796  0.97149  Biso   1.000  C
  H367     1.0000 0.83444  0.90315  0.17301  Biso   1.000  H
  H368     1.0000 0.78859  0.88570  0.11264  Biso   1.000  H
  C300     1.0000 0.75904  0.82386  0.18087  Biso   1.000  C
  C301     1.0000 0.90721  0.86506  0.33026  Biso   1.000  C
  C302     1.0000 0.67441  0.79555  0.96756  Biso   1.000  C
  N32      1.0000 0.83553  0.94957  0.75425  Biso   1.000  N
  H369     1.0000 0.85298  0.94897  0.84343  Biso   1.000  H
  C303     1.0000 0.95605  0.08446  0.81768  Biso   1.000  C
  H370     1.0000 0.84909  0.79024  0.79358  Biso   1.000  H
  H371     1.0000 0.84563  0.84612  0.75998  Biso   1.000  H
  H372     1.0000 0.89518  0.82788  0.73554  Biso   1.000  H
  N33      1.0000 0.11402  0.16445  0.75425  Biso   1.000  N
  H373     1.0000 0.09597  0.14699  0.84343  Biso   1.000  H
  H374     1.0000 0.15386  0.99953  0.75998  Biso   1.000  H
  H375     1.0000 0.20977  0.05888  0.79358  Biso   1.000  H
  H376     1.0000 0.17210  0.06729  0.73554  Biso   1.000  H
  H377     1.0000 0.22519  0.23090  0.20249  Biso   1.000  H
  H378     1.0000 0.23170  0.17193  0.21927  Biso   1.000  H
  H379     1.0000 0.27046  0.21649  0.16069  Biso   1.000  H
  C304     1.0000 0.06453  0.02244  0.32386  Biso   1.000  C
  H380     1.0000 0.13938  0.01016  0.35397  Biso   1.000  H
  H381     1.0000 0.15764  0.08165  0.35422  Biso   1.000  H
  C305     1.0000 0.24143  0.27505  0.93425  Biso   1.000  C
  H382     1.0000 0.32969  0.28424  0.93958  Biso   1.000  H
  H383     1.0000 0.31517  0.31431  0.00063  Biso   1.000  H
  H384     1.0000 0.73698  0.84173  0.20317  Biso   1.000  H
  H385     1.0000 0.73028  0.79020  0.15255  Biso   1.000  H
  H386     1.0000 0.77623  0.80770  0.21301  Biso   1.000  H
  C306     1.0000 0.95794  0.93548  0.32386  Biso   1.000  C
  H387     1.0000 0.87080  0.86062  0.35397  Biso   1.000  H
  H388     1.0000 0.92397  0.84233  0.35422  Biso   1.000  H
  C307     1.0000 0.70101  0.86035  0.93386  Biso   1.000  C
  H389     1.0000 0.65975  0.76383  0.93308  Biso   1.000  H
  H390     1.0000 0.63780  0.78807  0.99321  Biso   1.000  H
  C308     1.0000 0.76393  0.93068  0.76468  Biso   1.000  C
  H391     1.0000 0.91266  0.05800  0.83184  Biso   1.000  H
  H392     1.0000 0.98022  0.10737  0.85618  Biso   1.000  H
  C309     1.0000 0.95735  0.12667  0.77365  Biso   1.000  C
  C310     1.0000 0.16675  0.23608  0.76468  Biso   1.000  C
  C311     1.0000 0.02285  0.95908  0.32357  Biso   1.000  C
  C312     1.0000 0.04093  0.06378  0.32357  Biso   1.000  C
  C313     1.0000 0.22753  0.25469  0.87058  Biso   1.000  C
  C314     1.0000 0.20734  0.29717  0.96596  Biso   1.000  C
  C315     1.0000 0.93624  0.97718  0.32357  Biso   1.000  C
  C316     1.0000 0.72134  0.86686  0.87005  Biso   1.000  C
  C317     1.0000 0.70285  0.91017  0.96596  Biso   1.000  C
  C318     1.0000 0.74352  0.92306  0.83848  Biso   1.000  C
  H393     1.0000 0.75712  0.96273  0.74461  Biso   1.000  H
  H394     1.0000 0.73732  0.89129  0.74179  Biso   1.000  H
  H395     1.0000 0.94116  0.15092  0.79358  Biso   1.000  H
  H396     1.0000 0.93271  0.10483  0.73554  Biso   1.000  H
  H397     1.0000 0.00046  0.15434  0.75998  Biso   1.000  H
  C319     1.0000 0.17956  0.25649  0.83848  Biso   1.000  C
  H398     1.0000 0.20562  0.24286  0.74461  Biso   1.000  H
  H399     1.0000 0.15397  0.26268  0.74179  Biso   1.000  H
  C320     1.0000 0.04245  0.90477  0.31964  Biso   1.000  C
  C321     1.0000 0.97752  0.04207  0.32386  Biso   1.000  C
  C322     1.0000 0.09523  0.13766  0.31964  Biso   1.000  C
  C323     1.0000 0.27056  0.22989  0.83378  Biso   1.000  C
  C324     1.0000 0.15933  0.29897  0.93386  Biso   1.000  C
  C325     1.0000 0.21474  0.31846  0.04335  Biso   1.000  C
  C326     1.0000 0.86232  0.95756  0.31964  Biso   1.000  C
  C327     1.0000 0.72572  0.81186  0.83116  Biso   1.000  C
  C328     1.0000 0.72495  0.96638  0.93425  Biso   1.000  C
  C329     1.0000 0.68154  0.89627  0.04335  Biso   1.000  C
  C330     1.0000 0.74536  0.97289  0.87058  Biso   1.000  C
  C331     1.0000 0.14553  0.27865  0.87005  Biso   1.000  C
  H400     1.0000 0.01119  0.86880  0.29477  Biso   1.000  H
  H401     1.0000 0.08291  0.92098  0.29792  Biso   1.000  H
  C332     1.0000 0.04595  0.88538  0.39068  Biso   1.000  C
  C333     1.0000 0.95784  0.09278  0.33026  Biso   1.000  C
  H402     1.0000 0.13122  0.14237  0.29477  Biso   1.000  H
  H403     1.0000 0.07906  0.16196  0.29792  Biso   1.000  H
  C334     1.0000 0.11464  0.16057  0.39068  Biso   1.000  C
  H404     1.0000 0.28468  0.20998  0.86564  Biso   1.000  H
  H405     1.0000 0.24601  0.19918  0.79998  Biso   1.000  H
  C335     1.0000 0.32723  0.28715  0.80255  Biso   1.000  C
  C336     1.0000 0.12115  0.32557  0.96756  Biso   1.000  C
  H406     1.0000 0.17418  0.30932  0.06090  Biso   1.000  H
  H407     1.0000 0.22978  0.29519  0.06905  Biso   1.000  H
  C337     1.0000 0.26132  0.38866  0.04815  Biso   1.000  C
  H408     1.0000 0.85759  0.98882  0.29477  Biso   1.000  H
  H409     1.0000 0.83805  0.91710  0.29792  Biso   1.000  H
  C338     1.0000 0.83940  0.95405  0.39068  Biso   1.000  C
  H410     1.0000 0.75164  0.82867  0.79183  Biso   1.000  H
  H411     1.0000 0.74425  0.79334  0.85923  Biso   1.000  H
  C339     1.0000 0.65902  0.76277  0.81215  Biso   1.000  C
  C340     1.0000 0.72203  0.01949  0.97149  Biso   1.000  C
  H412     1.0000 0.69067  0.86487  0.06090  Biso   1.000  H
  H413     1.0000 0.70480  0.93456  0.06905  Biso   1.000  H
  C341     1.0000 0.61135  0.87268  0.04815  Biso   1.000  C
  C342     1.0000 0.77014  0.04069  0.83378  Biso   1.000  C
  C343     1.0000 0.08614  0.27427  0.83116  Biso   1.000  C
  H414     1.0000 0.05748  0.85323  0.39024  Biso   1.000  H
  H415     1.0000 0.07706  0.92135  0.41473  Biso   1.000  H
  H416     1.0000 0.00561  0.86940  0.41153  Biso   1.000  H
  N34      1.0000 0.94995  0.11227  0.25607  Biso   1.000  N
  H417     1.0000 0.98982  0.12921  0.35397  Biso   1.000  H
  H418     1.0000 0.91839  0.07601  0.35422  Biso   1.000  H
  H419     1.0000 0.14676  0.20426  0.39024  Biso   1.000  H
  H420     1.0000 0.07864  0.15567  0.41473  Biso   1.000  H
  H421     1.0000 0.13059  0.13623  0.41153  Biso   1.000  H
  H422     1.0000 0.35335  0.27390  0.78054  Biso   1.000  H
  H423     1.0000 0.31264  0.30636  0.77103  Biso   1.000  H
  H424     1.0000 0.35113  0.31712  0.83649  Biso   1.000  H
  H425     1.0000 0.10406  0.34026  0.93308  Biso   1.000  H
  H426     1.0000 0.15026  0.36219  0.99321  Biso   1.000  H
  N35      1.0000 0.06432  0.27958  0.01527  Biso   1.000  N
  H427     1.0000 0.26590  0.40159  0.09368  Biso   1.000  H
  H428     1.0000 0.30141  0.39734  0.03103  Biso   1.000  H
  H429     1.0000 0.24599  0.41142  0.02294  Biso   1.000  H
  H430     1.0000 0.79576  0.94250  0.39024  Biso   1.000  H
  H431     1.0000 0.84430  0.92297  0.41473  Biso   1.000  H
  H432     1.0000 0.86376  0.99436  0.41153  Biso   1.000  H
  H433     1.0000 0.65959  0.72896  0.78873  Biso   1.000  H
  H434     1.0000 0.63391  0.74646  0.85148  Biso   1.000  H
  H435     1.0000 0.64123  0.78165  0.78442  Biso   1.000  H
  H436     1.0000 0.71577  0.04544  0.93958  Biso   1.000  H
  N36      1.0000 0.78344  0.06368  0.01435  Biso   1.000  N
  H437     1.0000 0.68569  0.00088  0.00063  Biso   1.000  H
  H438     1.0000 0.59841  0.86432  0.09368  Biso   1.000  H
  H439     1.0000 0.60270  0.90408  0.03103  Biso   1.000  H
  H440     1.0000 0.58856  0.83453  0.02294  Biso   1.000  H
  H441     1.0000 0.79000  0.07472  0.86564  Biso   1.000  H
  H442     1.0000 0.80081  0.04683  0.79998  Biso   1.000  H
  C344     1.0000 0.71285  0.04008  0.80255  Biso   1.000  C
  H443     1.0000 0.07703  0.24836  0.79183  Biso   1.000  H
  H444     1.0000 0.04909  0.25575  0.85923  Biso   1.000  H
  C345     1.0000 0.10373  0.34095  0.81215  Biso   1.000  C
  C346     1.0000 0.95763  0.08779  0.20598  Biso   1.000  C
  C347     1.0000 0.04882  0.22305  0.00805  Biso   1.000  C
  C348     1.0000 0.82714  0.05237  0.00718  Biso   1.000  C
  H445     1.0000 0.72609  0.07943  0.78054  Biso   1.000  H
  H446     1.0000 0.69365  0.00623  0.77103  Biso   1.000  H
  H447     1.0000 0.68291  0.03404  0.83649  Biso   1.000  H
  H448     1.0000 0.06933  0.34040  0.78873  Biso   1.000  H
  H449     1.0000 0.11257  0.36607  0.85148  Biso   1.000  H
  H450     1.0000 0.14043  0.35878  0.78442  Biso   1.000  H
  C349     1.0000 0.95013  0.10686  0.13737  Biso   1.000  C
  H451     1.0000 0.96831  0.05653  0.21088  Biso   1.000  H
  C350     1.0000 0.99352  0.17198  0.04369  Biso   1.000  C
  H452     1.0000 0.07230  0.21266  0.97993  Biso   1.000  H
  H453     1.0000 0.82317  0.02004  0.97973  Biso   1.000  H
  C351     1.0000 0.88631  0.09305  0.04437  Biso   1.000  C
  C352     1.0000 0.89313  0.07597  0.10668  Biso   1.000  C
  C353     1.0000 0.00031  0.15484  0.10595  Biso   1.000  C
  C354     1.0000 0.93652  0.14108  0.01285  Biso   1.000  C
  C355     1.0000 0.83733  0.02069  0.14217  Biso   1.000  C
  C356     1.0000 0.06265  0.19368  0.14406  Biso   1.000  C
  C357     1.0000 0.93121  0.15845  0.94109  Biso   1.000  C
  H454     1.0000 0.80937  0.99219  0.10847  Biso   1.000  H
  H455     1.0000 0.85368  0.99796  0.16676  Biso   1.000  H
  C358     1.0000 0.80193  0.03307  0.18416  Biso   1.000  C
  H456     1.0000 0.06870  0.16556  0.17301  Biso   1.000  H
  H457     1.0000 0.09711  0.21141  0.11264  Biso   1.000  H
  C359     1.0000 0.06485  0.24097  0.18087  Biso   1.000  C
  H458     1.0000 0.97168  0.17221  0.91999  Biso   1.000  H
  H459     1.0000 0.90080  0.12002  0.91888  Biso   1.000  H
  C360     1.0000 0.91502  0.20255  0.92838  Biso   1.000  C
  H460     1.0000 0.76911  0.99432  0.20249  Biso   1.000  H
  H461     1.0000 0.82809  0.05980  0.21927  Biso   1.000  H
  H462     1.0000 0.78349  0.05394  0.16069  Biso   1.000  H
  H463     1.0000 0.10474  0.26300  0.20317  Biso   1.000  H
  H464     1.0000 0.05990  0.26969  0.15255  Biso   1.000  H
  H465     1.0000 0.03151  0.22379  0.21301  Biso   1.000  H
  H466     1.0000 0.91387  0.20777  0.88135  Biso   1.000  H
  H467     1.0000 0.87417  0.18948  0.94676  Biso   1.000  H
  H468     1.0000 0.94544  0.24194  0.94787  Biso   1.000  H
  Ne1      1.0000 0.33333  0.66667  0.67573  Biso   1.000  Ne
  Ar1      1.0000 0.33392  0.66720  0.66593  Biso   1.000  Ar
  Ne2      1.0000 0.66667  0.33333  0.34240  Biso   1.000  Ne
  Ar2      1.0000 0.66664  0.33332  0.33271  Biso   1.000  Ar
  Ne3      1.0000 0.00000  1.00000  0.00906  Biso   1.000  Ne
  Ar3      1.0000 0.00037  0.00041  0.99929  Biso   1.000  Ar
