data_image0
_cell_length_a       24.348
_cell_length_b       24.348
_cell_length_c       24.348
_cell_angle_alpha    90
_cell_angle_beta     90
_cell_angle_gamma    90

_symmetry_space_group_name_H-M    "P 1"
_symmetry_int_tables_number       1

loop_
  _symmetry_equiv_pos_as_xyz
  'x, y, z'

loop_
  _atom_site_label
  _atom_site_occupancy
  _atom_site_fract_x
  _atom_site_fract_y
  _atom_site_fract_z
  _atom_site_thermal_displace_type
  _atom_site_B_iso_or_equiv
  _atom_site_type_symbol
  C1       1.0000 0.72474  0.48940  0.52941  Biso   1.000  C
  C2       1.0000 0.72474  0.51056  0.47059  Biso   1.000  C
  N1       1.0000 0.77197  0.45326  0.53614  Biso   1.000  N
  H1       1.0000 0.72708  0.52049  0.55540  Biso   1.000  H
  H2       1.0000 0.69041  0.46899  0.53688  Biso   1.000  H
  N2       1.0000 0.77197  0.54670  0.46386  Biso   1.000  N
  H3       1.0000 0.72708  0.47951  0.44460  Biso   1.000  H
  H4       1.0000 0.69041  0.53101  0.46308  Biso   1.000  H
  C3       1.0000 0.80565  0.46554  0.57438  Biso   1.000  C
  C4       1.0000 0.80565  0.53442  0.42562  Biso   1.000  C
  C5       1.0000 0.85424  0.43199  0.58662  Biso   1.000  C
  H5       1.0000 0.79908  0.49758  0.59570  Biso   1.000  H
  C6       1.0000 0.85424  0.56801  0.41334  Biso   1.000  C
  H6       1.0000 0.79908  0.50238  0.40430  Biso   1.000  H
  C7       1.0000 0.86796  0.38623  0.55499  Biso   1.000  C
  C8       1.0000 0.88623  0.44501  0.63204  Biso   1.000  C
  C9       1.0000 0.86796  0.61377  0.44501  Biso   1.000  C
  C10      1.0000 0.88623  0.55499  0.36796  Biso   1.000  C
  H7       1.0000 0.84598  0.37691  0.52411  Biso   1.000  H
  C11      1.0000 0.91334  0.35424  0.56801  Biso   1.000  C
  H8       1.0000 0.87691  0.47589  0.65398  Biso   1.000  H
  C12      1.0000 0.93199  0.41334  0.64576  Biso   1.000  C
  H9       1.0000 0.84598  0.62309  0.47589  Biso   1.000  H
  C13      1.0000 0.91334  0.64576  0.43199  Biso   1.000  C
  H10      1.0000 0.87691  0.52411  0.34598  Biso   1.000  H
  C14      1.0000 0.93199  0.58662  0.35424  Biso   1.000  C
  C15      1.0000 0.94501  0.36796  0.61377  Biso   1.000  C
  C16      1.0000 0.92562  0.30565  0.53442  Biso   1.000  C
  C17      1.0000 0.96554  0.42562  0.69435  Biso   1.000  C
  C18      1.0000 0.94501  0.63204  0.38623  Biso   1.000  C
  C19      1.0000 0.92562  0.69435  0.46554  Biso   1.000  C
  C20      1.0000 0.96554  0.57438  0.30565  Biso   1.000  C
  H11      1.0000 0.97589  0.34598  0.62309  Biso   1.000  H
  N3       1.0000 0.96386  0.27197  0.54670  Biso   1.000  N
  H12      1.0000 0.90430  0.29908  0.50238  Biso   1.000  H
  N4       1.0000 0.95326  0.46386  0.72803  Biso   1.000  N
  H13      1.0000 0.99758  0.40430  0.70088  Biso   1.000  H
  H14      1.0000 0.97589  0.65398  0.37691  Biso   1.000  H
  N5       1.0000 0.96386  0.72803  0.45326  Biso   1.000  N
  H15      1.0000 0.90430  0.70088  0.49758  Biso   1.000  H
  N6       1.0000 0.95326  0.53614  0.27197  Biso   1.000  N
  H16      1.0000 0.99758  0.59570  0.29908  Biso   1.000  H
  C21      1.0000 0.97059  0.22474  0.51056  Biso   1.000  C
  C22      1.0000 0.98940  0.47059  0.77526  Biso   1.000  C
  C23      1.0000 0.97059  0.77526  0.48940  Biso   1.000  C
  C24      1.0000 0.98940  0.52941  0.22474  Biso   1.000  C
  H17      1.0000 0.94460  0.22708  0.47951  Biso   1.000  H
  H18      1.0000 0.96308  0.19041  0.53101  Biso   1.000  H
  C25      1.0000 0.02941  0.22474  0.48940  Biso   1.000  C
  H19      1.0000 0.96899  0.46308  0.80959  Biso   1.000  H
  C26      1.0000 0.01060  0.52941  0.77526  Biso   1.000  C
  H20      1.0000 0.02049  0.44460  0.77288  Biso   1.000  H
  H21      1.0000 0.94460  0.77288  0.52049  Biso   1.000  H
  H22      1.0000 0.96308  0.80959  0.46899  Biso   1.000  H
  C27      1.0000 0.02941  0.77526  0.51056  Biso   1.000  C
  H23      1.0000 0.96899  0.53688  0.19041  Biso   1.000  H
  C28      1.0000 0.01060  0.47059  0.22474  Biso   1.000  C
  H24      1.0000 0.02049  0.55540  0.22708  Biso   1.000  H
  N7       1.0000 0.03614  0.27197  0.45326  Biso   1.000  N
  H25      1.0000 0.05540  0.22708  0.52049  Biso   1.000  H
  H26      1.0000 0.03688  0.19041  0.46899  Biso   1.000  H
  H27      1.0000 0.97951  0.55540  0.77288  Biso   1.000  H
  N8       1.0000 0.04674  0.53614  0.72803  Biso   1.000  N
  H28      1.0000 0.03101  0.53688  0.80959  Biso   1.000  H
  N9       1.0000 0.03614  0.72803  0.54670  Biso   1.000  N
  H29      1.0000 0.05540  0.77288  0.47951  Biso   1.000  H
  H30      1.0000 0.03688  0.80959  0.53101  Biso   1.000  H
  H31      1.0000 0.97951  0.44460  0.22708  Biso   1.000  H
  N10      1.0000 0.04674  0.46386  0.27197  Biso   1.000  N
  H32      1.0000 0.03101  0.46308  0.19041  Biso   1.000  H
  C29      1.0000 0.07438  0.30565  0.46554  Biso   1.000  C
  C30      1.0000 0.03446  0.57438  0.69435  Biso   1.000  C
  C31      1.0000 0.07438  0.69435  0.53442  Biso   1.000  C
  C32      1.0000 0.03446  0.42562  0.30565  Biso   1.000  C
  C33      1.0000 0.08662  0.35424  0.43199  Biso   1.000  C
  H33      1.0000 0.09570  0.29908  0.49758  Biso   1.000  H
  C34      1.0000 0.06801  0.58662  0.64576  Biso   1.000  C
  H34      1.0000 0.00238  0.59570  0.70088  Biso   1.000  H
  C35      1.0000 0.08662  0.64576  0.56801  Biso   1.000  C
  H35      1.0000 0.09570  0.70088  0.50238  Biso   1.000  H
  C36      1.0000 0.06801  0.41334  0.35424  Biso   1.000  C
  H36      1.0000 0.00238  0.40430  0.29908  Biso   1.000  H
  C37      1.0000 0.05499  0.36796  0.38623  Biso   1.000  C
  C38      1.0000 0.13204  0.38623  0.44501  Biso   1.000  C
  C39      1.0000 0.05499  0.63204  0.61377  Biso   1.000  C
  C40      1.0000 0.11377  0.55499  0.63204  Biso   1.000  C
  C41      1.0000 0.13204  0.61377  0.55499  Biso   1.000  C
  C42      1.0000 0.11377  0.44501  0.36796  Biso   1.000  C
  H37      1.0000 0.02411  0.34598  0.37691  Biso   1.000  H
  C43      1.0000 0.14576  0.43199  0.41334  Biso   1.000  C
  H38      1.0000 0.15402  0.37691  0.47589  Biso   1.000  H
  H39      1.0000 0.02411  0.65398  0.62309  Biso   1.000  H
  C44      1.0000 0.14576  0.56801  0.58662  Biso   1.000  C
  H40      1.0000 0.12309  0.52411  0.65398  Biso   1.000  H
  H41      1.0000 0.15402  0.62309  0.52411  Biso   1.000  H
  H42      1.0000 0.12309  0.47589  0.34598  Biso   1.000  H
  C45      1.0000 0.19435  0.46554  0.42562  Biso   1.000  C
  C46      1.0000 0.19435  0.53442  0.57438  Biso   1.000  C
  N11      1.0000 0.22803  0.45326  0.46386  Biso   1.000  N
  H43      1.0000 0.20088  0.49758  0.40430  Biso   1.000  H
  N12      1.0000 0.22803  0.54670  0.53614  Biso   1.000  N
  H44      1.0000 0.20088  0.50238  0.59570  Biso   1.000  H
  C47      1.0000 0.27526  0.48940  0.47059  Biso   1.000  C
  C48      1.0000 0.27526  0.51056  0.52941  Biso   1.000  C
  H45      1.0000 0.27292  0.52049  0.44460  Biso   1.000  H
  H46      1.0000 0.30959  0.46899  0.46308  Biso   1.000  H
  H47      1.0000 0.27292  0.47951  0.55540  Biso   1.000  H
  H48      1.0000 0.30959  0.53101  0.53688  Biso   1.000  H
  C49      1.0000 0.52941  0.72474  0.48940  Biso   1.000  C
  C50      1.0000 0.47059  0.72474  0.51056  Biso   1.000  C
  N13      1.0000 0.53614  0.77197  0.45326  Biso   1.000  N
  H49      1.0000 0.55540  0.72708  0.52049  Biso   1.000  H
  H50      1.0000 0.53688  0.69041  0.46899  Biso   1.000  H
  N14      1.0000 0.46386  0.77197  0.54670  Biso   1.000  N
  H51      1.0000 0.44460  0.72708  0.47951  Biso   1.000  H
  H52      1.0000 0.46308  0.69041  0.53101  Biso   1.000  H
  C51      1.0000 0.57438  0.80565  0.46554  Biso   1.000  C
  C52      1.0000 0.42562  0.80565  0.53442  Biso   1.000  C
  C53      1.0000 0.58662  0.85424  0.43199  Biso   1.000  C
  H53      1.0000 0.59570  0.79908  0.49758  Biso   1.000  H
  C54      1.0000 0.41334  0.85424  0.56801  Biso   1.000  C
  H54      1.0000 0.40430  0.79908  0.50238  Biso   1.000  H
  C55      1.0000 0.55499  0.86796  0.38623  Biso   1.000  C
  C56      1.0000 0.63204  0.88623  0.44501  Biso   1.000  C
  C57      1.0000 0.44501  0.86796  0.61377  Biso   1.000  C
  C58      1.0000 0.36796  0.88623  0.55499  Biso   1.000  C
  H55      1.0000 0.52411  0.84598  0.37691  Biso   1.000  H
  C59      1.0000 0.56801  0.91334  0.35424  Biso   1.000  C
  H56      1.0000 0.65398  0.87691  0.47589  Biso   1.000  H
  C60      1.0000 0.64576  0.93199  0.41334  Biso   1.000  C
  H57      1.0000 0.47589  0.84598  0.62309  Biso   1.000  H
  C61      1.0000 0.43199  0.91334  0.64576  Biso   1.000  C
  H58      1.0000 0.34598  0.87691  0.52411  Biso   1.000  H
  C62      1.0000 0.35424  0.93199  0.58662  Biso   1.000  C
  C63      1.0000 0.61377  0.94501  0.36796  Biso   1.000  C
  C64      1.0000 0.53442  0.92562  0.30565  Biso   1.000  C
  C65      1.0000 0.69435  0.96554  0.42562  Biso   1.000  C
  C66      1.0000 0.38623  0.94501  0.63204  Biso   1.000  C
  C67      1.0000 0.46554  0.92562  0.69435  Biso   1.000  C
  C68      1.0000 0.30565  0.96554  0.57438  Biso   1.000  C
  H59      1.0000 0.62309  0.97589  0.34598  Biso   1.000  H
  N15      1.0000 0.54670  0.96386  0.27197  Biso   1.000  N
  H60      1.0000 0.50238  0.90430  0.29908  Biso   1.000  H
  N16      1.0000 0.72803  0.95326  0.46386  Biso   1.000  N
  H61      1.0000 0.70088  0.99758  0.40430  Biso   1.000  H
  H62      1.0000 0.37691  0.97589  0.65398  Biso   1.000  H
  N17      1.0000 0.45326  0.96386  0.72803  Biso   1.000  N
  H63      1.0000 0.49758  0.90430  0.70088  Biso   1.000  H
  N18      1.0000 0.27197  0.95326  0.53614  Biso   1.000  N
  H64      1.0000 0.29908  0.99758  0.59570  Biso   1.000  H
  C69      1.0000 0.51056  0.97059  0.22474  Biso   1.000  C
  C70      1.0000 0.77526  0.98940  0.47059  Biso   1.000  C
  C71      1.0000 0.48940  0.97059  0.77526  Biso   1.000  C
  C72      1.0000 0.22474  0.98940  0.52941  Biso   1.000  C
  H65      1.0000 0.47951  0.94460  0.22708  Biso   1.000  H
  H66      1.0000 0.53101  0.96308  0.19041  Biso   1.000  H
  C73      1.0000 0.48940  0.02941  0.22474  Biso   1.000  C
  H67      1.0000 0.80959  0.96899  0.46308  Biso   1.000  H
  C74      1.0000 0.77526  0.01060  0.52941  Biso   1.000  C
  H68      1.0000 0.77288  0.02049  0.44460  Biso   1.000  H
  H69      1.0000 0.52049  0.94460  0.77288  Biso   1.000  H
  H70      1.0000 0.46899  0.96308  0.80959  Biso   1.000  H
  C75      1.0000 0.51056  0.02941  0.77526  Biso   1.000  C
  H71      1.0000 0.19041  0.96899  0.53688  Biso   1.000  H
  C76      1.0000 0.22474  0.01060  0.47059  Biso   1.000  C
  H72      1.0000 0.22708  0.02049  0.55540  Biso   1.000  H
  N19      1.0000 0.45326  0.03614  0.27197  Biso   1.000  N
  H73      1.0000 0.52049  0.05540  0.22708  Biso   1.000  H
  H74      1.0000 0.46899  0.03688  0.19041  Biso   1.000  H
  H75      1.0000 0.77288  0.97951  0.55540  Biso   1.000  H
  N20      1.0000 0.72803  0.04674  0.53614  Biso   1.000  N
  H76      1.0000 0.80959  0.03101  0.53688  Biso   1.000  H
  N21      1.0000 0.54670  0.03614  0.72803  Biso   1.000  N
  H77      1.0000 0.47951  0.05540  0.77288  Biso   1.000  H
  H78      1.0000 0.53101  0.03688  0.80959  Biso   1.000  H
  H79      1.0000 0.22708  0.97951  0.44460  Biso   1.000  H
  N22      1.0000 0.27197  0.04674  0.46386  Biso   1.000  N
  H80      1.0000 0.19041  0.03101  0.46308  Biso   1.000  H
  C77      1.0000 0.46554  0.07438  0.30565  Biso   1.000  C
  C78      1.0000 0.69435  0.03446  0.57438  Biso   1.000  C
  C79      1.0000 0.53442  0.07438  0.69435  Biso   1.000  C
  C80      1.0000 0.30565  0.03446  0.42562  Biso   1.000  C
  C81      1.0000 0.43199  0.08662  0.35424  Biso   1.000  C
  H81      1.0000 0.49758  0.09570  0.29908  Biso   1.000  H
  C82      1.0000 0.64576  0.06801  0.58662  Biso   1.000  C
  H82      1.0000 0.70088  0.00238  0.59570  Biso   1.000  H
  C83      1.0000 0.56801  0.08662  0.64576  Biso   1.000  C
  H83      1.0000 0.50238  0.09570  0.70088  Biso   1.000  H
  C84      1.0000 0.35424  0.06801  0.41334  Biso   1.000  C
  H84      1.0000 0.29908  0.00238  0.40430  Biso   1.000  H
  C85      1.0000 0.38623  0.05499  0.36796  Biso   1.000  C
  C86      1.0000 0.44501  0.13204  0.38623  Biso   1.000  C
  C87      1.0000 0.61377  0.05499  0.63204  Biso   1.000  C
  C88      1.0000 0.63204  0.11377  0.55499  Biso   1.000  C
  C89      1.0000 0.55499  0.13204  0.61377  Biso   1.000  C
  C90      1.0000 0.36796  0.11377  0.44501  Biso   1.000  C
  H85      1.0000 0.37691  0.02411  0.34598  Biso   1.000  H
  C91      1.0000 0.41334  0.14576  0.43199  Biso   1.000  C
  H86      1.0000 0.47589  0.15402  0.37691  Biso   1.000  H
  H87      1.0000 0.62309  0.02411  0.65398  Biso   1.000  H
  C92      1.0000 0.58662  0.14576  0.56801  Biso   1.000  C
  H88      1.0000 0.65398  0.12309  0.52411  Biso   1.000  H
  H89      1.0000 0.52411  0.15402  0.62309  Biso   1.000  H
  H90      1.0000 0.34598  0.12309  0.47589  Biso   1.000  H
  C93      1.0000 0.42562  0.19435  0.46554  Biso   1.000  C
  C94      1.0000 0.57438  0.19435  0.53442  Biso   1.000  C
  N23      1.0000 0.46386  0.22803  0.45326  Biso   1.000  N
  H91      1.0000 0.40430  0.20088  0.49758  Biso   1.000  H
  N24      1.0000 0.53614  0.22803  0.54670  Biso   1.000  N
  H92      1.0000 0.59570  0.20088  0.50238  Biso   1.000  H
  C95      1.0000 0.47059  0.27526  0.48940  Biso   1.000  C
  C96      1.0000 0.52941  0.27526  0.51056  Biso   1.000  C
  H93      1.0000 0.44460  0.27292  0.52049  Biso   1.000  H
  H94      1.0000 0.46308  0.30959  0.46899  Biso   1.000  H
  H95      1.0000 0.55540  0.27292  0.47951  Biso   1.000  H
  H96      1.0000 0.53688  0.30959  0.53101  Biso   1.000  H
  C97      1.0000 0.48940  0.52941  0.72474  Biso   1.000  C
  C98      1.0000 0.51056  0.47059  0.72474  Biso   1.000  C
  N25      1.0000 0.45326  0.53614  0.77197  Biso   1.000  N
  H97      1.0000 0.52049  0.55540  0.72708  Biso   1.000  H
  H98      1.0000 0.46899  0.53688  0.69041  Biso   1.000  H
  N26      1.0000 0.54670  0.46386  0.77197  Biso   1.000  N
  H99      1.0000 0.47951  0.44460  0.72708  Biso   1.000  H
  H100     1.0000 0.53101  0.46308  0.69041  Biso   1.000  H
  C99      1.0000 0.46554  0.57438  0.80565  Biso   1.000  C
  C100     1.0000 0.53442  0.42562  0.80565  Biso   1.000  C
  C101     1.0000 0.43199  0.58662  0.85424  Biso   1.000  C
  H101     1.0000 0.49758  0.59570  0.79908  Biso   1.000  H
  C102     1.0000 0.56801  0.41334  0.85424  Biso   1.000  C
  H102     1.0000 0.50238  0.40430  0.79908  Biso   1.000  H
  C103     1.0000 0.38623  0.55499  0.86796  Biso   1.000  C
  C104     1.0000 0.44501  0.63204  0.88623  Biso   1.000  C
  C105     1.0000 0.61377  0.44501  0.86796  Biso   1.000  C
  C106     1.0000 0.55499  0.36796  0.88623  Biso   1.000  C
  H103     1.0000 0.37691  0.52411  0.84598  Biso   1.000  H
  C107     1.0000 0.35424  0.56801  0.91334  Biso   1.000  C
  H104     1.0000 0.47589  0.65398  0.87691  Biso   1.000  H
  C108     1.0000 0.41334  0.64576  0.93199  Biso   1.000  C
  H105     1.0000 0.62309  0.47589  0.84598  Biso   1.000  H
  C109     1.0000 0.64576  0.43199  0.91334  Biso   1.000  C
  H106     1.0000 0.52411  0.34598  0.87691  Biso   1.000  H
  C110     1.0000 0.58662  0.35424  0.93199  Biso   1.000  C
  C111     1.0000 0.36796  0.61377  0.94501  Biso   1.000  C
  C112     1.0000 0.30565  0.53442  0.92562  Biso   1.000  C
  C113     1.0000 0.42562  0.69435  0.96554  Biso   1.000  C
  C114     1.0000 0.63204  0.38623  0.94501  Biso   1.000  C
  C115     1.0000 0.69435  0.46554  0.92562  Biso   1.000  C
  C116     1.0000 0.57438  0.30565  0.96554  Biso   1.000  C
  H107     1.0000 0.34598  0.62309  0.97589  Biso   1.000  H
  N27      1.0000 0.27197  0.54670  0.96386  Biso   1.000  N
  H108     1.0000 0.29908  0.50238  0.90430  Biso   1.000  H
  N28      1.0000 0.46386  0.72803  0.95326  Biso   1.000  N
  H109     1.0000 0.40430  0.70088  0.99758  Biso   1.000  H
  H110     1.0000 0.65398  0.37691  0.97589  Biso   1.000  H
  N29      1.0000 0.72803  0.45326  0.96386  Biso   1.000  N
  H111     1.0000 0.70088  0.49758  0.90430  Biso   1.000  H
  N30      1.0000 0.53614  0.27197  0.95326  Biso   1.000  N
  H112     1.0000 0.59570  0.29908  0.99758  Biso   1.000  H
  C117     1.0000 0.22474  0.51056  0.97059  Biso   1.000  C
  C118     1.0000 0.47059  0.77526  0.98940  Biso   1.000  C
  C119     1.0000 0.77526  0.48940  0.97059  Biso   1.000  C
  C120     1.0000 0.52941  0.22474  0.98940  Biso   1.000  C
  H113     1.0000 0.22708  0.47951  0.94460  Biso   1.000  H
  H114     1.0000 0.19041  0.53101  0.96308  Biso   1.000  H
  C121     1.0000 0.22474  0.48940  0.02941  Biso   1.000  C
  H115     1.0000 0.46308  0.80959  0.96899  Biso   1.000  H
  C122     1.0000 0.52941  0.77526  0.01060  Biso   1.000  C
  H116     1.0000 0.44460  0.77288  0.02049  Biso   1.000  H
  H117     1.0000 0.77288  0.52049  0.94460  Biso   1.000  H
  H118     1.0000 0.80959  0.46899  0.96308  Biso   1.000  H
  C123     1.0000 0.77526  0.51056  0.02941  Biso   1.000  C
  H119     1.0000 0.53688  0.19041  0.96899  Biso   1.000  H
  C124     1.0000 0.47059  0.22474  0.01060  Biso   1.000  C
  H120     1.0000 0.55540  0.22708  0.02049  Biso   1.000  H
  N31      1.0000 0.27197  0.45326  0.03614  Biso   1.000  N
  H121     1.0000 0.22708  0.52049  0.05540  Biso   1.000  H
  H122     1.0000 0.19041  0.46899  0.03688  Biso   1.000  H
  H123     1.0000 0.55540  0.77288  0.97951  Biso   1.000  H
  N32      1.0000 0.53614  0.72803  0.04674  Biso   1.000  N
  H124     1.0000 0.53688  0.80959  0.03101  Biso   1.000  H
  N33      1.0000 0.72803  0.54670  0.03614  Biso   1.000  N
  H125     1.0000 0.77288  0.47951  0.05540  Biso   1.000  H
  H126     1.0000 0.80959  0.53101  0.03688  Biso   1.000  H
  H127     1.0000 0.44460  0.22708  0.97951  Biso   1.000  H
  N34      1.0000 0.46386  0.27197  0.04674  Biso   1.000  N
  H128     1.0000 0.46308  0.19041  0.03101  Biso   1.000  H
  C125     1.0000 0.30565  0.46554  0.07438  Biso   1.000  C
  C126     1.0000 0.57438  0.69435  0.03446  Biso   1.000  C
  C127     1.0000 0.69435  0.53442  0.07438  Biso   1.000  C
  C128     1.0000 0.42562  0.30565  0.03446  Biso   1.000  C
  C129     1.0000 0.35424  0.43199  0.08662  Biso   1.000  C
  H129     1.0000 0.29908  0.49758  0.09570  Biso   1.000  H
  C130     1.0000 0.58662  0.64576  0.06801  Biso   1.000  C
  H130     1.0000 0.59570  0.70088  0.00238  Biso   1.000  H
  C131     1.0000 0.64576  0.56801  0.08662  Biso   1.000  C
  H131     1.0000 0.70088  0.50238  0.09570  Biso   1.000  H
  C132     1.0000 0.41334  0.35424  0.06801  Biso   1.000  C
  H132     1.0000 0.40430  0.29908  0.00238  Biso   1.000  H
  C133     1.0000 0.36796  0.38623  0.05499  Biso   1.000  C
  C134     1.0000 0.38623  0.44501  0.13204  Biso   1.000  C
  C135     1.0000 0.63204  0.61377  0.05499  Biso   1.000  C
  C136     1.0000 0.55499  0.63204  0.11377  Biso   1.000  C
  C137     1.0000 0.61377  0.55499  0.13204  Biso   1.000  C
  C138     1.0000 0.44501  0.36796  0.11377  Biso   1.000  C
  H133     1.0000 0.34598  0.37691  0.02411  Biso   1.000  H
  C139     1.0000 0.43199  0.41334  0.14576  Biso   1.000  C
  H134     1.0000 0.37691  0.47589  0.15402  Biso   1.000  H
  H135     1.0000 0.65398  0.62309  0.02411  Biso   1.000  H
  C140     1.0000 0.56801  0.58662  0.14576  Biso   1.000  C
  H136     1.0000 0.52411  0.65398  0.12309  Biso   1.000  H
  H137     1.0000 0.62309  0.52411  0.15402  Biso   1.000  H
  H138     1.0000 0.47589  0.34598  0.12309  Biso   1.000  H
  C141     1.0000 0.46554  0.42562  0.19435  Biso   1.000  C
  C142     1.0000 0.53442  0.57438  0.19435  Biso   1.000  C
  N35      1.0000 0.45326  0.46386  0.22803  Biso   1.000  N
  H139     1.0000 0.49758  0.40430  0.20088  Biso   1.000  H
  N36      1.0000 0.54670  0.53614  0.22803  Biso   1.000  N
  H140     1.0000 0.50238  0.59570  0.20088  Biso   1.000  H
  C143     1.0000 0.48940  0.47059  0.27526  Biso   1.000  C
  C144     1.0000 0.51056  0.52941  0.27526  Biso   1.000  C
  H141     1.0000 0.52049  0.44460  0.27292  Biso   1.000  H
  H142     1.0000 0.46899  0.46308  0.30959  Biso   1.000  H
  H143     1.0000 0.47951  0.55540  0.27292  Biso   1.000  H
  H144     1.0000 0.53101  0.53688  0.30959  Biso   1.000  H
  C145     1.0000 0.68162  0.66227  0.39621  Biso   1.000  C
  C146     1.0000 0.69488  0.61750  0.36455  Biso   1.000  C
  C147     1.0000 0.63541  0.69488  0.38250  Biso   1.000  C
  C148     1.0000 0.71571  0.67611  0.44439  Biso   1.000  C
  C149     1.0000 0.66227  0.60375  0.31838  Biso   1.000  C
  H145     1.0000 0.72601  0.59578  0.37371  Biso   1.000  H
  C150     1.0000 0.60375  0.68162  0.33769  Biso   1.000  C
  H146     1.0000 0.62629  0.72601  0.40418  Biso   1.000  H
  N37      1.0000 0.70170  0.71271  0.47955  Biso   1.000  N
  H147     1.0000 0.74938  0.65710  0.44961  Biso   1.000  H
  C151     1.0000 0.67611  0.55561  0.28429  Biso   1.000  C
  C152     1.0000 0.61750  0.63541  0.30512  Biso   1.000  C
  C153     1.0000 0.55561  0.71571  0.32389  Biso   1.000  C
  C154     1.0000 0.73928  0.72068  0.52538  Biso   1.000  C
  N38      1.0000 0.71271  0.52045  0.29830  Biso   1.000  N
  H148     1.0000 0.65710  0.55039  0.25062  Biso   1.000  H
  H149     1.0000 0.59578  0.62629  0.27399  Biso   1.000  H
  N39      1.0000 0.52045  0.70170  0.28729  Biso   1.000  N
  H150     1.0000 0.55039  0.74938  0.34290  Biso   1.000  H
  C155     1.0000 0.76068  0.77928  0.52538  Biso   1.000  C
  H151     1.0000 0.77041  0.69468  0.52218  Biso   1.000  H
  H152     1.0000 0.71998  0.71308  0.56042  Biso   1.000  H
  C156     1.0000 0.72068  0.47462  0.26068  Biso   1.000  C
  C157     1.0000 0.47462  0.73928  0.27928  Biso   1.000  C
  N40      1.0000 0.79830  0.78729  0.47955  Biso   1.000  N
  H153     1.0000 0.72959  0.80528  0.52218  Biso   1.000  H
  H154     1.0000 0.77998  0.78688  0.56042  Biso   1.000  H
  C158     1.0000 0.77928  0.47462  0.23928  Biso   1.000  C
  H155     1.0000 0.69468  0.47778  0.22959  Biso   1.000  H
  H156     1.0000 0.71308  0.43958  0.27998  Biso   1.000  H
  C159     1.0000 0.47462  0.76068  0.22072  Biso   1.000  C
  H157     1.0000 0.47778  0.77041  0.30528  Biso   1.000  H
  H158     1.0000 0.43958  0.71998  0.28688  Biso   1.000  H
  C160     1.0000 0.78429  0.82389  0.44439  Biso   1.000  C
  N41      1.0000 0.78729  0.52045  0.20170  Biso   1.000  N
  H159     1.0000 0.80528  0.47778  0.27041  Biso   1.000  H
  H160     1.0000 0.78688  0.43958  0.22002  Biso   1.000  H
  N42      1.0000 0.52045  0.79830  0.21271  Biso   1.000  N
  H161     1.0000 0.47778  0.72959  0.19472  Biso   1.000  H
  H162     1.0000 0.43958  0.77998  0.21312  Biso   1.000  H
  C161     1.0000 0.81838  0.83769  0.39621  Biso   1.000  C
  H163     1.0000 0.75057  0.84290  0.44961  Biso   1.000  H
  C162     1.0000 0.82389  0.55561  0.21571  Biso   1.000  C
  C163     1.0000 0.55561  0.78429  0.17611  Biso   1.000  C
  C164     1.0000 0.80508  0.88245  0.36455  Biso   1.000  C
  C165     1.0000 0.86455  0.80508  0.38250  Biso   1.000  C
  C166     1.0000 0.83769  0.60375  0.18162  Biso   1.000  C
  H164     1.0000 0.84290  0.55039  0.24938  Biso   1.000  H
  C167     1.0000 0.60375  0.81838  0.16227  Biso   1.000  C
  H165     1.0000 0.55039  0.75057  0.15710  Biso   1.000  H
  H166     1.0000 0.77399  0.90418  0.37371  Biso   1.000  H
  C168     1.0000 0.83769  0.89621  0.31838  Biso   1.000  C
  C169     1.0000 0.89621  0.81838  0.33769  Biso   1.000  C
  H167     1.0000 0.87371  0.77399  0.40418  Biso   1.000  H
  C170     1.0000 0.88245  0.63541  0.19488  Biso   1.000  C
  C171     1.0000 0.80508  0.61750  0.13541  Biso   1.000  C
  C172     1.0000 0.63541  0.80508  0.11750  Biso   1.000  C
  C173     1.0000 0.61750  0.86455  0.19488  Biso   1.000  C
  C174     1.0000 0.88245  0.86455  0.30512  Biso   1.000  C
  C175     1.0000 0.82389  0.94439  0.28429  Biso   1.000  C
  C176     1.0000 0.94439  0.78429  0.32389  Biso   1.000  C
  H168     1.0000 0.90418  0.62629  0.22601  Biso   1.000  H
  C177     1.0000 0.89621  0.68162  0.16227  Biso   1.000  C
  H169     1.0000 0.77399  0.59578  0.12629  Biso   1.000  H
  C178     1.0000 0.81838  0.66227  0.10379  Biso   1.000  C
  C179     1.0000 0.68162  0.83769  0.10379  Biso   1.000  C
  H170     1.0000 0.62629  0.77399  0.09582  Biso   1.000  H
  H171     1.0000 0.59578  0.87371  0.22601  Biso   1.000  H
  C180     1.0000 0.66227  0.89621  0.18162  Biso   1.000  C
  H172     1.0000 0.90418  0.87371  0.27399  Biso   1.000  H
  N43      1.0000 0.78729  0.97955  0.29830  Biso   1.000  N
  H173     1.0000 0.84290  0.94961  0.25062  Biso   1.000  H
  N44      1.0000 0.97955  0.79830  0.28729  Biso   1.000  N
  H174     1.0000 0.94961  0.75057  0.34290  Biso   1.000  H
  C181     1.0000 0.86455  0.69488  0.11750  Biso   1.000  C
  C182     1.0000 0.94439  0.71571  0.17611  Biso   1.000  C
  C183     1.0000 0.78429  0.67611  0.05561  Biso   1.000  C
  C184     1.0000 0.71571  0.82389  0.05561  Biso   1.000  C
  C185     1.0000 0.69488  0.88245  0.13541  Biso   1.000  C
  C186     1.0000 0.67611  0.94439  0.21571  Biso   1.000  C
  C187     1.0000 0.77928  0.02538  0.26068  Biso   1.000  C
  C188     1.0000 0.02538  0.76068  0.27928  Biso   1.000  C
  H175     1.0000 0.87371  0.72601  0.09582  Biso   1.000  H
  N45      1.0000 0.97955  0.70170  0.21271  Biso   1.000  N
  H176     1.0000 0.94961  0.74938  0.15710  Biso   1.000  H
  N46      1.0000 0.79830  0.71271  0.02045  Biso   1.000  N
  H177     1.0000 0.75057  0.65710  0.05039  Biso   1.000  H
  N47      1.0000 0.70170  0.78729  0.02045  Biso   1.000  N
  H178     1.0000 0.74938  0.84290  0.05039  Biso   1.000  H
  H179     1.0000 0.72601  0.90418  0.12629  Biso   1.000  H
  N48      1.0000 0.71271  0.97955  0.20170  Biso   1.000  N
  H180     1.0000 0.65710  0.94961  0.24938  Biso   1.000  H
  C189     1.0000 0.72068  0.02538  0.23928  Biso   1.000  C
  H181     1.0000 0.80528  0.02222  0.22959  Biso   1.000  H
  H182     1.0000 0.78688  0.06042  0.27998  Biso   1.000  H
  C190     1.0000 0.02538  0.73928  0.22072  Biso   1.000  C
  H183     1.0000 0.02222  0.72959  0.30528  Biso   1.000  H
  H184     1.0000 0.06042  0.77998  0.28688  Biso   1.000  H
  C191     1.0000 0.76068  0.72068  0.97462  Biso   1.000  C
  C192     1.0000 0.73928  0.77928  0.97462  Biso   1.000  C
  H185     1.0000 0.69468  0.02222  0.27041  Biso   1.000  H
  H186     1.0000 0.71308  0.06042  0.22002  Biso   1.000  H
  H187     1.0000 0.02222  0.77041  0.19472  Biso   1.000  H
  H188     1.0000 0.06042  0.71998  0.21312  Biso   1.000  H
  H189     1.0000 0.72959  0.69468  0.97778  Biso   1.000  H
  H190     1.0000 0.77998  0.71308  0.93958  Biso   1.000  H
  H191     1.0000 0.77041  0.80528  0.97778  Biso   1.000  H
  H192     1.0000 0.71998  0.78688  0.93958  Biso   1.000  H
  C193     1.0000 0.66227  0.39621  0.68162  Biso   1.000  C
  C194     1.0000 0.61750  0.36455  0.69488  Biso   1.000  C
  C195     1.0000 0.69488  0.38250  0.63541  Biso   1.000  C
  C196     1.0000 0.67611  0.44439  0.71571  Biso   1.000  C
  C197     1.0000 0.60375  0.31838  0.66227  Biso   1.000  C
  H193     1.0000 0.59578  0.37371  0.72601  Biso   1.000  H
  C198     1.0000 0.68162  0.33769  0.60375  Biso   1.000  C
  H194     1.0000 0.72601  0.40418  0.62629  Biso   1.000  H
  N49      1.0000 0.71271  0.47955  0.70170  Biso   1.000  N
  H195     1.0000 0.65710  0.44961  0.74938  Biso   1.000  H
  C199     1.0000 0.55561  0.28429  0.67611  Biso   1.000  C
  C200     1.0000 0.63541  0.30512  0.61750  Biso   1.000  C
  C201     1.0000 0.71571  0.32389  0.55561  Biso   1.000  C
  C202     1.0000 0.72068  0.52538  0.73928  Biso   1.000  C
  N50      1.0000 0.52045  0.29830  0.71271  Biso   1.000  N
  H196     1.0000 0.55039  0.25062  0.65710  Biso   1.000  H
  H197     1.0000 0.62629  0.27399  0.59578  Biso   1.000  H
  N51      1.0000 0.70170  0.28729  0.52045  Biso   1.000  N
  H198     1.0000 0.74938  0.34290  0.55039  Biso   1.000  H
  C203     1.0000 0.77928  0.52538  0.76068  Biso   1.000  C
  H199     1.0000 0.69468  0.52218  0.77041  Biso   1.000  H
  H200     1.0000 0.71308  0.56042  0.71998  Biso   1.000  H
  C204     1.0000 0.47462  0.26068  0.72068  Biso   1.000  C
  C205     1.0000 0.73928  0.27928  0.47462  Biso   1.000  C
  N52      1.0000 0.78729  0.47955  0.79830  Biso   1.000  N
  H201     1.0000 0.80528  0.52218  0.72959  Biso   1.000  H
  H202     1.0000 0.78688  0.56042  0.77998  Biso   1.000  H
  C206     1.0000 0.47462  0.23928  0.77928  Biso   1.000  C
  H203     1.0000 0.47778  0.22959  0.69468  Biso   1.000  H
  H204     1.0000 0.43958  0.27998  0.71308  Biso   1.000  H
  C207     1.0000 0.76068  0.22072  0.47462  Biso   1.000  C
  H205     1.0000 0.77041  0.30528  0.47778  Biso   1.000  H
  H206     1.0000 0.71998  0.28688  0.43958  Biso   1.000  H
  C208     1.0000 0.82389  0.44439  0.78429  Biso   1.000  C
  N53      1.0000 0.52045  0.20170  0.78729  Biso   1.000  N
  H207     1.0000 0.47778  0.27041  0.80528  Biso   1.000  H
  H208     1.0000 0.43958  0.22002  0.78688  Biso   1.000  H
  N54      1.0000 0.79830  0.21271  0.52045  Biso   1.000  N
  H209     1.0000 0.72959  0.19472  0.47778  Biso   1.000  H
  H210     1.0000 0.77998  0.21312  0.43958  Biso   1.000  H
  C209     1.0000 0.83769  0.39621  0.81838  Biso   1.000  C
  H211     1.0000 0.84290  0.44961  0.75057  Biso   1.000  H
  C210     1.0000 0.55561  0.21571  0.82389  Biso   1.000  C
  C211     1.0000 0.78429  0.17611  0.55561  Biso   1.000  C
  C212     1.0000 0.88245  0.36455  0.80508  Biso   1.000  C
  C213     1.0000 0.80508  0.38250  0.86455  Biso   1.000  C
  C214     1.0000 0.60375  0.18162  0.83769  Biso   1.000  C
  H212     1.0000 0.55039  0.24938  0.84290  Biso   1.000  H
  C215     1.0000 0.81838  0.16227  0.60375  Biso   1.000  C
  H213     1.0000 0.75057  0.15710  0.55039  Biso   1.000  H
  H214     1.0000 0.90418  0.37371  0.77399  Biso   1.000  H
  C216     1.0000 0.89621  0.31838  0.83769  Biso   1.000  C
  C217     1.0000 0.81838  0.33769  0.89621  Biso   1.000  C
  H215     1.0000 0.77399  0.40418  0.87371  Biso   1.000  H
  C218     1.0000 0.63541  0.19488  0.88245  Biso   1.000  C
  C219     1.0000 0.61750  0.13541  0.80508  Biso   1.000  C
  C220     1.0000 0.80508  0.11750  0.63541  Biso   1.000  C
  C221     1.0000 0.86455  0.19488  0.61750  Biso   1.000  C
  C222     1.0000 0.86455  0.30512  0.88245  Biso   1.000  C
  C223     1.0000 0.94439  0.28429  0.82389  Biso   1.000  C
  C224     1.0000 0.78429  0.32389  0.94439  Biso   1.000  C
  H216     1.0000 0.62629  0.22601  0.90418  Biso   1.000  H
  C225     1.0000 0.68162  0.16227  0.89621  Biso   1.000  C
  H217     1.0000 0.59578  0.12629  0.77399  Biso   1.000  H
  C226     1.0000 0.66227  0.10379  0.81838  Biso   1.000  C
  C227     1.0000 0.83769  0.10379  0.68162  Biso   1.000  C
  H218     1.0000 0.77399  0.09582  0.62629  Biso   1.000  H
  H219     1.0000 0.87371  0.22601  0.59578  Biso   1.000  H
  C228     1.0000 0.89621  0.18162  0.66227  Biso   1.000  C
  H220     1.0000 0.87371  0.27399  0.90418  Biso   1.000  H
  N55      1.0000 0.97955  0.29830  0.78729  Biso   1.000  N
  H221     1.0000 0.94961  0.25062  0.84290  Biso   1.000  H
  N56      1.0000 0.79830  0.28729  0.97955  Biso   1.000  N
  H222     1.0000 0.75057  0.34290  0.94961  Biso   1.000  H
  C229     1.0000 0.69488  0.11750  0.86455  Biso   1.000  C
  C230     1.0000 0.71571  0.17611  0.94439  Biso   1.000  C
  C231     1.0000 0.67611  0.05561  0.78429  Biso   1.000  C
  C232     1.0000 0.82389  0.05561  0.71571  Biso   1.000  C
  C233     1.0000 0.88245  0.13541  0.69488  Biso   1.000  C
  C234     1.0000 0.94439  0.21571  0.67611  Biso   1.000  C
  C235     1.0000 0.02538  0.26068  0.77928  Biso   1.000  C
  C236     1.0000 0.76068  0.27928  0.02538  Biso   1.000  C
  H223     1.0000 0.72601  0.09582  0.87371  Biso   1.000  H
  N57      1.0000 0.70170  0.21271  0.97955  Biso   1.000  N
  H224     1.0000 0.74938  0.15710  0.94961  Biso   1.000  H
  N58      1.0000 0.71271  0.02045  0.79830  Biso   1.000  N
  H225     1.0000 0.65710  0.05039  0.75057  Biso   1.000  H
  N59      1.0000 0.78729  0.02045  0.70170  Biso   1.000  N
  H226     1.0000 0.84290  0.05039  0.74938  Biso   1.000  H
  H227     1.0000 0.90418  0.12629  0.72601  Biso   1.000  H
  N60      1.0000 0.97955  0.20170  0.71271  Biso   1.000  N
  H228     1.0000 0.94961  0.24938  0.65710  Biso   1.000  H
  C237     1.0000 0.02538  0.23928  0.72068  Biso   1.000  C
  H229     1.0000 0.02222  0.22959  0.80528  Biso   1.000  H
  H230     1.0000 0.06042  0.27998  0.78688  Biso   1.000  H
  C238     1.0000 0.73928  0.22072  0.02538  Biso   1.000  C
  H231     1.0000 0.72959  0.30528  0.02222  Biso   1.000  H
  H232     1.0000 0.77998  0.28688  0.06042  Biso   1.000  H
  C239     1.0000 0.72068  0.97462  0.76068  Biso   1.000  C
  C240     1.0000 0.77928  0.97462  0.73928  Biso   1.000  C
  H233     1.0000 0.02222  0.27041  0.69468  Biso   1.000  H
  H234     1.0000 0.06042  0.22002  0.71308  Biso   1.000  H
  H235     1.0000 0.77041  0.19472  0.02222  Biso   1.000  H
  H236     1.0000 0.71998  0.21312  0.06042  Biso   1.000  H
  H237     1.0000 0.69468  0.97778  0.72959  Biso   1.000  H
  H238     1.0000 0.71308  0.93958  0.77998  Biso   1.000  H
  H239     1.0000 0.80528  0.97778  0.77041  Biso   1.000  H
  H240     1.0000 0.78688  0.93958  0.71998  Biso   1.000  H
  C241     1.0000 0.39621  0.68162  0.66227  Biso   1.000  C
  C242     1.0000 0.36455  0.69488  0.61750  Biso   1.000  C
  C243     1.0000 0.38250  0.63541  0.69488  Biso   1.000  C
  C244     1.0000 0.44439  0.71571  0.67611  Biso   1.000  C
  C245     1.0000 0.31838  0.66227  0.60375  Biso   1.000  C
  H241     1.0000 0.37371  0.72601  0.59578  Biso   1.000  H
  C246     1.0000 0.33769  0.60375  0.68162  Biso   1.000  C
  H242     1.0000 0.40418  0.62629  0.72601  Biso   1.000  H
  N61      1.0000 0.47955  0.70170  0.71271  Biso   1.000  N
  H243     1.0000 0.44961  0.74938  0.65710  Biso   1.000  H
  C247     1.0000 0.28429  0.67611  0.55561  Biso   1.000  C
  C248     1.0000 0.30512  0.61750  0.63541  Biso   1.000  C
  C249     1.0000 0.32389  0.55561  0.71571  Biso   1.000  C
  C250     1.0000 0.52538  0.73928  0.72068  Biso   1.000  C
  N62      1.0000 0.29830  0.71271  0.52045  Biso   1.000  N
  H244     1.0000 0.25062  0.65710  0.55039  Biso   1.000  H
  H245     1.0000 0.27399  0.59578  0.62629  Biso   1.000  H
  N63      1.0000 0.28729  0.52045  0.70170  Biso   1.000  N
  H246     1.0000 0.34290  0.55039  0.74938  Biso   1.000  H
  C251     1.0000 0.52538  0.76068  0.77928  Biso   1.000  C
  H247     1.0000 0.52218  0.77041  0.69468  Biso   1.000  H
  H248     1.0000 0.56042  0.71998  0.71308  Biso   1.000  H
  C252     1.0000 0.26068  0.72068  0.47462  Biso   1.000  C
  C253     1.0000 0.27928  0.47462  0.73928  Biso   1.000  C
  N64      1.0000 0.47955  0.79830  0.78729  Biso   1.000  N
  H249     1.0000 0.52218  0.72959  0.80528  Biso   1.000  H
  H250     1.0000 0.56042  0.77998  0.78688  Biso   1.000  H
  C254     1.0000 0.23928  0.77928  0.47462  Biso   1.000  C
  H251     1.0000 0.22959  0.69468  0.47778  Biso   1.000  H
  H252     1.0000 0.27998  0.71308  0.43958  Biso   1.000  H
  C255     1.0000 0.22072  0.47462  0.76068  Biso   1.000  C
  H253     1.0000 0.30528  0.47778  0.77041  Biso   1.000  H
  H254     1.0000 0.28688  0.43958  0.71998  Biso   1.000  H
  C256     1.0000 0.44439  0.78429  0.82389  Biso   1.000  C
  N65      1.0000 0.20170  0.78729  0.52045  Biso   1.000  N
  H255     1.0000 0.27041  0.80528  0.47778  Biso   1.000  H
  H256     1.0000 0.22002  0.78688  0.43958  Biso   1.000  H
  N66      1.0000 0.21271  0.52045  0.79830  Biso   1.000  N
  H257     1.0000 0.19472  0.47778  0.72959  Biso   1.000  H
  H258     1.0000 0.21312  0.43958  0.77998  Biso   1.000  H
  C257     1.0000 0.39621  0.81838  0.83769  Biso   1.000  C
  H259     1.0000 0.44961  0.75057  0.84290  Biso   1.000  H
  C258     1.0000 0.21571  0.82389  0.55561  Biso   1.000  C
  C259     1.0000 0.17611  0.55561  0.78429  Biso   1.000  C
  C260     1.0000 0.36455  0.80508  0.88245  Biso   1.000  C
  C261     1.0000 0.38250  0.86455  0.80508  Biso   1.000  C
  C262     1.0000 0.18162  0.83769  0.60375  Biso   1.000  C
  H260     1.0000 0.24938  0.84290  0.55039  Biso   1.000  H
  C263     1.0000 0.16227  0.60375  0.81838  Biso   1.000  C
  H261     1.0000 0.15710  0.55039  0.75057  Biso   1.000  H
  H262     1.0000 0.37371  0.77399  0.90418  Biso   1.000  H
  C264     1.0000 0.31838  0.83769  0.89621  Biso   1.000  C
  C265     1.0000 0.33769  0.89621  0.81838  Biso   1.000  C
  H263     1.0000 0.40418  0.87371  0.77399  Biso   1.000  H
  C266     1.0000 0.19488  0.88245  0.63541  Biso   1.000  C
  C267     1.0000 0.13541  0.80508  0.61750  Biso   1.000  C
  C268     1.0000 0.11750  0.63541  0.80508  Biso   1.000  C
  C269     1.0000 0.19488  0.61750  0.86455  Biso   1.000  C
  C270     1.0000 0.30512  0.88245  0.86455  Biso   1.000  C
  C271     1.0000 0.28429  0.82389  0.94439  Biso   1.000  C
  C272     1.0000 0.32389  0.94439  0.78429  Biso   1.000  C
  H264     1.0000 0.22601  0.90418  0.62629  Biso   1.000  H
  C273     1.0000 0.16227  0.89621  0.68162  Biso   1.000  C
  H265     1.0000 0.12629  0.77399  0.59578  Biso   1.000  H
  C274     1.0000 0.10379  0.81838  0.66227  Biso   1.000  C
  C275     1.0000 0.10379  0.68162  0.83769  Biso   1.000  C
  H266     1.0000 0.09582  0.62629  0.77399  Biso   1.000  H
  H267     1.0000 0.22601  0.59578  0.87371  Biso   1.000  H
  C276     1.0000 0.18162  0.66227  0.89621  Biso   1.000  C
  H268     1.0000 0.27399  0.90418  0.87371  Biso   1.000  H
  N67      1.0000 0.29830  0.78729  0.97955  Biso   1.000  N
  H269     1.0000 0.25062  0.84290  0.94961  Biso   1.000  H
  N68      1.0000 0.28729  0.97955  0.79830  Biso   1.000  N
  H270     1.0000 0.34290  0.94961  0.75057  Biso   1.000  H
  C277     1.0000 0.11750  0.86455  0.69488  Biso   1.000  C
  C278     1.0000 0.17611  0.94439  0.71571  Biso   1.000  C
  C279     1.0000 0.05561  0.78429  0.67611  Biso   1.000  C
  C280     1.0000 0.05561  0.71571  0.82389  Biso   1.000  C
  C281     1.0000 0.13541  0.69488  0.88245  Biso   1.000  C
  C282     1.0000 0.21571  0.67611  0.94439  Biso   1.000  C
  C283     1.0000 0.26068  0.77928  0.02538  Biso   1.000  C
  C284     1.0000 0.27928  0.02538  0.76068  Biso   1.000  C
  H271     1.0000 0.09582  0.87371  0.72601  Biso   1.000  H
  N69      1.0000 0.21271  0.97955  0.70170  Biso   1.000  N
  H272     1.0000 0.15710  0.94961  0.74938  Biso   1.000  H
  N70      1.0000 0.02045  0.79830  0.71271  Biso   1.000  N
  H273     1.0000 0.05039  0.75057  0.65710  Biso   1.000  H
  N71      1.0000 0.02045  0.70170  0.78729  Biso   1.000  N
  H274     1.0000 0.05039  0.74938  0.84290  Biso   1.000  H
  H275     1.0000 0.12629  0.72601  0.90418  Biso   1.000  H
  N72      1.0000 0.20170  0.71271  0.97955  Biso   1.000  N
  H276     1.0000 0.24938  0.65710  0.94961  Biso   1.000  H
  C285     1.0000 0.23928  0.72068  0.02538  Biso   1.000  C
  H277     1.0000 0.22959  0.80528  0.02222  Biso   1.000  H
  H278     1.0000 0.27998  0.78688  0.06042  Biso   1.000  H
  C286     1.0000 0.22072  0.02538  0.73928  Biso   1.000  C
  H279     1.0000 0.30528  0.02222  0.72959  Biso   1.000  H
  H280     1.0000 0.28688  0.06042  0.77998  Biso   1.000  H
  C287     1.0000 0.97462  0.76068  0.72068  Biso   1.000  C
  C288     1.0000 0.97462  0.73928  0.77928  Biso   1.000  C
  H281     1.0000 0.27041  0.69468  0.02222  Biso   1.000  H
  H282     1.0000 0.22002  0.71308  0.06042  Biso   1.000  H
  H283     1.0000 0.19472  0.02222  0.77041  Biso   1.000  H
  H284     1.0000 0.21312  0.06042  0.71998  Biso   1.000  H
  H285     1.0000 0.97778  0.72959  0.69468  Biso   1.000  H
  H286     1.0000 0.93958  0.77998  0.71308  Biso   1.000  H
  H287     1.0000 0.97778  0.77041  0.80528  Biso   1.000  H
  H288     1.0000 0.93958  0.71998  0.78688  Biso   1.000  H
  C289     1.0000 0.39621  0.31838  0.33769  Biso   1.000  C
  C290     1.0000 0.36455  0.30512  0.38250  Biso   1.000  C
  C291     1.0000 0.38250  0.36455  0.30512  Biso   1.000  C
  C292     1.0000 0.44439  0.28429  0.32389  Biso   1.000  C
  H289     1.0000 0.37371  0.27399  0.40418  Biso   1.000  H
  C293     1.0000 0.31838  0.33769  0.39621  Biso   1.000  C
  H290     1.0000 0.40418  0.37371  0.27399  Biso   1.000  H
  C294     1.0000 0.33769  0.39621  0.31838  Biso   1.000  C
  N73      1.0000 0.47955  0.29830  0.28729  Biso   1.000  N
  H291     1.0000 0.44961  0.25062  0.34290  Biso   1.000  H
  C295     1.0000 0.30512  0.38250  0.36455  Biso   1.000  C
  C296     1.0000 0.28429  0.32389  0.44439  Biso   1.000  C
  C297     1.0000 0.32389  0.44439  0.28429  Biso   1.000  C
  C298     1.0000 0.52538  0.26068  0.27928  Biso   1.000  C
  H292     1.0000 0.27399  0.40418  0.37371  Biso   1.000  H
  N74      1.0000 0.29830  0.28729  0.47955  Biso   1.000  N
  H293     1.0000 0.25062  0.34290  0.44961  Biso   1.000  H
  N75      1.0000 0.28729  0.47955  0.29830  Biso   1.000  N
  H294     1.0000 0.34290  0.44961  0.25062  Biso   1.000  H
  C299     1.0000 0.52538  0.23928  0.22072  Biso   1.000  C
  H295     1.0000 0.52218  0.22959  0.30528  Biso   1.000  H
  H296     1.0000 0.56042  0.27998  0.28688  Biso   1.000  H
  C300     1.0000 0.26068  0.27928  0.52538  Biso   1.000  C
  C301     1.0000 0.27928  0.52538  0.26068  Biso   1.000  C
  N76      1.0000 0.47955  0.20170  0.21271  Biso   1.000  N
  H297     1.0000 0.52218  0.27041  0.19472  Biso   1.000  H
  H298     1.0000 0.56042  0.22002  0.21312  Biso   1.000  H
  C302     1.0000 0.23928  0.22072  0.52538  Biso   1.000  C
  H299     1.0000 0.22959  0.30528  0.52218  Biso   1.000  H
  H300     1.0000 0.27998  0.28688  0.56042  Biso   1.000  H
  C303     1.0000 0.22072  0.52538  0.23928  Biso   1.000  C
  H301     1.0000 0.30528  0.52218  0.22959  Biso   1.000  H
  H302     1.0000 0.28688  0.56042  0.27998  Biso   1.000  H
  C304     1.0000 0.44439  0.21571  0.17611  Biso   1.000  C
  N77      1.0000 0.20170  0.21271  0.47955  Biso   1.000  N
  H303     1.0000 0.27041  0.19472  0.52218  Biso   1.000  H
  H304     1.0000 0.22002  0.21312  0.56042  Biso   1.000  H
  N78      1.0000 0.21271  0.47955  0.20170  Biso   1.000  N
  H305     1.0000 0.19472  0.52218  0.27041  Biso   1.000  H
  H306     1.0000 0.21312  0.56042  0.22002  Biso   1.000  H
  C305     1.0000 0.39621  0.18162  0.16227  Biso   1.000  C
  H307     1.0000 0.44961  0.24938  0.15710  Biso   1.000  H
  C306     1.0000 0.21571  0.17611  0.44439  Biso   1.000  C
  C307     1.0000 0.17611  0.44439  0.21571  Biso   1.000  C
  C308     1.0000 0.36455  0.19488  0.11750  Biso   1.000  C
  C309     1.0000 0.38250  0.13541  0.19488  Biso   1.000  C
  C310     1.0000 0.18162  0.16227  0.39621  Biso   1.000  C
  H308     1.0000 0.24938  0.15710  0.44961  Biso   1.000  H
  C311     1.0000 0.16227  0.39621  0.18162  Biso   1.000  C
  H309     1.0000 0.15710  0.44961  0.24938  Biso   1.000  H
  H310     1.0000 0.37371  0.22601  0.09582  Biso   1.000  H
  C312     1.0000 0.31838  0.16227  0.10379  Biso   1.000  C
  H311     1.0000 0.40418  0.12629  0.22601  Biso   1.000  H
  C313     1.0000 0.33769  0.10379  0.18162  Biso   1.000  C
  C314     1.0000 0.19488  0.11750  0.36455  Biso   1.000  C
  C315     1.0000 0.13541  0.19488  0.38250  Biso   1.000  C
  C316     1.0000 0.11750  0.36455  0.19488  Biso   1.000  C
  C317     1.0000 0.19488  0.38250  0.13541  Biso   1.000  C
  C318     1.0000 0.30512  0.11750  0.13541  Biso   1.000  C
  C319     1.0000 0.28429  0.17611  0.05561  Biso   1.000  C
  C320     1.0000 0.32389  0.05561  0.21571  Biso   1.000  C
  H312     1.0000 0.22601  0.09582  0.37371  Biso   1.000  H
  C321     1.0000 0.16227  0.10379  0.31838  Biso   1.000  C
  H313     1.0000 0.12629  0.22601  0.40418  Biso   1.000  H
  C322     1.0000 0.10379  0.18162  0.33769  Biso   1.000  C
  H314     1.0000 0.09582  0.37371  0.22601  Biso   1.000  H
  C323     1.0000 0.10379  0.31838  0.16227  Biso   1.000  C
  H315     1.0000 0.22601  0.40418  0.12629  Biso   1.000  H
  C324     1.0000 0.18162  0.33769  0.10379  Biso   1.000  C
  H316     1.0000 0.27399  0.09582  0.12629  Biso   1.000  H
  N79      1.0000 0.29830  0.21271  0.02045  Biso   1.000  N
  H317     1.0000 0.25062  0.15710  0.05039  Biso   1.000  H
  N80      1.0000 0.28729  0.02045  0.20170  Biso   1.000  N
  H318     1.0000 0.34290  0.05039  0.24938  Biso   1.000  H
  C325     1.0000 0.11750  0.13541  0.30512  Biso   1.000  C
  C326     1.0000 0.17611  0.05561  0.28429  Biso   1.000  C
  C327     1.0000 0.05561  0.21571  0.32389  Biso   1.000  C
  C328     1.0000 0.13541  0.30512  0.11750  Biso   1.000  C
  C329     1.0000 0.05561  0.28429  0.17611  Biso   1.000  C
  C330     1.0000 0.21571  0.32389  0.05561  Biso   1.000  C
  C331     1.0000 0.26068  0.22072  0.97462  Biso   1.000  C
  C332     1.0000 0.27928  0.97462  0.23928  Biso   1.000  C
  H319     1.0000 0.09582  0.12629  0.27399  Biso   1.000  H
  N81      1.0000 0.21271  0.02045  0.29830  Biso   1.000  N
  H320     1.0000 0.15710  0.05039  0.25062  Biso   1.000  H
  N82      1.0000 0.02045  0.20170  0.28729  Biso   1.000  N
  H321     1.0000 0.05039  0.24938  0.34290  Biso   1.000  H
  H322     1.0000 0.12629  0.27399  0.09582  Biso   1.000  H
  N83      1.0000 0.02045  0.29830  0.21271  Biso   1.000  N
  H323     1.0000 0.05039  0.25062  0.15710  Biso   1.000  H
  N84      1.0000 0.20170  0.28729  0.02045  Biso   1.000  N
  H324     1.0000 0.24938  0.34290  0.05039  Biso   1.000  H
  C333     1.0000 0.23928  0.27928  0.97462  Biso   1.000  C
  H325     1.0000 0.22959  0.19472  0.97778  Biso   1.000  H
  H326     1.0000 0.27998  0.21312  0.93958  Biso   1.000  H
  C334     1.0000 0.22072  0.97462  0.26068  Biso   1.000  C
  H327     1.0000 0.30528  0.97778  0.27041  Biso   1.000  H
  H328     1.0000 0.28688  0.93958  0.22002  Biso   1.000  H
  C335     1.0000 0.97462  0.23928  0.27928  Biso   1.000  C
  C336     1.0000 0.97462  0.26068  0.22072  Biso   1.000  C
  H329     1.0000 0.27041  0.30528  0.97778  Biso   1.000  H
  H330     1.0000 0.22002  0.28688  0.93958  Biso   1.000  H
  H331     1.0000 0.19472  0.97778  0.22959  Biso   1.000  H
  H332     1.0000 0.21312  0.93958  0.27998  Biso   1.000  H
  H333     1.0000 0.97778  0.27041  0.30528  Biso   1.000  H
  H334     1.0000 0.93958  0.22002  0.28688  Biso   1.000  H
  H335     1.0000 0.97778  0.22959  0.19472  Biso   1.000  H
  H336     1.0000 0.93958  0.27998  0.21312  Biso   1.000  H
  Ne1      1.0000 1.00000  0.49999  0.49999  Biso   1.000  Ne
  He1      1.0000 0.93099  0.56901  0.56901  Biso   1.000  He
  He2      1.0000 0.06518  0.43482  0.56518  Biso   1.000  He
  He3      1.0000 0.93356  0.43356  0.43356  Biso   1.000  He
  He4      1.0000 0.06492  0.56491  0.43508  Biso   1.000  He
  Ar1      1.0000 1.00000  0.50000  0.50000  Biso   1.000  Ar
  Ne2      1.0000 0.49999  1.00000  0.49999  Biso   1.000  Ne
  He5      1.0000 0.43099  0.06901  0.56901  Biso   1.000  He
  He6      1.0000 0.56518  0.93482  0.56518  Biso   1.000  He
  He7      1.0000 0.43356  0.93356  0.43356  Biso   1.000  He
  He8      1.0000 0.56492  0.06492  0.43508  Biso   1.000  He
  Ar2      1.0000 0.50000  1.00000  0.50000  Biso   1.000  Ar
  Ne3      1.0000 0.49999  0.49999  1.00000  Biso   1.000  Ne
  He9      1.0000 0.43099  0.56901  0.06901  Biso   1.000  He
  He10     1.0000 0.56518  0.43482  0.06518  Biso   1.000  He
  He11     1.0000 0.43356  0.43356  0.93356  Biso   1.000  He
  He12     1.0000 0.56492  0.56491  0.93508  Biso   1.000  He
  Ar3      1.0000 0.50000  0.50000  1.00000  Biso   1.000  Ar
  Ne4      1.0000 0.74999  0.25000  0.74999  Biso   1.000  Ne
  He13     1.0000 0.68058  0.31939  0.81939  Biso   1.000  He
  He14     1.0000 0.81555  0.18444  0.81555  Biso   1.000  He
  He15     1.0000 0.68313  0.18316  0.68313  Biso   1.000  He
  He16     1.0000 0.81526  0.31528  0.68468  Biso   1.000  He
  Ar4      1.0000 0.74998  0.24998  0.74998  Biso   1.000  Ar
  Ne5      1.0000 0.74999  0.74999  0.25000  Biso   1.000  Ne
  He17     1.0000 0.68055  0.81939  0.31941  Biso   1.000  He
  He18     1.0000 0.81554  0.68443  0.31554  Biso   1.000  He
  He19     1.0000 0.68314  0.68315  0.18318  Biso   1.000  He
  He20     1.0000 0.81529  0.81528  0.18470  Biso   1.000  He
  Ar5      1.0000 0.74998  0.74998  0.24998  Biso   1.000  Ar
  Ne6      1.0000 0.25000  0.74999  0.74999  Biso   1.000  Ne
  He21     1.0000 0.18059  0.81940  0.81940  Biso   1.000  He
  He22     1.0000 0.31556  0.68440  0.81554  Biso   1.000  He
  He23     1.0000 0.18316  0.68313  0.68313  Biso   1.000  He
  He24     1.0000 0.31528  0.81528  0.68470  Biso   1.000  He
  Ar6      1.0000 0.24998  0.74998  0.74998  Biso   1.000  Ar
  Ne7      1.0000 0.25000  0.25000  0.25000  Biso   1.000  Ne
  He25     1.0000 0.18058  0.31941  0.31942  Biso   1.000  He
  He26     1.0000 0.31557  0.18443  0.31556  Biso   1.000  He
  He27     1.0000 0.18315  0.18316  0.18316  Biso   1.000  He
  He28     1.0000 0.31528  0.31529  0.18471  Biso   1.000  He
  Ar7      1.0000 0.25000  0.25000  0.25000  Biso   1.000  Ar
