data_image0
_cell_length_a       31.099
_cell_length_b       31.099
_cell_length_c       26.284
_cell_angle_alpha    90
_cell_angle_beta     90
_cell_angle_gamma    120

_symmetry_space_group_name_H-M    "P 1"
_symmetry_int_tables_number       1

loop_
  _symmetry_equiv_pos_as_xyz
  'x, y, z'

loop_
  _atom_site_label
  _atom_site_occupancy
  _atom_site_fract_x
  _atom_site_fract_y
  _atom_site_fract_z
  _atom_site_thermal_displace_type
  _atom_site_B_iso_or_equiv
  _atom_site_type_symbol
  C1       1.0000 0.56991  0.50211  0.42931  Biso   1.000  C
  C2       1.0000 0.56280  0.47452  0.37700  Biso   1.000  C
  C3       1.0000 0.58331  0.47181  0.46622  Biso   1.000  C
  H1       1.0000 0.53960  0.50329  0.44000  Biso   1.000  H
  C4       1.0000 0.61560  0.55342  0.42452  Biso   1.000  C
  C5       1.0000 0.51981  0.45061  0.35151  Biso   1.000  C
  C6       1.0000 0.60371  0.47370  0.36292  Biso   1.000  C
  N1       1.0000 0.58520  0.48870  0.51940  Biso   1.000  N
  H2       1.0000 0.55712  0.43602  0.46382  Biso   1.000  H
  C7       1.0000 0.63270  0.47690  0.45161  Biso   1.000  C
  C8       1.0000 0.61522  0.59671  0.43620  Biso   1.000  C
  C9       1.0000 0.65782  0.55491  0.40542  Biso   1.000  C
  C10      1.0000 0.51700  0.42439  0.30562  Biso   1.000  C
  H3       1.0000 0.49121  0.45102  0.36372  Biso   1.000  H
  C11      1.0000 0.60380  0.44879  0.31841  Biso   1.000  C
  C12      1.0000 0.64891  0.50281  0.39682  Biso   1.000  C
  C13      1.0000 0.55269  0.45610  0.54790  Biso   1.000  C
  N2       1.0000 0.62868  0.42807  0.44951  Biso   1.000  N
  H4       1.0000 0.65829  0.49791  0.47740  Biso   1.000  H
  H5       1.0000 0.58601  0.59631  0.44731  Biso   1.000  H
  C14      1.0000 0.66049  0.64090  0.43072  Biso   1.000  C
  C15      1.0000 0.69992  0.59801  0.40032  Biso   1.000  C
  H6       1.0000 0.48730  0.40739  0.28630  Biso   1.000  H
  C16      1.0000 0.56141  0.42562  0.29060  Biso   1.000  C
  H7       1.0000 0.63279  0.44819  0.30802  Biso   1.000  H
  H8       1.0000 0.67898  0.50289  0.38339  Biso   1.000  H
  C17      1.0000 0.54860  0.46798  0.60143  Biso   1.000  C
  H9       1.0000 0.53082  0.42380  0.53493  Biso   1.000  H
  C18      1.0000 0.66659  0.42499  0.46039  Biso   1.000  C
  H10      1.0000 0.66208  0.67108  0.44042  Biso   1.000  H
  C19      1.0000 0.70159  0.64290  0.41261  Biso   1.000  C
  H11      1.0000 0.72891  0.59850  0.38830  Biso   1.000  H
  H12      1.0000 0.56152  0.40950  0.26001  Biso   1.000  H
  C20      1.0000 0.58364  0.51291  0.62274  Biso   1.000  C
  C21      1.0000 0.50716  0.43501  0.62939  Biso   1.000  C
  C22      1.0000 0.66622  0.37832  0.46051  Biso   1.000  C
  H13      1.0000 0.69650  0.45451  0.46892  Biso   1.000  H
  H14      1.0000 0.73131  0.67391  0.40812  Biso   1.000  H
  C23      1.0000 0.57725  0.52490  0.67201  Biso   1.000  C
  H15      1.0000 0.61200  0.53549  0.60360  Biso   1.000  H
  C24      1.0000 0.50075  0.44701  0.67870  Biso   1.000  C
  H16      1.0000 0.48319  0.40431  0.61482  Biso   1.000  H
  C25      1.0000 0.71063  0.37802  0.46131  Biso   1.000  C
  C26      1.0000 0.62198  0.33261  0.46131  Biso   1.000  C
  C27      1.0000 0.53580  0.49190  0.70005  Biso   1.000  C
  C28      1.0000 0.61521  0.57362  0.69282  Biso   1.000  C
  C29      1.0000 0.45601  0.41311  0.70823  Biso   1.000  C
  H17      1.0000 0.74091  0.40880  0.46230  Biso   1.000  H
  C30      1.0000 0.71209  0.33380  0.46051  Biso   1.000  C
  H18      1.0000 0.59120  0.33209  0.46230  Biso   1.000  H
  C31      1.0000 0.62172  0.28790  0.46051  Biso   1.000  C
  H19      1.0000 0.53141  0.50010  0.73372  Biso   1.000  H
  N3       1.0000 0.60560  0.58899  0.73562  Biso   1.000  N
  H20      1.0000 0.64570  0.59330  0.67551  Biso   1.000  H
  N4       1.0000 0.41891  0.37549  0.68871  Biso   1.000  N
  H21      1.0000 0.45501  0.41972  0.74342  Biso   1.000  H
  C32      1.0000 0.66741  0.28939  0.46131  Biso   1.000  C
  C33      1.0000 0.75839  0.33339  0.46039  Biso   1.000  C
  C34      1.0000 0.57500  0.24160  0.46039  Biso   1.000  C
  C35      1.0000 0.64681  0.63830  0.75183  Biso   1.000  C
  C36      1.0000 0.37719  0.34620  0.72112  Biso   1.000  C
  H22      1.0000 0.66789  0.25909  0.46230  Biso   1.000  H
  N5       1.0000 0.79939  0.37134  0.44951  Biso   1.000  N
  H23      1.0000 0.75801  0.30350  0.46892  Biso   1.000  H
  N6       1.0000 0.57193  0.20061  0.44951  Biso   1.000  N
  H24      1.0000 0.54552  0.24201  0.46892  Biso   1.000  H
  C37      1.0000 0.65801  0.63162  0.80730  Biso   1.000  C
  H25      1.0000 0.67669  0.64680  0.73060  Biso   1.000  H
  C38      1.0000 0.63569  0.68100  0.74821  Biso   1.000  C
  H26      1.0000 0.38631  0.35749  0.75711  Biso   1.000  H
  C39      1.0000 0.36271  0.29139  0.71690  Biso   1.000  C
  C40      1.0000 0.33321  0.35162  0.70522  Biso   1.000  C
  C41      1.0000 0.84421  0.36729  0.45161  Biso   1.000  C
  C42      1.0000 0.52309  0.15580  0.45161  Biso   1.000  C
  N7       1.0000 0.70479  0.63020  0.80950  Biso   1.000  N
  H27      1.0000 0.63000  0.60050  0.82191  Biso   1.000  H
  C43      1.0000 0.66419  0.67981  0.83751  Biso   1.000  C
  H28      1.0000 0.62450  0.68389  0.71332  Biso   1.000  H
  C44      1.0000 0.68241  0.72589  0.76271  Biso   1.000  C
  C45      1.0000 0.59762  0.67201  0.78740  Biso   1.000  C
  N8       1.0000 0.37521  0.27420  0.76541  Biso   1.000  N
  H29      1.0000 0.38061  0.28679  0.68772  Biso   1.000  H
  C46      1.0000 0.30621  0.25909  0.70910  Biso   1.000  C
  H30      1.0000 0.34250  0.38730  0.70252  Biso   1.000  H
  C47      1.0000 0.31350  0.32518  0.65671  Biso   1.000  C
  C48      1.0000 0.29589  0.32559  0.74699  Biso   1.000  C
  C49      1.0000 0.88850  0.41671  0.46622  Biso   1.000  C
  H31      1.0000 0.83962  0.34171  0.47740  Biso   1.000  H
  C50      1.0000 0.85390  0.35110  0.39682  Biso   1.000  C
  C51      1.0000 0.52821  0.11150  0.46622  Biso   1.000  C
  H32      1.0000 0.50211  0.16040  0.47740  Biso   1.000  H
  C52      1.0000 0.49721  0.14611  0.39682  Biso   1.000  C
  C53      1.0000 0.70860  0.60321  0.84420  Biso   1.000  C
  H33      1.0000 0.67531  0.68000  0.87331  Biso   1.000  H
  C54      1.0000 0.69951  0.72440  0.81110  Biso   1.000  C
  C55      1.0000 0.61310  0.67120  0.83682  Biso   1.000  C
  C56      1.0000 0.71061  0.76621  0.73102  Biso   1.000  C
  C57      1.0000 0.55021  0.66440  0.77872  Biso   1.000  C
  C58      1.0000 0.38491  0.24042  0.76252  Biso   1.000  C
  H34      1.0000 0.29440  0.22282  0.71070  Biso   1.000  H
  C59      1.0000 0.29900  0.27509  0.65812  Biso   1.000  C
  C60      1.0000 0.28072  0.27532  0.74863  Biso   1.000  C
  C61      1.0000 0.30751  0.34601  0.61243  Biso   1.000  C
  C62      1.0000 0.27721  0.34560  0.78200  Biso   1.000  C
  N9       1.0000 0.90351  0.41481  0.51940  Biso   1.000  N
  H35      1.0000 0.87889  0.44288  0.46382  Biso   1.000  H
  C63      1.0000 0.93222  0.43011  0.42931  Biso   1.000  C
  H36      1.0000 0.82389  0.32099  0.38339  Biso   1.000  H
  C64      1.0000 0.89710  0.34219  0.40542  Biso   1.000  C
  C65      1.0000 0.87000  0.39629  0.36292  Biso   1.000  C
  N10      1.0000 0.51129  0.09650  0.51940  Biso   1.000  N
  H37      1.0000 0.56402  0.12112  0.46382  Biso   1.000  H
  C66      1.0000 0.49790  0.06780  0.42931  Biso   1.000  C
  H38      1.0000 0.49710  0.17611  0.38339  Biso   1.000  H
  C67      1.0000 0.44509  0.10289  0.40542  Biso   1.000  C
  C68      1.0000 0.52630  0.12999  0.36292  Biso   1.000  C
  C69      1.0000 0.75038  0.59649  0.84629  Biso   1.000  C
  H39      1.0000 0.68309  0.58751  0.86893  Biso   1.000  H
  C70      1.0000 0.74481  0.76309  0.82792  Biso   1.000  C
  C71      1.0000 0.58131  0.66292  0.87753  Biso   1.000  C
  H40      1.0000 0.69902  0.76721  0.69792  Biso   1.000  H
  C72      1.0000 0.75590  0.80490  0.74779  Biso   1.000  C
  H41      1.0000 0.53961  0.66500  0.74490  Biso   1.000  H
  C73      1.0000 0.51840  0.65608  0.81932  Biso   1.000  C
  C74      1.0000 0.39719  0.22040  0.80695  Biso   1.000  C
  H42      1.0000 0.38440  0.22679  0.73003  Biso   1.000  H
  C75      1.0000 0.27860  0.24580  0.61513  Biso   1.000  C
  C76      1.0000 0.24680  0.24498  0.78512  Biso   1.000  C
  H43      1.0000 0.31738  0.38028  0.61140  Biso   1.000  H
  C77      1.0000 0.28721  0.31672  0.56940  Biso   1.000  C
  H44      1.0000 0.28758  0.37999  0.78101  Biso   1.000  H
  C78      1.0000 0.24329  0.31520  0.81860  Biso   1.000  C
  C79      1.0000 0.90342  0.44730  0.54790  Biso   1.000  C
  H45      1.0000 0.96370  0.46041  0.44000  Biso   1.000  H
  C80      1.0000 0.93779  0.38441  0.42452  Biso   1.000  C
  C81      1.0000 0.91171  0.43720  0.37700  Biso   1.000  C
  C82      1.0000 0.89810  0.30008  0.40032  Biso   1.000  C
  C83      1.0000 0.84501  0.39621  0.31841  Biso   1.000  C
  C84      1.0000 0.54392  0.09661  0.54790  Biso   1.000  C
  H46      1.0000 0.49669  0.03631  0.44000  Biso   1.000  H
  C85      1.0000 0.44661  0.06219  0.42452  Biso   1.000  C
  C86      1.0000 0.52551  0.08829  0.37700  Biso   1.000  C
  C87      1.0000 0.40198  0.10188  0.40032  Biso   1.000  C
  C88      1.0000 0.55122  0.15502  0.31841  Biso   1.000  C
  C89      1.0000 0.76110  0.57960  0.89085  Biso   1.000  C
  C90      1.0000 0.78150  0.60811  0.80437  Biso   1.000  C
  C91      1.0000 0.77301  0.80330  0.79623  Biso   1.000  C
  H47      1.0000 0.75652  0.76202  0.86102  Biso   1.000  H
  C92      1.0000 0.53392  0.65542  0.86870  Biso   1.000  C
  H48      1.0000 0.59191  0.66240  0.91120  Biso   1.000  H
  H49      1.0000 0.77522  0.83241  0.72611  Biso   1.000  H
  H50      1.0000 0.48599  0.65100  0.81331  Biso   1.000  H
  C93      1.0000 0.41412  0.24803  0.85151  Biso   1.000  C
  C94      1.0000 0.39192  0.17340  0.80437  Biso   1.000  C
  C95      1.0000 0.27269  0.26659  0.57080  Biso   1.000  C
  H51      1.0000 0.26871  0.21149  0.61612  Biso   1.000  H
  C96      1.0000 0.22801  0.26488  0.82012  Biso   1.000  C
  H52      1.0000 0.23640  0.21060  0.78622  Biso   1.000  H
  H53      1.0000 0.28311  0.33090  0.53900  Biso   1.000  H
  H54      1.0000 0.23050  0.32890  0.84253  Biso   1.000  H
  C97      1.0000 0.91938  0.45139  0.60143  Biso   1.000  C
  H55      1.0000 0.89302  0.46921  0.53493  Biso   1.000  H
  C98      1.0000 0.98150  0.38481  0.43620  Biso   1.000  C
  C99      1.0000 0.93080  0.48020  0.35151  Biso   1.000  C
  C100     1.0000 0.94132  0.29841  0.41261  Biso   1.000  C
  H56      1.0000 0.86959  0.27108  0.38830  Biso   1.000  H
  C101     1.0000 0.86422  0.43861  0.29060  Biso   1.000  C
  H57      1.0000 0.81540  0.36721  0.30802  Biso   1.000  H
  C102     1.0000 0.53199  0.08061  0.60143  Biso   1.000  C
  H58      1.0000 0.57619  0.10701  0.53493  Biso   1.000  H
  C103     1.0000 0.40331  0.01849  0.43620  Biso   1.000  C
  C104     1.0000 0.54941  0.06921  0.35151  Biso   1.000  C
  C105     1.0000 0.35711  0.05870  0.41261  Biso   1.000  C
  H59      1.0000 0.40151  0.13040  0.38830  Biso   1.000  H
  C106     1.0000 0.57440  0.13578  0.29060  Biso   1.000  C
  H60      1.0000 0.55181  0.18461  0.30802  Biso   1.000  H
  C107     1.0000 0.80282  0.57429  0.89347  Biso   1.000  C
  H61      1.0000 0.73981  0.57161  0.91953  Biso   1.000  H
  C108     1.0000 0.82322  0.60280  0.80695  Biso   1.000  C
  H62      1.0000 0.77420  0.61970  0.77389  Biso   1.000  H
  H63      1.0000 0.80402  0.82981  0.80772  Biso   1.000  H
  H64      1.0000 0.51219  0.64970  0.89651  Biso   1.000  H
  H65      1.0000 0.41771  0.28022  0.85329  Biso   1.000  H
  C109     1.0000 0.42572  0.22853  0.89347  Biso   1.000  C
  C110     1.0000 0.40349  0.15390  0.84629  Biso   1.000  C
  H66      1.0000 0.38031  0.15450  0.77389  Biso   1.000  H
  H67      1.0000 0.25881  0.24662  0.54139  Biso   1.000  H
  H68      1.0000 0.20481  0.24420  0.84511  Biso   1.000  H
  C111     1.0000 0.92930  0.41637  0.62274  Biso   1.000  C
  C112     1.0000 0.92787  0.49286  0.62939  Biso   1.000  C
  C113     1.0000 0.98039  0.33952  0.43072  Biso   1.000  C
  H69      1.0000 0.01030  0.41400  0.44731  Biso   1.000  H
  H70      1.0000 0.95979  0.50879  0.36372  Biso   1.000  H
  C114     1.0000 0.90740  0.48298  0.30562  Biso   1.000  C
  H71      1.0000 0.94261  0.26871  0.40812  Biso   1.000  H
  H72      1.0000 0.84802  0.43850  0.26001  Biso   1.000  H
  C115     1.0000 0.48708  0.07073  0.62274  Biso   1.000  C
  C116     1.0000 0.56500  0.07214  0.62939  Biso   1.000  C
  C117     1.0000 0.35911  0.01960  0.43072  Biso   1.000  C
  H73      1.0000 0.40366  0.98970  0.44731  Biso   1.000  H
  H74      1.0000 0.54900  0.04021  0.36372  Biso   1.000  H
  C118     1.0000 0.57561  0.09260  0.30562  Biso   1.000  C
  H75      1.0000 0.32611  0.05740  0.40812  Biso   1.000  H
  H76      1.0000 0.59049  0.15201  0.26001  Biso   1.000  H
  C119     1.0000 0.83390  0.58591  0.85151  Biso   1.000  C
  C120     1.0000 0.81439  0.55840  0.94042  Biso   1.000  C
  C121     1.0000 0.85551  0.61509  0.76252  Biso   1.000  C
  C122     1.0000 0.42040  0.18149  0.89085  Biso   1.000  C
  C123     1.0000 0.44162  0.25601  0.94042  Biso   1.000  C
  C124     1.0000 0.39680  0.10541  0.84420  Biso   1.000  C
  C125     1.0000 0.94767  0.42276  0.67201  Biso   1.000  C
  H77      1.0000 0.92351  0.38801  0.60360  Biso   1.000  H
  C126     1.0000 0.94624  0.49925  0.67870  Biso   1.000  C
  H78      1.0000 0.92110  0.51681  0.61482  Biso   1.000  H
  H79      1.0000 0.00902  0.33792  0.44042  Biso   1.000  H
  H80      1.0000 0.92010  0.51269  0.28630  Biso   1.000  H
  C127     1.0000 0.47508  0.05232  0.67201  Biso   1.000  C
  H81      1.0000 0.46450  0.07649  0.60360  Biso   1.000  H
  C128     1.0000 0.55301  0.05376  0.67870  Biso   1.000  C
  H82      1.0000 0.59571  0.07890  0.61482  Biso   1.000  H
  H83      1.0000 0.32890  0.99100  0.44042  Biso   1.000  H
  H84      1.0000 0.59261  0.07990  0.28630  Biso   1.000  H
  H85      1.0000 0.86249  0.58231  0.85329  Biso   1.000  H
  N11      1.0000 0.79761  0.55769  0.98280  Biso   1.000  N
  H86      1.0000 0.83781  0.54729  0.93833  Biso   1.000  H
  N12      1.0000 0.89900  0.62478  0.76541  Biso   1.000  N
  H87      1.0000 0.84242  0.61561  0.73003  Biso   1.000  H
  H88      1.0000 0.42839  0.16820  0.91953  Biso   1.000  H
  N13      1.0000 0.44231  0.23990  0.98280  Biso   1.000  N
  H89      1.0000 0.45269  0.29050  0.93833  Biso   1.000  H
  N14      1.0000 0.36978  0.07459  0.80950  Biso   1.000  N
  H90      1.0000 0.41251  0.09561  0.86893  Biso   1.000  H
  C129     1.0000 0.95611  0.46420  0.70005  Biso   1.000  C
  C130     1.0000 0.95841  0.38481  0.69282  Biso   1.000  C
  C131     1.0000 0.95710  0.54399  0.70823  Biso   1.000  C
  C132     1.0000 0.50810  0.04389  0.70005  Biso   1.000  C
  C133     1.0000 0.42640  0.04159  0.69282  Biso   1.000  C
  C134     1.0000 0.58689  0.04288  0.70823  Biso   1.000  C
  C135     1.0000 0.81469  0.54221  0.02629  Biso   1.000  C
  C136     1.0000 0.92870  0.63730  0.71690  Biso   1.000  C
  C137     1.0000 0.45780  0.27250  0.02629  Biso   1.000  C
  C138     1.0000 0.36839  0.02640  0.80730  Biso   1.000  C
  H91      1.0000 0.96870  0.46862  0.73372  Biso   1.000  H
  N15      1.0000 0.98340  0.39439  0.73562  Biso   1.000  N
  H92      1.0000 0.94759  0.35429  0.67551  Biso   1.000  H
  N16      1.0000 0.95663  0.58112  0.68871  Biso   1.000  N
  H93      1.0000 0.96470  0.54499  0.74342  Biso   1.000  H
  H94      1.0000 0.49991  0.03130  0.73372  Biso   1.000  H
  N17      1.0000 0.41101  0.01660  0.73562  Biso   1.000  N
  H95      1.0000 0.40669  0.05239  0.67551  Biso   1.000  H
  N18      1.0000 0.62452  0.04340  0.68871  Biso   1.000  N
  H96      1.0000 0.58031  0.03531  0.74342  Biso   1.000  H
  C139     1.0000 0.77550  0.52049  0.06932  Biso   1.000  C
  H97      1.0000 0.82201  0.51581  0.01491  Biso   1.000  H
  C140     1.0000 0.86261  0.58550  0.04779  Biso   1.000  C
  C141     1.0000 0.96902  0.62282  0.72112  Biso   1.000  C
  H98      1.0000 0.90621  0.61940  0.68772  Biso   1.000  H
  C142     1.0000 0.95290  0.69381  0.70910  Biso   1.000  C
  C143     1.0000 0.47951  0.25501  0.06932  Biso   1.000  C
  H99      1.0000 0.48421  0.30621  0.01491  Biso   1.000  H
  C144     1.0000 0.41451  0.27710  0.04779  Biso   1.000  C
  H100     1.0000 0.39950  0.02952  0.82191  Biso   1.000  H
  C145     1.0000 0.36169  0.00850  0.75183  Biso   1.000  C
  C146     1.0000 0.32019  0.98439  0.83751  Biso   1.000  C
  C147     1.0000 0.99152  0.35322  0.75183  Biso   1.000  C
  C148     1.0000 0.65382  0.03100  0.72112  Biso   1.000  C
  N19      1.0000 0.75651  0.46650  0.07130  Biso   1.000  N
  H101     1.0000 0.74769  0.52680  0.06141  Biso   1.000  H
  C149     1.0000 0.80052  0.54640  0.11969  Biso   1.000  C
  H102     1.0000 0.88852  0.60221  0.02100  Biso   1.000  H
  C150     1.0000 0.87909  0.56419  0.08857  Biso   1.000  C
  C151     1.0000 0.84909  0.62059  0.07229  Biso   1.000  C
  H103     1.0000 0.97122  0.61372  0.75711  Biso   1.000  H
  C152     1.0000 0.01841  0.66681  0.70522  Biso   1.000  C
  H104     1.0000 0.92842  0.70562  0.71070  Biso   1.000  H
  C153     1.0000 0.97612  0.70101  0.65812  Biso   1.000  C
  C154     1.0000 0.99460  0.71932  0.74863  Biso   1.000  C
  N20      1.0000 0.53349  0.28998  0.07130  Biso   1.000  N
  H105     1.0000 0.47319  0.22089  0.06141  Biso   1.000  H
  C155     1.0000 0.45360  0.25412  0.11969  Biso   1.000  C
  H106     1.0000 0.39779  0.28631  0.02100  Biso   1.000  H
  C156     1.0000 0.43579  0.31490  0.08857  Biso   1.000  C
  C157     1.0000 0.37940  0.22850  0.07229  Biso   1.000  C
  H107     1.0000 0.35319  0.02989  0.73060  Biso   1.000  H
  C158     1.0000 0.31898  0.95468  0.74821  Biso   1.000  C
  H108     1.0000 0.31997  0.99527  0.87331  Biso   1.000  H
  C159     1.0000 0.27562  0.97510  0.81110  Biso   1.000  C
  C160     1.0000 0.32878  0.94187  0.83682  Biso   1.000  C
  C161     1.0000 0.97360  0.34200  0.80730  Biso   1.000  C
  H109     1.0000 0.97010  0.32329  0.73060  Biso   1.000  H
  C162     1.0000 0.04531  0.36432  0.74821  Biso   1.000  C
  H110     1.0000 0.64250  0.02881  0.75711  Biso   1.000  H
  C163     1.0000 0.70859  0.07129  0.71690  Biso   1.000  C
  C164     1.0000 0.64841  0.98156  0.70522  Biso   1.000  C
  C165     1.0000 0.71101  0.43999  0.06921  Biso   1.000  C
  H111     1.0000 0.77689  0.53170  0.14891  Biso   1.000  H
  C166     1.0000 0.84416  0.54120  0.12688  Biso   1.000  C
  C167     1.0000 0.81512  0.59920  0.11182  Biso   1.000  C
  C168     1.0000 0.92251  0.56170  0.08869  Biso   1.000  C
  C169     1.0000 0.86701  0.67001  0.05939  Biso   1.000  C
  H112     1.0000 0.04478  0.65750  0.70252  Biso   1.000  H
  C170     1.0000 0.01169  0.68649  0.65671  Biso   1.000  C
  C171     1.0000 0.02969  0.70409  0.74699  Biso   1.000  C
  C172     1.0000 0.96721  0.72140  0.61513  Biso   1.000  C
  C173     1.0000 0.99820  0.75322  0.78512  Biso   1.000  C
  C174     1.0000 0.56002  0.27101  0.06921  Biso   1.000  C
  H113     1.0000 0.46831  0.24521  0.14891  Biso   1.000  H
  C175     1.0000 0.45881  0.30294  0.12688  Biso   1.000  C
  C176     1.0000 0.40079  0.21591  0.11182  Biso   1.000  C
  C177     1.0000 0.43828  0.36079  0.08869  Biso   1.000  C
  C178     1.0000 0.32999  0.19701  0.05939  Biso   1.000  C
  H114     1.0000 0.31613  0.94057  0.71332  Biso   1.000  H
  C179     1.0000 0.27408  0.95646  0.76271  Biso   1.000  C
  C180     1.0000 0.32796  0.92557  0.78740  Biso   1.000  C
  C181     1.0000 0.23691  0.98168  0.82792  Biso   1.000  C
  C182     1.0000 0.33708  0.91841  0.87753  Biso   1.000  C
  N21      1.0000 0.92542  0.29522  0.80950  Biso   1.000  N
  H115     1.0000 0.97049  0.37000  0.82191  Biso   1.000  H
  C183     1.0000 0.01561  0.33580  0.83751  Biso   1.000  C
  H116     1.0000 0.05938  0.37549  0.71332  Biso   1.000  H
  C184     1.0000 0.04350  0.31761  0.76271  Biso   1.000  C
  C185     1.0000 0.07442  0.40241  0.78740  Biso   1.000  C
  N22      1.0000 0.72579  0.10099  0.76541  Biso   1.000  N
  H117     1.0000 0.71319  0.09379  0.68772  Biso   1.000  H
  C186     1.0000 0.74091  0.04712  0.70910  Biso   1.000  C
  H118     1.0000 0.61267  0.95516  0.70252  Biso   1.000  H
  C187     1.0000 0.67482  0.98828  0.65671  Biso   1.000  C
  C188     1.0000 0.67442  0.97031  0.74699  Biso   1.000  C
  C189     1.0000 0.68670  0.38288  0.07149  Biso   1.000  C
  H119     1.0000 0.69079  0.45480  0.06620  Biso   1.000  H
  C190     1.0000 0.85259  0.51570  0.16542  Biso   1.000  C
  C191     1.0000 0.79920  0.62731  0.13849  Biso   1.000  C
  H120     1.0000 0.94631  0.57741  0.06240  Biso   1.000  H
  C192     1.0000 0.93091  0.53612  0.12711  Biso   1.000  C
  H121     1.0000 0.89010  0.68460  0.03230  Biso   1.000  H
  C193     1.0000 0.85110  0.69812  0.08598  Biso   1.000  C
  C194     1.0000 0.03850  0.69251  0.61243  Biso   1.000  C
  C195     1.0000 0.06840  0.72281  0.78200  Biso   1.000  C
  C196     1.0000 0.99389  0.72730  0.57080  Biso   1.000  C
  H122     1.0000 0.94281  0.73131  0.61612  Biso   1.000  H
  H123     1.0000 0.97420  0.76361  0.78622  Biso   1.000  H
  C197     1.0000 0.03689  0.77200  0.82012  Biso   1.000  C
  C198     1.0000 0.61709  0.30380  0.07149  Biso   1.000  C
  H124     1.0000 0.54521  0.23600  0.06620  Biso   1.000  H
  C199     1.0000 0.48432  0.33692  0.16542  Biso   1.000  C
  C200     1.0000 0.37272  0.17191  0.13849  Biso   1.000  C
  H125     1.0000 0.42259  0.36888  0.06240  Biso   1.000  H
  C201     1.0000 0.46390  0.39480  0.12711  Biso   1.000  C
  H126     1.0000 0.31540  0.20551  0.03230  Biso   1.000  H
  C202     1.0000 0.30192  0.15301  0.08598  Biso   1.000  C
  C203     1.0000 0.23383  0.94440  0.73102  Biso   1.000  C
  C204     1.0000 0.33563  0.88581  0.77872  Biso   1.000  C
  C205     1.0000 0.19670  0.96968  0.79623  Biso   1.000  C
  H127     1.0000 0.23797  0.99449  0.86102  Biso   1.000  H
  C206     1.0000 0.34456  0.87845  0.86870  Biso   1.000  C
  H128     1.0000 0.33761  0.92951  0.91120  Biso   1.000  H
  C207     1.0000 0.89460  0.29139  0.84420  Biso   1.000  C
  H129     1.0000 0.00469  0.32470  0.87331  Biso   1.000  H
  C208     1.0000 0.02490  0.30049  0.81110  Biso   1.000  C
  C209     1.0000 0.05810  0.38689  0.83682  Biso   1.000  C
  C210     1.0000 0.05559  0.28939  0.73102  Biso   1.000  C
  C211     1.0000 0.11418  0.44979  0.77872  Biso   1.000  C
  C212     1.0000 0.75961  0.14451  0.76252  Biso   1.000  C
  H130     1.0000 0.77720  0.07159  0.71070  Biso   1.000  H
  C213     1.0000 0.72490  0.02391  0.65812  Biso   1.000  C
  C214     1.0000 0.72471  0.00538  0.74863  Biso   1.000  C
  C215     1.0000 0.65404  0.96151  0.61243  Biso   1.000  C
  C216     1.0000 0.65438  0.93159  0.78200  Biso   1.000  C
  C217     1.0000 0.71679  0.36209  0.07210  Biso   1.000  C
  C218     1.0000 0.63791  0.35470  0.07210  Biso   1.000  C
  C219     1.0000 0.89599  0.51310  0.16550  Biso   1.000  C
  H131     1.0000 0.82872  0.49992  0.19160  Biso   1.000  H
  C220     1.0000 0.81711  0.67669  0.12559  Biso   1.000  C
  H132     1.0000 0.77612  0.61272  0.16550  Biso   1.000  H
  H133     1.0000 0.96052  0.53430  0.12719  Biso   1.000  H
  H134     1.0000 0.86330  0.73190  0.07720  Biso   1.000  H
  H135     1.0000 0.06290  0.68259  0.61140  Biso   1.000  H
  C221     1.0000 0.02952  0.71282  0.56940  Biso   1.000  C
  H136     1.0000 0.09240  0.71241  0.78101  Biso   1.000  H
  C222     1.0000 0.07191  0.75671  0.81860  Biso   1.000  C
  H137     1.0000 0.98778  0.74119  0.54139  Biso   1.000  H
  H138     1.0000 0.03939  0.79521  0.84511  Biso   1.000  H
  C223     1.0000 0.64531  0.28319  0.07210  Biso   1.000  C
  C224     1.0000 0.48688  0.38288  0.16550  Biso   1.000  C
  H139     1.0000 0.50009  0.32878  0.19160  Biso   1.000  H
  C225     1.0000 0.32329  0.14039  0.12559  Biso   1.000  C
  H140     1.0000 0.38731  0.16341  0.16550  Biso   1.000  H
  H141     1.0000 0.46572  0.42621  0.12719  Biso   1.000  H
  H142     1.0000 0.26809  0.13140  0.07720  Biso   1.000  H
  H143     1.0000 0.23279  0.93177  0.69792  Biso   1.000  H
  C226     1.0000 0.19514  0.95101  0.74779  Biso   1.000  C
  H144     1.0000 0.33501  0.87459  0.74490  Biso   1.000  H
  C227     1.0000 0.34388  0.86230  0.81932  Biso   1.000  C
  H145     1.0000 0.17020  0.97418  0.80772  Biso   1.000  H
  H146     1.0000 0.35032  0.86245  0.89651  Biso   1.000  H
  C228     1.0000 0.84610  0.24959  0.84629  Biso   1.000  C
  H147     1.0000 0.90439  0.31690  0.86893  Biso   1.000  H
  C229     1.0000 0.01830  0.25519  0.82792  Biso   1.000  C
  C230     1.0000 0.08160  0.41871  0.87753  Biso   1.000  C
  H148     1.0000 0.06822  0.30101  0.69792  Biso   1.000  H
  C231     1.0000 0.04899  0.24409  0.74779  Biso   1.000  C
  H149     1.0000 0.12541  0.46041  0.74490  Biso   1.000  H
  C232     1.0000 0.13772  0.48161  0.81932  Biso   1.000  C
  C233     1.0000 0.77962  0.17681  0.80695  Biso   1.000  C
  H150     1.0000 0.77320  0.15762  0.73003  Biso   1.000  H
  C234     1.0000 0.75420  0.03279  0.61513  Biso   1.000  C
  C235     1.0000 0.75500  0.00178  0.78512  Biso   1.000  C
  H151     1.0000 0.61970  0.93708  0.61140  Biso   1.000  H
  C236     1.0000 0.68328  0.97046  0.56940  Biso   1.000  C
  H152     1.0000 0.61999  0.90756  0.78101  Biso   1.000  H
  C237     1.0000 0.68480  0.92810  0.81860  Biso   1.000  C
  H153     1.0000 0.75191  0.38270  0.07290  Biso   1.000  H
  C238     1.0000 0.69622  0.31330  0.07149  Biso   1.000  C
  H154     1.0000 0.61732  0.36922  0.07290  Biso   1.000  H
  H155     1.0000 0.90172  0.49561  0.19179  Biso   1.000  H
  H156     1.0000 0.80629  0.69589  0.14381  Biso   1.000  H
  H157     1.0000 0.04780  0.71690  0.53900  Biso   1.000  H
  H158     1.0000 0.09841  0.76952  0.84253  Biso   1.000  H
  H159     1.0000 0.63079  0.24810  0.07290  Biso   1.000  H
  H160     1.0000 0.50440  0.40609  0.19179  Biso   1.000  H
  H161     1.0000 0.30411  0.11039  0.14381  Biso   1.000  H
  H162     1.0000 0.16758  0.94276  0.72611  Biso   1.000  H
  H163     1.0000 0.34898  0.83501  0.81331  Biso   1.000  H
  C239     1.0000 0.81850  0.23889  0.89085  Biso   1.000  C
  C240     1.0000 0.82661  0.21851  0.80437  Biso   1.000  C
  C241     1.0000 0.03032  0.22701  0.79623  Biso   1.000  C
  H164     1.0000 0.00551  0.24350  0.86102  Biso   1.000  H
  C242     1.0000 0.12150  0.46609  0.86870  Biso   1.000  C
  H165     1.0000 0.07051  0.40809  0.91120  Biso   1.000  H
  H166     1.0000 0.05718  0.22478  0.72611  Biso   1.000  H
  H167     1.0000 0.16500  0.51399  0.81331  Biso   1.000  H
  C243     1.0000 0.75200  0.16608  0.85151  Biso   1.000  C
  C244     1.0000 0.73339  0.00609  0.57080  Biso   1.000  C
  H168     1.0000 0.78850  0.05722  0.61612  Biso   1.000  H
  H169     1.0000 0.78939  0.02581  0.78622  Biso   1.000  H
  C245     1.0000 0.73508  0.96307  0.82012  Biso   1.000  C
  H170     1.0000 0.66909  0.95219  0.53900  Biso   1.000  H
  H171     1.0000 0.67112  0.90159  0.84253  Biso   1.000  H
  C246     1.0000 0.72900  0.28902  0.06921  Biso   1.000  C
  C247     1.0000 0.77148  0.19720  0.89347  Biso   1.000  C
  H172     1.0000 0.83180  0.26021  0.91953  Biso   1.000  H
  H173     1.0000 0.84549  0.22579  0.77389  Biso   1.000  H
  H174     1.0000 0.02582  0.19601  0.80772  Biso   1.000  H
  H175     1.0000 0.13750  0.48781  0.89651  Biso   1.000  H
  H176     1.0000 0.71980  0.13749  0.85329  Biso   1.000  H
  H177     1.0000 0.75340  0.01222  0.54139  Biso   1.000  H
  H178     1.0000 0.75580  0.96059  0.84511  Biso   1.000  H
  N23      1.0000 0.71000  0.24350  0.07130  Biso   1.000  N
  H179     1.0000 0.76402  0.30922  0.06620  Biso   1.000  H
  C248     1.0000 0.74402  0.18561  0.94042  Biso   1.000  C
  C249     1.0000 0.74500  0.22449  0.06932  Biso   1.000  C
  N24      1.0000 0.76009  0.20239  0.98280  Biso   1.000  N
  H180     1.0000 0.70950  0.16218  0.93833  Biso   1.000  H
  H181     1.0000 0.77910  0.25230  0.06141  Biso   1.000  H
  C250     1.0000 0.72750  0.18531  0.02629  Biso   1.000  C
  C251     1.0000 0.74591  0.19950  0.11969  Biso   1.000  C
  H182     1.0000 0.69381  0.17800  0.01491  Biso   1.000  H
  C252     1.0000 0.72291  0.13742  0.04779  Biso   1.000  C
  H183     1.0000 0.75479  0.22311  0.14891  Biso   1.000  H
  C253     1.0000 0.69706  0.15587  0.12688  Biso   1.000  C
  C254     1.0000 0.78412  0.18491  0.11182  Biso   1.000  C
  H184     1.0000 0.71371  0.11150  0.02100  Biso   1.000  H
  C255     1.0000 0.68510  0.12089  0.08857  Biso   1.000  C
  C256     1.0000 0.77152  0.15090  0.07229  Biso   1.000  C
  C257     1.0000 0.66311  0.14741  0.16542  Biso   1.000  C
  C258     1.0000 0.82811  0.20080  0.13849  Biso   1.000  C
  C259     1.0000 0.63918  0.07749  0.08869  Biso   1.000  C
  C260     1.0000 0.80299  0.13300  0.05939  Biso   1.000  C
  C261     1.0000 0.61710  0.10400  0.16550  Biso   1.000  C
  H185     1.0000 0.67121  0.17132  0.19160  Biso   1.000  H
  C262     1.0000 0.85961  0.18290  0.12559  Biso   1.000  C
  H186     1.0000 0.83660  0.22389  0.16550  Biso   1.000  H
  H187     1.0000 0.63111  0.05369  0.06240  Biso   1.000  H
  C263     1.0000 0.60521  0.06910  0.12711  Biso   1.000  C
  H188     1.0000 0.79449  0.10990  0.03230  Biso   1.000  H
  C264     1.0000 0.84701  0.14889  0.08598  Biso   1.000  C
  H189     1.0000 0.59389  0.09828  0.19179  Biso   1.000  H
  H190     1.0000 0.88961  0.19371  0.14381  Biso   1.000  H
  H191     1.0000 0.57379  0.03951  0.12719  Biso   1.000  H
  H192     1.0000 0.86861  0.13671  0.07720  Biso   1.000  H
  C265     1.0000 0.50210  0.56991  0.57073  Biso   1.000  C
  C266     1.0000 0.47182  0.58331  0.53382  Biso   1.000  C
  H193     1.0000 0.50332  0.53961  0.56000  Biso   1.000  H
  C267     1.0000 0.55341  0.61561  0.57552  Biso   1.000  C
  C268     1.0000 0.47450  0.56281  0.62300  Biso   1.000  C
  N25      1.0000 0.48872  0.58520  0.48060  Biso   1.000  N
  H194     1.0000 0.43601  0.55710  0.53622  Biso   1.000  H
  C269     1.0000 0.47690  0.63269  0.54839  Biso   1.000  C
  C270     1.0000 0.55488  0.65779  0.59462  Biso   1.000  C
  C271     1.0000 0.59671  0.61520  0.56380  Biso   1.000  C
  C272     1.0000 0.47369  0.60369  0.63712  Biso   1.000  C
  C273     1.0000 0.45062  0.51982  0.64849  Biso   1.000  C
  C274     1.0000 0.45611  0.55271  0.45210  Biso   1.000  C
  N26      1.0000 0.42807  0.62868  0.55049  Biso   1.000  N
  H195     1.0000 0.49791  0.65831  0.52260  Biso   1.000  H
  C275     1.0000 0.50282  0.64892  0.60322  Biso   1.000  C
  C276     1.0000 0.59800  0.69990  0.59972  Biso   1.000  C
  H196     1.0000 0.59630  0.58602  0.55269  Biso   1.000  H
  C277     1.0000 0.64090  0.66050  0.56932  Biso   1.000  C
  C278     1.0000 0.44879  0.60381  0.68159  Biso   1.000  C
  H197     1.0000 0.45100  0.49119  0.63632  Biso   1.000  H
  C279     1.0000 0.42439  0.51700  0.69441  Biso   1.000  C
  C280     1.0000 0.46800  0.54859  0.39861  Biso   1.000  C
  H198     1.0000 0.42380  0.53081  0.46511  Biso   1.000  H
  C281     1.0000 0.42500  0.66659  0.53961  Biso   1.000  C
  H199     1.0000 0.50291  0.67899  0.61661  Biso   1.000  H
  C282     1.0000 0.64290  0.70161  0.58739  Biso   1.000  C
  H200     1.0000 0.59851  0.72890  0.61170  Biso   1.000  H
  H201     1.0000 0.67109  0.66210  0.55962  Biso   1.000  H
  C283     1.0000 0.42559  0.56140  0.70940  Biso   1.000  C
  H202     1.0000 0.44821  0.63280  0.69202  Biso   1.000  H
  H203     1.0000 0.40738  0.48729  0.71370  Biso   1.000  H
  C284     1.0000 0.43500  0.50716  0.37061  Biso   1.000  C
  C285     1.0000 0.51292  0.58364  0.37726  Biso   1.000  C
  C286     1.0000 0.37832  0.66622  0.53949  Biso   1.000  C
  H204     1.0000 0.45450  0.69652  0.53112  Biso   1.000  H
  H205     1.0000 0.67390  0.73131  0.59192  Biso   1.000  H
  H206     1.0000 0.40951  0.56151  0.73999  Biso   1.000  H
  C287     1.0000 0.44702  0.50077  0.32130  Biso   1.000  C
  H207     1.0000 0.40431  0.48321  0.38522  Biso   1.000  H
  C288     1.0000 0.52491  0.57726  0.32799  Biso   1.000  C
  H208     1.0000 0.53550  0.61201  0.39640  Biso   1.000  H
  C289     1.0000 0.33261  0.62200  0.53869  Biso   1.000  C
  C290     1.0000 0.37802  0.71063  0.53869  Biso   1.000  C
  C291     1.0000 0.41308  0.45599  0.29181  Biso   1.000  C
  C292     1.0000 0.49189  0.53578  0.29999  Biso   1.000  C
  C293     1.0000 0.57359  0.61520  0.30722  Biso   1.000  C
  H209     1.0000 0.33211  0.59122  0.53770  Biso   1.000  H
  C294     1.0000 0.28789  0.62170  0.53949  Biso   1.000  C
  H210     1.0000 0.40881  0.74089  0.53770  Biso   1.000  H
  C295     1.0000 0.33380  0.71211  0.53949  Biso   1.000  C
  N27      1.0000 0.37550  0.41890  0.31129  Biso   1.000  N
  H211     1.0000 0.41969  0.45499  0.25662  Biso   1.000  H
  H212     1.0000 0.50011  0.53140  0.26632  Biso   1.000  H
  N28      1.0000 0.58901  0.60559  0.26442  Biso   1.000  N
  H213     1.0000 0.59330  0.64569  0.32449  Biso   1.000  H
  C296     1.0000 0.28939  0.66741  0.53869  Biso   1.000  C
  C297     1.0000 0.24161  0.57499  0.53961  Biso   1.000  C
  C298     1.0000 0.33342  0.75841  0.53961  Biso   1.000  C
  C299     1.0000 0.34619  0.37720  0.27891  Biso   1.000  C
  C300     1.0000 0.63830  0.64680  0.24821  Biso   1.000  C
  H214     1.0000 0.25909  0.66789  0.53770  Biso   1.000  H
  N29      1.0000 0.20063  0.57195  0.55049  Biso   1.000  N
  H215     1.0000 0.24202  0.54551  0.53112  Biso   1.000  H
  N30      1.0000 0.37134  0.79941  0.55049  Biso   1.000  N
  H216     1.0000 0.30350  0.75801  0.53112  Biso   1.000  H
  C301     1.0000 0.29138  0.36268  0.28310  Biso   1.000  C
  C302     1.0000 0.35159  0.33320  0.29482  Biso   1.000  C
  H217     1.0000 0.35750  0.38630  0.24289  Biso   1.000  H
  C303     1.0000 0.63162  0.65801  0.19270  Biso   1.000  C
  H218     1.0000 0.64681  0.67669  0.26940  Biso   1.000  H
  C304     1.0000 0.68101  0.63570  0.25179  Biso   1.000  C
  C305     1.0000 0.15578  0.52309  0.54839  Biso   1.000  C
  C306     1.0000 0.36732  0.84422  0.54839  Biso   1.000  C
  C307     1.0000 0.25912  0.30621  0.29090  Biso   1.000  C
  N31      1.0000 0.27419  0.37520  0.23459  Biso   1.000  N
  H219     1.0000 0.28681  0.38062  0.31232  Biso   1.000  H
  C308     1.0000 0.32560  0.29589  0.25301  Biso   1.000  C
  C309     1.0000 0.32521  0.31349  0.34329  Biso   1.000  C
  H220     1.0000 0.38729  0.34249  0.29752  Biso   1.000  H
  N32      1.0000 0.63019  0.70480  0.19050  Biso   1.000  N
  H221     1.0000 0.60052  0.63002  0.17809  Biso   1.000  H
  C310     1.0000 0.67980  0.66422  0.16249  Biso   1.000  C
  H222     1.0000 0.68390  0.62449  0.28671  Biso   1.000  H
  C311     1.0000 0.72591  0.68241  0.23729  Biso   1.000  C
  C312     1.0000 0.67200  0.59760  0.21260  Biso   1.000  C
  C313     1.0000 0.11150  0.52821  0.53382  Biso   1.000  C
  H223     1.0000 0.16041  0.50211  0.52260  Biso   1.000  H
  C314     1.0000 0.14609  0.49721  0.60322  Biso   1.000  C
  C315     1.0000 0.41670  0.88852  0.53382  Biso   1.000  C
  H224     1.0000 0.34170  0.83962  0.52260  Biso   1.000  H
  C316     1.0000 0.35110  0.85391  0.60322  Biso   1.000  C
  C317     1.0000 0.27531  0.28070  0.25141  Biso   1.000  C
  H225     1.0000 0.22280  0.29440  0.28930  Biso   1.000  H
  C318     1.0000 0.27510  0.29901  0.34192  Biso   1.000  C
  C319     1.0000 0.24039  0.38489  0.23752  Biso   1.000  C
  C320     1.0000 0.34562  0.27721  0.21800  Biso   1.000  C
  C321     1.0000 0.34601  0.30751  0.38761  Biso   1.000  C
  C322     1.0000 0.60321  0.70859  0.15580  Biso   1.000  C
  H226     1.0000 0.68002  0.67532  0.12669  Biso   1.000  H
  C323     1.0000 0.72439  0.69949  0.18890  Biso   1.000  C
  C324     1.0000 0.67119  0.61309  0.16322  Biso   1.000  C
  C325     1.0000 0.76621  0.71059  0.26902  Biso   1.000  C
  C326     1.0000 0.66440  0.55019  0.22131  Biso   1.000  C
  N33      1.0000 0.09652  0.51131  0.48060  Biso   1.000  N
  H227     1.0000 0.12110  0.56400  0.53622  Biso   1.000  H
  C327     1.0000 0.06779  0.49791  0.57073  Biso   1.000  C
  H228     1.0000 0.17610  0.49709  0.61661  Biso   1.000  H
  C328     1.0000 0.10291  0.44511  0.59462  Biso   1.000  C
  C329     1.0000 0.13000  0.52632  0.63712  Biso   1.000  C
  N34      1.0000 0.41481  0.90352  0.48060  Biso   1.000  N
  H229     1.0000 0.44289  0.87890  0.53622  Biso   1.000  H
  C330     1.0000 0.43010  0.93222  0.57073  Biso   1.000  C
  H230     1.0000 0.32102  0.82391  0.61661  Biso   1.000  H
  C331     1.0000 0.34221  0.89709  0.59462  Biso   1.000  C
  C332     1.0000 0.39628  0.86999  0.63712  Biso   1.000  C
  C333     1.0000 0.24501  0.24680  0.21492  Biso   1.000  C
  C334     1.0000 0.24579  0.27859  0.38491  Biso   1.000  C
  C335     1.0000 0.22041  0.39721  0.19305  Biso   1.000  C
  H231     1.0000 0.22680  0.38441  0.27001  Biso   1.000  H
  H232     1.0000 0.38002  0.28761  0.21899  Biso   1.000  H
  C336     1.0000 0.31520  0.24331  0.18140  Biso   1.000  C
  H233     1.0000 0.38031  0.31739  0.38860  Biso   1.000  H
  C337     1.0000 0.31669  0.28720  0.43060  Biso   1.000  C
  C338     1.0000 0.59649  0.75039  0.15371  Biso   1.000  C
  H234     1.0000 0.58751  0.68311  0.13111  Biso   1.000  H
  C339     1.0000 0.76308  0.74479  0.17212  Biso   1.000  C
  C340     1.0000 0.66292  0.58130  0.12251  Biso   1.000  C
  H235     1.0000 0.76720  0.69901  0.30212  Biso   1.000  H
  C341     1.0000 0.80490  0.75589  0.25221  Biso   1.000  C
  H236     1.0000 0.66499  0.53961  0.25510  Biso   1.000  H
  C342     1.0000 0.65610  0.51841  0.18072  Biso   1.000  C
  C343     1.0000 0.09661  0.54391  0.45210  Biso   1.000  C
  H237     1.0000 0.03628  0.49669  0.56000  Biso   1.000  H
  C344     1.0000 0.06220  0.44660  0.57552  Biso   1.000  C
  C345     1.0000 0.08831  0.52550  0.62300  Biso   1.000  C
  C346     1.0000 0.10190  0.40200  0.59972  Biso   1.000  C
  C347     1.0000 0.15498  0.55119  0.68159  Biso   1.000  C
  C348     1.0000 0.44730  0.90341  0.45210  Biso   1.000  C
  H238     1.0000 0.46040  0.96370  0.56000  Biso   1.000  H
  C349     1.0000 0.38439  0.93779  0.57552  Biso   1.000  C
  C350     1.0000 0.43719  0.91169  0.62300  Biso   1.000  C
  C351     1.0000 0.30010  0.89810  0.59972  Biso   1.000  C
  C352     1.0000 0.39620  0.84500  0.68159  Biso   1.000  C
  C353     1.0000 0.26491  0.22801  0.17992  Biso   1.000  C
  H239     1.0000 0.21062  0.23641  0.21382  Biso   1.000  H
  C354     1.0000 0.26662  0.27272  0.42920  Biso   1.000  C
  H240     1.0000 0.21150  0.26871  0.38392  Biso   1.000  H
  C355     1.0000 0.24802  0.41411  0.14849  Biso   1.000  C
  C356     1.0000 0.17338  0.39191  0.19567  Biso   1.000  C
  H241     1.0000 0.32889  0.23050  0.15751  Biso   1.000  H
  H242     1.0000 0.33092  0.28311  0.46100  Biso   1.000  H
  C357     1.0000 0.57959  0.76109  0.10915  Biso   1.000  C
  C358     1.0000 0.60812  0.78151  0.19567  Biso   1.000  C
  C359     1.0000 0.80330  0.77301  0.20381  Biso   1.000  C
  H243     1.0000 0.76200  0.75652  0.13902  Biso   1.000  H
  C360     1.0000 0.65538  0.53389  0.13130  Biso   1.000  C
  H244     1.0000 0.66239  0.59189  0.08880  Biso   1.000  H
  H245     1.0000 0.83240  0.77520  0.27389  Biso   1.000  H
  H246     1.0000 0.65098  0.48599  0.18669  Biso   1.000  H
  C361     1.0000 0.08059  0.53200  0.39861  Biso   1.000  C
  H247     1.0000 0.10701  0.57622  0.46511  Biso   1.000  H
  C362     1.0000 0.01850  0.40330  0.56380  Biso   1.000  C
  C363     1.0000 0.06920  0.54941  0.64849  Biso   1.000  C
  C364     1.0000 0.05871  0.35711  0.58739  Biso   1.000  C
  H248     1.0000 0.13039  0.40148  0.61170  Biso   1.000  H
  C365     1.0000 0.13581  0.57440  0.70940  Biso   1.000  C
  H249     1.0000 0.18460  0.55179  0.69202  Biso   1.000  H
  C366     1.0000 0.45141  0.91941  0.39861  Biso   1.000  C
  H250     1.0000 0.46921  0.89301  0.46511  Biso   1.000  H
  C367     1.0000 0.38479  0.98149  0.56380  Biso   1.000  C
  C368     1.0000 0.48020  0.93081  0.64849  Biso   1.000  C
  C369     1.0000 0.29840  0.94132  0.58739  Biso   1.000  C
  H251     1.0000 0.27111  0.86962  0.61170  Biso   1.000  H
  C370     1.0000 0.43859  0.86420  0.70940  Biso   1.000  C
  H252     1.0000 0.36719  0.81541  0.69202  Biso   1.000  H
  H253     1.0000 0.24421  0.20481  0.15489  Biso   1.000  H
  H254     1.0000 0.24660  0.25879  0.45861  Biso   1.000  H
  H255     1.0000 0.28021  0.41771  0.14671  Biso   1.000  H
  C371     1.0000 0.22852  0.42573  0.10657  Biso   1.000  C
  C372     1.0000 0.15390  0.40349  0.15371  Biso   1.000  C
  H256     1.0000 0.15448  0.38028  0.22611  Biso   1.000  H
  C373     1.0000 0.57428  0.80282  0.10657  Biso   1.000  C
  H257     1.0000 0.57162  0.73981  0.08051  Biso   1.000  H
  C374     1.0000 0.60280  0.82321  0.19305  Biso   1.000  C
  H258     1.0000 0.61971  0.77419  0.22611  Biso   1.000  H
  H259     1.0000 0.82980  0.80401  0.19228  Biso   1.000  H
  H260     1.0000 0.64972  0.51221  0.10349  Biso   1.000  H
  C375     1.0000 0.07070  0.48707  0.37726  Biso   1.000  C
  C376     1.0000 0.07214  0.56500  0.37061  Biso   1.000  C
  C377     1.0000 0.01962  0.35912  0.56932  Biso   1.000  C
  H261     1.0000 0.98970  0.40371  0.55269  Biso   1.000  H
  H262     1.0000 0.04018  0.54900  0.63632  Biso   1.000  H
  C378     1.0000 0.09258  0.57559  0.69441  Biso   1.000  C
  H263     1.0000 0.05739  0.32611  0.59192  Biso   1.000  H
  H264     1.0000 0.15200  0.59051  0.73999  Biso   1.000  H
  C379     1.0000 0.49284  0.92787  0.37061  Biso   1.000  C
  C380     1.0000 0.41638  0.92929  0.37726  Biso   1.000  C
  C381     1.0000 0.33949  0.98041  0.56932  Biso   1.000  C
  H265     1.0000 0.41400  0.01028  0.55269  Biso   1.000  H
  H266     1.0000 0.50881  0.95981  0.63632  Biso   1.000  H
  C382     1.0000 0.48300  0.90742  0.69441  Biso   1.000  C
  H267     1.0000 0.26870  0.94261  0.59192  Biso   1.000  H
  H268     1.0000 0.43851  0.84801  0.73999  Biso   1.000  H
  C383     1.0000 0.18148  0.42038  0.10915  Biso   1.000  C
  C384     1.0000 0.25600  0.44159  0.05962  Biso   1.000  C
  C385     1.0000 0.10541  0.39681  0.15580  Biso   1.000  C
  C386     1.0000 0.58589  0.83390  0.14849  Biso   1.000  C
  C387     1.0000 0.55840  0.81441  0.05962  Biso   1.000  C
  C388     1.0000 0.61509  0.85551  0.23752  Biso   1.000  C
  C389     1.0000 0.05232  0.47508  0.32799  Biso   1.000  C
  H269     1.0000 0.07649  0.46449  0.39640  Biso   1.000  H
  C390     1.0000 0.05377  0.55301  0.32130  Biso   1.000  C
  H270     1.0000 0.07891  0.59571  0.38522  Biso   1.000  H
  H271     1.0000 0.99100  0.32890  0.55962  Biso   1.000  H
  H272     1.0000 0.07989  0.59259  0.71370  Biso   1.000  H
  C391     1.0000 0.49924  0.94625  0.32130  Biso   1.000  C
  H273     1.0000 0.51680  0.92112  0.38522  Biso   1.000  H
  C392     1.0000 0.42277  0.94766  0.32799  Biso   1.000  C
  H274     1.0000 0.38798  0.92349  0.39640  Biso   1.000  H
  H275     1.0000 0.33788  0.00899  0.55962  Biso   1.000  H
  H276     1.0000 0.51270  0.92011  0.71370  Biso   1.000  H
  H277     1.0000 0.16819  0.42840  0.08051  Biso   1.000  H
  N35      1.0000 0.23989  0.44229  0.01720  Biso   1.000  N
  H278     1.0000 0.29049  0.45269  0.06171  Biso   1.000  H
  N36      1.0000 0.07461  0.36981  0.19050  Biso   1.000  N
  H279     1.0000 0.09561  0.41251  0.13111  Biso   1.000  H
  H280     1.0000 0.58231  0.86249  0.14671  Biso   1.000  H
  N37      1.0000 0.55770  0.79759  0.01720  Biso   1.000  N
  H281     1.0000 0.54730  0.83780  0.06171  Biso   1.000  H
  N38      1.0000 0.62480  0.89899  0.23459  Biso   1.000  N
  H282     1.0000 0.61561  0.84240  0.27001  Biso   1.000  H
  C393     1.0000 0.04159  0.42640  0.30722  Biso   1.000  C
  C394     1.0000 0.04391  0.50808  0.29999  Biso   1.000  C
  C395     1.0000 0.04290  0.58691  0.29181  Biso   1.000  C
  C396     1.0000 0.54398  0.95710  0.29181  Biso   1.000  C
  C397     1.0000 0.46419  0.95609  0.29999  Biso   1.000  C
  C398     1.0000 0.38479  0.95840  0.30722  Biso   1.000  C
  C399     1.0000 0.27251  0.45781  0.97371  Biso   1.000  C
  C400     1.0000 0.02641  0.36840  0.19270  Biso   1.000  C
  C401     1.0000 0.54221  0.81470  0.97371  Biso   1.000  C
  C402     1.0000 0.63731  0.92869  0.28310  Biso   1.000  C
  N39      1.0000 0.01658  0.41099  0.26442  Biso   1.000  N
  H283     1.0000 0.05240  0.40668  0.32449  Biso   1.000  H
  H284     1.0000 0.03130  0.49992  0.26632  Biso   1.000  H
  N40      1.0000 0.04339  0.62449  0.31129  Biso   1.000  N
  H285     1.0000 0.03529  0.58030  0.25662  Biso   1.000  H
  N41      1.0000 0.58111  0.95661  0.31129  Biso   1.000  N
  H286     1.0000 0.54499  0.96471  0.25662  Biso   1.000  H
  H287     1.0000 0.46860  0.96872  0.26632  Biso   1.000  H
  N42      1.0000 0.39441  0.98342  0.26442  Biso   1.000  N
  H288     1.0000 0.35431  0.94759  0.32449  Biso   1.000  H
  C403     1.0000 0.25499  0.47949  0.93072  Biso   1.000  C
  H289     1.0000 0.30619  0.48421  0.98512  Biso   1.000  H
  C404     1.0000 0.27710  0.41452  0.95221  Biso   1.000  C
  H290     1.0000 0.02950  0.39952  0.17809  Biso   1.000  H
  C405     1.0000 0.00851  0.36172  0.24821  Biso   1.000  C
  C406     1.0000 0.98441  0.32021  0.16249  Biso   1.000  C
  C407     1.0000 0.52048  0.77549  0.93072  Biso   1.000  C
  H291     1.0000 0.51580  0.82202  0.98512  Biso   1.000  H
  C408     1.0000 0.58549  0.86260  0.95221  Biso   1.000  C
  C409     1.0000 0.62281  0.96901  0.27891  Biso   1.000  C
  H292     1.0000 0.61940  0.90619  0.31232  Biso   1.000  H
  C410     1.0000 0.69379  0.95290  0.29090  Biso   1.000  C
  C411     1.0000 0.03102  0.65382  0.27891  Biso   1.000  C
  C412     1.0000 0.35321  0.99151  0.24821  Biso   1.000  C
  N43      1.0000 0.29001  0.53352  0.92870  Biso   1.000  N
  H293     1.0000 0.22092  0.47322  0.93863  Biso   1.000  H
  C413     1.0000 0.25411  0.45362  0.88031  Biso   1.000  C
  H294     1.0000 0.28630  0.39781  0.97900  Biso   1.000  H
  C414     1.0000 0.31491  0.43579  0.91147  Biso   1.000  C
  C415     1.0000 0.22851  0.37939  0.92771  Biso   1.000  C
  H295     1.0000 0.02992  0.35322  0.26940  Biso   1.000  H
  C416     1.0000 0.95471  0.31902  0.25179  Biso   1.000  C
  H296     1.0000 0.99529  0.31998  0.12669  Biso   1.000  H
  C417     1.0000 0.97510  0.27561  0.18890  Biso   1.000  C
  C418     1.0000 0.94191  0.32878  0.16322  Biso   1.000  C
  N44      1.0000 0.46649  0.75652  0.92870  Biso   1.000  N
  H297     1.0000 0.52682  0.74772  0.93863  Biso   1.000  H
  C419     1.0000 0.54641  0.80052  0.88031  Biso   1.000  C
  H298     1.0000 0.60221  0.88852  0.97900  Biso   1.000  H
  C420     1.0000 0.56421  0.87909  0.91147  Biso   1.000  C
  C421     1.0000 0.62059  0.84908  0.92771  Biso   1.000  C
  H299     1.0000 0.61371  0.97120  0.24289  Biso   1.000  H
  C422     1.0000 0.66682  0.01842  0.29482  Biso   1.000  C
  H300     1.0000 0.70559  0.92839  0.28930  Biso   1.000  H
  C423     1.0000 0.70102  0.97611  0.34192  Biso   1.000  C
  C424     1.0000 0.71930  0.99460  0.25141  Biso   1.000  C
  H301     1.0000 0.02879  0.64249  0.24289  Biso   1.000  H
  C425     1.0000 0.07129  0.70859  0.28310  Biso   1.000  C
  C426     1.0000 0.98162  0.64840  0.29482  Biso   1.000  C
  C427     1.0000 0.34201  0.97362  0.19270  Biso   1.000  C
  H302     1.0000 0.32330  0.97009  0.26940  Biso   1.000  H
  C428     1.0000 0.36429  0.04534  0.25179  Biso   1.000  C
  C429     1.0000 0.27099  0.55999  0.93083  Biso   1.000  C
  H303     1.0000 0.24522  0.46832  0.85113  Biso   1.000  H
  C430     1.0000 0.30295  0.45881  0.87312  Biso   1.000  C
  C431     1.0000 0.21591  0.40082  0.88822  Biso   1.000  C
  C432     1.0000 0.36080  0.43832  0.91131  Biso   1.000  C
  C433     1.0000 0.19700  0.33001  0.94061  Biso   1.000  C
  H304     1.0000 0.94061  0.31609  0.28671  Biso   1.000  H
  C434     1.0000 0.95649  0.27409  0.23729  Biso   1.000  C
  C435     1.0000 0.92560  0.32800  0.21260  Biso   1.000  C
  C436     1.0000 0.98169  0.23689  0.17212  Biso   1.000  C
  C437     1.0000 0.91841  0.33710  0.12251  Biso   1.000  C
  C438     1.0000 0.44000  0.71100  0.93083  Biso   1.000  C
  H305     1.0000 0.53170  0.77690  0.85113  Biso   1.000  H
  C439     1.0000 0.54121  0.84415  0.87312  Biso   1.000  C
  C440     1.0000 0.59920  0.81511  0.88822  Biso   1.000  C
  C441     1.0000 0.56170  0.92249  0.91131  Biso   1.000  C
  C442     1.0000 0.67001  0.86702  0.94061  Biso   1.000  C
  H306     1.0000 0.65751  0.04482  0.29752  Biso   1.000  H
  C443     1.0000 0.68655  0.01170  0.34329  Biso   1.000  C
  C444     1.0000 0.70413  0.02970  0.25301  Biso   1.000  C
  C445     1.0000 0.72139  0.96719  0.38491  Biso   1.000  C
  C446     1.0000 0.75319  0.99820  0.21492  Biso   1.000  C
  N45      1.0000 0.10100  0.72581  0.23459  Biso   1.000  N
  H307     1.0000 0.09379  0.71319  0.31232  Biso   1.000  H
  C447     1.0000 0.04709  0.74089  0.29090  Biso   1.000  C
  H308     1.0000 0.95522  0.61272  0.29752  Biso   1.000  H
  C448     1.0000 0.98829  0.67480  0.34329  Biso   1.000  C
  C449     1.0000 0.97030  0.67439  0.25301  Biso   1.000  C
  N46      1.0000 0.29520  0.92539  0.19050  Biso   1.000  N
  H309     1.0000 0.37000  0.97050  0.17809  Biso   1.000  H
  C450     1.0000 0.33585  0.01559  0.16249  Biso   1.000  C
  H310     1.0000 0.37555  0.05944  0.28671  Biso   1.000  H
  C451     1.0000 0.31762  0.04352  0.23729  Biso   1.000  C
  C452     1.0000 0.40244  0.07445  0.21260  Biso   1.000  C
  C453     1.0000 0.30379  0.61710  0.92851  Biso   1.000  C
  H311     1.0000 0.23601  0.54521  0.93380  Biso   1.000  H
  C454     1.0000 0.33690  0.48428  0.83461  Biso   1.000  C
  C455     1.0000 0.17192  0.37271  0.86151  Biso   1.000  C
  H312     1.0000 0.36890  0.42261  0.93760  Biso   1.000  H
  C456     1.0000 0.39478  0.46390  0.87293  Biso   1.000  C
  H313     1.0000 0.20552  0.31542  0.96770  Biso   1.000  H
  C457     1.0000 0.15301  0.30190  0.91402  Biso   1.000  C
  C458     1.0000 0.94442  0.23381  0.26902  Biso   1.000  C
  C459     1.0000 0.88581  0.33562  0.22131  Biso   1.000  C
  C460     1.0000 0.96970  0.19671  0.20381  Biso   1.000  C
  H314     1.0000 0.99450  0.23800  0.13902  Biso   1.000  H
  C461     1.0000 0.87850  0.34460  0.13130  Biso   1.000  C
  H315     1.0000 0.92949  0.33758  0.08880  Biso   1.000  H
  C462     1.0000 0.38291  0.68672  0.92851  Biso   1.000  C
  H316     1.0000 0.45479  0.69080  0.93380  Biso   1.000  H
  C463     1.0000 0.51570  0.85261  0.83461  Biso   1.000  C
  C464     1.0000 0.62730  0.79922  0.86151  Biso   1.000  C
  H317     1.0000 0.57739  0.94629  0.93760  Biso   1.000  H
  C465     1.0000 0.53610  0.93092  0.87293  Biso   1.000  C
  H318     1.0000 0.68461  0.89011  0.96770  Biso   1.000  H
  C466     1.0000 0.69809  0.85109  0.91402  Biso   1.000  C
  C467     1.0000 0.69249  0.03850  0.38761  Biso   1.000  C
  C468     1.0000 0.72280  0.06839  0.21800  Biso   1.000  C
  C469     1.0000 0.72731  0.99389  0.42920  Biso   1.000  C
  H319     1.0000 0.73131  0.94280  0.38392  Biso   1.000  H
  H320     1.0000 0.76361  0.97421  0.21382  Biso   1.000  H
  C470     1.0000 0.77205  0.03691  0.17992  Biso   1.000  C
  C471     1.0000 0.14449  0.75960  0.23752  Biso   1.000  C
  H321     1.0000 0.07161  0.77720  0.28930  Biso   1.000  H
  C472     1.0000 0.02388  0.72489  0.34192  Biso   1.000  C
  C473     1.0000 0.00539  0.72470  0.25141  Biso   1.000  C
  C474     1.0000 0.96149  0.65400  0.38761  Biso   1.000  C
  C475     1.0000 0.93160  0.65441  0.21800  Biso   1.000  C
  C476     1.0000 0.29141  0.89461  0.15580  Biso   1.000  C
  H322     1.0000 0.32475  0.00472  0.12669  Biso   1.000  H
  C477     1.0000 0.30054  0.02491  0.18890  Biso   1.000  C
  C478     1.0000 0.38696  0.05815  0.16322  Biso   1.000  C
  C479     1.0000 0.28941  0.05558  0.26902  Biso   1.000  C
  C480     1.0000 0.44981  0.11425  0.22131  Biso   1.000  C
  C481     1.0000 0.35470  0.63789  0.92790  Biso   1.000  C
  C482     1.0000 0.28320  0.64532  0.92790  Biso   1.000  C
  C483     1.0000 0.38290  0.48688  0.83450  Biso   1.000  C
  H323     1.0000 0.32880  0.50010  0.80840  Biso   1.000  H
  C484     1.0000 0.14039  0.32329  0.87441  Biso   1.000  C
  H324     1.0000 0.16339  0.38730  0.83450  Biso   1.000  H
  H325     1.0000 0.42621  0.46572  0.87281  Biso   1.000  H
  H326     1.0000 0.13142  0.26811  0.92280  Biso   1.000  H
  H327     1.0000 0.93180  0.23280  0.30212  Biso   1.000  H
  C485     1.0000 0.95103  0.19512  0.25221  Biso   1.000  C
  H328     1.0000 0.87459  0.33499  0.25510  Biso   1.000  H
  C486     1.0000 0.86229  0.34390  0.18072  Biso   1.000  C
  H329     1.0000 0.97420  0.17020  0.19228  Biso   1.000  H
  H330     1.0000 0.86249  0.35028  0.10349  Biso   1.000  H
  C487     1.0000 0.36209  0.71679  0.92790  Biso   1.000  C
  C488     1.0000 0.51312  0.89602  0.83450  Biso   1.000  C
  H331     1.0000 0.49992  0.82870  0.80840  Biso   1.000  H
  C489     1.0000 0.67670  0.81712  0.87441  Biso   1.000  C
  H332     1.0000 0.61268  0.77609  0.83450  Biso   1.000  H
  H333     1.0000 0.53431  0.96051  0.87281  Biso   1.000  H
  H334     1.0000 0.73192  0.86331  0.92280  Biso   1.000  H
  H335     1.0000 0.68258  0.06294  0.38860  Biso   1.000  H
  C490     1.0000 0.71287  0.02956  0.43060  Biso   1.000  C
  H336     1.0000 0.71240  0.09242  0.21899  Biso   1.000  H
  C491     1.0000 0.75670  0.07188  0.18140  Biso   1.000  C
  H337     1.0000 0.74121  0.98780  0.45861  Biso   1.000  H
  H338     1.0000 0.79519  0.03939  0.15489  Biso   1.000  H
  C492     1.0000 0.17681  0.77962  0.19305  Biso   1.000  C
  H339     1.0000 0.15759  0.77319  0.27001  Biso   1.000  H
  C493     1.0000 0.03282  0.75422  0.38491  Biso   1.000  C
  C494     1.0000 0.00180  0.75500  0.21492  Biso   1.000  C
  H340     1.0000 0.93710  0.61970  0.38860  Biso   1.000  H
  C495     1.0000 0.97051  0.68330  0.43060  Biso   1.000  C
  H341     1.0000 0.90760  0.61999  0.21899  Biso   1.000  H
  C496     1.0000 0.92810  0.68479  0.18140  Biso   1.000  C
  C497     1.0000 0.24961  0.84611  0.15371  Biso   1.000  C
  H342     1.0000 0.31689  0.90441  0.13111  Biso   1.000  H
  C498     1.0000 0.25524  0.01831  0.17212  Biso   1.000  C
  C499     1.0000 0.41871  0.08165  0.12251  Biso   1.000  C
  H343     1.0000 0.30101  0.06824  0.30212  Biso   1.000  H
  C500     1.0000 0.24411  0.04905  0.25221  Biso   1.000  C
  H344     1.0000 0.46038  0.12542  0.25510  Biso   1.000  H
  C501     1.0000 0.48164  0.13771  0.18072  Biso   1.000  C
  H345     1.0000 0.36921  0.61732  0.92710  Biso   1.000  H
  H346     1.0000 0.24810  0.63080  0.92710  Biso   1.000  H
  C502     1.0000 0.31330  0.69618  0.92851  Biso   1.000  C
  H347     1.0000 0.40610  0.50441  0.80821  Biso   1.000  H
  H348     1.0000 0.11041  0.30409  0.85622  Biso   1.000  H
  H349     1.0000 0.94280  0.16760  0.27389  Biso   1.000  H
  H350     1.0000 0.83500  0.34898  0.18669  Biso   1.000  H
  H351     1.0000 0.38271  0.75192  0.92710  Biso   1.000  H
  H352     1.0000 0.49561  0.90170  0.80821  Biso   1.000  H
  H353     1.0000 0.69590  0.80631  0.85622  Biso   1.000  H
  H354     1.0000 0.71694  0.04779  0.46100  Biso   1.000  H
  H355     1.0000 0.76948  0.09839  0.15751  Biso   1.000  H
  C503     1.0000 0.16608  0.75199  0.14849  Biso   1.000  C
  C504     1.0000 0.21851  0.82662  0.19567  Biso   1.000  C
  C505     1.0000 0.00610  0.73339  0.42920  Biso   1.000  C
  H356     1.0000 0.05719  0.78849  0.38392  Biso   1.000  H
  H357     1.0000 0.02582  0.78942  0.21382  Biso   1.000  H
  C506     1.0000 0.96310  0.73510  0.17992  Biso   1.000  C
  H358     1.0000 0.95220  0.66912  0.46100  Biso   1.000  H
  H359     1.0000 0.90161  0.67108  0.15751  Biso   1.000  H
  C507     1.0000 0.23889  0.81849  0.10915  Biso   1.000  C
  C508     1.0000 0.22701  0.03034  0.20381  Biso   1.000  C
  H360     1.0000 0.24353  0.00550  0.13902  Biso   1.000  H
  C509     1.0000 0.46611  0.12153  0.13130  Biso   1.000  C
  H361     1.0000 0.40811  0.07055  0.08880  Biso   1.000  H
  H362     1.0000 0.22485  0.05722  0.27389  Biso   1.000  H
  H363     1.0000 0.51400  0.16500  0.18669  Biso   1.000  H
  C510     1.0000 0.28900  0.72901  0.93083  Biso   1.000  C
  C511     1.0000 0.19718  0.77148  0.10657  Biso   1.000  C
  H364     1.0000 0.13751  0.71980  0.14671  Biso   1.000  H
  H365     1.0000 0.22581  0.84552  0.22611  Biso   1.000  H
  H366     1.0000 0.01219  0.75340  0.45861  Biso   1.000  H
  H367     1.0000 0.96059  0.75581  0.15489  Biso   1.000  H
  H368     1.0000 0.26021  0.83182  0.08051  Biso   1.000  H
  H369     1.0000 0.19603  0.02581  0.19228  Biso   1.000  H
  H370     1.0000 0.48779  0.13749  0.10349  Biso   1.000  H
  N47      1.0000 0.24348  0.71000  0.92870  Biso   1.000  N
  H371     1.0000 0.30921  0.76402  0.93380  Biso   1.000  H
  C512     1.0000 0.18560  0.74401  0.05962  Biso   1.000  C
  C513     1.0000 0.22449  0.74501  0.93072  Biso   1.000  C
  N48      1.0000 0.20238  0.76008  0.01720  Biso   1.000  N
  H372     1.0000 0.16221  0.70951  0.06171  Biso   1.000  H
  H373     1.0000 0.25231  0.77910  0.93863  Biso   1.000  H
  C514     1.0000 0.18528  0.72748  0.97371  Biso   1.000  C
  C515     1.0000 0.19950  0.74590  0.88031  Biso   1.000  C
  H374     1.0000 0.17799  0.69381  0.98512  Biso   1.000  H
  C516     1.0000 0.13740  0.72292  0.95221  Biso   1.000  C
  H375     1.0000 0.22309  0.75481  0.85113  Biso   1.000  H
  C517     1.0000 0.15586  0.69708  0.87312  Biso   1.000  C
  C518     1.0000 0.18491  0.78411  0.88822  Biso   1.000  C
  H376     1.0000 0.11151  0.71371  0.97900  Biso   1.000  H
  C519     1.0000 0.12091  0.68512  0.91147  Biso   1.000  C
  C520     1.0000 0.15090  0.77152  0.92771  Biso   1.000  C
  C521     1.0000 0.14740  0.66310  0.83461  Biso   1.000  C
  C522     1.0000 0.20080  0.82811  0.86151  Biso   1.000  C
  C523     1.0000 0.07750  0.63919  0.91131  Biso   1.000  C
  C524     1.0000 0.13301  0.80301  0.94061  Biso   1.000  C
  C525     1.0000 0.10401  0.61710  0.83450  Biso   1.000  C
  H377     1.0000 0.17128  0.67120  0.80840  Biso   1.000  H
  C526     1.0000 0.18291  0.85959  0.87441  Biso   1.000  C
  H378     1.0000 0.22389  0.83661  0.83450  Biso   1.000  H
  H379     1.0000 0.05371  0.63110  0.93760  Biso   1.000  H
  C527     1.0000 0.06910  0.60522  0.87293  Biso   1.000  C
  H380     1.0000 0.10991  0.79450  0.96770  Biso   1.000  H
  C528     1.0000 0.14890  0.84701  0.91402  Biso   1.000  C
  H381     1.0000 0.09829  0.59389  0.80821  Biso   1.000  H
  H382     1.0000 0.19370  0.88959  0.85622  Biso   1.000  H
  H383     1.0000 0.03950  0.57380  0.87281  Biso   1.000  H
  H384     1.0000 0.13671  0.86862  0.92280  Biso   1.000  H
  Ne1      1.0000 0.66667  0.33333  0.75018  Biso   1.000  Ne
  He1      1.0000 0.54192  0.44592  0.88608  Biso   1.000  He
  He2      1.0000 0.53132  0.92635  0.93596  Biso   1.000  He
  He3      1.0000 0.07889  0.60903  0.93906  Biso   1.000  He
  He4      1.0000 0.72826  0.11610  0.41933  Biso   1.000  He
  He5      1.0000 0.39218  0.27295  0.42407  Biso   1.000  He
  He6      1.0000 0.77569  0.55950  0.58574  Biso   1.000  He
  Ar1      1.0000 0.66668  0.33333  0.75016  Biso   1.000  Ar
  Ne2      1.0000 0.33334  0.66667  0.24984  Biso   1.000  Ne
  He7      1.0000 0.73472  0.79914  0.42242  Biso   1.000  He
  He8      1.0000 0.23102  0.78348  0.40862  Biso   1.000  He
  He9      1.0000 0.26568  0.37034  0.59822  Biso   1.000  He
  He10     1.0000 0.44621  0.88346  0.12618  Biso   1.000  He
  He11     1.0000 0.44285  0.54613  0.11828  Biso   1.000  He
  He12     1.0000 0.11298  0.56126  0.12406  Biso   1.000  He
  Ar2      1.0000 0.33334  0.66669  0.25861  Biso   1.000  Ar
