data_image0
_cell_length_a       20.417
_cell_length_b       20.417
_cell_length_c       56.059
_cell_angle_alpha    90
_cell_angle_beta     90
_cell_angle_gamma    90

_symmetry_space_group_name_H-M    "P 1"
_symmetry_int_tables_number       1

loop_
  _symmetry_equiv_pos_as_xyz
  'x, y, z'

loop_
  _atom_site_label
  _atom_site_occupancy
  _atom_site_fract_x
  _atom_site_fract_y
  _atom_site_fract_z
  _atom_site_thermal_displace_type
  _atom_site_B_iso_or_equiv
  _atom_site_type_symbol
  C1       1.0000 0.54758  0.49170  0.43834  Biso   1.000  C
  C2       1.0000 0.52461  0.42318  0.43672  Biso   1.000  C
  C3       1.0000 0.61351  0.50649  0.44302  Biso   1.000  C
  C4       1.0000 0.50189  0.54200  0.43627  Biso   1.000  C
  N1       1.0000 0.55655  0.37719  0.44548  Biso   1.000  N
  H1       1.0000 0.48440  0.41412  0.42880  Biso   1.000  H
  H2       1.0000 0.64481  0.47220  0.44419  Biso   1.000  H
  C5       1.0000 0.63300  0.57129  0.44582  Biso   1.000  C
  C6       1.0000 0.52109  0.60709  0.43961  Biso   1.000  C
  H3       1.0000 0.45761  0.53201  0.43260  Biso   1.000  H
  C7       1.0000 0.52922  0.31057  0.44323  Biso   1.000  C
  C8       1.0000 0.58652  0.62139  0.44459  Biso   1.000  C
  C9       1.0000 0.70250  0.58711  0.45053  Biso   1.000  C
  C10      1.0000 0.47299  0.66102  0.43907  Biso   1.000  C
  C11      1.0000 0.57002  0.27262  0.42482  Biso   1.000  C
  H4       1.0000 0.48269  0.31322  0.43781  Biso   1.000  H
  C12      1.0000 0.53230  0.27781  0.46767  Biso   1.000  C
  H5       1.0000 0.59950  0.66552  0.44721  Biso   1.000  H
  N2       1.0000 0.72312  0.64515  0.45012  Biso   1.000  N
  H6       1.0000 0.73218  0.55258  0.45390  Biso   1.000  H
  N3       1.0000 0.41338  0.65186  0.43552  Biso   1.000  N
  H7       1.0000 0.48798  0.70451  0.44150  Biso   1.000  H
  N4       1.0000 0.55855  0.30044  0.40131  Biso   1.000  N
  H8       1.0000 0.61762  0.27541  0.42891  Biso   1.000  H
  C13      1.0000 0.54778  0.20091  0.42470  Biso   1.000  C
  C14      1.0000 0.50982  0.20649  0.46665  Biso   1.000  C
  H9       1.0000 0.50409  0.30220  0.47900  Biso   1.000  H
  H10      1.0000 0.57780  0.27962  0.47370  Biso   1.000  H
  C15      1.0000 0.79179  0.65661  0.45573  Biso   1.000  C
  C16      1.0000 0.36979  0.70872  0.43681  Biso   1.000  C
  C17      1.0000 0.60812  0.32218  0.38998  Biso   1.000  C
  H11      1.0000 0.50189  0.19861  0.41900  Biso   1.000  H
  H12      1.0000 0.57530  0.17598  0.41330  Biso   1.000  H
  C18      1.0000 0.55238  0.16912  0.44912  Biso   1.000  C
  O1       1.0000 0.51452  0.18122  0.49030  Biso   1.000  O
  H13      1.0000 0.46309  0.20478  0.46130  Biso   1.000  H
  C19      1.0000 0.82147  0.69893  0.43592  Biso   1.000  C
  C20      1.0000 0.79497  0.69462  0.47919  Biso   1.000  C
  H14      1.0000 0.81589  0.61410  0.45711  Biso   1.000  H
  C21      1.0000 0.33090  0.71259  0.41333  Biso   1.000  C
  H15      1.0000 0.39599  0.74962  0.43911  Biso   1.000  H
  C22      1.0000 0.32302  0.69888  0.45768  Biso   1.000  C
  C23      1.0000 0.60337  0.34981  0.36574  Biso   1.000  C
  H16      1.0000 0.64990  0.32052  0.39749  Biso   1.000  H
  O2       1.0000 0.53441  0.10251  0.44731  Biso   1.000  O
  H17      1.0000 0.59881  0.17152  0.45470  Biso   1.000  H
  H18      1.0000 0.54161  0.15022  0.49061  Biso   1.000  H
  N5       1.0000 0.82142  0.66366  0.41330  Biso   1.000  N
  C24      1.0000 0.89210  0.71749  0.44195  Biso   1.000  C
  H19      1.0000 0.79488  0.73978  0.43420  Biso   1.000  H
  C25      1.0000 0.86350  0.71857  0.48560  Biso   1.000  C
  H20      1.0000 0.76529  0.73282  0.47810  Biso   1.000  H
  H21      1.0000 0.77881  0.66611  0.49220  Biso   1.000  H
  N6       1.0000 0.37542  0.72768  0.39346  Biso   1.000  N
  C26      1.0000 0.27928  0.76588  0.41480  Biso   1.000  C
  H22      1.0000 0.30911  0.66959  0.41030  Biso   1.000  H
  H23      1.0000 0.30240  0.65519  0.45630  Biso   1.000  H
  H24      1.0000 0.34839  0.69971  0.47270  Biso   1.000  H
  C27      1.0000 0.26948  0.75031  0.45900  Biso   1.000  C
  C28      1.0000 0.54327  0.36421  0.35497  Biso   1.000  C
  C29      1.0000 0.66141  0.36083  0.35304  Biso   1.000  C
  H25      1.0000 0.49351  0.09899  0.44860  Biso   1.000  H
  C30      1.0000 0.79282  0.69173  0.39605  Biso   1.000  C
  H26      1.0000 0.91879  0.67728  0.44391  Biso   1.000  H
  H27      1.0000 0.91110  0.74360  0.42880  Biso   1.000  H
  C31      1.0000 0.89372  0.75716  0.46497  Biso   1.000  C
  O3       1.0000 0.85811  0.75995  0.50620  Biso   1.000  O
  H28      1.0000 0.89200  0.68012  0.48950  Biso   1.000  H
  C32      1.0000 0.37542  0.68752  0.37653  Biso   1.000  C
  C33      1.0000 0.23182  0.75329  0.43534  Biso   1.000  C
  H29      1.0000 0.25469  0.76769  0.39960  Biso   1.000  H
  H30      1.0000 0.30102  0.80879  0.41710  Biso   1.000  H
  O4       1.0000 0.22618  0.73752  0.47848  Biso   1.000  O
  H31      1.0000 0.29069  0.79390  0.46169  Biso   1.000  H
  C34      1.0000 0.54087  0.38928  0.33185  Biso   1.000  C
  H32      1.0000 0.50370  0.35681  0.36349  Biso   1.000  H
  C35      1.0000 0.65960  0.38468  0.32976  Biso   1.000  C
  H33      1.0000 0.70240  0.35201  0.36041  Biso   1.000  H
  C36      1.0000 0.79160  0.66494  0.37150  Biso   1.000  C
  H34      1.0000 0.77102  0.73199  0.39901  Biso   1.000  H
  O5       1.0000 0.96043  0.77372  0.46956  Biso   1.000  O
  H35      1.0000 0.86810  0.79840  0.46260  Biso   1.000  H
  H36      1.0000 0.89572  0.76892  0.51130  Biso   1.000  H
  C37      1.0000 0.41529  0.69281  0.35479  Biso   1.000  C
  H37      1.0000 0.34721  0.65059  0.37791  Biso   1.000  H
  O6       1.0000 0.18494  0.80526  0.43551  Biso   1.000  O
  H38      1.0000 0.20870  0.71068  0.43270  Biso   1.000  H
  H39      1.0000 0.21761  0.69731  0.47891  Biso   1.000  H
  C38      1.0000 0.47588  0.40163  0.32105  Biso   1.000  C
  C39      1.0000 0.59916  0.39908  0.31931  Biso   1.000  C
  C40      1.0000 0.71940  0.39261  0.31522  Biso   1.000  C
  C41      1.0000 0.81829  0.60352  0.36595  Biso   1.000  C
  C42      1.0000 0.76480  0.70334  0.35348  Biso   1.000  C
  H40      1.0000 0.96209  0.80350  0.47991  Biso   1.000  H
  C43      1.0000 0.40608  0.64402  0.33772  Biso   1.000  C
  C44      1.0000 0.46138  0.74198  0.35077  Biso   1.000  C
  H41      1.0000 0.14708  0.78949  0.43681  Biso   1.000  H
  N7       1.0000 0.46804  0.42577  0.30056  Biso   1.000  N
  H42      1.0000 0.43802  0.39080  0.33010  Biso   1.000  H
  H43      1.0000 0.59769  0.41568  0.30350  Biso   1.000  H
  N8       1.0000 0.77533  0.37209  0.32150  Biso   1.000  N
  H44      1.0000 0.71568  0.41441  0.30031  Biso   1.000  H
  C45      1.0000 0.81662  0.58030  0.34289  Biso   1.000  C
  H45      1.0000 0.83759  0.57770  0.37821  Biso   1.000  H
  C46      1.0000 0.76441  0.68022  0.32988  Biso   1.000  C
  H46      1.0000 0.74688  0.74511  0.35711  Biso   1.000  H
  C47      1.0000 0.44252  0.64378  0.31668  Biso   1.000  C
  H47      1.0000 0.37469  0.61062  0.34050  Biso   1.000  H
  C48      1.0000 0.49851  0.74262  0.32990  Biso   1.000  C
  H48      1.0000 0.46760  0.77538  0.36240  Biso   1.000  H
  C49      1.0000 0.40099  0.43092  0.29139  Biso   1.000  C
  C50      1.0000 0.83004  0.38145  0.30459  Biso   1.000  C
  C51      1.0000 0.84469  0.51477  0.33814  Biso   1.000  C
  C52      1.0000 0.78929  0.61914  0.32473  Biso   1.000  C
  C53      1.0000 0.73630  0.72214  0.31089  Biso   1.000  C
  C54      1.0000 0.43429  0.59230  0.29867  Biso   1.000  C
  C55      1.0000 0.48940  0.69271  0.31324  Biso   1.000  C
  C56      1.0000 0.54881  0.79341  0.32562  Biso   1.000  C
  C57      1.0000 0.39051  0.38042  0.27180  Biso   1.000  C
  C58      1.0000 0.38992  0.49968  0.28115  Biso   1.000  C
  H49      1.0000 0.36920  0.42278  0.30461  Biso   1.000  H
  C59      1.0000 0.88152  0.42577  0.31627  Biso   1.000  C
  C60      1.0000 0.85914  0.31439  0.29852  Biso   1.000  C
  H50      1.0000 0.81339  0.40270  0.28969  Biso   1.000  H
  N9       1.0000 0.85424  0.49214  0.31786  Biso   1.000  N
  H51      1.0000 0.85610  0.48832  0.35150  Biso   1.000  H
  H52      1.0000 0.78802  0.60322  0.30880  Biso   1.000  H
  N10      1.0000 0.71989  0.78082  0.31472  Biso   1.000  N
  H53      1.0000 0.73042  0.70432  0.29540  Biso   1.000  H
  N11      1.0000 0.39340  0.54714  0.30050  Biso   1.000  N
  H54      1.0000 0.46148  0.59328  0.28490  Biso   1.000  H
  H55      1.0000 0.51560  0.69202  0.29929  Biso   1.000  H
  N12      1.0000 0.57908  0.79718  0.30596  Biso   1.000  N
  H56      1.0000 0.55851  0.82402  0.33789  Biso   1.000  H
  C61      1.0000 0.32174  0.38561  0.26128  Biso   1.000  C
  H57      1.0000 0.39702  0.33590  0.27840  Biso   1.000  H
  H58      1.0000 0.42332  0.38718  0.25899  Biso   1.000  H
  C62      1.0000 0.32208  0.50458  0.26954  Biso   1.000  C
  H59      1.0000 0.42450  0.50972  0.26900  Biso   1.000  H
  H60      1.0000 0.89122  0.40932  0.33270  Biso   1.000  H
  C63      1.0000 0.94529  0.42822  0.30182  Biso   1.000  C
  H61      1.0000 0.82608  0.28790  0.28991  Biso   1.000  H
  H62      1.0000 0.87050  0.29118  0.31349  Biso   1.000  H
  C64      1.0000 0.92046  0.32130  0.28302  Biso   1.000  C
  C65      1.0000 0.69217  0.81790  0.29485  Biso   1.000  C
  C66      1.0000 0.62801  0.84939  0.30323  Biso   1.000  C
  O7       1.0000 0.31224  0.33732  0.24308  Biso   1.000  O
  C67      1.0000 0.31072  0.45271  0.25068  Biso   1.000  C
  H63      1.0000 0.28888  0.37821  0.27430  Biso   1.000  H
  H64      1.0000 0.28819  0.50032  0.28210  Biso   1.000  H
  H65      1.0000 0.31719  0.54842  0.26221  Biso   1.000  H
  C68      1.0000 0.97154  0.35960  0.29701  Biso   1.000  C
  H66      1.0000 0.93711  0.45070  0.28650  Biso   1.000  H
  H67      1.0000 0.97850  0.45369  0.31071  Biso   1.000  H
  O8       1.0000 0.94167  0.25773  0.27671  Biso   1.000  O
  H68      1.0000 0.90900  0.34608  0.26820  Biso   1.000  H
  C69      1.0000 0.74208  0.87050  0.28755  Biso   1.000  C
  H69      1.0000 0.68350  0.78802  0.28110  Biso   1.000  H
  H70      1.0000 0.63501  0.87192  0.31890  Biso   1.000  H
  C70      1.0000 0.60249  0.89876  0.28470  Biso   1.000  C
  H71      1.0000 0.29921  0.30230  0.24931  Biso   1.000  H
  O9       1.0000 0.24553  0.46114  0.24201  Biso   1.000  O
  H72      1.0000 0.34221  0.45962  0.23730  Biso   1.000  H
  H73      1.0000 0.97899  0.33722  0.31260  Biso   1.000  H
  O10      1.0000 0.03237  0.36186  0.28427  Biso   1.000  O
  H74      1.0000 0.97718  0.26032  0.26920  Biso   1.000  H
  C71      1.0000 0.71431  0.91659  0.26866  Biso   1.000  C
  H75      1.0000 0.75481  0.89621  0.30181  Biso   1.000  H
  H76      1.0000 0.78190  0.84900  0.28120  Biso   1.000  H
  H77      1.0000 0.58961  0.87501  0.27000  Biso   1.000  H
  H78      1.0000 0.56321  0.92100  0.29110  Biso   1.000  H
  C72      1.0000 0.65401  0.94989  0.27846  Biso   1.000  C
  H79      1.0000 0.24191  0.44311  0.22860  Biso   1.000  H
  H80      1.0000 0.06348  0.36421  0.29399  Biso   1.000  H
  O11      1.0000 0.76049  0.96542  0.26197  Biso   1.000  O
  H81      1.0000 0.70192  0.89058  0.25420  Biso   1.000  H
  O12      1.0000 0.62850  0.99603  0.26171  Biso   1.000  O
  H82      1.0000 0.66641  0.97389  0.29330  Biso   1.000  H
  H83      1.0000 0.75721  0.99760  0.27120  Biso   1.000  H
  H84      1.0000 0.62649  0.97860  0.24810  Biso   1.000  H
  C73      1.0000 0.49170  0.54758  0.56166  Biso   1.000  C
  C74      1.0000 0.42318  0.52461  0.56328  Biso   1.000  C
  C75      1.0000 0.50649  0.61351  0.55698  Biso   1.000  C
  C76      1.0000 0.54200  0.50189  0.56373  Biso   1.000  C
  N13      1.0000 0.37719  0.55655  0.55452  Biso   1.000  N
  H85      1.0000 0.41412  0.48440  0.57120  Biso   1.000  H
  H86      1.0000 0.47220  0.64481  0.55581  Biso   1.000  H
  C77      1.0000 0.57129  0.63300  0.55418  Biso   1.000  C
  C78      1.0000 0.60709  0.52109  0.56039  Biso   1.000  C
  H87      1.0000 0.53201  0.45761  0.56740  Biso   1.000  H
  C79      1.0000 0.31057  0.52922  0.55677  Biso   1.000  C
  C80      1.0000 0.58711  0.70250  0.54947  Biso   1.000  C
  C81      1.0000 0.62139  0.58652  0.55541  Biso   1.000  C
  C82      1.0000 0.66102  0.47299  0.56093  Biso   1.000  C
  C83      1.0000 0.27781  0.53230  0.53233  Biso   1.000  C
  C84      1.0000 0.27262  0.57002  0.57518  Biso   1.000  C
  H88      1.0000 0.31322  0.48269  0.56219  Biso   1.000  H
  N14      1.0000 0.64515  0.72312  0.54988  Biso   1.000  N
  H89      1.0000 0.55258  0.73218  0.54610  Biso   1.000  H
  H90      1.0000 0.66552  0.59950  0.55279  Biso   1.000  H
  N15      1.0000 0.65186  0.41338  0.56448  Biso   1.000  N
  H91      1.0000 0.70451  0.48798  0.55850  Biso   1.000  H
  C85      1.0000 0.20649  0.50982  0.53335  Biso   1.000  C
  H92      1.0000 0.30220  0.50409  0.52100  Biso   1.000  H
  H93      1.0000 0.27962  0.57780  0.52630  Biso   1.000  H
  C86      1.0000 0.20091  0.54778  0.57530  Biso   1.000  C
  N16      1.0000 0.30044  0.55855  0.59869  Biso   1.000  N
  H94      1.0000 0.27541  0.61762  0.57109  Biso   1.000  H
  C87      1.0000 0.65661  0.79179  0.54427  Biso   1.000  C
  C88      1.0000 0.70872  0.36979  0.56319  Biso   1.000  C
  O13      1.0000 0.18122  0.51452  0.50970  Biso   1.000  O
  C89      1.0000 0.16912  0.55238  0.55088  Biso   1.000  C
  H95      1.0000 0.20478  0.46309  0.53870  Biso   1.000  H
  H96      1.0000 0.19861  0.50189  0.58100  Biso   1.000  H
  H97      1.0000 0.17598  0.57530  0.58670  Biso   1.000  H
  C90      1.0000 0.32218  0.60812  0.61002  Biso   1.000  C
  C91      1.0000 0.69462  0.79497  0.52081  Biso   1.000  C
  H98      1.0000 0.61410  0.81589  0.54289  Biso   1.000  H
  C92      1.0000 0.69893  0.82147  0.56408  Biso   1.000  C
  H99      1.0000 0.74962  0.39599  0.56089  Biso   1.000  H
  C93      1.0000 0.69888  0.32302  0.54232  Biso   1.000  C
  C94      1.0000 0.71259  0.33090  0.58667  Biso   1.000  C
  H100     1.0000 0.15022  0.54161  0.50939  Biso   1.000  H
  O14      1.0000 0.10251  0.53441  0.55269  Biso   1.000  O
  H101     1.0000 0.17152  0.59881  0.54530  Biso   1.000  H
  H102     1.0000 0.32052  0.64990  0.60251  Biso   1.000  H
  C95      1.0000 0.34981  0.60337  0.63426  Biso   1.000  C
  C96      1.0000 0.71857  0.86350  0.51440  Biso   1.000  C
  H103     1.0000 0.73282  0.76529  0.52190  Biso   1.000  H
  H104     1.0000 0.66611  0.77881  0.50780  Biso   1.000  H
  N17      1.0000 0.66366  0.82142  0.58670  Biso   1.000  N
  C97      1.0000 0.71749  0.89210  0.55805  Biso   1.000  C
  H105     1.0000 0.73978  0.79488  0.56580  Biso   1.000  H
  H106     1.0000 0.65519  0.30240  0.54370  Biso   1.000  H
  H107     1.0000 0.69971  0.34839  0.52730  Biso   1.000  H
  C98      1.0000 0.75031  0.26948  0.54100  Biso   1.000  C
  N18      1.0000 0.72768  0.37542  0.60654  Biso   1.000  N
  C99      1.0000 0.76588  0.27928  0.58520  Biso   1.000  C
  H108     1.0000 0.66959  0.30911  0.58970  Biso   1.000  H
  H109     1.0000 0.09899  0.49351  0.55140  Biso   1.000  H
  C100     1.0000 0.36083  0.66141  0.64696  Biso   1.000  C
  C101     1.0000 0.36421  0.54327  0.64503  Biso   1.000  C
  O15      1.0000 0.75995  0.85811  0.49380  Biso   1.000  O
  H110     1.0000 0.68012  0.89200  0.51050  Biso   1.000  H
  C102     1.0000 0.75716  0.89372  0.53503  Biso   1.000  C
  C103     1.0000 0.69173  0.79282  0.60395  Biso   1.000  C
  H111     1.0000 0.67728  0.91879  0.55609  Biso   1.000  H
  H112     1.0000 0.74360  0.91110  0.57120  Biso   1.000  H
  O16      1.0000 0.73752  0.22618  0.52152  Biso   1.000  O
  H113     1.0000 0.79390  0.29069  0.53831  Biso   1.000  H
  C104     1.0000 0.75329  0.23182  0.56466  Biso   1.000  C
  C105     1.0000 0.68752  0.37542  0.62347  Biso   1.000  C
  H114     1.0000 0.76769  0.25469  0.60040  Biso   1.000  H
  H115     1.0000 0.80879  0.30102  0.58290  Biso   1.000  H
  H116     1.0000 0.35201  0.70240  0.63959  Biso   1.000  H
  C106     1.0000 0.38468  0.65960  0.67024  Biso   1.000  C
  C107     1.0000 0.38928  0.54087  0.66815  Biso   1.000  C
  H117     1.0000 0.35681  0.50370  0.63651  Biso   1.000  H
  H118     1.0000 0.76892  0.89572  0.48870  Biso   1.000  H
  O17      1.0000 0.77372  0.96043  0.53044  Biso   1.000  O
  H119     1.0000 0.79840  0.86810  0.53740  Biso   1.000  H
  C108     1.0000 0.66494  0.79160  0.62850  Biso   1.000  C
  H120     1.0000 0.73199  0.77102  0.60099  Biso   1.000  H
  H121     1.0000 0.69731  0.21761  0.52109  Biso   1.000  H
  O18      1.0000 0.80526  0.18494  0.56449  Biso   1.000  O
  H122     1.0000 0.71068  0.20870  0.56730  Biso   1.000  H
  H123     1.0000 0.65059  0.34721  0.62209  Biso   1.000  H
  C109     1.0000 0.69281  0.41529  0.64521  Biso   1.000  C
  C110     1.0000 0.39261  0.71940  0.68478  Biso   1.000  C
  C111     1.0000 0.39908  0.59916  0.68069  Biso   1.000  C
  C112     1.0000 0.40163  0.47588  0.67895  Biso   1.000  C
  H124     1.0000 0.80350  0.96209  0.52009  Biso   1.000  H
  C113     1.0000 0.70334  0.76480  0.64652  Biso   1.000  C
  C114     1.0000 0.60352  0.81829  0.63405  Biso   1.000  C
  H125     1.0000 0.78949  0.14708  0.56319  Biso   1.000  H
  C115     1.0000 0.64402  0.40608  0.66228  Biso   1.000  C
  C116     1.0000 0.74198  0.46138  0.64923  Biso   1.000  C
  N19      1.0000 0.37209  0.77533  0.67850  Biso   1.000  N
  H126     1.0000 0.41441  0.71568  0.69969  Biso   1.000  H
  H127     1.0000 0.41568  0.59769  0.69650  Biso   1.000  H
  N20      1.0000 0.42577  0.46804  0.69944  Biso   1.000  N
  H128     1.0000 0.39080  0.43802  0.66990  Biso   1.000  H
  H129     1.0000 0.74511  0.74688  0.64289  Biso   1.000  H
  C117     1.0000 0.68022  0.76441  0.67012  Biso   1.000  C
  C118     1.0000 0.58030  0.81662  0.65711  Biso   1.000  C
  H130     1.0000 0.57770  0.83759  0.62179  Biso   1.000  H
  C119     1.0000 0.64378  0.44252  0.68332  Biso   1.000  C
  H131     1.0000 0.61062  0.37469  0.65950  Biso   1.000  H
  C120     1.0000 0.74262  0.49851  0.67010  Biso   1.000  C
  H132     1.0000 0.77538  0.46760  0.63760  Biso   1.000  H
  C121     1.0000 0.38145  0.83004  0.69541  Biso   1.000  C
  C122     1.0000 0.43092  0.40099  0.70861  Biso   1.000  C
  C123     1.0000 0.61914  0.78929  0.67527  Biso   1.000  C
  C124     1.0000 0.72214  0.73630  0.68911  Biso   1.000  C
  C125     1.0000 0.51477  0.84469  0.66186  Biso   1.000  C
  C126     1.0000 0.59230  0.43429  0.70133  Biso   1.000  C
  C127     1.0000 0.69271  0.48940  0.68676  Biso   1.000  C
  C128     1.0000 0.79341  0.54881  0.67438  Biso   1.000  C
  C129     1.0000 0.42577  0.88152  0.68373  Biso   1.000  C
  C130     1.0000 0.31439  0.85914  0.70148  Biso   1.000  C
  H133     1.0000 0.40270  0.81339  0.71031  Biso   1.000  H
  C131     1.0000 0.49968  0.38992  0.71885  Biso   1.000  C
  C132     1.0000 0.38042  0.39051  0.72820  Biso   1.000  C
  H134     1.0000 0.42278  0.36920  0.69539  Biso   1.000  H
  H135     1.0000 0.60322  0.78802  0.69120  Biso   1.000  H
  N21      1.0000 0.78082  0.71989  0.68528  Biso   1.000  N
  H136     1.0000 0.70432  0.73042  0.70460  Biso   1.000  H
  N22      1.0000 0.49214  0.85424  0.68214  Biso   1.000  N
  H137     1.0000 0.48832  0.85610  0.64850  Biso   1.000  H
  N23      1.0000 0.54714  0.39340  0.69950  Biso   1.000  N
  H138     1.0000 0.59328  0.46148  0.71510  Biso   1.000  H
  H139     1.0000 0.69202  0.51560  0.70071  Biso   1.000  H
  N24      1.0000 0.79718  0.57908  0.69404  Biso   1.000  N
  H140     1.0000 0.82402  0.55851  0.66211  Biso   1.000  H
  H141     1.0000 0.40932  0.89122  0.66730  Biso   1.000  H
  C133     1.0000 0.42822  0.94529  0.69818  Biso   1.000  C
  H142     1.0000 0.28790  0.82608  0.71009  Biso   1.000  H
  H143     1.0000 0.29118  0.87050  0.68651  Biso   1.000  H
  C134     1.0000 0.32130  0.92046  0.71698  Biso   1.000  C
  H144     1.0000 0.50972  0.42450  0.73100  Biso   1.000  H
  C135     1.0000 0.50458  0.32208  0.73046  Biso   1.000  C
  C136     1.0000 0.38561  0.32174  0.73872  Biso   1.000  C
  H145     1.0000 0.33590  0.39702  0.72160  Biso   1.000  H
  H146     1.0000 0.38718  0.42332  0.74101  Biso   1.000  H
  C137     1.0000 0.81790  0.69217  0.70515  Biso   1.000  C
  C138     1.0000 0.84939  0.62801  0.69677  Biso   1.000  C
  C139     1.0000 0.35960  0.97154  0.70299  Biso   1.000  C
  H147     1.0000 0.45070  0.93711  0.71350  Biso   1.000  H
  H148     1.0000 0.45369  0.97850  0.68929  Biso   1.000  H
  O19      1.0000 0.25773  0.94167  0.72329  Biso   1.000  O
  H149     1.0000 0.34608  0.90900  0.73180  Biso   1.000  H
  H150     1.0000 0.50032  0.28819  0.71790  Biso   1.000  H
  H151     1.0000 0.54842  0.31719  0.73779  Biso   1.000  H
  C140     1.0000 0.45271  0.31072  0.74932  Biso   1.000  C
  O20      1.0000 0.33732  0.31224  0.75692  Biso   1.000  O
  H152     1.0000 0.37821  0.28888  0.72570  Biso   1.000  H
  C141     1.0000 0.87050  0.74208  0.71245  Biso   1.000  C
  H153     1.0000 0.78802  0.68350  0.71890  Biso   1.000  H
  H154     1.0000 0.87192  0.63501  0.68110  Biso   1.000  H
  C142     1.0000 0.89876  0.60249  0.71530  Biso   1.000  C
  H155     1.0000 0.33722  0.97899  0.68740  Biso   1.000  H
  O21      1.0000 0.36186  0.03237  0.71573  Biso   1.000  O
  H156     1.0000 0.26032  0.97718  0.73080  Biso   1.000  H
  O22      1.0000 0.46114  0.24553  0.75799  Biso   1.000  O
  H157     1.0000 0.45962  0.34221  0.76270  Biso   1.000  H
  H158     1.0000 0.30230  0.29921  0.75069  Biso   1.000  H
  C143     1.0000 0.91659  0.71431  0.73134  Biso   1.000  C
  H159     1.0000 0.89621  0.75481  0.69819  Biso   1.000  H
  H160     1.0000 0.84900  0.78190  0.71880  Biso   1.000  H
  H161     1.0000 0.87501  0.58961  0.73000  Biso   1.000  H
  H162     1.0000 0.92100  0.56321  0.70890  Biso   1.000  H
  C144     1.0000 0.94989  0.65401  0.72154  Biso   1.000  C
  H163     1.0000 0.36421  0.06348  0.70601  Biso   1.000  H
  H164     1.0000 0.44311  0.24191  0.77140  Biso   1.000  H
  O23      1.0000 0.96542  0.76049  0.73803  Biso   1.000  O
  H165     1.0000 0.89058  0.70192  0.74580  Biso   1.000  H
  O24      1.0000 0.99603  0.62850  0.73829  Biso   1.000  O
  H166     1.0000 0.97389  0.66641  0.70670  Biso   1.000  H
  H167     1.0000 0.99760  0.75721  0.72880  Biso   1.000  H
  H168     1.0000 0.97860  0.62649  0.75190  Biso   1.000  H
  O25      1.0000 0.73953  0.46540  0.48802  Biso   1.000  O
  C145     1.0000 0.78572  0.41661  0.48133  Biso   1.000  C
  H169     1.0000 0.74281  0.49758  0.47880  Biso   1.000  H
  C146     1.0000 0.75790  0.37052  0.46244  Biso   1.000  C
  C147     1.0000 0.84601  0.44992  0.47156  Biso   1.000  C
  H170     1.0000 0.79811  0.39061  0.49580  Biso   1.000  H
  C148     1.0000 0.80781  0.31792  0.45515  Biso   1.000  C
  H171     1.0000 0.74521  0.39619  0.44821  Biso   1.000  H
  H172     1.0000 0.71808  0.34902  0.46879  Biso   1.000  H
  C149     1.0000 0.89749  0.39879  0.46530  Biso   1.000  C
  O26      1.0000 0.87148  0.49606  0.48831  Biso   1.000  O
  H173     1.0000 0.83362  0.47392  0.45670  Biso   1.000  H
  N25      1.0000 0.78009  0.28080  0.43527  Biso   1.000  N
  C150     1.0000 0.87202  0.34937  0.44676  Biso   1.000  C
  H174     1.0000 0.81648  0.28800  0.46890  Biso   1.000  H
  H175     1.0000 0.91042  0.37498  0.47999  Biso   1.000  H
  H176     1.0000 0.93682  0.42102  0.45889  Biso   1.000  H
  H177     1.0000 0.87349  0.47862  0.50190  Biso   1.000  H
  C151     1.0000 0.76368  0.22212  0.43913  Biso   1.000  C
  N26      1.0000 0.92090  0.29720  0.44403  Biso   1.000  N
  H178     1.0000 0.86501  0.37190  0.43110  Biso   1.000  H
  C152     1.0000 0.73561  0.18024  0.42013  Biso   1.000  C
  H179     1.0000 0.76960  0.20429  0.45459  Biso   1.000  H
  C153     1.0000 0.95122  0.29338  0.42437  Biso   1.000  C
  C154     1.0000 0.73522  0.20336  0.39651  Biso   1.000  C
  C155     1.0000 0.71068  0.11917  0.42527  Biso   1.000  C
  H180     1.0000 0.94152  0.32399  0.41210  Biso   1.000  H
  C156     1.0000 0.00152  0.24259  0.42009  Biso   1.000  C
  C157     1.0000 0.70838  0.16491  0.37849  Biso   1.000  C
  H181     1.0000 0.75310  0.24509  0.39291  Biso   1.000  H
  C158     1.0000 0.68340  0.08028  0.40712  Biso   1.000  C
  H182     1.0000 0.71200  0.10320  0.44120  Biso   1.000  H
  C159     1.0000 0.01058  0.19268  0.43675  Biso   1.000  C
  C160     1.0000 0.03860  0.24200  0.39922  Biso   1.000  C
  C161     1.0000 0.70716  0.19175  0.35395  Biso   1.000  C
  C162     1.0000 0.68169  0.10354  0.38404  Biso   1.000  C
  C163     1.0000 0.65529  0.01479  0.41185  Biso   1.000  C
  H183     1.0000 0.98438  0.19200  0.45070  Biso   1.000  H
  C164     1.0000 0.05750  0.14380  0.43331  Biso   1.000  C
  C165     1.0000 0.08468  0.19278  0.39523  Biso   1.000  C
  H184     1.0000 0.03242  0.27541  0.38759  Biso   1.000  H
  N27      1.0000 0.67855  0.16369  0.33672  Biso   1.000  N
  H185     1.0000 0.72900  0.23201  0.35101  Biso   1.000  H
  H186     1.0000 0.66239  0.07768  0.37180  Biso   1.000  H
  N28      1.0000 0.64574  0.99211  0.43213  Biso   1.000  N
  H187     1.0000 0.64392  0.98829  0.39851  Biso   1.000  H
  C166     1.0000 0.09389  0.14400  0.41230  Biso   1.000  C
  C167     1.0000 0.06568  0.09228  0.45135  Biso   1.000  C
  C168     1.0000 0.12460  0.18749  0.37346  Biso   1.000  C
  C169     1.0000 0.67855  0.19890  0.31408  Biso   1.000  C
  C170     1.0000 0.61850  0.92575  0.43372  Biso   1.000  C
  H188     1.0000 0.12529  0.11059  0.40950  Biso   1.000  H
  N29      1.0000 0.10658  0.04712  0.44951  Biso   1.000  N
  H189     1.0000 0.03850  0.09330  0.46510  Biso   1.000  H
  N30      1.0000 0.12455  0.22770  0.35654  Biso   1.000  N
  H190     1.0000 0.15281  0.15061  0.37211  Biso   1.000  H
  C171     1.0000 0.60788  0.21747  0.30805  Biso   1.000  C
  C172     1.0000 0.70818  0.15663  0.29426  Biso   1.000  C
  H191     1.0000 0.70510  0.23980  0.31579  Biso   1.000  H
  H192     1.0000 0.60881  0.90929  0.41729  Biso   1.000  H
  C173     1.0000 0.66998  0.88142  0.44541  Biso   1.000  C
  C174     1.0000 0.55473  0.92820  0.44819  Biso   1.000  C
  C175     1.0000 0.11010  0.99971  0.46885  Biso   1.000  C
  C176     1.0000 0.16912  0.21262  0.33666  Biso   1.000  C
  C177     1.0000 0.60626  0.25714  0.28502  Biso   1.000  C
  H193     1.0000 0.58118  0.17730  0.30611  Biso   1.000  H
  H194     1.0000 0.58892  0.24362  0.32120  Biso   1.000  H
  C178     1.0000 0.70500  0.19459  0.27080  Biso   1.000  C
  N31      1.0000 0.77685  0.14512  0.29990  Biso   1.000  N
  H195     1.0000 0.68409  0.11412  0.29291  Biso   1.000  H
  N32      1.0000 0.72464  0.87207  0.42849  Biso   1.000  N
  C179     1.0000 0.64089  0.81442  0.45147  Biso   1.000  C
  H196     1.0000 0.68658  0.90268  0.46030  Biso   1.000  H
  C180     1.0000 0.52843  0.85958  0.45299  Biso   1.000  C
  H197     1.0000 0.56291  0.95068  0.46349  Biso   1.000  H
  H198     1.0000 0.52148  0.95372  0.43931  Biso   1.000  H
  C181     1.0000 0.09899  0.93089  0.45861  Biso   1.000  C
  H199     1.0000 0.07548  0.00970  0.48099  Biso   1.000  H
  C182     1.0000 0.17789  0.00460  0.48046  Biso   1.000  C
  C183     1.0000 0.13019  0.20870  0.31319  Biso   1.000  C
  C184     1.0000 0.22070  0.26591  0.33522  Biso   1.000  C
  H200     1.0000 0.19092  0.16961  0.33970  Biso   1.000  H
  O27      1.0000 0.53955  0.27369  0.28045  Biso   1.000  O
  C185     1.0000 0.63648  0.21854  0.26440  Biso   1.000  C
  H201     1.0000 0.63192  0.29838  0.28739  Biso   1.000  H
  H202     1.0000 0.73468  0.23280  0.27189  Biso   1.000  H
  H203     1.0000 0.72121  0.16609  0.25780  Biso   1.000  H
  C186     1.0000 0.79752  0.08708  0.29949  Biso   1.000  C
  C187     1.0000 0.78058  0.89264  0.43477  Biso   1.000  C
  H204     1.0000 0.67390  0.78792  0.46010  Biso   1.000  H
  H205     1.0000 0.62952  0.79120  0.43650  Biso   1.000  H
  C188     1.0000 0.57957  0.82128  0.46697  Biso   1.000  C
  O28      1.0000 0.46760  0.86188  0.46572  Biso   1.000  O
  H206     1.0000 0.52099  0.83719  0.43740  Biso   1.000  H
  N33      1.0000 0.03198  0.92575  0.44944  Biso   1.000  N
  C189     1.0000 0.10947  0.88039  0.47819  Biso   1.000  C
  H207     1.0000 0.13082  0.92281  0.44541  Biso   1.000  H
  C190     1.0000 0.18930  0.95269  0.49931  Biso   1.000  C
  H208     1.0000 0.21178  0.00029  0.46790  Biso   1.000  H
  H209     1.0000 0.18279  0.04839  0.48781  Biso   1.000  H
  N34      1.0000 0.08659  0.15188  0.31447  Biso   1.000  N
  H210     1.0000 0.10398  0.24960  0.31090  Biso   1.000  H
  C191     1.0000 0.17701  0.19890  0.29233  Biso   1.000  C
  C192     1.0000 0.26821  0.25332  0.31465  Biso   1.000  C
  H211     1.0000 0.24529  0.26772  0.35040  Biso   1.000  H
  H212     1.0000 0.19900  0.30881  0.33290  Biso   1.000  H
  H213     1.0000 0.53789  0.30352  0.27011  Biso   1.000  H
  O29      1.0000 0.64187  0.25993  0.24381  Biso   1.000  O
  H214     1.0000 0.60802  0.18010  0.26049  Biso   1.000  H
  H215     1.0000 0.76779  0.05260  0.29610  Biso   1.000  H
  C193     1.0000 0.86702  0.07131  0.30420  Biso   1.000  C
  H216     1.0000 0.78430  0.91439  0.44970  Biso   1.000  H
  C194     1.0000 0.84043  0.88465  0.42024  Biso   1.000  C
  O30      1.0000 0.55831  0.75775  0.47330  Biso   1.000  O
  H217     1.0000 0.59098  0.84611  0.48180  Biso   1.000  H
  H218     1.0000 0.43650  0.86418  0.45600  Biso   1.000  H
  C195     1.0000 0.02410  0.90165  0.42894  Biso   1.000  C
  C196     1.0000 0.17828  0.88563  0.48872  Biso   1.000  C
  H219     1.0000 0.10300  0.83592  0.47159  Biso   1.000  H
  H220     1.0000 0.07670  0.88720  0.49100  Biso   1.000  H
  O31      1.0000 0.25449  0.96116  0.50798  Biso   1.000  O
  H221     1.0000 0.15781  0.95959  0.51269  Biso   1.000  H
  C197     1.0000 0.02699  0.16099  0.31092  Biso   1.000  C
  H222     1.0000 0.19758  0.15521  0.29371  Biso   1.000  H
  H223     1.0000 0.15159  0.19969  0.27730  Biso   1.000  H
  C198     1.0000 0.23049  0.25028  0.29100  Biso   1.000  C
  O32      1.0000 0.31508  0.30524  0.31449  Biso   1.000  O
  H224     1.0000 0.29128  0.21071  0.31731  Biso   1.000  H
  H225     1.0000 0.60430  0.26889  0.23869  Biso   1.000  H
  C199     1.0000 0.91350  0.12142  0.30541  Biso   1.000  C
  C200     1.0000 0.88652  0.00651  0.30700  Biso   1.000  C
  C201     1.0000 0.83861  0.86085  0.39697  Biso   1.000  C
  C202     1.0000 0.90087  0.89905  0.43069  Biso   1.000  C
  H226     1.0000 0.52280  0.76030  0.48080  Biso   1.000  H
  C203     1.0000 0.95915  0.88931  0.41815  Biso   1.000  C
  H227     1.0000 0.06201  0.89078  0.41990  Biso   1.000  H
  O33      1.0000 0.18774  0.83734  0.50691  Biso   1.000  O
  H228     1.0000 0.21110  0.87819  0.47570  Biso   1.000  H
  H229     1.0000 0.25812  0.94309  0.52140  Biso   1.000  H
  C204     1.0000 0.97889  0.10712  0.31039  Biso   1.000  C
  H230     1.0000 0.01200  0.20449  0.30850  Biso   1.000  H
  O34      1.0000 0.27379  0.23750  0.27154  Biso   1.000  O
  H231     1.0000 0.20929  0.29392  0.28830  Biso   1.000  H
  H232     1.0000 0.35289  0.28951  0.31321  Biso   1.000  H
  H233     1.0000 0.90052  0.16550  0.30281  Biso   1.000  H
  H234     1.0000 0.85522  0.97218  0.30580  Biso   1.000  H
  C205     1.0000 0.95239  0.99172  0.31165  Biso   1.000  C
  C206     1.0000 0.89665  0.84983  0.38426  Biso   1.000  C
  H235     1.0000 0.79762  0.85199  0.38961  Biso   1.000  H
  H236     1.0000 0.90229  0.91571  0.44649  Biso   1.000  H
  C207     1.0000 0.95670  0.86418  0.39503  Biso   1.000  C
  H237     1.0000 0.20081  0.80232  0.50070  Biso   1.000  H
  C208     1.0000 0.99809  0.04202  0.31372  Biso   1.000  C
  H238     1.0000 0.28241  0.19729  0.27111  Biso   1.000  H
  C209     1.0000 0.97541  0.92320  0.31329  Biso   1.000  C
  C210     1.0000 0.89185  0.82221  0.36001  Biso   1.000  C
  H239     1.0000 0.99628  0.85679  0.38650  Biso   1.000  H
  H240     1.0000 0.04242  0.03198  0.31740  Biso   1.000  H
  N35      1.0000 0.94343  0.87721  0.30454  Biso   1.000  N
  H241     1.0000 0.01562  0.91409  0.32120  Biso   1.000  H
  N36      1.0000 0.94142  0.80046  0.34869  Biso   1.000  N
  H242     1.0000 0.85008  0.82049  0.35250  Biso   1.000  H
  C211     1.0000 0.97081  0.81055  0.30677  Biso   1.000  C
  C212     1.0000 0.93001  0.77259  0.32518  Biso   1.000  C
  C213     1.0000 0.96772  0.77778  0.28235  Biso   1.000  C
  H243     1.0000 0.01729  0.81319  0.31221  Biso   1.000  H
  H244     1.0000 0.88240  0.77538  0.32111  Biso   1.000  H
  C214     1.0000 0.95220  0.70089  0.32532  Biso   1.000  C
  C215     1.0000 0.99020  0.70652  0.28334  Biso   1.000  C
  H245     1.0000 0.99589  0.80222  0.27100  Biso   1.000  H
  H246     1.0000 0.92222  0.77960  0.27630  Biso   1.000  H
  H247     1.0000 0.99809  0.69858  0.33101  Biso   1.000  H
  H248     1.0000 0.92472  0.67601  0.33670  Biso   1.000  H
  C216     1.0000 0.94759  0.66910  0.30088  Biso   1.000  C
  O35      1.0000 0.98550  0.68120  0.25969  Biso   1.000  O
  H249     1.0000 0.03688  0.70480  0.28870  Biso   1.000  H
  O36      1.0000 0.96562  0.60249  0.30268  Biso   1.000  O
  H250     1.0000 0.90121  0.67150  0.29530  Biso   1.000  H
  H251     1.0000 0.95842  0.65019  0.25941  Biso   1.000  H
  H252     1.0000 0.00651  0.59901  0.30140  Biso   1.000  H
  O37      1.0000 0.46540  0.73953  0.51198  Biso   1.000  O
  H253     1.0000 0.49758  0.74281  0.52120  Biso   1.000  H
  C217     1.0000 0.41661  0.78572  0.51867  Biso   1.000  C
  C218     1.0000 0.44992  0.84601  0.52844  Biso   1.000  C
  H254     1.0000 0.39061  0.79811  0.50420  Biso   1.000  H
  C219     1.0000 0.37052  0.75790  0.53756  Biso   1.000  C
  O38      1.0000 0.49606  0.87148  0.51169  Biso   1.000  O
  C220     1.0000 0.39879  0.89749  0.53470  Biso   1.000  C
  H255     1.0000 0.47392  0.83362  0.54330  Biso   1.000  H
  H256     1.0000 0.39619  0.74521  0.55179  Biso   1.000  H
  H257     1.0000 0.34902  0.71808  0.53121  Biso   1.000  H
  C221     1.0000 0.31792  0.80781  0.54485  Biso   1.000  C
  H258     1.0000 0.47862  0.87349  0.49810  Biso   1.000  H
  C222     1.0000 0.34937  0.87202  0.55324  Biso   1.000  C
  H259     1.0000 0.37498  0.91042  0.52001  Biso   1.000  H
  H260     1.0000 0.42102  0.93682  0.54111  Biso   1.000  H
  N37      1.0000 0.28080  0.78009  0.56473  Biso   1.000  N
  H261     1.0000 0.28800  0.81648  0.53110  Biso   1.000  H
  N38      1.0000 0.29720  0.92090  0.55597  Biso   1.000  N
  H262     1.0000 0.37190  0.86501  0.56890  Biso   1.000  H
  C223     1.0000 0.22212  0.76368  0.56087  Biso   1.000  C
  C224     1.0000 0.29338  0.95122  0.57563  Biso   1.000  C
  C225     1.0000 0.18024  0.73561  0.57987  Biso   1.000  C
  H263     1.0000 0.20429  0.76960  0.54541  Biso   1.000  H
  H264     1.0000 0.32399  0.94152  0.58790  Biso   1.000  H
  C226     1.0000 0.24259  0.00152  0.57991  Biso   1.000  C
  C227     1.0000 0.20336  0.73522  0.60349  Biso   1.000  C
  C228     1.0000 0.11917  0.71068  0.57473  Biso   1.000  C
  C229     1.0000 0.19268  0.01058  0.56325  Biso   1.000  C
  C230     1.0000 0.24200  0.03860  0.60078  Biso   1.000  C
  H265     1.0000 0.24509  0.75310  0.60709  Biso   1.000  H
  C231     1.0000 0.16491  0.70838  0.62151  Biso   1.000  C
  H266     1.0000 0.10320  0.71200  0.55880  Biso   1.000  H
  C232     1.0000 0.08028  0.68340  0.59288  Biso   1.000  C
  H267     1.0000 0.19200  0.98438  0.54930  Biso   1.000  H
  C233     1.0000 0.14380  0.05750  0.56669  Biso   1.000  C
  H268     1.0000 0.27541  0.03242  0.61241  Biso   1.000  H
  C234     1.0000 0.19278  0.08468  0.60477  Biso   1.000  C
  C235     1.0000 0.10354  0.68169  0.61596  Biso   1.000  C
  C236     1.0000 0.19175  0.70716  0.64605  Biso   1.000  C
  C237     1.0000 0.01479  0.65529  0.58815  Biso   1.000  C
  C238     1.0000 0.14400  0.09389  0.58770  Biso   1.000  C
  C239     1.0000 0.09228  0.06568  0.54865  Biso   1.000  C
  C240     1.0000 0.18749  0.12460  0.62654  Biso   1.000  C
  H269     1.0000 0.07768  0.66239  0.62820  Biso   1.000  H
  N39      1.0000 0.16369  0.67855  0.66328  Biso   1.000  N
  H270     1.0000 0.23201  0.72900  0.64899  Biso   1.000  H
  N40      1.0000 0.99211  0.64574  0.56787  Biso   1.000  N
  H271     1.0000 0.98829  0.64392  0.60149  Biso   1.000  H
  H272     1.0000 0.11059  0.12529  0.59050  Biso   1.000  H
  N41      1.0000 0.04712  0.10658  0.55049  Biso   1.000  N
  H273     1.0000 0.09330  0.03850  0.53490  Biso   1.000  H
  N42      1.0000 0.22770  0.12455  0.64346  Biso   1.000  N
  H274     1.0000 0.15061  0.15281  0.62789  Biso   1.000  H
  C241     1.0000 0.19890  0.67855  0.68592  Biso   1.000  C
  C242     1.0000 0.92575  0.61850  0.56628  Biso   1.000  C
  C243     1.0000 0.99971  0.11010  0.53115  Biso   1.000  C
  C244     1.0000 0.21262  0.16912  0.66334  Biso   1.000  C
  C245     1.0000 0.21747  0.60788  0.69195  Biso   1.000  C
  C246     1.0000 0.15663  0.70818  0.70574  Biso   1.000  C
  H275     1.0000 0.23980  0.70510  0.68421  Biso   1.000  H
  H276     1.0000 0.90929  0.60881  0.58271  Biso   1.000  H
  C247     1.0000 0.88142  0.66998  0.55459  Biso   1.000  C
  C248     1.0000 0.92820  0.55473  0.55181  Biso   1.000  C
  C249     1.0000 0.93089  0.09899  0.54139  Biso   1.000  C
  H277     1.0000 0.00970  0.07548  0.51901  Biso   1.000  H
  C250     1.0000 0.00460  0.17789  0.51954  Biso   1.000  C
  C251     1.0000 0.20870  0.13019  0.68681  Biso   1.000  C
  C252     1.0000 0.26591  0.22070  0.66478  Biso   1.000  C
  H278     1.0000 0.16961  0.19092  0.66030  Biso   1.000  H
  H279     1.0000 0.17730  0.58118  0.69389  Biso   1.000  H
  H280     1.0000 0.24362  0.58892  0.67880  Biso   1.000  H
  C253     1.0000 0.25714  0.60626  0.71498  Biso   1.000  C
  N43      1.0000 0.14512  0.77685  0.70010  Biso   1.000  N
  C254     1.0000 0.19459  0.70500  0.72920  Biso   1.000  C
  H281     1.0000 0.11412  0.68409  0.70709  Biso   1.000  H
  N44      1.0000 0.87207  0.72464  0.57151  Biso   1.000  N
  C255     1.0000 0.81442  0.64089  0.54853  Biso   1.000  C
  H282     1.0000 0.90268  0.68658  0.53970  Biso   1.000  H
  C256     1.0000 0.85958  0.52843  0.54701  Biso   1.000  C
  H283     1.0000 0.95068  0.56291  0.53651  Biso   1.000  H
  H284     1.0000 0.95372  0.52148  0.56069  Biso   1.000  H
  N45      1.0000 0.92575  0.03198  0.55056  Biso   1.000  N
  C257     1.0000 0.88039  0.10947  0.52181  Biso   1.000  C
  H285     1.0000 0.92281  0.13082  0.55459  Biso   1.000  H
  C258     1.0000 0.95269  0.18930  0.50069  Biso   1.000  C
  H286     1.0000 0.00029  0.21178  0.53210  Biso   1.000  H
  H287     1.0000 0.04839  0.18279  0.51219  Biso   1.000  H
  N46      1.0000 0.15188  0.08659  0.68553  Biso   1.000  N
  H288     1.0000 0.24960  0.10398  0.68910  Biso   1.000  H
  C259     1.0000 0.19890  0.17701  0.70767  Biso   1.000  C
  C260     1.0000 0.25332  0.26821  0.68535  Biso   1.000  C
  H289     1.0000 0.26772  0.24529  0.64960  Biso   1.000  H
  H290     1.0000 0.30881  0.19900  0.66710  Biso   1.000  H
  O39      1.0000 0.27369  0.53955  0.71955  Biso   1.000  O
  C261     1.0000 0.21854  0.63648  0.73560  Biso   1.000  C
  H291     1.0000 0.29838  0.63192  0.71261  Biso   1.000  H
  C262     1.0000 0.08708  0.79752  0.70051  Biso   1.000  C
  H292     1.0000 0.23280  0.73468  0.72811  Biso   1.000  H
  H293     1.0000 0.16609  0.72121  0.74220  Biso   1.000  H
  C263     1.0000 0.89264  0.78058  0.56523  Biso   1.000  C
  H294     1.0000 0.78792  0.67390  0.53990  Biso   1.000  H
  H295     1.0000 0.79120  0.62952  0.56350  Biso   1.000  H
  C264     1.0000 0.82128  0.57957  0.53303  Biso   1.000  C
  O40      1.0000 0.86188  0.46760  0.53428  Biso   1.000  O
  H296     1.0000 0.83719  0.52099  0.56260  Biso   1.000  H
  C265     1.0000 0.90165  0.02410  0.57106  Biso   1.000  C
  C266     1.0000 0.88563  0.17828  0.51128  Biso   1.000  C
  H297     1.0000 0.83592  0.10300  0.52841  Biso   1.000  H
  H298     1.0000 0.88720  0.07670  0.50900  Biso   1.000  H
  O41      1.0000 0.96116  0.25449  0.49202  Biso   1.000  O
  H299     1.0000 0.95959  0.15781  0.48731  Biso   1.000  H
  C267     1.0000 0.16099  0.02699  0.68908  Biso   1.000  C
  H300     1.0000 0.15521  0.19758  0.70629  Biso   1.000  H
  H301     1.0000 0.19969  0.15159  0.72270  Biso   1.000  H
  C268     1.0000 0.25028  0.23049  0.70900  Biso   1.000  C
  O42      1.0000 0.30524  0.31508  0.68551  Biso   1.000  O
  H302     1.0000 0.21071  0.29128  0.68269  Biso   1.000  H
  H303     1.0000 0.30352  0.53789  0.72989  Biso   1.000  H
  O43      1.0000 0.25993  0.64187  0.75619  Biso   1.000  O
  H304     1.0000 0.18010  0.60802  0.73951  Biso   1.000  H
  H305     1.0000 0.05260  0.76779  0.70390  Biso   1.000  H
  C269     1.0000 0.07131  0.86702  0.69580  Biso   1.000  C
  H306     1.0000 0.91439  0.78430  0.55030  Biso   1.000  H
  C270     1.0000 0.88465  0.84043  0.57976  Biso   1.000  C
  O44      1.0000 0.75775  0.55831  0.52670  Biso   1.000  O
  H307     1.0000 0.84611  0.59098  0.51820  Biso   1.000  H
  H308     1.0000 0.86418  0.43650  0.54400  Biso   1.000  H
  C271     1.0000 0.88931  0.95915  0.58185  Biso   1.000  C
  H309     1.0000 0.89078  0.06201  0.58010  Biso   1.000  H
  O45      1.0000 0.83734  0.18774  0.49309  Biso   1.000  O
  H310     1.0000 0.87819  0.21110  0.52430  Biso   1.000  H
  H311     1.0000 0.94309  0.25812  0.47860  Biso   1.000  H
  C272     1.0000 0.10712  0.97889  0.68961  Biso   1.000  C
  H312     1.0000 0.20449  0.01200  0.69150  Biso   1.000  H
  O46      1.0000 0.23750  0.27379  0.72846  Biso   1.000  O
  H313     1.0000 0.29392  0.20929  0.71170  Biso   1.000  H
  H314     1.0000 0.28951  0.35289  0.68679  Biso   1.000  H
  H315     1.0000 0.26889  0.60430  0.76131  Biso   1.000  H
  C273     1.0000 0.12142  0.91350  0.69459  Biso   1.000  C
  C274     1.0000 0.00651  0.88652  0.69300  Biso   1.000  C
  C275     1.0000 0.86085  0.83861  0.60303  Biso   1.000  C
  C276     1.0000 0.89905  0.90087  0.56931  Biso   1.000  C
  H316     1.0000 0.76030  0.52280  0.51920  Biso   1.000  H
  C277     1.0000 0.86418  0.95670  0.60497  Biso   1.000  C
  H317     1.0000 0.80232  0.20081  0.49930  Biso   1.000  H
  C278     1.0000 0.04202  0.99809  0.68628  Biso   1.000  C
  H318     1.0000 0.19729  0.28241  0.72889  Biso   1.000  H
  H319     1.0000 0.16550  0.90052  0.69719  Biso   1.000  H
  H320     1.0000 0.97218  0.85522  0.69420  Biso   1.000  H
  C279     1.0000 0.99172  0.95239  0.68835  Biso   1.000  C
  H321     1.0000 0.85199  0.79762  0.61039  Biso   1.000  H
  C280     1.0000 0.84983  0.89665  0.61574  Biso   1.000  C
  H322     1.0000 0.91571  0.90229  0.55351  Biso   1.000  H
  H323     1.0000 0.85679  0.99628  0.61350  Biso   1.000  H
  H324     1.0000 0.03198  0.04242  0.68260  Biso   1.000  H
  C281     1.0000 0.92320  0.97541  0.68671  Biso   1.000  C
  C282     1.0000 0.82221  0.89185  0.63999  Biso   1.000  C
  N47      1.0000 0.87721  0.94343  0.69546  Biso   1.000  N
  H325     1.0000 0.91409  0.01562  0.67880  Biso   1.000  H
  N48      1.0000 0.80046  0.94142  0.65131  Biso   1.000  N
  H326     1.0000 0.82049  0.85008  0.64750  Biso   1.000  H
  C283     1.0000 0.81055  0.97081  0.69323  Biso   1.000  C
  C284     1.0000 0.77259  0.93001  0.67482  Biso   1.000  C
  C285     1.0000 0.77778  0.96772  0.71765  Biso   1.000  C
  H327     1.0000 0.81319  0.01729  0.68779  Biso   1.000  H
  H328     1.0000 0.77538  0.88240  0.67889  Biso   1.000  H
  C286     1.0000 0.70089  0.95220  0.67468  Biso   1.000  C
  C287     1.0000 0.70652  0.99020  0.71666  Biso   1.000  C
  H329     1.0000 0.80222  0.99589  0.72900  Biso   1.000  H
  H330     1.0000 0.77960  0.92222  0.72370  Biso   1.000  H
  H331     1.0000 0.69858  0.99809  0.66899  Biso   1.000  H
  H332     1.0000 0.67601  0.92472  0.66330  Biso   1.000  H
  C288     1.0000 0.66910  0.94759  0.69912  Biso   1.000  C
  O47      1.0000 0.68120  0.98550  0.74031  Biso   1.000  O
  H333     1.0000 0.70480  0.03688  0.71130  Biso   1.000  H
  O48      1.0000 0.60249  0.96562  0.69732  Biso   1.000  O
  H334     1.0000 0.67150  0.90121  0.70470  Biso   1.000  H
  H335     1.0000 0.65019  0.95842  0.74059  Biso   1.000  H
  H336     1.0000 0.59901  0.00651  0.69860  Biso   1.000  H
  O49      1.0000 0.66268  0.68776  0.25693  Biso   1.000  O
  C289     1.0000 0.61439  0.67826  0.23871  Biso   1.000  C
  H337     1.0000 0.69770  0.70079  0.25070  Biso   1.000  H
  C290     1.0000 0.54729  0.68928  0.24933  Biso   1.000  C
  C291     1.0000 0.61958  0.60949  0.22819  Biso   1.000  C
  H338     1.0000 0.62179  0.71112  0.22571  Biso   1.000  H
  C292     1.0000 0.49542  0.67792  0.23045  Biso   1.000  C
  O50      1.0000 0.53886  0.75447  0.25798  Biso   1.000  O
  H339     1.0000 0.54038  0.65779  0.26271  Biso   1.000  H
  C293     1.0000 0.56908  0.59901  0.20860  Biso   1.000  C
  H340     1.0000 0.66410  0.60298  0.22161  Biso   1.000  H
  H341     1.0000 0.61282  0.57668  0.24100  Biso   1.000  H
  C294     1.0000 0.50032  0.61008  0.21886  Biso   1.000  C
  H342     1.0000 0.49968  0.71181  0.21790  Biso   1.000  H
  H343     1.0000 0.45158  0.68281  0.23780  Biso   1.000  H
  H344     1.0000 0.55689  0.75809  0.27139  Biso   1.000  H
  N49      1.0000 0.57423  0.53196  0.19943  Biso   1.000  N
  H345     1.0000 0.57722  0.63080  0.19540  Biso   1.000  H
  N50      1.0000 0.45286  0.60660  0.19950  Biso   1.000  N
  H346     1.0000 0.49028  0.57550  0.23101  Biso   1.000  H
  C295     1.0000 0.59837  0.52412  0.17894  Biso   1.000  C
  C296     1.0000 0.40770  0.56571  0.20134  Biso   1.000  C
  C297     1.0000 0.61072  0.45913  0.16814  Biso   1.000  C
  H347     1.0000 0.60920  0.56198  0.16989  Biso   1.000  H
  C298     1.0000 0.35622  0.55748  0.18332  Biso   1.000  C
  H348     1.0000 0.40672  0.53852  0.21509  Biso   1.000  H
  C299     1.0000 0.60092  0.40084  0.18068  Biso   1.000  C
  C300     1.0000 0.63579  0.45673  0.14503  Biso   1.000  C
  C301     1.0000 0.30729  0.51060  0.18675  Biso   1.000  C
  C302     1.0000 0.35598  0.59392  0.16229  Biso   1.000  C
  C303     1.0000 0.61532  0.34040  0.17023  Biso   1.000  C
  H349     1.0000 0.58432  0.40231  0.19651  Biso   1.000  H
  C304     1.0000 0.65019  0.39663  0.13425  Biso   1.000  C
  H350     1.0000 0.64319  0.49630  0.13650  Biso   1.000  H
  C305     1.0000 0.25738  0.50149  0.17009  Biso   1.000  C
  H351     1.0000 0.30798  0.48440  0.20070  Biso   1.000  H
  C306     1.0000 0.30719  0.58471  0.14522  Biso   1.000  C
  H352     1.0000 0.38938  0.62531  0.15949  Biso   1.000  H
  C307     1.0000 0.60739  0.28060  0.18479  Biso   1.000  C
  C308     1.0000 0.63917  0.33859  0.14697  Biso   1.000  C
  C309     1.0000 0.67782  0.39188  0.11003  Biso   1.000  C
  C310     1.0000 0.20659  0.45119  0.17439  Biso   1.000  C
  C311     1.0000 0.25802  0.53862  0.14922  Biso   1.000  C
  C312     1.0000 0.31248  0.62458  0.12348  Biso   1.000  C
  N51      1.0000 0.62791  0.22467  0.17851  Biso   1.000  N
  H353     1.0000 0.58559  0.28432  0.19970  Biso   1.000  H
  H354     1.0000 0.64799  0.29760  0.13960  Biso   1.000  H
  N52      1.0000 0.69956  0.44145  0.09868  Biso   1.000  N
  H355     1.0000 0.67948  0.35010  0.10250  Biso   1.000  H
  N53      1.0000 0.20282  0.42092  0.19405  Biso   1.000  N
  H356     1.0000 0.17598  0.44149  0.16210  Biso   1.000  H
  H357     1.0000 0.22462  0.53240  0.13761  Biso   1.000  H
  N54      1.0000 0.27232  0.62458  0.10655  Biso   1.000  N
  H358     1.0000 0.34941  0.65279  0.12210  Biso   1.000  H
  C313     1.0000 0.61855  0.16996  0.19540  Biso   1.000  C
  C314     1.0000 0.72738  0.42998  0.07519  Biso   1.000  C
  C315     1.0000 0.15061  0.37199  0.19677  Biso   1.000  C
  C316     1.0000 0.28741  0.66910  0.08666  Biso   1.000  C
  C317     1.0000 0.57423  0.11848  0.18373  Biso   1.000  C
  C318     1.0000 0.68561  0.14086  0.20147  Biso   1.000  C
  H359     1.0000 0.59730  0.18661  0.21030  Biso   1.000  H
  C319     1.0000 0.68943  0.47078  0.05676  Biso   1.000  C
  H360     1.0000 0.72459  0.38238  0.07110  Biso   1.000  H
  C320     1.0000 0.79909  0.45222  0.07531  Biso   1.000  C
  C321     1.0000 0.18210  0.30783  0.20516  Biso   1.000  C
  H361     1.0000 0.12808  0.36499  0.18109  Biso   1.000  H
  C322     1.0000 0.10124  0.39751  0.21531  Biso   1.000  C
  C323     1.0000 0.29128  0.63021  0.06318  Biso   1.000  C
  C324     1.0000 0.23412  0.72072  0.08521  Biso   1.000  C
  H362     1.0000 0.33041  0.69089  0.08969  Biso   1.000  H
  N55      1.0000 0.50786  0.14576  0.18215  Biso   1.000  N
  H363     1.0000 0.59068  0.10878  0.16731  Biso   1.000  H
  C325     1.0000 0.57178  0.05471  0.19818  Biso   1.000  C
  H364     1.0000 0.71210  0.17392  0.21010  Biso   1.000  H
  H365     1.0000 0.70882  0.12950  0.18650  Biso   1.000  H
  C326     1.0000 0.67870  0.07954  0.21699  Biso   1.000  C
  N56      1.0000 0.62281  0.44345  0.05453  Biso   1.000  N
  H366     1.0000 0.68678  0.51731  0.06220  Biso   1.000  H
  C327     1.0000 0.72219  0.46770  0.03234  Biso   1.000  C
  H367     1.0000 0.80139  0.49811  0.08100  Biso   1.000  H
  H368     1.0000 0.82402  0.42470  0.08669  Biso   1.000  H
  C328     1.0000 0.83088  0.44762  0.05087  Biso   1.000  C
  N57      1.0000 0.21918  0.28011  0.18529  Biso   1.000  N
  C329     1.0000 0.12950  0.25792  0.21244  Biso   1.000  C
  H369     1.0000 0.21198  0.31650  0.21889  Biso   1.000  H
  H370     1.0000 0.12499  0.41039  0.23001  Biso   1.000  H
  H371     1.0000 0.07900  0.43679  0.20890  Biso   1.000  H
  C330     1.0000 0.05011  0.34599  0.22155  Biso   1.000  C
  N58      1.0000 0.34814  0.58662  0.06449  Biso   1.000  N
  H372     1.0000 0.25038  0.60401  0.06090  Biso   1.000  H
  C331     1.0000 0.30112  0.67698  0.04233  Biso   1.000  C
  C332     1.0000 0.24671  0.76818  0.06465  Biso   1.000  C
  H373     1.0000 0.23231  0.74531  0.10039  Biso   1.000  H
  H374     1.0000 0.19121  0.69898  0.08289  Biso   1.000  H
  C333     1.0000 0.48523  0.15531  0.16185  Biso   1.000  C
  C334     1.0000 0.64040  0.02846  0.20298  Biso   1.000  C
  H375     1.0000 0.54930  0.06289  0.21351  Biso   1.000  H
  H376     1.0000 0.54631  0.02150  0.18930  Biso   1.000  H
  O51      1.0000 0.74227  0.05833  0.22330  Biso   1.000  O
  H377     1.0000 0.65392  0.09100  0.23179  Biso   1.000  H
  C335     1.0000 0.57682  0.47539  0.06329  Biso   1.000  C
  C336     1.0000 0.79351  0.49018  0.03336  Biso   1.000  C
  H378     1.0000 0.69780  0.49591  0.02100  Biso   1.000  H
  H379     1.0000 0.72038  0.42220  0.02629  Biso   1.000  H
  O52      1.0000 0.89749  0.46559  0.05269  Biso   1.000  O
  H380     1.0000 0.82848  0.40119  0.04529  Biso   1.000  H
  C337     1.0000 0.27786  0.26370  0.18912  Biso   1.000  C
  C338     1.0000 0.08341  0.28569  0.23135  Biso   1.000  C
  H381     1.0000 0.10379  0.24519  0.19820  Biso   1.000  H
  H382     1.0000 0.15100  0.21810  0.21881  Biso   1.000  H
  O53      1.0000 0.00397  0.37150  0.23830  Biso   1.000  O
  H383     1.0000 0.02611  0.33359  0.20669  Biso   1.000  H
  C339     1.0000 0.33898  0.52701  0.06094  Biso   1.000  C
  H384     1.0000 0.34481  0.69760  0.04370  Biso   1.000  H
  H385     1.0000 0.30029  0.65161  0.02729  Biso   1.000  H
  C340     1.0000 0.24969  0.73052  0.04099  Biso   1.000  C
  O54      1.0000 0.19474  0.81506  0.06449  Biso   1.000  O
  H386     1.0000 0.28932  0.79130  0.06730  Biso   1.000  H
  C341     1.0000 0.41970  0.18338  0.15712  Biso   1.000  C
  H387     1.0000 0.51168  0.14390  0.14850  Biso   1.000  H
  H388     1.0000 0.66278  0.02101  0.18739  Biso   1.000  H
  O55      1.0000 0.63814  0.96763  0.21574  Biso   1.000  O
  H389     1.0000 0.73968  0.02282  0.23079  Biso   1.000  H
  C342     1.0000 0.50830  0.45242  0.06167  Biso   1.000  C
  H390     1.0000 0.58588  0.51560  0.07119  Biso   1.000  H
  O56      1.0000 0.81878  0.48548  0.00969  Biso   1.000  O
  H391     1.0000 0.79522  0.53691  0.03869  Biso   1.000  H
  H392     1.0000 0.90101  0.50649  0.05139  Biso   1.000  H
  C343     1.0000 0.31978  0.23559  0.17012  Biso   1.000  C
  H393     1.0000 0.29568  0.26958  0.20461  Biso   1.000  H
  O57      1.0000 0.03458  0.23951  0.23803  Biso   1.000  O
  H394     1.0000 0.10942  0.29808  0.24579  Biso   1.000  H
  H395     1.0000 0.02140  0.37351  0.25190  Biso   1.000  H
  H396     1.0000 0.29549  0.51202  0.05849  Biso   1.000  H
  C344     1.0000 0.39291  0.47891  0.06038  Biso   1.000  C
  O58      1.0000 0.26248  0.77382  0.02153  Biso   1.000  O
  H397     1.0000 0.20610  0.70931  0.03830  Biso   1.000  H
  H398     1.0000 0.21051  0.85292  0.06320  Biso   1.000  H
  C345     1.0000 0.38086  0.21071  0.17526  Biso   1.000  C
  C346     1.0000 0.39648  0.18171  0.13406  Biso   1.000  C
  H399     1.0000 0.63579  0.93652  0.20600  Biso   1.000  H
  C347     1.0000 0.49351  0.38649  0.05699  Biso   1.000  C
  C348     1.0000 0.45800  0.49811  0.06372  Biso   1.000  C
  H400     1.0000 0.84978  0.45839  0.00940  Biso   1.000  H
  C349     1.0000 0.29666  0.23520  0.14651  Biso   1.000  C
  H401     1.0000 0.00240  0.24279  0.22879  Biso   1.000  H
  C350     1.0000 0.37861  0.41348  0.05541  Biso   1.000  C
  H402     1.0000 0.30269  0.78239  0.02110  Biso   1.000  H
  H403     1.0000 0.39678  0.21198  0.19119  Biso   1.000  H
  C351     1.0000 0.33506  0.20840  0.12849  Biso   1.000  C
  H404     1.0000 0.42230  0.16241  0.12180  Biso   1.000  H
  C352     1.0000 0.42871  0.36700  0.05419  Biso   1.000  C
  H405     1.0000 0.52780  0.35519  0.05580  Biso   1.000  H
  H406     1.0000 0.46799  0.54239  0.06739  Biso   1.000  H
  H407     1.0000 0.25489  0.25312  0.14290  Biso   1.000  H
  H408     1.0000 0.33448  0.40050  0.05280  Biso   1.000  H
  C353     1.0000 0.30827  0.20718  0.10394  Biso   1.000  C
  C354     1.0000 0.41289  0.29750  0.04948  Biso   1.000  C
  N59      1.0000 0.33634  0.17858  0.08671  Biso   1.000  N
  H409     1.0000 0.26801  0.22898  0.10100  Biso   1.000  H
  N60      1.0000 0.35485  0.27688  0.04989  Biso   1.000  N
  H410     1.0000 0.44742  0.26782  0.04609  Biso   1.000  H
  C355     1.0000 0.30107  0.17853  0.06408  Biso   1.000  C
  C356     1.0000 0.34339  0.20821  0.04427  Biso   1.000  C
  C357     1.0000 0.28251  0.10790  0.05805  Biso   1.000  C
  H411     1.0000 0.26022  0.20512  0.06581  Biso   1.000  H
  C358     1.0000 0.30538  0.20503  0.02080  Biso   1.000  C
  H412     1.0000 0.38590  0.18411  0.04290  Biso   1.000  H
  H413     1.0000 0.32272  0.08121  0.05610  Biso   1.000  H
  H414     1.0000 0.25640  0.08890  0.07119  Biso   1.000  H
  C359     1.0000 0.24284  0.10628  0.03503  Biso   1.000  C
  C360     1.0000 0.28143  0.13650  0.01440  Biso   1.000  C
  H415     1.0000 0.26718  0.23471  0.02191  Biso   1.000  H
  H416     1.0000 0.33389  0.22119  0.00780  Biso   1.000  H
  O59      1.0000 0.22628  0.03957  0.03045  Biso   1.000  O
  H417     1.0000 0.20160  0.13190  0.03741  Biso   1.000  H
  H418     1.0000 0.31988  0.10800  0.01051  Biso   1.000  H
  O60      1.0000 0.24005  0.14189  0.99381  Biso   1.000  O
  H419     1.0000 0.19650  0.03791  0.02010  Biso   1.000  H
  H420     1.0000 0.23108  0.10428  0.98871  Biso   1.000  H
  O61      1.0000 0.68776  0.66268  0.74307  Biso   1.000  O
  C361     1.0000 0.67826  0.61439  0.76129  Biso   1.000  C
  H421     1.0000 0.70079  0.69770  0.74930  Biso   1.000  H
  C362     1.0000 0.68928  0.54729  0.75067  Biso   1.000  C
  C363     1.0000 0.60949  0.61958  0.77181  Biso   1.000  C
  H422     1.0000 0.71112  0.62179  0.77429  Biso   1.000  H
  C364     1.0000 0.67792  0.49542  0.76955  Biso   1.000  C
  O62      1.0000 0.75447  0.53886  0.74202  Biso   1.000  O
  H423     1.0000 0.65779  0.54038  0.73729  Biso   1.000  H
  C365     1.0000 0.59901  0.56908  0.79140  Biso   1.000  C
  H424     1.0000 0.60298  0.66410  0.77839  Biso   1.000  H
  H425     1.0000 0.57668  0.61282  0.75900  Biso   1.000  H
  C366     1.0000 0.61008  0.50032  0.78114  Biso   1.000  C
  H426     1.0000 0.71181  0.49968  0.78210  Biso   1.000  H
  H427     1.0000 0.68281  0.45158  0.76220  Biso   1.000  H
  H428     1.0000 0.75809  0.55689  0.72861  Biso   1.000  H
  N61      1.0000 0.53196  0.57423  0.80057  Biso   1.000  N
  H429     1.0000 0.63080  0.57722  0.80460  Biso   1.000  H
  N62      1.0000 0.60660  0.45286  0.80050  Biso   1.000  N
  H430     1.0000 0.57550  0.49028  0.76899  Biso   1.000  H
  C367     1.0000 0.52412  0.59837  0.82106  Biso   1.000  C
  C368     1.0000 0.56571  0.40770  0.79866  Biso   1.000  C
  C369     1.0000 0.45913  0.61072  0.83186  Biso   1.000  C
  H431     1.0000 0.56198  0.60920  0.83011  Biso   1.000  H
  C370     1.0000 0.55748  0.35622  0.81668  Biso   1.000  C
  H432     1.0000 0.53852  0.40672  0.78491  Biso   1.000  H
  C371     1.0000 0.40084  0.60092  0.81932  Biso   1.000  C
  C372     1.0000 0.45673  0.63579  0.85497  Biso   1.000  C
  C373     1.0000 0.51060  0.30729  0.81325  Biso   1.000  C
  C374     1.0000 0.59392  0.35598  0.83771  Biso   1.000  C
  C375     1.0000 0.34040  0.61532  0.82977  Biso   1.000  C
  H433     1.0000 0.40231  0.58432  0.80349  Biso   1.000  H
  C376     1.0000 0.39663  0.65019  0.86575  Biso   1.000  C
  H434     1.0000 0.49630  0.64319  0.86350  Biso   1.000  H
  C377     1.0000 0.50149  0.25738  0.82991  Biso   1.000  C
  H435     1.0000 0.48440  0.30798  0.79930  Biso   1.000  H
  C378     1.0000 0.58471  0.30719  0.85478  Biso   1.000  C
  H436     1.0000 0.62531  0.38938  0.84051  Biso   1.000  H
  C379     1.0000 0.28060  0.60739  0.81521  Biso   1.000  C
  C380     1.0000 0.33859  0.63917  0.85303  Biso   1.000  C
  C381     1.0000 0.39188  0.67782  0.88997  Biso   1.000  C
  C382     1.0000 0.45119  0.20659  0.82561  Biso   1.000  C
  C383     1.0000 0.53862  0.25802  0.85078  Biso   1.000  C
  C384     1.0000 0.62458  0.31248  0.87652  Biso   1.000  C
  N63      1.0000 0.22467  0.62791  0.82149  Biso   1.000  N
  H437     1.0000 0.28432  0.58559  0.80030  Biso   1.000  H
  H438     1.0000 0.29760  0.64799  0.86040  Biso   1.000  H
  N64      1.0000 0.44145  0.69956  0.90132  Biso   1.000  N
  H439     1.0000 0.35010  0.67948  0.89750  Biso   1.000  H
  N65      1.0000 0.42092  0.20282  0.80595  Biso   1.000  N
  H440     1.0000 0.44149  0.17598  0.83790  Biso   1.000  H
  H441     1.0000 0.53240  0.22462  0.86239  Biso   1.000  H
  N66      1.0000 0.62458  0.27232  0.89345  Biso   1.000  N
  H442     1.0000 0.65279  0.34941  0.87790  Biso   1.000  H
  C385     1.0000 0.16996  0.61855  0.80460  Biso   1.000  C
  C386     1.0000 0.42998  0.72738  0.92481  Biso   1.000  C
  C387     1.0000 0.37199  0.15061  0.80323  Biso   1.000  C
  C388     1.0000 0.66910  0.28741  0.91334  Biso   1.000  C
  C389     1.0000 0.11848  0.57423  0.81627  Biso   1.000  C
  C390     1.0000 0.14086  0.68561  0.79853  Biso   1.000  C
  H443     1.0000 0.18661  0.59730  0.78970  Biso   1.000  H
  C391     1.0000 0.47078  0.68943  0.94324  Biso   1.000  C
  H444     1.0000 0.38238  0.72459  0.92890  Biso   1.000  H
  C392     1.0000 0.45222  0.79909  0.92469  Biso   1.000  C
  C393     1.0000 0.39751  0.10124  0.78469  Biso   1.000  C
  C394     1.0000 0.30783  0.18210  0.79484  Biso   1.000  C
  H445     1.0000 0.36499  0.12808  0.81891  Biso   1.000  H
  C395     1.0000 0.63021  0.29128  0.93682  Biso   1.000  C
  C396     1.0000 0.72072  0.23412  0.91479  Biso   1.000  C
  H446     1.0000 0.69089  0.33041  0.91031  Biso   1.000  H
  N67      1.0000 0.14576  0.50786  0.81785  Biso   1.000  N
  H447     1.0000 0.10878  0.59068  0.83269  Biso   1.000  H
  C397     1.0000 0.05471  0.57178  0.80182  Biso   1.000  C
  H448     1.0000 0.17392  0.71210  0.78990  Biso   1.000  H
  H449     1.0000 0.12950  0.70882  0.81350  Biso   1.000  H
  C398     1.0000 0.07954  0.67870  0.78301  Biso   1.000  C
  N68      1.0000 0.44345  0.62281  0.94547  Biso   1.000  N
  H450     1.0000 0.51731  0.68678  0.93780  Biso   1.000  H
  C399     1.0000 0.46770  0.72219  0.96766  Biso   1.000  C
  H451     1.0000 0.49811  0.80139  0.91900  Biso   1.000  H
  H452     1.0000 0.42470  0.82402  0.91331  Biso   1.000  H
  C400     1.0000 0.44762  0.83088  0.94913  Biso   1.000  C
  C401     1.0000 0.34599  0.05011  0.77845  Biso   1.000  C
  H453     1.0000 0.41039  0.12499  0.76999  Biso   1.000  H
  H454     1.0000 0.43679  0.07900  0.79110  Biso   1.000  H
  C402     1.0000 0.25792  0.12950  0.78756  Biso   1.000  C
  N69      1.0000 0.28011  0.21918  0.81471  Biso   1.000  N
  H455     1.0000 0.31650  0.21198  0.78111  Biso   1.000  H
  N70      1.0000 0.58662  0.34814  0.93551  Biso   1.000  N
  H456     1.0000 0.60401  0.25038  0.93910  Biso   1.000  H
  C403     1.0000 0.67698  0.30112  0.95767  Biso   1.000  C
  C404     1.0000 0.76818  0.24671  0.93535  Biso   1.000  C
  H457     1.0000 0.74531  0.23231  0.89961  Biso   1.000  H
  H458     1.0000 0.69898  0.19121  0.91711  Biso   1.000  H
  C405     1.0000 0.15531  0.48523  0.83815  Biso   1.000  C
  C406     1.0000 0.02846  0.64040  0.79702  Biso   1.000  C
  H459     1.0000 0.06289  0.54930  0.78649  Biso   1.000  H
  H460     1.0000 0.02150  0.54631  0.81070  Biso   1.000  H
  O63      1.0000 0.05833  0.74227  0.77670  Biso   1.000  O
  H461     1.0000 0.09100  0.65392  0.76821  Biso   1.000  H
  C407     1.0000 0.47539  0.57682  0.93671  Biso   1.000  C
  C408     1.0000 0.49018  0.79351  0.96664  Biso   1.000  C
  H462     1.0000 0.49591  0.69780  0.97900  Biso   1.000  H
  H463     1.0000 0.42220  0.72038  0.97371  Biso   1.000  H
  O64      1.0000 0.46559  0.89749  0.94731  Biso   1.000  O
  H464     1.0000 0.40119  0.82848  0.95471  Biso   1.000  H
  C409     1.0000 0.28569  0.08341  0.76865  Biso   1.000  C
  O65      1.0000 0.37150  0.00397  0.76170  Biso   1.000  O
  H465     1.0000 0.33359  0.02611  0.79331  Biso   1.000  H
  H466     1.0000 0.24519  0.10379  0.80180  Biso   1.000  H
  H467     1.0000 0.21810  0.15100  0.78119  Biso   1.000  H
  C410     1.0000 0.26370  0.27786  0.81088  Biso   1.000  C
  C411     1.0000 0.52701  0.33898  0.93906  Biso   1.000  C
  H468     1.0000 0.69760  0.34481  0.95630  Biso   1.000  H
  H469     1.0000 0.65161  0.30029  0.97271  Biso   1.000  H
  C412     1.0000 0.73052  0.24969  0.95901  Biso   1.000  C
  O66      1.0000 0.81506  0.19474  0.93551  Biso   1.000  O
  H470     1.0000 0.79130  0.28932  0.93270  Biso   1.000  H
  C413     1.0000 0.18338  0.41970  0.84288  Biso   1.000  C
  H471     1.0000 0.14390  0.51168  0.85150  Biso   1.000  H
  H472     1.0000 0.02101  0.66278  0.81261  Biso   1.000  H
  O67      1.0000 0.96763  0.63814  0.78426  Biso   1.000  O
  H473     1.0000 0.02282  0.73968  0.76921  Biso   1.000  H
  C414     1.0000 0.45242  0.50830  0.93833  Biso   1.000  C
  H474     1.0000 0.51560  0.58588  0.92881  Biso   1.000  H
  O68      1.0000 0.48548  0.81878  0.99031  Biso   1.000  O
  H475     1.0000 0.53691  0.79522  0.96131  Biso   1.000  H
  H476     1.0000 0.50649  0.90101  0.94861  Biso   1.000  H
  O69      1.0000 0.23951  0.03458  0.76197  Biso   1.000  O
  H477     1.0000 0.29808  0.10942  0.75421  Biso   1.000  H
  H478     1.0000 0.37351  0.02140  0.74810  Biso   1.000  H
  C415     1.0000 0.23559  0.31978  0.82988  Biso   1.000  C
  H479     1.0000 0.26958  0.29568  0.79539  Biso   1.000  H
  H480     1.0000 0.51202  0.29549  0.94151  Biso   1.000  H
  C416     1.0000 0.47891  0.39291  0.93962  Biso   1.000  C
  O70      1.0000 0.77382  0.26248  0.97847  Biso   1.000  O
  H481     1.0000 0.70931  0.20610  0.96170  Biso   1.000  H
  H482     1.0000 0.85292  0.21051  0.93680  Biso   1.000  H
  C417     1.0000 0.21071  0.38086  0.82474  Biso   1.000  C
  C418     1.0000 0.18171  0.39648  0.86594  Biso   1.000  C
  H483     1.0000 0.93652  0.63579  0.79400  Biso   1.000  H
  C419     1.0000 0.38649  0.49351  0.94301  Biso   1.000  C
  C420     1.0000 0.49811  0.45800  0.93628  Biso   1.000  C
  H484     1.0000 0.45839  0.84978  0.99060  Biso   1.000  H
  H485     1.0000 0.24279  0.00240  0.77121  Biso   1.000  H
  C421     1.0000 0.23520  0.29666  0.85349  Biso   1.000  C
  C422     1.0000 0.41348  0.37861  0.94459  Biso   1.000  C
  H486     1.0000 0.78239  0.30269  0.97890  Biso   1.000  H
  H487     1.0000 0.21198  0.39678  0.80881  Biso   1.000  H
  C423     1.0000 0.20840  0.33506  0.87151  Biso   1.000  C
  H488     1.0000 0.16241  0.42230  0.87820  Biso   1.000  H
  C424     1.0000 0.36700  0.42871  0.94581  Biso   1.000  C
  H489     1.0000 0.35519  0.52780  0.94420  Biso   1.000  H
  H490     1.0000 0.54239  0.46799  0.93261  Biso   1.000  H
  H491     1.0000 0.25312  0.25489  0.85710  Biso   1.000  H
  H492     1.0000 0.40050  0.33448  0.94720  Biso   1.000  H
  C425     1.0000 0.20718  0.30827  0.89606  Biso   1.000  C
  C426     1.0000 0.29750  0.41289  0.95052  Biso   1.000  C
  N71      1.0000 0.17858  0.33634  0.91329  Biso   1.000  N
  H493     1.0000 0.22898  0.26801  0.89900  Biso   1.000  H
  N72      1.0000 0.27688  0.35485  0.95011  Biso   1.000  N
  H494     1.0000 0.26782  0.44742  0.95391  Biso   1.000  H
  C427     1.0000 0.17853  0.30107  0.93592  Biso   1.000  C
  C428     1.0000 0.20821  0.34339  0.95573  Biso   1.000  C
  C429     1.0000 0.10790  0.28251  0.94195  Biso   1.000  C
  H495     1.0000 0.20512  0.26022  0.93419  Biso   1.000  H
  C430     1.0000 0.20503  0.30538  0.97920  Biso   1.000  C
  H496     1.0000 0.18411  0.38590  0.95710  Biso   1.000  H
  H497     1.0000 0.08121  0.32272  0.94390  Biso   1.000  H
  H498     1.0000 0.08890  0.25640  0.92881  Biso   1.000  H
  C431     1.0000 0.10628  0.24284  0.96497  Biso   1.000  C
  C432     1.0000 0.13650  0.28143  0.98560  Biso   1.000  C
  H499     1.0000 0.23471  0.26718  0.97809  Biso   1.000  H
  H500     1.0000 0.22119  0.33389  0.99220  Biso   1.000  H
  O71      1.0000 0.03957  0.22628  0.96955  Biso   1.000  O
  H501     1.0000 0.13190  0.20160  0.96259  Biso   1.000  H
  H502     1.0000 0.10800  0.31988  0.98949  Biso   1.000  H
  O72      1.0000 0.14189  0.24005  0.00619  Biso   1.000  O
  H503     1.0000 0.03791  0.19650  0.97990  Biso   1.000  H
  H504     1.0000 0.10428  0.23108  0.01129  Biso   1.000  H
  O73      1.0000 0.74007  0.35813  0.25619  Biso   1.000  O
  H505     1.0000 0.73111  0.39570  0.26130  Biso   1.000  H
  C433     1.0000 0.78146  0.36352  0.23561  Biso   1.000  C
  H506     1.0000 0.81990  0.39198  0.23950  Biso   1.000  H
  C434     1.0000 0.80541  0.29500  0.22920  Biso   1.000  C
  C435     1.0000 0.74286  0.39374  0.21497  Biso   1.000  C
  H507     1.0000 0.76720  0.26532  0.22810  Biso   1.000  H
  H508     1.0000 0.83391  0.27879  0.24219  Biso   1.000  H
  C436     1.0000 0.84337  0.29182  0.20573  Biso   1.000  C
  O74      1.0000 0.72631  0.46045  0.21955  Biso   1.000  O
  C437     1.0000 0.78253  0.39212  0.19196  Biso   1.000  C
  H509     1.0000 0.70162  0.36808  0.21260  Biso   1.000  H
  N73      1.0000 0.85488  0.22315  0.20011  Biso   1.000  N
  H510     1.0000 0.88588  0.31591  0.20710  Biso   1.000  H
  C438     1.0000 0.80110  0.32145  0.18591  Biso   1.000  C
  H511     1.0000 0.69648  0.46211  0.22990  Biso   1.000  H
  H512     1.0000 0.82270  0.41882  0.19390  Biso   1.000  H
  H513     1.0000 0.75638  0.41108  0.17879  Biso   1.000  H
  C439     1.0000 0.91292  0.20248  0.20052  Biso   1.000  C
  N74      1.0000 0.83631  0.32145  0.16329  Biso   1.000  N
  H514     1.0000 0.76020  0.29490  0.18420  Biso   1.000  H
  H515     1.0000 0.94740  0.23221  0.20389  Biso   1.000  H
  C440     1.0000 0.92869  0.13298  0.19581  Biso   1.000  C
  C441     1.0000 0.80825  0.29284  0.14604  Biso   1.000  C
  C442     1.0000 0.87858  0.08650  0.19460  Biso   1.000  C
  C443     1.0000 0.99349  0.11348  0.19301  Biso   1.000  C
  C444     1.0000 0.83509  0.29162  0.12151  Biso   1.000  C
  H516     1.0000 0.76799  0.27100  0.14900  Biso   1.000  H
  H517     1.0000 0.83450  0.09948  0.19720  Biso   1.000  H
  C445     1.0000 0.89288  0.02111  0.18960  Biso   1.000  C
  H518     1.0000 0.02782  0.14478  0.19421  Biso   1.000  H
  C446     1.0000 0.00828  0.04761  0.18834  Biso   1.000  C
  C447     1.0000 0.79664  0.26478  0.10350  Biso   1.000  C
  C448     1.0000 0.89646  0.31831  0.11595  Biso   1.000  C
  C449     1.0000 0.95798  0.00191  0.18629  Biso   1.000  C
  C450     1.0000 0.83901  0.97301  0.18907  Biso   1.000  C
  C451     1.0000 0.07680  0.02459  0.18671  Biso   1.000  C
  H519     1.0000 0.75491  0.24690  0.10710  Biso   1.000  H
  C452     1.0000 0.81976  0.26439  0.07988  Biso   1.000  C
  H520     1.0000 0.92232  0.33761  0.12820  Biso   1.000  H
  C453     1.0000 0.91972  0.31660  0.09288  Biso   1.000  C
  H521     1.0000 0.96802  0.95758  0.18259  Biso   1.000  H
  N75      1.0000 0.84812  0.91341  0.18552  Biso   1.000  N
  H522     1.0000 0.79551  0.98800  0.19149  Biso   1.000  H
  H523     1.0000 0.08591  0.98438  0.17879  Biso   1.000  H
  N76      1.0000 0.12279  0.05657  0.19547  Biso   1.000  N
  C454     1.0000 0.88083  0.28932  0.07472  Biso   1.000  C
  C455     1.0000 0.77788  0.23632  0.06088  Biso   1.000  C
  C456     1.0000 0.98521  0.34471  0.08816  Biso   1.000  C
  C457     1.0000 0.79130  0.86981  0.18680  Biso   1.000  C
  C458     1.0000 0.18945  0.02919  0.19322  Biso   1.000  C
  H524     1.0000 0.89680  0.28800  0.05880  Biso   1.000  H
  N77      1.0000 0.71920  0.21991  0.06472  Biso   1.000  N
  H525     1.0000 0.79571  0.23040  0.04540  Biso   1.000  H
  N78      1.0000 0.00789  0.35426  0.06786  Biso   1.000  N
  H526     1.0000 0.01171  0.35608  0.10150  Biso   1.000  H
  H527     1.0000 0.75040  0.89602  0.18910  Biso   1.000  H
  C459     1.0000 0.80110  0.82299  0.20767  Biso   1.000  C
  C460     1.0000 0.78738  0.83088  0.16335  Biso   1.000  C
  H528     1.0000 0.18681  0.98271  0.18780  Biso   1.000  H
  C461     1.0000 0.22741  0.06999  0.17482  Biso   1.000  C
  C462     1.0000 0.22222  0.03228  0.21766  Biso   1.000  C
  C463     1.0000 0.68208  0.19219  0.04485  Biso   1.000  C
  C464     1.0000 0.07425  0.38150  0.06627  Biso   1.000  C
  H529     1.0000 0.84479  0.80242  0.20630  Biso   1.000  H
  H530     1.0000 0.80031  0.84841  0.22269  Biso   1.000  H
  C465     1.0000 0.74972  0.76951  0.20899  Biso   1.000  C
  N79      1.0000 0.77230  0.87545  0.14346  Biso   1.000  N
  C466     1.0000 0.73409  0.77930  0.16479  Biso   1.000  C
  H531     1.0000 0.83039  0.80908  0.16030  Biso   1.000  H
  N80      1.0000 0.19954  0.05858  0.15130  Biso   1.000  N
  H532     1.0000 0.22462  0.11760  0.17890  Biso   1.000  H
  C467     1.0000 0.29911  0.04780  0.17469  Biso   1.000  C
  C468     1.0000 0.29348  0.00980  0.21665  Biso   1.000  C
  H533     1.0000 0.19778  0.00411  0.22901  Biso   1.000  H
  H534     1.0000 0.22040  0.07778  0.22369  Biso   1.000  H
  C469     1.0000 0.65063  0.12798  0.05323  Biso   1.000  C
  C470     1.0000 0.62948  0.24210  0.03757  Biso   1.000  C
  H535     1.0000 0.71200  0.18352  0.03109  Biso   1.000  H
  H536     1.0000 0.09071  0.39119  0.08270  Biso   1.000  H
  C471     1.0000 0.11858  0.33002  0.05459  Biso   1.000  C
  C472     1.0000 0.07180  0.44527  0.05182  Biso   1.000  C
  O75      1.0000 0.76250  0.72621  0.22847  Biso   1.000  O
  H537     1.0000 0.70608  0.79071  0.21171  Biso   1.000  H
  C473     1.0000 0.74668  0.73179  0.18536  Biso   1.000  C
  C474     1.0000 0.81251  0.87540  0.12653  Biso   1.000  C
  H538     1.0000 0.73228  0.75471  0.14959  Biso   1.000  H
  H539     1.0000 0.69119  0.80100  0.16709  Biso   1.000  H
  C475     1.0000 0.17779  0.10815  0.13998  Biso   1.000  C
  H540     1.0000 0.30142  0.00191  0.16900  Biso   1.000  H
  H541     1.0000 0.32399  0.07528  0.16329  Biso   1.000  H
  C476     1.0000 0.33090  0.05241  0.19911  Biso   1.000  C
  H542     1.0000 0.29520  0.96312  0.21130  Biso   1.000  H
  O76      1.0000 0.31880  0.01450  0.24032  Biso   1.000  O
  N81      1.0000 0.70280  0.07910  0.05596  Biso   1.000  N
  H543     1.0000 0.62810  0.13499  0.06889  Biso   1.000  H
  C477     1.0000 0.60121  0.10251  0.03470  Biso   1.000  C
  C478     1.0000 0.58339  0.21428  0.01866  Biso   1.000  C
  H544     1.0000 0.60381  0.25479  0.05180  Biso   1.000  H
  H545     1.0000 0.65098  0.28192  0.03120  Biso   1.000  H
  N82      1.0000 0.12793  0.27536  0.07150  Biso   1.000  N
  C479     1.0000 0.18558  0.35911  0.04854  Biso   1.000  C
  H546     1.0000 0.09732  0.31342  0.03971  Biso   1.000  H
  C480     1.0000 0.14042  0.47157  0.04700  Biso   1.000  C
  H547     1.0000 0.04932  0.43709  0.03650  Biso   1.000  H
  H548     1.0000 0.04628  0.47852  0.06070  Biso   1.000  H
  H549     1.0000 0.80271  0.71759  0.22890  Biso   1.000  H
  O77      1.0000 0.69476  0.68492  0.18552  Biso   1.000  O
  H550     1.0000 0.78929  0.70872  0.18270  Biso   1.000  H
  H551     1.0000 0.84939  0.84719  0.12790  Biso   1.000  H
  C481     1.0000 0.80722  0.91532  0.10478  Biso   1.000  C
  H552     1.0000 0.17951  0.14992  0.14751  Biso   1.000  H
  C482     1.0000 0.15017  0.10335  0.11574  Biso   1.000  C
  O78      1.0000 0.39751  0.03438  0.19731  Biso   1.000  O
  H553     1.0000 0.32850  0.09879  0.20470  Biso   1.000  H
  H554     1.0000 0.34981  0.04158  0.24060  Biso   1.000  H
  C483     1.0000 0.70662  0.04878  0.07562  Biso   1.000  C
  H555     1.0000 0.62502  0.08958  0.02000  Biso   1.000  H
  H556     1.0000 0.57898  0.06318  0.04110  Biso   1.000  H
  C484     1.0000 0.55008  0.15399  0.02845  Biso   1.000  C
  O79      1.0000 0.53460  0.26047  0.01197  Biso   1.000  O
  H557     1.0000 0.60939  0.20189  0.00419  Biso   1.000  H
  C485     1.0000 0.10736  0.21942  0.06522  Biso   1.000  C
  H558     1.0000 0.21208  0.32610  0.03990  Biso   1.000  H
  H559     1.0000 0.20880  0.37048  0.06350  Biso   1.000  H
  C486     1.0000 0.17872  0.42043  0.03302  Biso   1.000  C
  O80      1.0000 0.13812  0.53240  0.03427  Biso   1.000  O
  H560     1.0000 0.16281  0.47901  0.06259  Biso   1.000  H
  H561     1.0000 0.71049  0.64711  0.18680  Biso   1.000  H
  C487     1.0000 0.85600  0.90611  0.08771  Biso   1.000  C
  C488     1.0000 0.75800  0.96140  0.10079  Biso   1.000  C
  C489     1.0000 0.13915  0.16139  0.10303  Biso   1.000  C
  C490     1.0000 0.13582  0.04330  0.10498  Biso   1.000  C
  H562     1.0000 0.40099  0.99349  0.19859  Biso   1.000  H
  H563     1.0000 0.67601  0.05848  0.08791  Biso   1.000  H
  C491     1.0000 0.75741  0.99848  0.07992  Biso   1.000  C
  O81      1.0000 0.50394  0.12852  0.01170  Biso   1.000  O
  H564     1.0000 0.52608  0.16638  0.04329  Biso   1.000  H
  H565     1.0000 0.50242  0.25719  0.02119  Biso   1.000  H
  H566     1.0000 0.08561  0.21570  0.05030  Biso   1.000  H
  C492     1.0000 0.11535  0.15957  0.07976  Biso   1.000  C
  O82      1.0000 0.24225  0.44169  0.02670  Biso   1.000  O
  H567     1.0000 0.15389  0.40902  0.01820  Biso   1.000  H
  H568     1.0000 0.13582  0.56350  0.04401  Biso   1.000  H
  C493     1.0000 0.85620  0.94250  0.06668  Biso   1.000  C
  H569     1.0000 0.88941  0.87471  0.09049  Biso   1.000  H
  H570     1.0000 0.72459  0.96758  0.11240  Biso   1.000  H
  H571     1.0000 0.14801  0.20238  0.11040  Biso   1.000  H
  C494     1.0000 0.11069  0.04085  0.08184  Biso   1.000  C
  H572     1.0000 0.14321  0.00372  0.11351  Biso   1.000  H
  C495     1.0000 0.80732  0.98942  0.06325  Biso   1.000  C
  H573     1.0000 0.52138  0.12651  0.99809  Biso   1.000  H
  C496     1.0000 0.10095  0.09913  0.06930  Biso   1.000  C
  H574     1.0000 0.23970  0.47720  0.01919  Biso   1.000  H
  C497     1.0000 0.90772  0.93432  0.04866  Biso   1.000  C
  C498     1.0000 0.09835  0.97590  0.07107  Biso   1.000  C
  H575     1.0000 0.80800  0.01562  0.04931  Biso   1.000  H
  H576     1.0000 0.08429  0.09771  0.05350  Biso   1.000  H
  N83      1.0000 0.95288  0.89342  0.05050  Biso   1.000  N
  H577     1.0000 0.90670  0.96150  0.03489  Biso   1.000  H
  N84      1.0000 0.07425  0.96802  0.05055  Biso   1.000  N
  H578     1.0000 0.10922  0.93799  0.08009  Biso   1.000  H
  C499     1.0000 0.00029  0.88990  0.03115  Biso   1.000  C
  C500     1.0000 0.06911  0.90101  0.04138  Biso   1.000  C
  H579     1.0000 0.99030  0.92452  0.01900  Biso   1.000  H
  C501     1.0000 0.99540  0.82211  0.01953  Biso   1.000  C
  C502     1.0000 0.11961  0.89053  0.02182  Biso   1.000  C
  H580     1.0000 0.07719  0.86918  0.05460  Biso   1.000  H
  H581     1.0000 0.99971  0.78822  0.03209  Biso   1.000  H
  H582     1.0000 0.95161  0.81721  0.01220  Biso   1.000  H
  C503     1.0000 0.04731  0.81070  0.00068  Biso   1.000  C
  C504     1.0000 0.11437  0.82172  0.01127  Biso   1.000  C
  H583     1.0000 0.16408  0.89700  0.02840  Biso   1.000  H
  H584     1.0000 0.11280  0.92330  0.00901  Biso   1.000  H
  O83      1.0000 0.03884  0.74551  0.99203  Biso   1.000  O
  H585     1.0000 0.04041  0.84219  0.98730  Biso   1.000  H
  O84      1.0000 0.16266  0.81226  0.99308  Biso   1.000  O
  H586     1.0000 0.12181  0.78890  0.02430  Biso   1.000  H
  H587     1.0000 0.05691  0.74188  0.97859  Biso   1.000  H
  H588     1.0000 0.19768  0.79919  0.99930  Biso   1.000  H
  O85      1.0000 0.35813  0.74007  0.74381  Biso   1.000  O
  H589     1.0000 0.39570  0.73111  0.73870  Biso   1.000  H
  C505     1.0000 0.36352  0.78146  0.76439  Biso   1.000  C
  H590     1.0000 0.39198  0.81990  0.76050  Biso   1.000  H
  C506     1.0000 0.29500  0.80541  0.77080  Biso   1.000  C
  C507     1.0000 0.39374  0.74286  0.78503  Biso   1.000  C
  H591     1.0000 0.26532  0.76720  0.77190  Biso   1.000  H
  H592     1.0000 0.27879  0.83391  0.75781  Biso   1.000  H
  C508     1.0000 0.29182  0.84337  0.79427  Biso   1.000  C
  O86      1.0000 0.46045  0.72631  0.78045  Biso   1.000  O
  C509     1.0000 0.39212  0.78253  0.80804  Biso   1.000  C
  H593     1.0000 0.36808  0.70162  0.78740  Biso   1.000  H
  N85      1.0000 0.22315  0.85488  0.79989  Biso   1.000  N
  H594     1.0000 0.31591  0.88588  0.79290  Biso   1.000  H
  C510     1.0000 0.32145  0.80110  0.81409  Biso   1.000  C
  H595     1.0000 0.46211  0.69648  0.77010  Biso   1.000  H
  H596     1.0000 0.41882  0.82270  0.80610  Biso   1.000  H
  H597     1.0000 0.41108  0.75638  0.82121  Biso   1.000  H
  C511     1.0000 0.20248  0.91292  0.79948  Biso   1.000  C
  N86      1.0000 0.32145  0.83631  0.83671  Biso   1.000  N
  H598     1.0000 0.29490  0.76020  0.81580  Biso   1.000  H
  H599     1.0000 0.23221  0.94740  0.79611  Biso   1.000  H
  C512     1.0000 0.13298  0.92869  0.80419  Biso   1.000  C
  C513     1.0000 0.29284  0.80825  0.85396  Biso   1.000  C
  C514     1.0000 0.08650  0.87858  0.80540  Biso   1.000  C
  C515     1.0000 0.11348  0.99349  0.80699  Biso   1.000  C
  C516     1.0000 0.29162  0.83509  0.87849  Biso   1.000  C
  H600     1.0000 0.27100  0.76799  0.85100  Biso   1.000  H
  H601     1.0000 0.09948  0.83450  0.80280  Biso   1.000  H
  C517     1.0000 0.02111  0.89288  0.81040  Biso   1.000  C
  H602     1.0000 0.14478  0.02782  0.80579  Biso   1.000  H
  C518     1.0000 0.04761  0.00828  0.81166  Biso   1.000  C
  C519     1.0000 0.26478  0.79664  0.89650  Biso   1.000  C
  C520     1.0000 0.31831  0.89646  0.88405  Biso   1.000  C
  C521     1.0000 0.00191  0.95798  0.81371  Biso   1.000  C
  C522     1.0000 0.97301  0.83901  0.81093  Biso   1.000  C
  C523     1.0000 0.02459  0.07680  0.81329  Biso   1.000  C
  H603     1.0000 0.24690  0.75491  0.89290  Biso   1.000  H
  C524     1.0000 0.26439  0.81976  0.92012  Biso   1.000  C
  H604     1.0000 0.33761  0.92232  0.87180  Biso   1.000  H
  C525     1.0000 0.31660  0.91972  0.90712  Biso   1.000  C
  H605     1.0000 0.95758  0.96802  0.81741  Biso   1.000  H
  N87      1.0000 0.91341  0.84812  0.81448  Biso   1.000  N
  H606     1.0000 0.98800  0.79551  0.80851  Biso   1.000  H
  H607     1.0000 0.98438  0.08591  0.82121  Biso   1.000  H
  N88      1.0000 0.05657  0.12279  0.80453  Biso   1.000  N
  C526     1.0000 0.28932  0.88083  0.92528  Biso   1.000  C
  C527     1.0000 0.23632  0.77788  0.93912  Biso   1.000  C
  C528     1.0000 0.34471  0.98521  0.91184  Biso   1.000  C
  C529     1.0000 0.86981  0.79130  0.81320  Biso   1.000  C
  C530     1.0000 0.02919  0.18945  0.80678  Biso   1.000  C
  H608     1.0000 0.28800  0.89680  0.94120  Biso   1.000  H
  N89      1.0000 0.21991  0.71920  0.93528  Biso   1.000  N
  H609     1.0000 0.23040  0.79571  0.95460  Biso   1.000  H
  N90      1.0000 0.35426  0.00789  0.93214  Biso   1.000  N
  H610     1.0000 0.35608  0.01171  0.89850  Biso   1.000  H
  H611     1.0000 0.89602  0.75040  0.81090  Biso   1.000  H
  C531     1.0000 0.82299  0.80110  0.79233  Biso   1.000  C
  C532     1.0000 0.83088  0.78738  0.83665  Biso   1.000  C
  H612     1.0000 0.98271  0.18681  0.81220  Biso   1.000  H
  C533     1.0000 0.06999  0.22741  0.82518  Biso   1.000  C
  C534     1.0000 0.03228  0.22222  0.78234  Biso   1.000  C
  C535     1.0000 0.19219  0.68208  0.95515  Biso   1.000  C
  C536     1.0000 0.38150  0.07425  0.93373  Biso   1.000  C
  H613     1.0000 0.80242  0.84479  0.79370  Biso   1.000  H
  H614     1.0000 0.84841  0.80031  0.77731  Biso   1.000  H
  C537     1.0000 0.76951  0.74972  0.79101  Biso   1.000  C
  N91      1.0000 0.87545  0.77230  0.85654  Biso   1.000  N
  C538     1.0000 0.77930  0.73409  0.83521  Biso   1.000  C
  H615     1.0000 0.80908  0.83039  0.83970  Biso   1.000  H
  N92      1.0000 0.05858  0.19954  0.84870  Biso   1.000  N
  H616     1.0000 0.11760  0.22462  0.82110  Biso   1.000  H
  C539     1.0000 0.04780  0.29911  0.82531  Biso   1.000  C
  C540     1.0000 0.00980  0.29348  0.78335  Biso   1.000  C
  H617     1.0000 0.00411  0.19778  0.77099  Biso   1.000  H
  H618     1.0000 0.07778  0.22040  0.77631  Biso   1.000  H
  C541     1.0000 0.12798  0.65063  0.94677  Biso   1.000  C
  C542     1.0000 0.24210  0.62948  0.96243  Biso   1.000  C
  H619     1.0000 0.18352  0.71200  0.96891  Biso   1.000  H
  H620     1.0000 0.39119  0.09071  0.91730  Biso   1.000  H
  C543     1.0000 0.33002  0.11858  0.94541  Biso   1.000  C
  C544     1.0000 0.44527  0.07180  0.94818  Biso   1.000  C
  O87      1.0000 0.72621  0.76250  0.77153  Biso   1.000  O
  H621     1.0000 0.79071  0.70608  0.78829  Biso   1.000  H
  C545     1.0000 0.73179  0.74668  0.81464  Biso   1.000  C
  C546     1.0000 0.87540  0.81251  0.87347  Biso   1.000  C
  H622     1.0000 0.75471  0.73228  0.85041  Biso   1.000  H
  H623     1.0000 0.80100  0.69119  0.83291  Biso   1.000  H
  C547     1.0000 0.10815  0.17779  0.86002  Biso   1.000  C
  H624     1.0000 0.00191  0.30142  0.83100  Biso   1.000  H
  H625     1.0000 0.07528  0.32399  0.83671  Biso   1.000  H
  C548     1.0000 0.05241  0.33090  0.80089  Biso   1.000  C
  H626     1.0000 0.96312  0.29520  0.78870  Biso   1.000  H
  O88      1.0000 0.01450  0.31880  0.75968  Biso   1.000  O
  N93      1.0000 0.07910  0.70280  0.94404  Biso   1.000  N
  H627     1.0000 0.13499  0.62810  0.93111  Biso   1.000  H
  C549     1.0000 0.10251  0.60121  0.96530  Biso   1.000  C
  C550     1.0000 0.21428  0.58339  0.98134  Biso   1.000  C
  H628     1.0000 0.25479  0.60381  0.94820  Biso   1.000  H
  H629     1.0000 0.28192  0.65098  0.96880  Biso   1.000  H
  N94      1.0000 0.27536  0.12793  0.92850  Biso   1.000  N
  C551     1.0000 0.35911  0.18558  0.95146  Biso   1.000  C
  H630     1.0000 0.31342  0.09732  0.96029  Biso   1.000  H
  C552     1.0000 0.47157  0.14042  0.95300  Biso   1.000  C
  H631     1.0000 0.43709  0.04932  0.96350  Biso   1.000  H
  H632     1.0000 0.47852  0.04628  0.93930  Biso   1.000  H
  H633     1.0000 0.71759  0.80271  0.77110  Biso   1.000  H
  O89      1.0000 0.68492  0.69476  0.81448  Biso   1.000  O
  H634     1.0000 0.70872  0.78929  0.81730  Biso   1.000  H
  H635     1.0000 0.84719  0.84939  0.87210  Biso   1.000  H
  C553     1.0000 0.91532  0.80722  0.89522  Biso   1.000  C
  H636     1.0000 0.14992  0.17951  0.85249  Biso   1.000  H
  C554     1.0000 0.10335  0.15017  0.88426  Biso   1.000  C
  O90      1.0000 0.03438  0.39751  0.80269  Biso   1.000  O
  H637     1.0000 0.09879  0.32850  0.79530  Biso   1.000  H
  H638     1.0000 0.04158  0.34981  0.75940  Biso   1.000  H
  C555     1.0000 0.04878  0.70662  0.92438  Biso   1.000  C
  H639     1.0000 0.08958  0.62502  0.98000  Biso   1.000  H
  H640     1.0000 0.06318  0.57898  0.95890  Biso   1.000  H
  C556     1.0000 0.15399  0.55008  0.97155  Biso   1.000  C
  O91      1.0000 0.26047  0.53460  0.98803  Biso   1.000  O
  H641     1.0000 0.20189  0.60939  0.99581  Biso   1.000  H
  C557     1.0000 0.21942  0.10736  0.93478  Biso   1.000  C
  H642     1.0000 0.32610  0.21208  0.96010  Biso   1.000  H
  H643     1.0000 0.37048  0.20880  0.93650  Biso   1.000  H
  C558     1.0000 0.42043  0.17872  0.96698  Biso   1.000  C
  O92      1.0000 0.53240  0.13812  0.96573  Biso   1.000  O
  H644     1.0000 0.47901  0.16281  0.93741  Biso   1.000  H
  H645     1.0000 0.64711  0.71049  0.81320  Biso   1.000  H
  C559     1.0000 0.90611  0.85600  0.91229  Biso   1.000  C
  C560     1.0000 0.96140  0.75800  0.89921  Biso   1.000  C
  C561     1.0000 0.16139  0.13915  0.89697  Biso   1.000  C
  C562     1.0000 0.04330  0.13582  0.89502  Biso   1.000  C
  H646     1.0000 0.99349  0.40099  0.80141  Biso   1.000  H
  H647     1.0000 0.05848  0.67601  0.91209  Biso   1.000  H
  C563     1.0000 0.99848  0.75741  0.92008  Biso   1.000  C
  O93      1.0000 0.12852  0.50394  0.98830  Biso   1.000  O
  H648     1.0000 0.16638  0.52608  0.95671  Biso   1.000  H
  H649     1.0000 0.25719  0.50242  0.97881  Biso   1.000  H
  H650     1.0000 0.21570  0.08561  0.94970  Biso   1.000  H
  C564     1.0000 0.15957  0.11535  0.92024  Biso   1.000  C
  O94      1.0000 0.44169  0.24225  0.97330  Biso   1.000  O
  H651     1.0000 0.40902  0.15389  0.98180  Biso   1.000  H
  H652     1.0000 0.56350  0.13582  0.95599  Biso   1.000  H
  C565     1.0000 0.94250  0.85620  0.93332  Biso   1.000  C
  H653     1.0000 0.87471  0.88941  0.90951  Biso   1.000  H
  H654     1.0000 0.96758  0.72459  0.88760  Biso   1.000  H
  H655     1.0000 0.20238  0.14801  0.88960  Biso   1.000  H
  C566     1.0000 0.04085  0.11069  0.91816  Biso   1.000  C
  H656     1.0000 0.00372  0.14321  0.88649  Biso   1.000  H
  C567     1.0000 0.98942  0.80732  0.93675  Biso   1.000  C
  H657     1.0000 0.12651  0.52138  0.00191  Biso   1.000  H
  C568     1.0000 0.09913  0.10095  0.93070  Biso   1.000  C
  H658     1.0000 0.47720  0.23970  0.98081  Biso   1.000  H
  C569     1.0000 0.93432  0.90772  0.95134  Biso   1.000  C
  C570     1.0000 0.97590  0.09835  0.92893  Biso   1.000  C
  H659     1.0000 0.01562  0.80800  0.95069  Biso   1.000  H
  H660     1.0000 0.09771  0.08429  0.94650  Biso   1.000  H
  N95      1.0000 0.89342  0.95288  0.94950  Biso   1.000  N
  H661     1.0000 0.96150  0.90670  0.96511  Biso   1.000  H
  N96      1.0000 0.96802  0.07425  0.94945  Biso   1.000  N
  H662     1.0000 0.93799  0.10922  0.91991  Biso   1.000  H
  C571     1.0000 0.88990  0.00029  0.96885  Biso   1.000  C
  C572     1.0000 0.90101  0.06911  0.95862  Biso   1.000  C
  H663     1.0000 0.92452  0.99030  0.98100  Biso   1.000  H
  C573     1.0000 0.82211  0.99540  0.98047  Biso   1.000  C
  C574     1.0000 0.89053  0.11961  0.97818  Biso   1.000  C
  H664     1.0000 0.86918  0.07719  0.94540  Biso   1.000  H
  H665     1.0000 0.78822  0.99971  0.96791  Biso   1.000  H
  H666     1.0000 0.81721  0.95161  0.98780  Biso   1.000  H
  C575     1.0000 0.81070  0.04731  0.99932  Biso   1.000  C
  C576     1.0000 0.82172  0.11437  0.98873  Biso   1.000  C
  H667     1.0000 0.89700  0.16408  0.97160  Biso   1.000  H
  H668     1.0000 0.92330  0.11280  0.99099  Biso   1.000  H
  O95      1.0000 0.74551  0.03884  0.00797  Biso   1.000  O
  H669     1.0000 0.84219  0.04041  0.01270  Biso   1.000  H
  H670     1.0000 0.78890  0.12181  0.97570  Biso   1.000  H
  O96      1.0000 0.81226  0.16266  0.00692  Biso   1.000  O
  H671     1.0000 0.74188  0.05691  0.02141  Biso   1.000  H
  H672     1.0000 0.79919  0.19768  0.00070  Biso   1.000  H
  Ne1      1.0000 0.60226  0.56404  0.36658  Biso   1.000  Ne
  He1      1.0000 0.70733  0.49067  0.39072  Biso   1.000  He
  He2      1.0000 0.60840  0.70398  0.38654  Biso   1.000  He
  He3      1.0000 0.48278  0.52064  0.37334  Biso   1.000  He
  He4      1.0000 0.62057  0.57414  0.31454  Biso   1.000  He
  Ar1      1.0000 0.60069  0.56911  0.36792  Biso   1.000  Ar
  Ne2      1.0000 0.56404  0.60226  0.63342  Biso   1.000  Ne
  He5      1.0000 0.57416  0.62050  0.68523  Biso   1.000  He
  He6      1.0000 0.51863  0.47842  0.62637  Biso   1.000  He
  He7      1.0000 0.69349  0.60717  0.61503  Biso   1.000  He
  He8      1.0000 0.49603  0.70006  0.61095  Biso   1.000  He
  Ar2      1.0000 0.56911  0.60069  0.63208  Biso   1.000  Ar
  Ne3      1.0000 0.89774  0.06404  0.38342  Biso   1.000  Ne
  He9      1.0000 0.88056  0.07434  0.43126  Biso   1.000  He
  He10     1.0000 0.03000  0.01474  0.37581  Biso   1.000  He
  He11     1.0000 0.89366  0.18652  0.36607  Biso   1.000  He
  He12     1.0000 0.79643  0.99346  0.36015  Biso   1.000  He
  Ar3      1.0000 0.89930  0.06912  0.38208  Biso   1.000  Ar
  Ne4      1.0000 0.06404  0.89774  0.61658  Biso   1.000  Ne
  He13     1.0000 0.99553  0.79923  0.63921  Biso   1.000  He
  He14     1.0000 0.18732  0.89356  0.63405  Biso   1.000  He
  He15     1.0000 0.02059  0.01727  0.62335  Biso   1.000  He
  He16     1.0000 0.07405  0.87907  0.56334  Biso   1.000  He
  Ar4      1.0000 0.06912  0.89930  0.61792  Biso   1.000  Ar
  Ne5      1.0000 0.39774  0.43596  0.86658  Biso   1.000  Ne
  He17     1.0000 0.38913  0.27494  0.88970  Biso   1.000  He
  He18     1.0000 0.29453  0.50796  0.89028  Biso   1.000  He
  He19     1.0000 0.52147  0.48130  0.87363  Biso   1.000  He
  He20     1.0000 0.37962  0.42582  0.81522  Biso   1.000  He
  Ar5      1.0000 0.39932  0.43087  0.86792  Biso   1.000  Ar
  Ne6      1.0000 0.43596  0.39774  0.13342  Biso   1.000  Ne
  He21     1.0000 0.42563  0.38063  0.18109  Biso   1.000  He
  He22     1.0000 0.48331  0.52583  0.12609  Biso   1.000  He
  He23     1.0000 0.31135  0.39340  0.11575  Biso   1.000  He
  He24     1.0000 0.50721  0.29555  0.10995  Biso   1.000  He
  Ar6      1.0000 0.42601  0.40352  0.13323  Biso   1.000  Ar
  Ne7      1.0000 0.93596  0.10226  0.11658  Biso   1.000  Ne
  He25     1.0000 0.00737  0.20472  0.14012  Biso   1.000  He
  He26     1.0000 0.81013  0.10674  0.13444  Biso   1.000  He
  He27     1.0000 0.98223  0.97659  0.12376  Biso   1.000  He
  He28     1.0000 0.92577  0.12000  0.06671  Biso   1.000  He
  Ar7      1.0000 0.93088  0.10069  0.11792  Biso   1.000  Ar
  Ne8      1.0000 0.10226  0.93596  0.88342  Biso   1.000  Ne
  He29     1.0000 0.12017  0.92581  0.93393  Biso   1.000  He
  He30     1.0000 0.98072  0.98033  0.87651  Biso   1.000  He
  He31     1.0000 0.10626  0.81417  0.86616  Biso   1.000  He
  He32     1.0000 0.20502  0.00760  0.85981  Biso   1.000  He
  Ar8      1.0000 0.10069  0.93088  0.88208  Biso   1.000  Ar
