data_image0
_cell_length_a       26.295
_cell_length_b       26.295
_cell_length_c       26.295
_cell_angle_alpha    90
_cell_angle_beta     90
_cell_angle_gamma    90

_symmetry_space_group_name_H-M    "P 1"
_symmetry_int_tables_number       1

loop_
  _symmetry_equiv_pos_as_xyz
  'x, y, z'

loop_
  _atom_site_label
  _atom_site_occupancy
  _atom_site_fract_x
  _atom_site_fract_y
  _atom_site_fract_z
  _atom_site_thermal_displace_type
  _atom_site_B_iso_or_equiv
  _atom_site_type_symbol
  C1       1.0000 0.43792  0.36691  0.42118  Biso   1.000  C
  C2       1.0000 0.45081  0.39620  0.37950  Biso   1.000  C
  C3       1.0000 0.39620  0.37950  0.45081  Biso   1.000  C
  C4       1.0000 0.46811  0.32158  0.43252  Biso   1.000  C
  H1       1.0000 0.47979  0.38772  0.35961  Biso   1.000  H
  C5       1.0000 0.42118  0.43792  0.36691  Biso   1.000  C
  C6       1.0000 0.36691  0.42118  0.43792  Biso   1.000  C
  H2       1.0000 0.38772  0.35961  0.47979  Biso   1.000  H
  H3       1.0000 0.49838  0.31630  0.41350  Biso   1.000  H
  N1       1.0000 0.45628  0.28850  0.46629  Biso   1.000  N
  C7       1.0000 0.37950  0.45081  0.39620  Biso   1.000  C
  C8       1.0000 0.43252  0.46811  0.32158  Biso   1.000  C
  C9       1.0000 0.32158  0.43252  0.46811  Biso   1.000  C
  C10      1.0000 0.48850  0.24499  0.47340  Biso   1.000  C
  H4       1.0000 0.35961  0.47979  0.38772  Biso   1.000  H
  H5       1.0000 0.41350  0.49838  0.31630  Biso   1.000  H
  N2       1.0000 0.46629  0.45628  0.28850  Biso   1.000  N
  H6       1.0000 0.31630  0.41350  0.49838  Biso   1.000  H
  N3       1.0000 0.28850  0.46629  0.45628  Biso   1.000  N
  C11      1.0000 0.51150  0.24499  0.52660  Biso   1.000  C
  H7       1.0000 0.51671  0.24640  0.44792  Biso   1.000  H
  C12      1.0000 0.45731  0.19631  0.46419  Biso   1.000  C
  C13      1.0000 0.47340  0.48850  0.24499  Biso   1.000  C
  C14      1.0000 0.24499  0.47340  0.48850  Biso   1.000  C
  H8       1.0000 0.48329  0.24640  0.55208  Biso   1.000  H
  C15      1.0000 0.54269  0.19631  0.53581  Biso   1.000  C
  N4       1.0000 0.54372  0.28850  0.53371  Biso   1.000  N
  H9       1.0000 0.42829  0.19521  0.48819  Biso   1.000  H
  H10      1.0000 0.44358  0.19639  0.42921  Biso   1.000  H
  C16      1.0000 0.49120  0.14950  0.47210  Biso   1.000  C
  C17      1.0000 0.52660  0.51150  0.24499  Biso   1.000  C
  H11      1.0000 0.44792  0.51671  0.24640  Biso   1.000  H
  C18      1.0000 0.46419  0.45731  0.19631  Biso   1.000  C
  C19      1.0000 0.24499  0.52660  0.51150  Biso   1.000  C
  H12      1.0000 0.24640  0.44792  0.51671  Biso   1.000  H
  C20      1.0000 0.19631  0.46419  0.45731  Biso   1.000  C
  H13      1.0000 0.57171  0.19521  0.51181  Biso   1.000  H
  H14      1.0000 0.55642  0.19639  0.57079  Biso   1.000  H
  C21      1.0000 0.50880  0.14950  0.52790  Biso   1.000  C
  C22      1.0000 0.53189  0.32158  0.56748  Biso   1.000  C
  C23      1.0000 0.52862  0.14151  0.43172  Biso   1.000  C
  H15      1.0000 0.46750  0.11979  0.46940  Biso   1.000  H
  H16      1.0000 0.55208  0.48329  0.24640  Biso   1.000  H
  C24      1.0000 0.53581  0.54269  0.19631  Biso   1.000  C
  N5       1.0000 0.53371  0.54372  0.28850  Biso   1.000  N
  H17      1.0000 0.48819  0.42829  0.19521  Biso   1.000  H
  H18      1.0000 0.42921  0.44358  0.19639  Biso   1.000  H
  C25      1.0000 0.47210  0.49120  0.14950  Biso   1.000  C
  H19      1.0000 0.24640  0.55208  0.48329  Biso   1.000  H
  C26      1.0000 0.19631  0.53581  0.54269  Biso   1.000  C
  N6       1.0000 0.28850  0.53371  0.54372  Biso   1.000  N
  H20      1.0000 0.19521  0.48819  0.42829  Biso   1.000  H
  H21      1.0000 0.19639  0.42921  0.44358  Biso   1.000  H
  C27      1.0000 0.14950  0.47210  0.49120  Biso   1.000  C
  C28      1.0000 0.47138  0.14151  0.56828  Biso   1.000  C
  H22      1.0000 0.53250  0.11979  0.53060  Biso   1.000  H
  C29      1.0000 0.56208  0.36691  0.57882  Biso   1.000  C
  H23      1.0000 0.50162  0.31630  0.58650  Biso   1.000  H
  H24      1.0000 0.55041  0.11249  0.44062  Biso   1.000  H
  H25      1.0000 0.54961  0.17209  0.42799  Biso   1.000  H
  H26      1.0000 0.51109  0.13451  0.39970  Biso   1.000  H
  H27      1.0000 0.51181  0.57171  0.19521  Biso   1.000  H
  H28      1.0000 0.57079  0.55642  0.19639  Biso   1.000  H
  C30      1.0000 0.52790  0.50880  0.14950  Biso   1.000  C
  C31      1.0000 0.56748  0.53189  0.32158  Biso   1.000  C
  C32      1.0000 0.43172  0.52862  0.14151  Biso   1.000  C
  H29      1.0000 0.46940  0.46750  0.11979  Biso   1.000  H
  H30      1.0000 0.19521  0.51181  0.57171  Biso   1.000  H
  H31      1.0000 0.19639  0.57079  0.55642  Biso   1.000  H
  C33      1.0000 0.14950  0.52790  0.50880  Biso   1.000  C
  C34      1.0000 0.32158  0.56748  0.53189  Biso   1.000  C
  C35      1.0000 0.14151  0.43172  0.52862  Biso   1.000  C
  H32      1.0000 0.11979  0.46940  0.46750  Biso   1.000  H
  H33      1.0000 0.44959  0.11249  0.55938  Biso   1.000  H
  H34      1.0000 0.45039  0.17209  0.57201  Biso   1.000  H
  H35      1.0000 0.48891  0.13451  0.60030  Biso   1.000  H
  C36      1.0000 0.54919  0.39620  0.62050  Biso   1.000  C
  C37      1.0000 0.60380  0.37950  0.54919  Biso   1.000  C
  C38      1.0000 0.56828  0.47138  0.14151  Biso   1.000  C
  H36      1.0000 0.53060  0.53250  0.11979  Biso   1.000  H
  C39      1.0000 0.57882  0.56208  0.36691  Biso   1.000  C
  H37      1.0000 0.58650  0.50162  0.31630  Biso   1.000  H
  H38      1.0000 0.44062  0.55041  0.11249  Biso   1.000  H
  H39      1.0000 0.42799  0.54961  0.17209  Biso   1.000  H
  H40      1.0000 0.39970  0.51109  0.13451  Biso   1.000  H
  C40      1.0000 0.14151  0.56828  0.47138  Biso   1.000  C
  H41      1.0000 0.11979  0.53060  0.53250  Biso   1.000  H
  C41      1.0000 0.36691  0.57882  0.56208  Biso   1.000  C
  H42      1.0000 0.31630  0.58650  0.50162  Biso   1.000  H
  H43      1.0000 0.11249  0.44062  0.55041  Biso   1.000  H
  H44      1.0000 0.17209  0.42799  0.54961  Biso   1.000  H
  H45      1.0000 0.13451  0.39970  0.51109  Biso   1.000  H
  H46      1.0000 0.52021  0.38772  0.64039  Biso   1.000  H
  C42      1.0000 0.57882  0.43792  0.63309  Biso   1.000  C
  H47      1.0000 0.61228  0.35961  0.52021  Biso   1.000  H
  C43      1.0000 0.63309  0.42118  0.56208  Biso   1.000  C
  H48      1.0000 0.55938  0.44959  0.11249  Biso   1.000  H
  H49      1.0000 0.57201  0.45039  0.17209  Biso   1.000  H
  H50      1.0000 0.60030  0.48891  0.13451  Biso   1.000  H
  C44      1.0000 0.54919  0.60380  0.37950  Biso   1.000  C
  C45      1.0000 0.62050  0.54919  0.39620  Biso   1.000  C
  H51      1.0000 0.11249  0.55938  0.44959  Biso   1.000  H
  H52      1.0000 0.17209  0.57201  0.45039  Biso   1.000  H
  H53      1.0000 0.13451  0.60030  0.48891  Biso   1.000  H
  C46      1.0000 0.39620  0.62050  0.54919  Biso   1.000  C
  C47      1.0000 0.37950  0.54919  0.60380  Biso   1.000  C
  C48      1.0000 0.62050  0.45081  0.60380  Biso   1.000  C
  C49      1.0000 0.56748  0.46811  0.67842  Biso   1.000  C
  C50      1.0000 0.67842  0.43252  0.53189  Biso   1.000  C
  H54      1.0000 0.52021  0.61228  0.35961  Biso   1.000  H
  C51      1.0000 0.56208  0.63309  0.42118  Biso   1.000  C
  H55      1.0000 0.64039  0.52021  0.38772  Biso   1.000  H
  C52      1.0000 0.63309  0.57882  0.43792  Biso   1.000  C
  H56      1.0000 0.38772  0.64039  0.52021  Biso   1.000  H
  C53      1.0000 0.43792  0.63309  0.57882  Biso   1.000  C
  H57      1.0000 0.35961  0.52021  0.61228  Biso   1.000  H
  C54      1.0000 0.42118  0.56208  0.63309  Biso   1.000  C
  H58      1.0000 0.64039  0.47979  0.61228  Biso   1.000  H
  H59      1.0000 0.58650  0.49838  0.68370  Biso   1.000  H
  N7       1.0000 0.53371  0.45628  0.71150  Biso   1.000  N
  H60      1.0000 0.68370  0.41350  0.50162  Biso   1.000  H
  N8       1.0000 0.71150  0.46629  0.54372  Biso   1.000  N
  C55      1.0000 0.60380  0.62050  0.45081  Biso   1.000  C
  C56      1.0000 0.53189  0.67842  0.43252  Biso   1.000  C
  C57      1.0000 0.67842  0.56748  0.46811  Biso   1.000  C
  C58      1.0000 0.45081  0.60380  0.62050  Biso   1.000  C
  C59      1.0000 0.46811  0.67842  0.56748  Biso   1.000  C
  C60      1.0000 0.43252  0.53189  0.67842  Biso   1.000  C
  C61      1.0000 0.52660  0.48850  0.75501  Biso   1.000  C
  C62      1.0000 0.75501  0.47340  0.51150  Biso   1.000  C
  H61      1.0000 0.61228  0.64039  0.47979  Biso   1.000  H
  H62      1.0000 0.50162  0.68370  0.41350  Biso   1.000  H
  N9       1.0000 0.54372  0.71150  0.46629  Biso   1.000  N
  H63      1.0000 0.68370  0.58650  0.49838  Biso   1.000  H
  N10      1.0000 0.71150  0.53371  0.45628  Biso   1.000  N
  H64      1.0000 0.47979  0.61228  0.64039  Biso   1.000  H
  H65      1.0000 0.49838  0.68370  0.58650  Biso   1.000  H
  N11      1.0000 0.45628  0.71150  0.53371  Biso   1.000  N
  H66      1.0000 0.41350  0.50162  0.68370  Biso   1.000  H
  N12      1.0000 0.46629  0.54372  0.71150  Biso   1.000  N
  C63      1.0000 0.47340  0.51150  0.75501  Biso   1.000  C
  H67      1.0000 0.55208  0.51671  0.75360  Biso   1.000  H
  C64      1.0000 0.53581  0.45731  0.80369  Biso   1.000  C
  C65      1.0000 0.75501  0.52660  0.48850  Biso   1.000  C
  H68      1.0000 0.75360  0.44792  0.48329  Biso   1.000  H
  C66      1.0000 0.80369  0.46419  0.54269  Biso   1.000  C
  C67      1.0000 0.51150  0.75501  0.47340  Biso   1.000  C
  C68      1.0000 0.48850  0.75501  0.52660  Biso   1.000  C
  H69      1.0000 0.44792  0.48329  0.75360  Biso   1.000  H
  C69      1.0000 0.46419  0.54269  0.80369  Biso   1.000  C
  H70      1.0000 0.51181  0.42829  0.80479  Biso   1.000  H
  H71      1.0000 0.57079  0.44358  0.80361  Biso   1.000  H
  C70      1.0000 0.52790  0.49120  0.85050  Biso   1.000  C
  H72      1.0000 0.75360  0.55208  0.51671  Biso   1.000  H
  C71      1.0000 0.80369  0.53581  0.45731  Biso   1.000  C
  H73      1.0000 0.80479  0.48819  0.57171  Biso   1.000  H
  H74      1.0000 0.80361  0.42921  0.55642  Biso   1.000  H
  C72      1.0000 0.85050  0.47210  0.50880  Biso   1.000  C
  H75      1.0000 0.48329  0.75360  0.44792  Biso   1.000  H
  C73      1.0000 0.54269  0.80369  0.46419  Biso   1.000  C
  H76      1.0000 0.51671  0.75360  0.55208  Biso   1.000  H
  C74      1.0000 0.45731  0.80369  0.53581  Biso   1.000  C
  H77      1.0000 0.48819  0.57171  0.80479  Biso   1.000  H
  H78      1.0000 0.42921  0.55642  0.80361  Biso   1.000  H
  C75      1.0000 0.47210  0.50880  0.85050  Biso   1.000  C
  C76      1.0000 0.56828  0.52862  0.85849  Biso   1.000  C
  H79      1.0000 0.53060  0.46750  0.88021  Biso   1.000  H
  H80      1.0000 0.80479  0.51181  0.42829  Biso   1.000  H
  H81      1.0000 0.80361  0.57079  0.44358  Biso   1.000  H
  C77      1.0000 0.85050  0.52790  0.49120  Biso   1.000  C
  C78      1.0000 0.85849  0.43172  0.47138  Biso   1.000  C
  H82      1.0000 0.88021  0.46940  0.53250  Biso   1.000  H
  H83      1.0000 0.57171  0.80479  0.48819  Biso   1.000  H
  H84      1.0000 0.55642  0.80361  0.42921  Biso   1.000  H
  C79      1.0000 0.50880  0.85050  0.47210  Biso   1.000  C
  H85      1.0000 0.42829  0.80479  0.51181  Biso   1.000  H
  H86      1.0000 0.44358  0.80361  0.57079  Biso   1.000  H
  C80      1.0000 0.49120  0.85050  0.52790  Biso   1.000  C
  C81      1.0000 0.43172  0.47138  0.85849  Biso   1.000  C
  H87      1.0000 0.46940  0.53250  0.88021  Biso   1.000  H
  H88      1.0000 0.55938  0.55041  0.88751  Biso   1.000  H
  H89      1.0000 0.57201  0.54961  0.82791  Biso   1.000  H
  H90      1.0000 0.60030  0.51109  0.86549  Biso   1.000  H
  C82      1.0000 0.85849  0.56828  0.52862  Biso   1.000  C
  H91      1.0000 0.88021  0.53060  0.46750  Biso   1.000  H
  H92      1.0000 0.88751  0.44062  0.44959  Biso   1.000  H
  H93      1.0000 0.82791  0.42799  0.45039  Biso   1.000  H
  H94      1.0000 0.86549  0.39970  0.48891  Biso   1.000  H
  C83      1.0000 0.47138  0.85849  0.43172  Biso   1.000  C
  H95      1.0000 0.53250  0.88021  0.46940  Biso   1.000  H
  C84      1.0000 0.52862  0.85849  0.56828  Biso   1.000  C
  H96      1.0000 0.46750  0.88021  0.53060  Biso   1.000  H
  H97      1.0000 0.44062  0.44959  0.88751  Biso   1.000  H
  H98      1.0000 0.42799  0.45039  0.82791  Biso   1.000  H
  H99      1.0000 0.39970  0.48891  0.86549  Biso   1.000  H
  H100     1.0000 0.88751  0.55938  0.55041  Biso   1.000  H
  H101     1.0000 0.82791  0.57201  0.54961  Biso   1.000  H
  H102     1.0000 0.86549  0.60030  0.51109  Biso   1.000  H
  H103     1.0000 0.44959  0.88751  0.44062  Biso   1.000  H
  H104     1.0000 0.45039  0.82791  0.42799  Biso   1.000  H
  H105     1.0000 0.48891  0.86549  0.39970  Biso   1.000  H
  H106     1.0000 0.55041  0.88751  0.55938  Biso   1.000  H
  H107     1.0000 0.54961  0.82791  0.57201  Biso   1.000  H
  H108     1.0000 0.51109  0.86549  0.60030  Biso   1.000  H
  C85      1.0000 0.39148  0.27861  0.31831  Biso   1.000  C
  C86      1.0000 0.39951  0.24119  0.27789  Biso   1.000  C
  H109     1.0000 0.36250  0.30040  0.30941  Biso   1.000  H
  H110     1.0000 0.42210  0.29960  0.32200  Biso   1.000  H
  H111     1.0000 0.38448  0.26111  0.35029  Biso   1.000  H
  C87      1.0000 0.44628  0.20730  0.28580  Biso   1.000  C
  C88      1.0000 0.39951  0.25879  0.22210  Biso   1.000  C
  H112     1.0000 0.36980  0.21749  0.28059  Biso   1.000  H
  C89      1.0000 0.49500  0.23849  0.27659  Biso   1.000  C
  H113     1.0000 0.44522  0.17828  0.26180  Biso   1.000  H
  H114     1.0000 0.44640  0.19361  0.32078  Biso   1.000  H
  C90      1.0000 0.44628  0.29272  0.21419  Biso   1.000  C
  C91      1.0000 0.39148  0.22141  0.18171  Biso   1.000  C
  H115     1.0000 0.36980  0.28249  0.21940  Biso   1.000  H
  C92      1.0000 0.49500  0.26149  0.22339  Biso   1.000  C
  H116     1.0000 0.49641  0.26670  0.30211  Biso   1.000  H
  N13      1.0000 0.53851  0.20631  0.28370  Biso   1.000  N
  H117     1.0000 0.44522  0.32170  0.23818  Biso   1.000  H
  H118     1.0000 0.44640  0.30641  0.17920  Biso   1.000  H
  H119     1.0000 0.36250  0.19958  0.19061  Biso   1.000  H
  H120     1.0000 0.42210  0.20042  0.17802  Biso   1.000  H
  H121     1.0000 0.38448  0.23890  0.14969  Biso   1.000  H
  H122     1.0000 0.49641  0.23331  0.19791  Biso   1.000  H
  N14      1.0000 0.53851  0.29371  0.21631  Biso   1.000  N
  C93      1.0000 0.57159  0.21810  0.31751  Biso   1.000  C
  C94      1.0000 0.57159  0.28192  0.18251  Biso   1.000  C
  C95      1.0000 0.61689  0.18791  0.32881  Biso   1.000  C
  H123     1.0000 0.56631  0.24841  0.33649  Biso   1.000  H
  C96      1.0000 0.61689  0.31211  0.17121  Biso   1.000  C
  H124     1.0000 0.56631  0.25161  0.16349  Biso   1.000  H
  C97      1.0000 0.64621  0.20080  0.37049  Biso   1.000  C
  C98      1.0000 0.62951  0.14619  0.29918  Biso   1.000  C
  C99      1.0000 0.64621  0.29918  0.12949  Biso   1.000  C
  C100     1.0000 0.62951  0.35379  0.20080  Biso   1.000  C
  H125     1.0000 0.63769  0.22982  0.39042  Biso   1.000  H
  C101     1.0000 0.68789  0.17121  0.38311  Biso   1.000  C
  H126     1.0000 0.60958  0.13771  0.27020  Biso   1.000  H
  C102     1.0000 0.67119  0.11690  0.31211  Biso   1.000  C
  H127     1.0000 0.63769  0.27020  0.10960  Biso   1.000  H
  C103     1.0000 0.68789  0.32881  0.11690  Biso   1.000  C
  H128     1.0000 0.60958  0.36231  0.22982  Biso   1.000  H
  C104     1.0000 0.67119  0.38311  0.18791  Biso   1.000  C
  C105     1.0000 0.70082  0.12949  0.35379  Biso   1.000  C
  C106     1.0000 0.71808  0.18251  0.42841  Biso   1.000  C
  C107     1.0000 0.68249  0.07161  0.28192  Biso   1.000  C
  C108     1.0000 0.70082  0.37049  0.14619  Biso   1.000  C
  C109     1.0000 0.71808  0.31751  0.07161  Biso   1.000  C
  C110     1.0000 0.68249  0.42841  0.21810  Biso   1.000  C
  H129     1.0000 0.72980  0.10960  0.36231  Biso   1.000  H
  H130     1.0000 0.74839  0.16349  0.43369  Biso   1.000  H
  N15      1.0000 0.70629  0.21631  0.46149  Biso   1.000  N
  H131     1.0000 0.66351  0.06629  0.25161  Biso   1.000  H
  N16      1.0000 0.71630  0.03849  0.29371  Biso   1.000  N
  H132     1.0000 0.72980  0.39042  0.13771  Biso   1.000  H
  H133     1.0000 0.74839  0.33649  0.06629  Biso   1.000  H
  N17      1.0000 0.70629  0.28370  0.03849  Biso   1.000  N
  H134     1.0000 0.66351  0.43369  0.24841  Biso   1.000  H
  N18      1.0000 0.71630  0.46149  0.20631  Biso   1.000  N
  C111     1.0000 0.73851  0.22339  0.50500  Biso   1.000  C
  C112     1.0000 0.72341  0.99502  0.26149  Biso   1.000  C
  C113     1.0000 0.73851  0.27659  0.99502  Biso   1.000  C
  C114     1.0000 0.72341  0.50500  0.23849  Biso   1.000  C
  C115     1.0000 0.76151  0.27659  0.50500  Biso   1.000  C
  H135     1.0000 0.76669  0.19791  0.50359  Biso   1.000  H
  C116     1.0000 0.70728  0.21419  0.55372  Biso   1.000  C
  C117     1.0000 0.77661  0.99502  0.23849  Biso   1.000  C
  H136     1.0000 0.69789  0.99639  0.23331  Biso   1.000  H
  C118     1.0000 0.71420  0.94630  0.29272  Biso   1.000  C
  C119     1.0000 0.76151  0.22339  0.99502  Biso   1.000  C
  H137     1.0000 0.76669  0.30211  0.99639  Biso   1.000  H
  C120     1.0000 0.70728  0.28580  0.94630  Biso   1.000  C
  C121     1.0000 0.77661  0.50500  0.26149  Biso   1.000  C
  H138     1.0000 0.69789  0.50359  0.26670  Biso   1.000  H
  C122     1.0000 0.71420  0.55372  0.20730  Biso   1.000  C
  H139     1.0000 0.73330  0.30211  0.50359  Biso   1.000  H
  C123     1.0000 0.79270  0.28580  0.55372  Biso   1.000  C
  N19      1.0000 0.79369  0.28370  0.46149  Biso   1.000  N
  H140     1.0000 0.67830  0.23818  0.55478  Biso   1.000  H
  H141     1.0000 0.69359  0.17920  0.55360  Biso   1.000  H
  C124     1.0000 0.74121  0.22210  0.60049  Biso   1.000  C
  N20      1.0000 0.78369  0.03849  0.20631  Biso   1.000  N
  H142     1.0000 0.80209  0.99639  0.26670  Biso   1.000  H
  C125     1.0000 0.78581  0.94630  0.20730  Biso   1.000  C
  H143     1.0000 0.73820  0.94520  0.32170  Biso   1.000  H
  H144     1.0000 0.67922  0.94642  0.30641  Biso   1.000  H
  C126     1.0000 0.72211  0.89949  0.25879  Biso   1.000  C
  N21      1.0000 0.79369  0.21631  0.03849  Biso   1.000  N
  H145     1.0000 0.73330  0.19791  0.99639  Biso   1.000  H
  C127     1.0000 0.79270  0.21419  0.94630  Biso   1.000  C
  H146     1.0000 0.67830  0.26180  0.94520  Biso   1.000  H
  H147     1.0000 0.69359  0.32078  0.94642  Biso   1.000  H
  C128     1.0000 0.74121  0.27789  0.89949  Biso   1.000  C
  H148     1.0000 0.80209  0.50359  0.23331  Biso   1.000  H
  C129     1.0000 0.78581  0.55372  0.29272  Biso   1.000  C
  N22      1.0000 0.78369  0.46149  0.29371  Biso   1.000  N
  H149     1.0000 0.73820  0.55478  0.17828  Biso   1.000  H
  H150     1.0000 0.67922  0.55360  0.19361  Biso   1.000  H
  C130     1.0000 0.72211  0.60049  0.24119  Biso   1.000  C
  H151     1.0000 0.82172  0.26180  0.55478  Biso   1.000  H
  H152     1.0000 0.80639  0.32078  0.55360  Biso   1.000  H
  C131     1.0000 0.75881  0.27789  0.60049  Biso   1.000  C
  C132     1.0000 0.78190  0.31751  0.42841  Biso   1.000  C
  C133     1.0000 0.77859  0.18171  0.60852  Biso   1.000  C
  H153     1.0000 0.71751  0.21940  0.63020  Biso   1.000  H
  C134     1.0000 0.81749  0.07161  0.21810  Biso   1.000  C
  H154     1.0000 0.76182  0.94520  0.17828  Biso   1.000  H
  H155     1.0000 0.82080  0.94642  0.19361  Biso   1.000  H
  C135     1.0000 0.77790  0.89949  0.24119  Biso   1.000  C
  C136     1.0000 0.68169  0.89150  0.22141  Biso   1.000  C
  H156     1.0000 0.71941  0.86979  0.28249  Biso   1.000  H
  C137     1.0000 0.78190  0.18251  0.07161  Biso   1.000  C
  H157     1.0000 0.82172  0.23818  0.94520  Biso   1.000  H
  H158     1.0000 0.80639  0.17920  0.94642  Biso   1.000  H
  C138     1.0000 0.75881  0.22210  0.89949  Biso   1.000  C
  C139     1.0000 0.77859  0.31831  0.89150  Biso   1.000  C
  H159     1.0000 0.71751  0.28059  0.86979  Biso   1.000  H
  H160     1.0000 0.76182  0.55478  0.32170  Biso   1.000  H
  H161     1.0000 0.82080  0.55360  0.30641  Biso   1.000  H
  C140     1.0000 0.77790  0.60049  0.25879  Biso   1.000  C
  C141     1.0000 0.81749  0.42841  0.28192  Biso   1.000  C
  C142     1.0000 0.68169  0.60852  0.27861  Biso   1.000  C
  H162     1.0000 0.71941  0.63020  0.21749  Biso   1.000  H
  C143     1.0000 0.72139  0.31831  0.60852  Biso   1.000  C
  H163     1.0000 0.78251  0.28059  0.63020  Biso   1.000  H
  C144     1.0000 0.81209  0.32881  0.38311  Biso   1.000  C
  H164     1.0000 0.75159  0.33649  0.43369  Biso   1.000  H
  H165     1.0000 0.80042  0.19061  0.63750  Biso   1.000  H
  H166     1.0000 0.79958  0.17802  0.57790  Biso   1.000  H
  H167     1.0000 0.76110  0.14969  0.61552  Biso   1.000  H
  C145     1.0000 0.82879  0.11690  0.18791  Biso   1.000  C
  H168     1.0000 0.83651  0.06629  0.24841  Biso   1.000  H
  C146     1.0000 0.81829  0.89150  0.27861  Biso   1.000  C
  H169     1.0000 0.78060  0.86979  0.21749  Biso   1.000  H
  H170     1.0000 0.69059  0.86248  0.19958  Biso   1.000  H
  H171     1.0000 0.67800  0.92211  0.20042  Biso   1.000  H
  H172     1.0000 0.64971  0.88450  0.23890  Biso   1.000  H
  C147     1.0000 0.81209  0.17121  0.11690  Biso   1.000  C
  H173     1.0000 0.75159  0.16349  0.06629  Biso   1.000  H
  C148     1.0000 0.72139  0.18171  0.89150  Biso   1.000  C
  H174     1.0000 0.78251  0.21940  0.86979  Biso   1.000  H
  H175     1.0000 0.80042  0.30941  0.86248  Biso   1.000  H
  H176     1.0000 0.79958  0.32200  0.92211  Biso   1.000  H
  H177     1.0000 0.76110  0.35029  0.88450  Biso   1.000  H
  C149     1.0000 0.81829  0.60852  0.22141  Biso   1.000  C
  H178     1.0000 0.78060  0.63020  0.28249  Biso   1.000  H
  C150     1.0000 0.82879  0.38311  0.31211  Biso   1.000  C
  H179     1.0000 0.83651  0.43369  0.25161  Biso   1.000  H
  H180     1.0000 0.69059  0.63750  0.30040  Biso   1.000  H
  H181     1.0000 0.67800  0.57790  0.29960  Biso   1.000  H
  H182     1.0000 0.64971  0.61552  0.26111  Biso   1.000  H
  H183     1.0000 0.69960  0.30941  0.63750  Biso   1.000  H
  H184     1.0000 0.70040  0.32200  0.57790  Biso   1.000  H
  H185     1.0000 0.73889  0.35029  0.61552  Biso   1.000  H
  C151     1.0000 0.85381  0.29918  0.37049  Biso   1.000  C
  C152     1.0000 0.79920  0.37049  0.35379  Biso   1.000  C
  C153     1.0000 0.79920  0.12949  0.14619  Biso   1.000  C
  C154     1.0000 0.87051  0.14619  0.20080  Biso   1.000  C
  H186     1.0000 0.80939  0.86248  0.30040  Biso   1.000  H
  H187     1.0000 0.82198  0.92211  0.29960  Biso   1.000  H
  H188     1.0000 0.85031  0.88450  0.26111  Biso   1.000  H
  C155     1.0000 0.85381  0.20080  0.12949  Biso   1.000  C
  H189     1.0000 0.69960  0.19061  0.86248  Biso   1.000  H
  H190     1.0000 0.70040  0.17802  0.92211  Biso   1.000  H
  H191     1.0000 0.73889  0.14969  0.88450  Biso   1.000  H
  H192     1.0000 0.80939  0.63750  0.19958  Biso   1.000  H
  H193     1.0000 0.82198  0.57790  0.20042  Biso   1.000  H
  H194     1.0000 0.85031  0.61552  0.23890  Biso   1.000  H
  C156     1.0000 0.87051  0.35379  0.29918  Biso   1.000  C
  H195     1.0000 0.86229  0.27020  0.39042  Biso   1.000  H
  C157     1.0000 0.88310  0.31211  0.32881  Biso   1.000  C
  H196     1.0000 0.77018  0.39042  0.36231  Biso   1.000  H
  H197     1.0000 0.77018  0.10960  0.13771  Biso   1.000  H
  H198     1.0000 0.89040  0.13771  0.22982  Biso   1.000  H
  C158     1.0000 0.88310  0.18791  0.17121  Biso   1.000  C
  H199     1.0000 0.86229  0.22982  0.10960  Biso   1.000  H
  H200     1.0000 0.89040  0.36231  0.27020  Biso   1.000  H
  C159     1.0000 0.92839  0.28192  0.31751  Biso   1.000  C
  C160     1.0000 0.92839  0.21810  0.18251  Biso   1.000  C
  H201     1.0000 0.93371  0.25161  0.33649  Biso   1.000  H
  N23      1.0000 0.96151  0.29371  0.28370  Biso   1.000  N
  H202     1.0000 0.93371  0.24841  0.16349  Biso   1.000  H
  N24      1.0000 0.96151  0.20631  0.21631  Biso   1.000  N
  C161     1.0000 0.00498  0.26149  0.27659  Biso   1.000  C
  C162     1.0000 0.00498  0.23849  0.22339  Biso   1.000  C
  H203     1.0000 0.00361  0.23331  0.30211  Biso   1.000  H
  C163     1.0000 0.05370  0.29272  0.28580  Biso   1.000  C
  H204     1.0000 0.00361  0.26670  0.19791  Biso   1.000  H
  C164     1.0000 0.05370  0.20730  0.21419  Biso   1.000  C
  H205     1.0000 0.05480  0.32170  0.26180  Biso   1.000  H
  H206     1.0000 0.05358  0.30641  0.32078  Biso   1.000  H
  C165     1.0000 0.10051  0.25879  0.27789  Biso   1.000  C
  H207     1.0000 0.05480  0.17828  0.23818  Biso   1.000  H
  H208     1.0000 0.05358  0.19361  0.17920  Biso   1.000  H
  C166     1.0000 0.10051  0.24119  0.22210  Biso   1.000  C
  C167     1.0000 0.10850  0.22141  0.31831  Biso   1.000  C
  H209     1.0000 0.13021  0.28249  0.28059  Biso   1.000  H
  C168     1.0000 0.10850  0.27861  0.18171  Biso   1.000  C
  H210     1.0000 0.13021  0.21749  0.21940  Biso   1.000  H
  H211     1.0000 0.13752  0.19958  0.30941  Biso   1.000  H
  H212     1.0000 0.07789  0.20042  0.32200  Biso   1.000  H
  H213     1.0000 0.11550  0.23890  0.35029  Biso   1.000  H
  H214     1.0000 0.13752  0.30040  0.19061  Biso   1.000  H
  H215     1.0000 0.07789  0.29960  0.17802  Biso   1.000  H
  H216     1.0000 0.11550  0.26111  0.14969  Biso   1.000  H
  C169     1.0000 0.31831  0.39148  0.27861  Biso   1.000  C
  C170     1.0000 0.27789  0.39951  0.24119  Biso   1.000  C
  H217     1.0000 0.30941  0.36250  0.30040  Biso   1.000  H
  H218     1.0000 0.32200  0.42210  0.29960  Biso   1.000  H
  H219     1.0000 0.35029  0.38448  0.26111  Biso   1.000  H
  C171     1.0000 0.28580  0.44628  0.20730  Biso   1.000  C
  C172     1.0000 0.22210  0.39951  0.25879  Biso   1.000  C
  H220     1.0000 0.28059  0.36980  0.21749  Biso   1.000  H
  C173     1.0000 0.27659  0.49500  0.23849  Biso   1.000  C
  H221     1.0000 0.26180  0.44522  0.17828  Biso   1.000  H
  H222     1.0000 0.32078  0.44640  0.19361  Biso   1.000  H
  C174     1.0000 0.21419  0.44628  0.29272  Biso   1.000  C
  C175     1.0000 0.18171  0.39148  0.22141  Biso   1.000  C
  H223     1.0000 0.21940  0.36980  0.28249  Biso   1.000  H
  C176     1.0000 0.22339  0.49500  0.26149  Biso   1.000  C
  H224     1.0000 0.30211  0.49641  0.26670  Biso   1.000  H
  N25      1.0000 0.28370  0.53851  0.20631  Biso   1.000  N
  H225     1.0000 0.23818  0.44522  0.32170  Biso   1.000  H
  H226     1.0000 0.17920  0.44640  0.30641  Biso   1.000  H
  H227     1.0000 0.19061  0.36250  0.19958  Biso   1.000  H
  H228     1.0000 0.17802  0.42210  0.20042  Biso   1.000  H
  H229     1.0000 0.14969  0.38448  0.23890  Biso   1.000  H
  H230     1.0000 0.19791  0.49641  0.23331  Biso   1.000  H
  N26      1.0000 0.21631  0.53851  0.29371  Biso   1.000  N
  C177     1.0000 0.31751  0.57159  0.21810  Biso   1.000  C
  C178     1.0000 0.18251  0.57159  0.28192  Biso   1.000  C
  C179     1.0000 0.32881  0.61689  0.18791  Biso   1.000  C
  H231     1.0000 0.33649  0.56631  0.24841  Biso   1.000  H
  C180     1.0000 0.17121  0.61689  0.31211  Biso   1.000  C
  H232     1.0000 0.16349  0.56631  0.25161  Biso   1.000  H
  C181     1.0000 0.29918  0.62951  0.14619  Biso   1.000  C
  C182     1.0000 0.37049  0.64621  0.20080  Biso   1.000  C
  C183     1.0000 0.20080  0.62951  0.35379  Biso   1.000  C
  C184     1.0000 0.12949  0.64621  0.29918  Biso   1.000  C
  H233     1.0000 0.27020  0.60958  0.13771  Biso   1.000  H
  C185     1.0000 0.31211  0.67119  0.11690  Biso   1.000  C
  H234     1.0000 0.39042  0.63769  0.22982  Biso   1.000  H
  C186     1.0000 0.38311  0.68789  0.17121  Biso   1.000  C
  H235     1.0000 0.22982  0.60958  0.36231  Biso   1.000  H
  C187     1.0000 0.18791  0.67119  0.38311  Biso   1.000  C
  H236     1.0000 0.10960  0.63769  0.27020  Biso   1.000  H
  C188     1.0000 0.11690  0.68789  0.32881  Biso   1.000  C
  C189     1.0000 0.35379  0.70082  0.12949  Biso   1.000  C
  C190     1.0000 0.28192  0.68249  0.07161  Biso   1.000  C
  C191     1.0000 0.42841  0.71808  0.18251  Biso   1.000  C
  C192     1.0000 0.14619  0.70082  0.37049  Biso   1.000  C
  C193     1.0000 0.21810  0.68249  0.42841  Biso   1.000  C
  C194     1.0000 0.07161  0.71808  0.31751  Biso   1.000  C
  H237     1.0000 0.36231  0.72980  0.10960  Biso   1.000  H
  H238     1.0000 0.25161  0.66351  0.06629  Biso   1.000  H
  N27      1.0000 0.29371  0.71630  0.03849  Biso   1.000  N
  H239     1.0000 0.43369  0.74839  0.16349  Biso   1.000  H
  N28      1.0000 0.46149  0.70629  0.21631  Biso   1.000  N
  H240     1.0000 0.13771  0.72980  0.39042  Biso   1.000  H
  H241     1.0000 0.24841  0.66351  0.43369  Biso   1.000  H
  N29      1.0000 0.20631  0.71630  0.46149  Biso   1.000  N
  H242     1.0000 0.06629  0.74839  0.33649  Biso   1.000  H
  N30      1.0000 0.03849  0.70629  0.28370  Biso   1.000  N
  C195     1.0000 0.26149  0.72341  0.99502  Biso   1.000  C
  C196     1.0000 0.50500  0.73851  0.22339  Biso   1.000  C
  C197     1.0000 0.23849  0.72341  0.50500  Biso   1.000  C
  C198     1.0000 0.99502  0.73851  0.27659  Biso   1.000  C
  C199     1.0000 0.23849  0.77661  0.99502  Biso   1.000  C
  H243     1.0000 0.23331  0.69789  0.99639  Biso   1.000  H
  C200     1.0000 0.29272  0.71420  0.94630  Biso   1.000  C
  C201     1.0000 0.50500  0.76151  0.27659  Biso   1.000  C
  H244     1.0000 0.50359  0.76669  0.19791  Biso   1.000  H
  C202     1.0000 0.55372  0.70728  0.21419  Biso   1.000  C
  C203     1.0000 0.26149  0.77661  0.50500  Biso   1.000  C
  H245     1.0000 0.26670  0.69789  0.50359  Biso   1.000  H
  C204     1.0000 0.20730  0.71420  0.55372  Biso   1.000  C
  C205     1.0000 0.99502  0.76151  0.22339  Biso   1.000  C
  H246     1.0000 0.99639  0.76669  0.30211  Biso   1.000  H
  C206     1.0000 0.94630  0.70728  0.28580  Biso   1.000  C
  N31      1.0000 0.20631  0.78369  0.03849  Biso   1.000  N
  H247     1.0000 0.26670  0.80209  0.99639  Biso   1.000  H
  C207     1.0000 0.20730  0.78581  0.94630  Biso   1.000  C
  H248     1.0000 0.32170  0.73820  0.94520  Biso   1.000  H
  H249     1.0000 0.30641  0.67922  0.94642  Biso   1.000  H
  C208     1.0000 0.25879  0.72211  0.89949  Biso   1.000  C
  H250     1.0000 0.50359  0.73330  0.30211  Biso   1.000  H
  C209     1.0000 0.55372  0.79270  0.28580  Biso   1.000  C
  N32      1.0000 0.46149  0.79369  0.28370  Biso   1.000  N
  H251     1.0000 0.55478  0.67830  0.23818  Biso   1.000  H
  H252     1.0000 0.55360  0.69359  0.17920  Biso   1.000  H
  C210     1.0000 0.60049  0.74121  0.22210  Biso   1.000  C
  H253     1.0000 0.23331  0.80209  0.50359  Biso   1.000  H
  C211     1.0000 0.29272  0.78581  0.55372  Biso   1.000  C
  N33      1.0000 0.29371  0.78369  0.46149  Biso   1.000  N
  H254     1.0000 0.17828  0.73820  0.55478  Biso   1.000  H
  H255     1.0000 0.19361  0.67922  0.55360  Biso   1.000  H
  C212     1.0000 0.24119  0.72211  0.60049  Biso   1.000  C
  N34      1.0000 0.03849  0.79369  0.21631  Biso   1.000  N
  H256     1.0000 0.99639  0.73330  0.19791  Biso   1.000  H
  C213     1.0000 0.94630  0.79270  0.21419  Biso   1.000  C
  H257     1.0000 0.94520  0.67830  0.26180  Biso   1.000  H
  H258     1.0000 0.94642  0.69359  0.32078  Biso   1.000  H
  C214     1.0000 0.89949  0.74121  0.27789  Biso   1.000  C
  C215     1.0000 0.21810  0.81749  0.07161  Biso   1.000  C
  H259     1.0000 0.17828  0.76182  0.94520  Biso   1.000  H
  H260     1.0000 0.19361  0.82080  0.94642  Biso   1.000  H
  C216     1.0000 0.24119  0.77790  0.89949  Biso   1.000  C
  C217     1.0000 0.22141  0.68169  0.89150  Biso   1.000  C
  H261     1.0000 0.28249  0.71941  0.86979  Biso   1.000  H
  H262     1.0000 0.55478  0.82172  0.26180  Biso   1.000  H
  H263     1.0000 0.55360  0.80639  0.32078  Biso   1.000  H
  C218     1.0000 0.60049  0.75881  0.27789  Biso   1.000  C
  C219     1.0000 0.42841  0.78190  0.31751  Biso   1.000  C
  C220     1.0000 0.60852  0.77859  0.18171  Biso   1.000  C
  H264     1.0000 0.63020  0.71751  0.21940  Biso   1.000  H
  H265     1.0000 0.32170  0.76182  0.55478  Biso   1.000  H
  H266     1.0000 0.30641  0.82080  0.55360  Biso   1.000  H
  C221     1.0000 0.25879  0.77790  0.60049  Biso   1.000  C
  C222     1.0000 0.28192  0.81749  0.42841  Biso   1.000  C
  C223     1.0000 0.27861  0.68169  0.60852  Biso   1.000  C
  H267     1.0000 0.21749  0.71941  0.63020  Biso   1.000  H
  C224     1.0000 0.07161  0.78190  0.18251  Biso   1.000  C
  H268     1.0000 0.94520  0.82172  0.23818  Biso   1.000  H
  H269     1.0000 0.94642  0.80639  0.17920  Biso   1.000  H
  C225     1.0000 0.89949  0.75881  0.22210  Biso   1.000  C
  C226     1.0000 0.89150  0.77859  0.31831  Biso   1.000  C
  H270     1.0000 0.86979  0.71751  0.28059  Biso   1.000  H
  C227     1.0000 0.18791  0.82879  0.11690  Biso   1.000  C
  H271     1.0000 0.24841  0.83651  0.06629  Biso   1.000  H
  C228     1.0000 0.27861  0.81829  0.89150  Biso   1.000  C
  H272     1.0000 0.21749  0.78060  0.86979  Biso   1.000  H
  H273     1.0000 0.19958  0.69059  0.86248  Biso   1.000  H
  H274     1.0000 0.20042  0.67800  0.92211  Biso   1.000  H
  H275     1.0000 0.23890  0.64971  0.88450  Biso   1.000  H
  C229     1.0000 0.60852  0.72139  0.31831  Biso   1.000  C
  H276     1.0000 0.63020  0.78251  0.28059  Biso   1.000  H
  C230     1.0000 0.38311  0.81209  0.32881  Biso   1.000  C
  H277     1.0000 0.43369  0.75159  0.33649  Biso   1.000  H
  H278     1.0000 0.63750  0.80042  0.19061  Biso   1.000  H
  H279     1.0000 0.57790  0.79958  0.17802  Biso   1.000  H
  H280     1.0000 0.61552  0.76110  0.14969  Biso   1.000  H
  C231     1.0000 0.22141  0.81829  0.60852  Biso   1.000  C
  H281     1.0000 0.28249  0.78060  0.63020  Biso   1.000  H
  C232     1.0000 0.31211  0.82879  0.38311  Biso   1.000  C
  H282     1.0000 0.25161  0.83651  0.43369  Biso   1.000  H
  H283     1.0000 0.30040  0.69059  0.63750  Biso   1.000  H
  H284     1.0000 0.29960  0.67800  0.57790  Biso   1.000  H
  H285     1.0000 0.26111  0.64971  0.61552  Biso   1.000  H
  C233     1.0000 0.11690  0.81209  0.17121  Biso   1.000  C
  H286     1.0000 0.06629  0.75159  0.16349  Biso   1.000  H
  C234     1.0000 0.89150  0.72139  0.18171  Biso   1.000  C
  H287     1.0000 0.86979  0.78251  0.21940  Biso   1.000  H
  H288     1.0000 0.86248  0.80042  0.30941  Biso   1.000  H
  H289     1.0000 0.92211  0.79958  0.32200  Biso   1.000  H
  H290     1.0000 0.88450  0.76110  0.35029  Biso   1.000  H
  C235     1.0000 0.14619  0.79920  0.12949  Biso   1.000  C
  C236     1.0000 0.20080  0.87051  0.14619  Biso   1.000  C
  H291     1.0000 0.30040  0.80939  0.86248  Biso   1.000  H
  H292     1.0000 0.29960  0.82198  0.92211  Biso   1.000  H
  H293     1.0000 0.26111  0.85031  0.88450  Biso   1.000  H
  H294     1.0000 0.63750  0.69960  0.30941  Biso   1.000  H
  H295     1.0000 0.57790  0.70040  0.32200  Biso   1.000  H
  H296     1.0000 0.61552  0.73889  0.35029  Biso   1.000  H
  C237     1.0000 0.35379  0.79920  0.37049  Biso   1.000  C
  C238     1.0000 0.37049  0.85381  0.29918  Biso   1.000  C
  H297     1.0000 0.19958  0.80939  0.63750  Biso   1.000  H
  H298     1.0000 0.20042  0.82198  0.57790  Biso   1.000  H
  H299     1.0000 0.23890  0.85031  0.61552  Biso   1.000  H
  C239     1.0000 0.29918  0.87051  0.35379  Biso   1.000  C
  C240     1.0000 0.12949  0.85381  0.20080  Biso   1.000  C
  H300     1.0000 0.86248  0.69960  0.19061  Biso   1.000  H
  H301     1.0000 0.92211  0.70040  0.17802  Biso   1.000  H
  H302     1.0000 0.88450  0.73889  0.14969  Biso   1.000  H
  H303     1.0000 0.13771  0.77018  0.10960  Biso   1.000  H
  H304     1.0000 0.22982  0.89040  0.13771  Biso   1.000  H
  C241     1.0000 0.17121  0.88310  0.18791  Biso   1.000  C
  H305     1.0000 0.36231  0.77018  0.39042  Biso   1.000  H
  H306     1.0000 0.39042  0.86229  0.27020  Biso   1.000  H
  C242     1.0000 0.32881  0.88310  0.31211  Biso   1.000  C
  H307     1.0000 0.27020  0.89040  0.36231  Biso   1.000  H
  H308     1.0000 0.10960  0.86229  0.22982  Biso   1.000  H
  C243     1.0000 0.18251  0.92839  0.21810  Biso   1.000  C
  C244     1.0000 0.31751  0.92839  0.28192  Biso   1.000  C
  H309     1.0000 0.16349  0.93371  0.24841  Biso   1.000  H
  N35      1.0000 0.21631  0.96151  0.20631  Biso   1.000  N
  H310     1.0000 0.33649  0.93371  0.25161  Biso   1.000  H
  N36      1.0000 0.28370  0.96151  0.29371  Biso   1.000  N
  C245     1.0000 0.22339  0.00498  0.23849  Biso   1.000  C
  C246     1.0000 0.27659  0.00498  0.26149  Biso   1.000  C
  H311     1.0000 0.19791  0.00361  0.26670  Biso   1.000  H
  C247     1.0000 0.21419  0.05370  0.20730  Biso   1.000  C
  H312     1.0000 0.30211  0.00361  0.23331  Biso   1.000  H
  C248     1.0000 0.28580  0.05370  0.29272  Biso   1.000  C
  H313     1.0000 0.23818  0.05480  0.17828  Biso   1.000  H
  H314     1.0000 0.17920  0.05358  0.19361  Biso   1.000  H
  C249     1.0000 0.22210  0.10051  0.24119  Biso   1.000  C
  H315     1.0000 0.26180  0.05480  0.32170  Biso   1.000  H
  H316     1.0000 0.32078  0.05358  0.30641  Biso   1.000  H
  C250     1.0000 0.27789  0.10051  0.25879  Biso   1.000  C
  C251     1.0000 0.18171  0.10850  0.27861  Biso   1.000  C
  H317     1.0000 0.21940  0.13021  0.21749  Biso   1.000  H
  C252     1.0000 0.31831  0.10850  0.22141  Biso   1.000  C
  H318     1.0000 0.28059  0.13021  0.28249  Biso   1.000  H
  H319     1.0000 0.19061  0.13752  0.30040  Biso   1.000  H
  H320     1.0000 0.17802  0.07789  0.29960  Biso   1.000  H
  H321     1.0000 0.14969  0.11550  0.26111  Biso   1.000  H
  H322     1.0000 0.30941  0.13752  0.19958  Biso   1.000  H
  H323     1.0000 0.32200  0.07789  0.20042  Biso   1.000  H
  H324     1.0000 0.35029  0.11550  0.23890  Biso   1.000  H
  C253     1.0000 0.27861  0.31831  0.39148  Biso   1.000  C
  C254     1.0000 0.24119  0.27789  0.39951  Biso   1.000  C
  H325     1.0000 0.30040  0.30941  0.36250  Biso   1.000  H
  H326     1.0000 0.29960  0.32200  0.42210  Biso   1.000  H
  H327     1.0000 0.26111  0.35029  0.38448  Biso   1.000  H
  C255     1.0000 0.25879  0.22210  0.39951  Biso   1.000  C
  C256     1.0000 0.20730  0.28580  0.44628  Biso   1.000  C
  H328     1.0000 0.21749  0.28059  0.36980  Biso   1.000  H
  C257     1.0000 0.29272  0.21419  0.44628  Biso   1.000  C
  C258     1.0000 0.22141  0.18171  0.39148  Biso   1.000  C
  H329     1.0000 0.28249  0.21940  0.36980  Biso   1.000  H
  C259     1.0000 0.23849  0.27659  0.49500  Biso   1.000  C
  H330     1.0000 0.17828  0.26180  0.44522  Biso   1.000  H
  H331     1.0000 0.19361  0.32078  0.44640  Biso   1.000  H
  C260     1.0000 0.26149  0.22339  0.49500  Biso   1.000  C
  H332     1.0000 0.32170  0.23818  0.44522  Biso   1.000  H
  H333     1.0000 0.30641  0.17920  0.44640  Biso   1.000  H
  H334     1.0000 0.19958  0.19061  0.36250  Biso   1.000  H
  H335     1.0000 0.20042  0.17802  0.42210  Biso   1.000  H
  H336     1.0000 0.23890  0.14969  0.38448  Biso   1.000  H
  H337     1.0000 0.26670  0.30211  0.49641  Biso   1.000  H
  N37      1.0000 0.20631  0.28370  0.53851  Biso   1.000  N
  H338     1.0000 0.23331  0.19791  0.49641  Biso   1.000  H
  N38      1.0000 0.29371  0.21631  0.53851  Biso   1.000  N
  C261     1.0000 0.21810  0.31751  0.57159  Biso   1.000  C
  C262     1.0000 0.28192  0.18251  0.57159  Biso   1.000  C
  C263     1.0000 0.18791  0.32881  0.61689  Biso   1.000  C
  H339     1.0000 0.24841  0.33649  0.56631  Biso   1.000  H
  C264     1.0000 0.31211  0.17121  0.61689  Biso   1.000  C
  H340     1.0000 0.25161  0.16349  0.56631  Biso   1.000  H
  C265     1.0000 0.14619  0.29918  0.62951  Biso   1.000  C
  C266     1.0000 0.20080  0.37049  0.64621  Biso   1.000  C
  C267     1.0000 0.35379  0.20080  0.62951  Biso   1.000  C
  C268     1.0000 0.29918  0.12949  0.64621  Biso   1.000  C
  H341     1.0000 0.13771  0.27020  0.60958  Biso   1.000  H
  C269     1.0000 0.11690  0.31211  0.67119  Biso   1.000  C
  H342     1.0000 0.22982  0.39042  0.63769  Biso   1.000  H
  C270     1.0000 0.17121  0.38311  0.68789  Biso   1.000  C
  H343     1.0000 0.36231  0.22982  0.60958  Biso   1.000  H
  C271     1.0000 0.38311  0.18791  0.67119  Biso   1.000  C
  H344     1.0000 0.27020  0.10960  0.63769  Biso   1.000  H
  C272     1.0000 0.32881  0.11690  0.68789  Biso   1.000  C
  C273     1.0000 0.12949  0.35379  0.70082  Biso   1.000  C
  C274     1.0000 0.07161  0.28192  0.68249  Biso   1.000  C
  C275     1.0000 0.18251  0.42841  0.71808  Biso   1.000  C
  C276     1.0000 0.37049  0.14619  0.70082  Biso   1.000  C
  C277     1.0000 0.42841  0.21810  0.68249  Biso   1.000  C
  C278     1.0000 0.31751  0.07161  0.71808  Biso   1.000  C
  H345     1.0000 0.10960  0.36231  0.72980  Biso   1.000  H
  H346     1.0000 0.06629  0.25161  0.66351  Biso   1.000  H
  N39      1.0000 0.03849  0.29371  0.71630  Biso   1.000  N
  H347     1.0000 0.16349  0.43369  0.74839  Biso   1.000  H
  N40      1.0000 0.21631  0.46149  0.70629  Biso   1.000  N
  H348     1.0000 0.39042  0.13771  0.72980  Biso   1.000  H
  H349     1.0000 0.43369  0.24841  0.66351  Biso   1.000  H
  N41      1.0000 0.46149  0.20631  0.71630  Biso   1.000  N
  H350     1.0000 0.33649  0.06629  0.74839  Biso   1.000  H
  N42      1.0000 0.28370  0.03849  0.70629  Biso   1.000  N
  C279     1.0000 0.99502  0.26149  0.72341  Biso   1.000  C
  C280     1.0000 0.22339  0.50500  0.73851  Biso   1.000  C
  C281     1.0000 0.50500  0.23849  0.72341  Biso   1.000  C
  C282     1.0000 0.27659  0.99502  0.73851  Biso   1.000  C
  C283     1.0000 0.99502  0.23849  0.77661  Biso   1.000  C
  H351     1.0000 0.99639  0.23331  0.69789  Biso   1.000  H
  C284     1.0000 0.94630  0.29272  0.71420  Biso   1.000  C
  C285     1.0000 0.27659  0.50500  0.76151  Biso   1.000  C
  H352     1.0000 0.19791  0.50359  0.76669  Biso   1.000  H
  C286     1.0000 0.21419  0.55372  0.70728  Biso   1.000  C
  C287     1.0000 0.50500  0.26149  0.77661  Biso   1.000  C
  H353     1.0000 0.50359  0.26670  0.69789  Biso   1.000  H
  C288     1.0000 0.55372  0.20730  0.71420  Biso   1.000  C
  C289     1.0000 0.22339  0.99502  0.76151  Biso   1.000  C
  H354     1.0000 0.30211  0.99639  0.76669  Biso   1.000  H
  C290     1.0000 0.28580  0.94630  0.70728  Biso   1.000  C
  N43      1.0000 0.03849  0.20631  0.78369  Biso   1.000  N
  H355     1.0000 0.99639  0.26670  0.80209  Biso   1.000  H
  C291     1.0000 0.94630  0.20730  0.78581  Biso   1.000  C
  H356     1.0000 0.94520  0.32170  0.73820  Biso   1.000  H
  H357     1.0000 0.94642  0.30641  0.67922  Biso   1.000  H
  C292     1.0000 0.89949  0.25879  0.72211  Biso   1.000  C
  H358     1.0000 0.30211  0.50359  0.73330  Biso   1.000  H
  C293     1.0000 0.28580  0.55372  0.79270  Biso   1.000  C
  N44      1.0000 0.28370  0.46149  0.79369  Biso   1.000  N
  H359     1.0000 0.23818  0.55478  0.67830  Biso   1.000  H
  H360     1.0000 0.17920  0.55360  0.69359  Biso   1.000  H
  C294     1.0000 0.22210  0.60049  0.74121  Biso   1.000  C
  H361     1.0000 0.50359  0.23331  0.80209  Biso   1.000  H
  C295     1.0000 0.55372  0.29272  0.78581  Biso   1.000  C
  N45      1.0000 0.46149  0.29371  0.78369  Biso   1.000  N
  H362     1.0000 0.55478  0.17828  0.73820  Biso   1.000  H
  H363     1.0000 0.55360  0.19361  0.67922  Biso   1.000  H
  C296     1.0000 0.60049  0.24119  0.72211  Biso   1.000  C
  N46      1.0000 0.21631  0.03849  0.79369  Biso   1.000  N
  H364     1.0000 0.19791  0.99639  0.73330  Biso   1.000  H
  C297     1.0000 0.21419  0.94630  0.79270  Biso   1.000  C
  H365     1.0000 0.26180  0.94520  0.67830  Biso   1.000  H
  H366     1.0000 0.32078  0.94642  0.69359  Biso   1.000  H
  C298     1.0000 0.27789  0.89949  0.74121  Biso   1.000  C
  C299     1.0000 0.07161  0.21810  0.81749  Biso   1.000  C
  H367     1.0000 0.94520  0.17828  0.76182  Biso   1.000  H
  H368     1.0000 0.94642  0.19361  0.82080  Biso   1.000  H
  C300     1.0000 0.89949  0.24119  0.77790  Biso   1.000  C
  C301     1.0000 0.89150  0.22141  0.68169  Biso   1.000  C
  H369     1.0000 0.86979  0.28249  0.71941  Biso   1.000  H
  H370     1.0000 0.26180  0.55478  0.82172  Biso   1.000  H
  H371     1.0000 0.32078  0.55360  0.80639  Biso   1.000  H
  C302     1.0000 0.27789  0.60049  0.75881  Biso   1.000  C
  C303     1.0000 0.31751  0.42841  0.78190  Biso   1.000  C
  C304     1.0000 0.18171  0.60852  0.77859  Biso   1.000  C
  H372     1.0000 0.21940  0.63020  0.71751  Biso   1.000  H
  H373     1.0000 0.55478  0.32170  0.76182  Biso   1.000  H
  H374     1.0000 0.55360  0.30641  0.82080  Biso   1.000  H
  C305     1.0000 0.60049  0.25879  0.77790  Biso   1.000  C
  C306     1.0000 0.42841  0.28192  0.81749  Biso   1.000  C
  C307     1.0000 0.60852  0.27861  0.68169  Biso   1.000  C
  H375     1.0000 0.63020  0.21749  0.71941  Biso   1.000  H
  C308     1.0000 0.18251  0.07161  0.78190  Biso   1.000  C
  H376     1.0000 0.23818  0.94520  0.82172  Biso   1.000  H
  H377     1.0000 0.17920  0.94642  0.80639  Biso   1.000  H
  C309     1.0000 0.22210  0.89949  0.75881  Biso   1.000  C
  C310     1.0000 0.31831  0.89150  0.77859  Biso   1.000  C
  H378     1.0000 0.28059  0.86979  0.71751  Biso   1.000  H
  C311     1.0000 0.11690  0.18791  0.82879  Biso   1.000  C
  H379     1.0000 0.06629  0.24841  0.83651  Biso   1.000  H
  C312     1.0000 0.89150  0.27861  0.81829  Biso   1.000  C
  H380     1.0000 0.86979  0.21749  0.78060  Biso   1.000  H
  H381     1.0000 0.86248  0.19958  0.69059  Biso   1.000  H
  H382     1.0000 0.92211  0.20042  0.67800  Biso   1.000  H
  H383     1.0000 0.88450  0.23890  0.64971  Biso   1.000  H
  C313     1.0000 0.31831  0.60852  0.72139  Biso   1.000  C
  H384     1.0000 0.28059  0.63020  0.78251  Biso   1.000  H
  C314     1.0000 0.32881  0.38311  0.81209  Biso   1.000  C
  H385     1.0000 0.33649  0.43369  0.75159  Biso   1.000  H
  H386     1.0000 0.19061  0.63750  0.80042  Biso   1.000  H
  H387     1.0000 0.17802  0.57790  0.79958  Biso   1.000  H
  H388     1.0000 0.14969  0.61552  0.76110  Biso   1.000  H
  C315     1.0000 0.60852  0.22141  0.81829  Biso   1.000  C
  H389     1.0000 0.63020  0.28249  0.78060  Biso   1.000  H
  C316     1.0000 0.38311  0.31211  0.82879  Biso   1.000  C
  H390     1.0000 0.43369  0.25161  0.83651  Biso   1.000  H
  H391     1.0000 0.63750  0.30040  0.69059  Biso   1.000  H
  H392     1.0000 0.57790  0.29960  0.67800  Biso   1.000  H
  H393     1.0000 0.61552  0.26111  0.64971  Biso   1.000  H
  C317     1.0000 0.17121  0.11690  0.81209  Biso   1.000  C
  H394     1.0000 0.16349  0.06629  0.75159  Biso   1.000  H
  C318     1.0000 0.18171  0.89150  0.72139  Biso   1.000  C
  H395     1.0000 0.21940  0.86979  0.78251  Biso   1.000  H
  H396     1.0000 0.30941  0.86248  0.80042  Biso   1.000  H
  H397     1.0000 0.32200  0.92211  0.79958  Biso   1.000  H
  H398     1.0000 0.35029  0.88450  0.76110  Biso   1.000  H
  C319     1.0000 0.12949  0.14619  0.79920  Biso   1.000  C
  C320     1.0000 0.14619  0.20080  0.87051  Biso   1.000  C
  H399     1.0000 0.86248  0.30040  0.80939  Biso   1.000  H
  H400     1.0000 0.92211  0.29960  0.82198  Biso   1.000  H
  H401     1.0000 0.88450  0.26111  0.85031  Biso   1.000  H
  H402     1.0000 0.30941  0.63750  0.69960  Biso   1.000  H
  H403     1.0000 0.32200  0.57790  0.70040  Biso   1.000  H
  H404     1.0000 0.35029  0.61552  0.73889  Biso   1.000  H
  C321     1.0000 0.37049  0.35379  0.79920  Biso   1.000  C
  C322     1.0000 0.29918  0.37049  0.85381  Biso   1.000  C
  H405     1.0000 0.63750  0.19958  0.80939  Biso   1.000  H
  H406     1.0000 0.57790  0.20042  0.82198  Biso   1.000  H
  H407     1.0000 0.61552  0.23890  0.85031  Biso   1.000  H
  C323     1.0000 0.35379  0.29918  0.87051  Biso   1.000  C
  C324     1.0000 0.20080  0.12949  0.85381  Biso   1.000  C
  H408     1.0000 0.19061  0.86248  0.69960  Biso   1.000  H
  H409     1.0000 0.17802  0.92211  0.70040  Biso   1.000  H
  H410     1.0000 0.14969  0.88450  0.73889  Biso   1.000  H
  H411     1.0000 0.10960  0.13771  0.77018  Biso   1.000  H
  C325     1.0000 0.18791  0.17121  0.88310  Biso   1.000  C
  H412     1.0000 0.13771  0.22982  0.89040  Biso   1.000  H
  H413     1.0000 0.39042  0.36231  0.77018  Biso   1.000  H
  C326     1.0000 0.31211  0.32881  0.88310  Biso   1.000  C
  H414     1.0000 0.27020  0.39042  0.86229  Biso   1.000  H
  H415     1.0000 0.36231  0.27020  0.89040  Biso   1.000  H
  H416     1.0000 0.22982  0.10960  0.86229  Biso   1.000  H
  C327     1.0000 0.21810  0.18251  0.92839  Biso   1.000  C
  C328     1.0000 0.28192  0.31751  0.92839  Biso   1.000  C
  H417     1.0000 0.24841  0.16349  0.93371  Biso   1.000  H
  N47      1.0000 0.20631  0.21631  0.96151  Biso   1.000  N
  H418     1.0000 0.25161  0.33649  0.93371  Biso   1.000  H
  N48      1.0000 0.29371  0.28370  0.96151  Biso   1.000  N
  C329     1.0000 0.23849  0.22339  0.00498  Biso   1.000  C
  C330     1.0000 0.26149  0.27659  0.00498  Biso   1.000  C
  H419     1.0000 0.26670  0.19791  0.00361  Biso   1.000  H
  C331     1.0000 0.20730  0.21419  0.05370  Biso   1.000  C
  H420     1.0000 0.23331  0.30211  0.00361  Biso   1.000  H
  C332     1.0000 0.29272  0.28580  0.05370  Biso   1.000  C
  H421     1.0000 0.17828  0.23818  0.05480  Biso   1.000  H
  H422     1.0000 0.19361  0.17920  0.05358  Biso   1.000  H
  C333     1.0000 0.24119  0.22210  0.10051  Biso   1.000  C
  H423     1.0000 0.32170  0.26180  0.05480  Biso   1.000  H
  H424     1.0000 0.30641  0.32078  0.05358  Biso   1.000  H
  C334     1.0000 0.25879  0.27789  0.10051  Biso   1.000  C
  C335     1.0000 0.27861  0.18171  0.10850  Biso   1.000  C
  H425     1.0000 0.21749  0.21940  0.13021  Biso   1.000  H
  C336     1.0000 0.22141  0.31831  0.10850  Biso   1.000  C
  H426     1.0000 0.28249  0.28059  0.13021  Biso   1.000  H
  H427     1.0000 0.30040  0.19061  0.13752  Biso   1.000  H
  H428     1.0000 0.29960  0.17802  0.07789  Biso   1.000  H
  H429     1.0000 0.26111  0.14969  0.11550  Biso   1.000  H
  H430     1.0000 0.19958  0.30941  0.13752  Biso   1.000  H
  H431     1.0000 0.20042  0.32200  0.07789  Biso   1.000  H
  H432     1.0000 0.23890  0.35029  0.11550  Biso   1.000  H
  C337     1.0000 0.52862  0.35851  0.06830  Biso   1.000  C
  C338     1.0000 0.49120  0.35048  0.02791  Biso   1.000  C
  H433     1.0000 0.55041  0.38749  0.05940  Biso   1.000  H
  H434     1.0000 0.54961  0.32790  0.07199  Biso   1.000  H
  H435     1.0000 0.51109  0.36551  0.10029  Biso   1.000  H
  C339     1.0000 0.45731  0.30371  0.03579  Biso   1.000  C
  H436     1.0000 0.46750  0.38019  0.03061  Biso   1.000  H
  C340     1.0000 0.50880  0.35048  0.97209  Biso   1.000  C
  C341     1.0000 0.48850  0.25499  0.02658  Biso   1.000  C
  H437     1.0000 0.42829  0.30481  0.01179  Biso   1.000  H
  H438     1.0000 0.44358  0.30359  0.07081  Biso   1.000  H
  C342     1.0000 0.54269  0.30371  0.96421  Biso   1.000  C
  C343     1.0000 0.47138  0.35851  0.93170  Biso   1.000  C
  H439     1.0000 0.53250  0.38019  0.96939  Biso   1.000  H
  N49      1.0000 0.45628  0.21149  0.03369  Biso   1.000  N
  H440     1.0000 0.51671  0.25358  0.05210  Biso   1.000  H
  C344     1.0000 0.51150  0.25499  0.97342  Biso   1.000  C
  H441     1.0000 0.57171  0.30481  0.98821  Biso   1.000  H
  H442     1.0000 0.55642  0.30359  0.92919  Biso   1.000  H
  H443     1.0000 0.44959  0.38749  0.94060  Biso   1.000  H
  H444     1.0000 0.45039  0.32790  0.92801  Biso   1.000  H
  H445     1.0000 0.48891  0.36551  0.89971  Biso   1.000  H
  C345     1.0000 0.46811  0.17840  0.06750  Biso   1.000  C
  H446     1.0000 0.48329  0.25358  0.94790  Biso   1.000  H
  N50      1.0000 0.54372  0.21149  0.96631  Biso   1.000  N
  C346     1.0000 0.43792  0.13311  0.07880  Biso   1.000  C
  H447     1.0000 0.49838  0.18369  0.08652  Biso   1.000  H
  C347     1.0000 0.53189  0.17840  0.93250  Biso   1.000  C
  C348     1.0000 0.45081  0.10378  0.12052  Biso   1.000  C
  C349     1.0000 0.39620  0.12052  0.04921  Biso   1.000  C
  C350     1.0000 0.56208  0.13311  0.92120  Biso   1.000  C
  H448     1.0000 0.50162  0.18369  0.91348  Biso   1.000  H
  H449     1.0000 0.47979  0.11230  0.14041  Biso   1.000  H
  C351     1.0000 0.42118  0.06210  0.13311  Biso   1.000  C
  C352     1.0000 0.36691  0.07880  0.06210  Biso   1.000  C
  H450     1.0000 0.38772  0.14041  0.02019  Biso   1.000  H
  C353     1.0000 0.54919  0.10378  0.87948  Biso   1.000  C
  C354     1.0000 0.60380  0.12052  0.95079  Biso   1.000  C
  C355     1.0000 0.37950  0.04921  0.10378  Biso   1.000  C
  C356     1.0000 0.43252  0.03191  0.17840  Biso   1.000  C
  C357     1.0000 0.32158  0.06750  0.03191  Biso   1.000  C
  H451     1.0000 0.52021  0.11230  0.85959  Biso   1.000  H
  C358     1.0000 0.57882  0.06210  0.86689  Biso   1.000  C
  H452     1.0000 0.61228  0.14041  0.97981  Biso   1.000  H
  C359     1.0000 0.63309  0.07880  0.93790  Biso   1.000  C
  H453     1.0000 0.35961  0.02019  0.11230  Biso   1.000  H
  H454     1.0000 0.41350  0.00160  0.18369  Biso   1.000  H
  N51      1.0000 0.46629  0.04370  0.21149  Biso   1.000  N
  H455     1.0000 0.31630  0.08652  0.00160  Biso   1.000  H
  N52      1.0000 0.28850  0.03369  0.04370  Biso   1.000  N
  C360     1.0000 0.62050  0.04921  0.89622  Biso   1.000  C
  C361     1.0000 0.56748  0.03191  0.82160  Biso   1.000  C
  C362     1.0000 0.67842  0.06750  0.96809  Biso   1.000  C
  C363     1.0000 0.47340  0.01149  0.25499  Biso   1.000  C
  C364     1.0000 0.24499  0.02658  0.01149  Biso   1.000  C
  H456     1.0000 0.64039  0.02019  0.88770  Biso   1.000  H
  H457     1.0000 0.58650  0.00160  0.81631  Biso   1.000  H
  N53      1.0000 0.53371  0.04370  0.78851  Biso   1.000  N
  H458     1.0000 0.68370  0.08652  0.99840  Biso   1.000  H
  N54      1.0000 0.71150  0.03369  0.95630  Biso   1.000  N
  C365     1.0000 0.46419  0.04271  0.30371  Biso   1.000  C
  C366     1.0000 0.52660  0.98851  0.25499  Biso   1.000  C
  H459     1.0000 0.44792  0.98330  0.25358  Biso   1.000  H
  C367     1.0000 0.19631  0.03579  0.04271  Biso   1.000  C
  C368     1.0000 0.24499  0.97342  0.98851  Biso   1.000  C
  H460     1.0000 0.24640  0.05210  0.98330  Biso   1.000  H
  C369     1.0000 0.52660  0.01149  0.74501  Biso   1.000  C
  C370     1.0000 0.75501  0.02658  0.98851  Biso   1.000  C
  H461     1.0000 0.48819  0.07169  0.30481  Biso   1.000  H
  H462     1.0000 0.42921  0.05640  0.30359  Biso   1.000  H
  C371     1.0000 0.47210  0.00878  0.35048  Biso   1.000  C
  H463     1.0000 0.55208  0.01670  0.25358  Biso   1.000  H
  C372     1.0000 0.53581  0.95729  0.30371  Biso   1.000  C
  N55      1.0000 0.53371  0.95630  0.21149  Biso   1.000  N
  H464     1.0000 0.19521  0.01179  0.07169  Biso   1.000  H
  H465     1.0000 0.19639  0.07081  0.05640  Biso   1.000  H
  C373     1.0000 0.14950  0.02791  0.00878  Biso   1.000  C
  C374     1.0000 0.19631  0.96421  0.95729  Biso   1.000  C
  N56      1.0000 0.28850  0.96631  0.95630  Biso   1.000  N
  H466     1.0000 0.24640  0.94790  0.01670  Biso   1.000  H
  C375     1.0000 0.47340  0.98851  0.74501  Biso   1.000  C
  H467     1.0000 0.55208  0.98330  0.74642  Biso   1.000  H
  C376     1.0000 0.53581  0.04271  0.69629  Biso   1.000  C
  C377     1.0000 0.75501  0.97342  0.01149  Biso   1.000  C
  H468     1.0000 0.75360  0.05210  0.01670  Biso   1.000  H
  C378     1.0000 0.80369  0.03579  0.95729  Biso   1.000  C
  H469     1.0000 0.46940  0.03252  0.38019  Biso   1.000  H
  C379     1.0000 0.43172  0.97140  0.35851  Biso   1.000  C
  C380     1.0000 0.52790  0.99122  0.35048  Biso   1.000  C
  H470     1.0000 0.51181  0.92831  0.30481  Biso   1.000  H
  H471     1.0000 0.57079  0.94360  0.30359  Biso   1.000  H
  C381     1.0000 0.56748  0.96809  0.17840  Biso   1.000  C
  H472     1.0000 0.11979  0.03061  0.03252  Biso   1.000  H
  C382     1.0000 0.14950  0.97209  0.99122  Biso   1.000  C
  C383     1.0000 0.14151  0.06830  0.97140  Biso   1.000  C
  H473     1.0000 0.19521  0.98821  0.92831  Biso   1.000  H
  H474     1.0000 0.19639  0.92919  0.94360  Biso   1.000  H
  C384     1.0000 0.32158  0.93250  0.96809  Biso   1.000  C
  N57      1.0000 0.46629  0.95630  0.78851  Biso   1.000  N
  C385     1.0000 0.46419  0.95729  0.69629  Biso   1.000  C
  H475     1.0000 0.44792  0.01670  0.74642  Biso   1.000  H
  H476     1.0000 0.51181  0.07169  0.69519  Biso   1.000  H
  H477     1.0000 0.57079  0.05640  0.69641  Biso   1.000  H
  C386     1.0000 0.52790  0.00878  0.64952  Biso   1.000  C
  N58      1.0000 0.71150  0.96631  0.04370  Biso   1.000  N
  H478     1.0000 0.75360  0.94790  0.98330  Biso   1.000  H
  C387     1.0000 0.80369  0.96421  0.04271  Biso   1.000  C
  H479     1.0000 0.80479  0.01179  0.92831  Biso   1.000  H
  H480     1.0000 0.80361  0.07081  0.94360  Biso   1.000  H
  C388     1.0000 0.85050  0.02791  0.99122  Biso   1.000  C
  H481     1.0000 0.44062  0.94961  0.38749  Biso   1.000  H
  H482     1.0000 0.42799  0.95041  0.32790  Biso   1.000  H
  H483     1.0000 0.39970  0.98890  0.36551  Biso   1.000  H
  C389     1.0000 0.56828  0.02860  0.35851  Biso   1.000  C
  H484     1.0000 0.53060  0.96748  0.38019  Biso   1.000  H
  C390     1.0000 0.57882  0.93790  0.13311  Biso   1.000  C
  H485     1.0000 0.58650  0.99840  0.18369  Biso   1.000  H
  H486     1.0000 0.11979  0.96939  0.96748  Biso   1.000  H
  C391     1.0000 0.14151  0.93170  0.02860  Biso   1.000  C
  H487     1.0000 0.11249  0.05940  0.94961  Biso   1.000  H
  H488     1.0000 0.17209  0.07199  0.95041  Biso   1.000  H
  H489     1.0000 0.13451  0.10029  0.98890  Biso   1.000  H
  C392     1.0000 0.36691  0.92120  0.93790  Biso   1.000  C
  H490     1.0000 0.31630  0.91348  0.99840  Biso   1.000  H
  C393     1.0000 0.43252  0.96809  0.82160  Biso   1.000  C
  H491     1.0000 0.48819  0.92831  0.69519  Biso   1.000  H
  H492     1.0000 0.42921  0.94360  0.69641  Biso   1.000  H
  C394     1.0000 0.47210  0.99122  0.64952  Biso   1.000  C
  C395     1.0000 0.56828  0.97140  0.64149  Biso   1.000  C
  H493     1.0000 0.53060  0.03252  0.61981  Biso   1.000  H
  C396     1.0000 0.67842  0.93250  0.03191  Biso   1.000  C
  H494     1.0000 0.80479  0.98821  0.07169  Biso   1.000  H
  H495     1.0000 0.80361  0.92919  0.05640  Biso   1.000  H
  C397     1.0000 0.85050  0.97209  0.00878  Biso   1.000  C
  C398     1.0000 0.85849  0.06830  0.02860  Biso   1.000  C
  H496     1.0000 0.88021  0.03061  0.96748  Biso   1.000  H
  H497     1.0000 0.55938  0.05039  0.38749  Biso   1.000  H
  H498     1.0000 0.57201  0.04959  0.32790  Biso   1.000  H
  H499     1.0000 0.60030  0.01110  0.36551  Biso   1.000  H
  C399     1.0000 0.54919  0.89622  0.12052  Biso   1.000  C
  C400     1.0000 0.62050  0.95079  0.10378  Biso   1.000  C
  H500     1.0000 0.11249  0.94060  0.05039  Biso   1.000  H
  H501     1.0000 0.17209  0.92801  0.04959  Biso   1.000  H
  H502     1.0000 0.13451  0.89971  0.01110  Biso   1.000  H
  C401     1.0000 0.37950  0.95079  0.89622  Biso   1.000  C
  C402     1.0000 0.39620  0.87948  0.95079  Biso   1.000  C
  C403     1.0000 0.42118  0.93790  0.86689  Biso   1.000  C
  H503     1.0000 0.41350  0.99840  0.81631  Biso   1.000  H
  H504     1.0000 0.46940  0.96748  0.61981  Biso   1.000  H
  C404     1.0000 0.43172  0.02860  0.64149  Biso   1.000  C
  H505     1.0000 0.55938  0.94961  0.61251  Biso   1.000  H
  H506     1.0000 0.57201  0.95041  0.67210  Biso   1.000  H
  H507     1.0000 0.60030  0.98890  0.63449  Biso   1.000  H
  C405     1.0000 0.63309  0.92120  0.06210  Biso   1.000  C
  H508     1.0000 0.68370  0.91348  0.00160  Biso   1.000  H
  C406     1.0000 0.85849  0.93170  0.97140  Biso   1.000  C
  H509     1.0000 0.88021  0.96939  0.03252  Biso   1.000  H
  H510     1.0000 0.88751  0.05940  0.05039  Biso   1.000  H
  H511     1.0000 0.82791  0.07199  0.04959  Biso   1.000  H
  H512     1.0000 0.86549  0.10029  0.01110  Biso   1.000  H
  H513     1.0000 0.52021  0.88770  0.14041  Biso   1.000  H
  C407     1.0000 0.56208  0.86689  0.07880  Biso   1.000  C
  H514     1.0000 0.64039  0.97981  0.11230  Biso   1.000  H
  H515     1.0000 0.35961  0.97981  0.88770  Biso   1.000  H
  H516     1.0000 0.38772  0.85959  0.97981  Biso   1.000  H
  C408     1.0000 0.43792  0.86689  0.92120  Biso   1.000  C
  C409     1.0000 0.45081  0.89622  0.87948  Biso   1.000  C
  H517     1.0000 0.44062  0.05039  0.61251  Biso   1.000  H
  H518     1.0000 0.42799  0.04959  0.67210  Biso   1.000  H
  H519     1.0000 0.39970  0.01110  0.63449  Biso   1.000  H
  C410     1.0000 0.60380  0.87948  0.04921  Biso   1.000  C
  H520     1.0000 0.88751  0.94060  0.94961  Biso   1.000  H
  H521     1.0000 0.82791  0.92801  0.95041  Biso   1.000  H
  H522     1.0000 0.86549  0.89971  0.98890  Biso   1.000  H
  C411     1.0000 0.53189  0.82160  0.06750  Biso   1.000  C
  C412     1.0000 0.46811  0.82160  0.93250  Biso   1.000  C
  H523     1.0000 0.47979  0.88770  0.85959  Biso   1.000  H
  H524     1.0000 0.61228  0.85959  0.02019  Biso   1.000  H
  H525     1.0000 0.50162  0.81631  0.08652  Biso   1.000  H
  N59      1.0000 0.54372  0.78851  0.03369  Biso   1.000  N
  H526     1.0000 0.49838  0.81631  0.91348  Biso   1.000  H
  N60      1.0000 0.45628  0.78851  0.96631  Biso   1.000  N
  C413     1.0000 0.51150  0.74501  0.02658  Biso   1.000  C
  C414     1.0000 0.48850  0.74501  0.97342  Biso   1.000  C
  H527     1.0000 0.48329  0.74642  0.05210  Biso   1.000  H
  C415     1.0000 0.54269  0.69629  0.03579  Biso   1.000  C
  H528     1.0000 0.51671  0.74642  0.94790  Biso   1.000  H
  C416     1.0000 0.45731  0.69629  0.96421  Biso   1.000  C
  H529     1.0000 0.57171  0.69519  0.01179  Biso   1.000  H
  H530     1.0000 0.55642  0.69641  0.07081  Biso   1.000  H
  C417     1.0000 0.50880  0.64952  0.02791  Biso   1.000  C
  H531     1.0000 0.42829  0.69519  0.98821  Biso   1.000  H
  H532     1.0000 0.44358  0.69641  0.92919  Biso   1.000  H
  C418     1.0000 0.49120  0.64952  0.97209  Biso   1.000  C
  C419     1.0000 0.47138  0.64149  0.06830  Biso   1.000  C
  H533     1.0000 0.53250  0.61981  0.03061  Biso   1.000  H
  C420     1.0000 0.52862  0.64149  0.93170  Biso   1.000  C
  H534     1.0000 0.46750  0.61981  0.96939  Biso   1.000  H
  H535     1.0000 0.44959  0.61251  0.05940  Biso   1.000  H
  H536     1.0000 0.45039  0.67210  0.07199  Biso   1.000  H
  H537     1.0000 0.48891  0.63449  0.10029  Biso   1.000  H
  H538     1.0000 0.55041  0.61251  0.94060  Biso   1.000  H
  H539     1.0000 0.54961  0.67210  0.92801  Biso   1.000  H
  H540     1.0000 0.51109  0.63449  0.89971  Biso   1.000  H
  C421     1.0000 0.35851  0.06830  0.52862  Biso   1.000  C
  C422     1.0000 0.35048  0.02791  0.49120  Biso   1.000  C
  H541     1.0000 0.38749  0.05940  0.55041  Biso   1.000  H
  H542     1.0000 0.32790  0.07199  0.54961  Biso   1.000  H
  H543     1.0000 0.36551  0.10029  0.51109  Biso   1.000  H
  C423     1.0000 0.30371  0.03579  0.45731  Biso   1.000  C
  H544     1.0000 0.38019  0.03061  0.46750  Biso   1.000  H
  C424     1.0000 0.35048  0.97209  0.50880  Biso   1.000  C
  C425     1.0000 0.25499  0.02658  0.48850  Biso   1.000  C
  H545     1.0000 0.30481  0.01179  0.42829  Biso   1.000  H
  H546     1.0000 0.30359  0.07081  0.44358  Biso   1.000  H
  C426     1.0000 0.30371  0.96421  0.54269  Biso   1.000  C
  C427     1.0000 0.35851  0.93170  0.47138  Biso   1.000  C
  H547     1.0000 0.38019  0.96939  0.53250  Biso   1.000  H
  N61      1.0000 0.21149  0.03369  0.45628  Biso   1.000  N
  H548     1.0000 0.25358  0.05210  0.51671  Biso   1.000  H
  C428     1.0000 0.25499  0.97342  0.51150  Biso   1.000  C
  H549     1.0000 0.30481  0.98821  0.57171  Biso   1.000  H
  H550     1.0000 0.30359  0.92919  0.55642  Biso   1.000  H
  H551     1.0000 0.38749  0.94060  0.44959  Biso   1.000  H
  H552     1.0000 0.32790  0.92801  0.45039  Biso   1.000  H
  H553     1.0000 0.36551  0.89971  0.48891  Biso   1.000  H
  C429     1.0000 0.17840  0.06750  0.46811  Biso   1.000  C
  H554     1.0000 0.25358  0.94790  0.48329  Biso   1.000  H
  N62      1.0000 0.21149  0.96631  0.54372  Biso   1.000  N
  C430     1.0000 0.13311  0.07880  0.43792  Biso   1.000  C
  H555     1.0000 0.18369  0.08652  0.49838  Biso   1.000  H
  C431     1.0000 0.17840  0.93250  0.53189  Biso   1.000  C
  C432     1.0000 0.12052  0.04921  0.39620  Biso   1.000  C
  C433     1.0000 0.10378  0.12052  0.45081  Biso   1.000  C
  C434     1.0000 0.13311  0.92120  0.56208  Biso   1.000  C
  H556     1.0000 0.18369  0.91348  0.50162  Biso   1.000  H
  H557     1.0000 0.14041  0.02019  0.38772  Biso   1.000  H
  C435     1.0000 0.07880  0.06210  0.36691  Biso   1.000  C
  H558     1.0000 0.11230  0.14041  0.47979  Biso   1.000  H
  C436     1.0000 0.06210  0.13311  0.42118  Biso   1.000  C
  C437     1.0000 0.12052  0.95079  0.60380  Biso   1.000  C
  C438     1.0000 0.10378  0.87948  0.54919  Biso   1.000  C
  C439     1.0000 0.04921  0.10378  0.37950  Biso   1.000  C
  C440     1.0000 0.06750  0.03191  0.32158  Biso   1.000  C
  C441     1.0000 0.03191  0.17840  0.43252  Biso   1.000  C
  H559     1.0000 0.14041  0.97981  0.61228  Biso   1.000  H
  C442     1.0000 0.07880  0.93790  0.63309  Biso   1.000  C
  H560     1.0000 0.11230  0.85959  0.52021  Biso   1.000  H
  C443     1.0000 0.06210  0.86689  0.57882  Biso   1.000  C
  H561     1.0000 0.02019  0.11230  0.35961  Biso   1.000  H
  H562     1.0000 0.08652  0.00160  0.31630  Biso   1.000  H
  N63      1.0000 0.03369  0.04370  0.28850  Biso   1.000  N
  H563     1.0000 0.00160  0.18369  0.41350  Biso   1.000  H
  N64      1.0000 0.04370  0.21149  0.46629  Biso   1.000  N
  C444     1.0000 0.04921  0.89622  0.62050  Biso   1.000  C
  C445     1.0000 0.06750  0.96809  0.67842  Biso   1.000  C
  C446     1.0000 0.03191  0.82160  0.56748  Biso   1.000  C
  C447     1.0000 0.02658  0.01149  0.24499  Biso   1.000  C
  C448     1.0000 0.01149  0.25499  0.47340  Biso   1.000  C
  H564     1.0000 0.02019  0.88770  0.64039  Biso   1.000  H
  H565     1.0000 0.08652  0.99840  0.68370  Biso   1.000  H
  N65      1.0000 0.03369  0.95630  0.71150  Biso   1.000  N
  H566     1.0000 0.00160  0.81631  0.58650  Biso   1.000  H
  N66      1.0000 0.04370  0.78851  0.53371  Biso   1.000  N
  C449     1.0000 0.03579  0.04271  0.19631  Biso   1.000  C
  C450     1.0000 0.97342  0.98851  0.24499  Biso   1.000  C
  H567     1.0000 0.05210  0.98330  0.24640  Biso   1.000  H
  C451     1.0000 0.04271  0.30371  0.46419  Biso   1.000  C
  C452     1.0000 0.98851  0.25499  0.52660  Biso   1.000  C
  H568     1.0000 0.98330  0.25358  0.44792  Biso   1.000  H
  C453     1.0000 0.02658  0.98851  0.75501  Biso   1.000  C
  C454     1.0000 0.01149  0.74501  0.52660  Biso   1.000  C
  H569     1.0000 0.01179  0.07169  0.19521  Biso   1.000  H
  H570     1.0000 0.07081  0.05640  0.19639  Biso   1.000  H
  C455     1.0000 0.02791  0.00878  0.14950  Biso   1.000  C
  C456     1.0000 0.96421  0.95729  0.19631  Biso   1.000  C
  N67      1.0000 0.96631  0.95630  0.28850  Biso   1.000  N
  H571     1.0000 0.94790  0.01670  0.24640  Biso   1.000  H
  H572     1.0000 0.07169  0.30481  0.48819  Biso   1.000  H
  H573     1.0000 0.05640  0.30359  0.42921  Biso   1.000  H
  C457     1.0000 0.00878  0.35048  0.47210  Biso   1.000  C
  H574     1.0000 0.01670  0.25358  0.55208  Biso   1.000  H
  C458     1.0000 0.95729  0.30371  0.53581  Biso   1.000  C
  N68      1.0000 0.95630  0.21149  0.53371  Biso   1.000  N
  H575     1.0000 0.05210  0.01670  0.75360  Biso   1.000  H
  C459     1.0000 0.97342  0.01149  0.75501  Biso   1.000  C
  C460     1.0000 0.03579  0.95729  0.80369  Biso   1.000  C
  C461     1.0000 0.98851  0.74501  0.47340  Biso   1.000  C
  H576     1.0000 0.98330  0.74642  0.55208  Biso   1.000  H
  C462     1.0000 0.04271  0.69629  0.53581  Biso   1.000  C
  H577     1.0000 0.03061  0.03252  0.11979  Biso   1.000  H
  C463     1.0000 0.97209  0.99122  0.14950  Biso   1.000  C
  C464     1.0000 0.06830  0.97140  0.14151  Biso   1.000  C
  H578     1.0000 0.98821  0.92831  0.19521  Biso   1.000  H
  H579     1.0000 0.92919  0.94360  0.19639  Biso   1.000  H
  C465     1.0000 0.93250  0.96809  0.32158  Biso   1.000  C
  H580     1.0000 0.03252  0.38019  0.46940  Biso   1.000  H
  C466     1.0000 0.97140  0.35851  0.43172  Biso   1.000  C
  C467     1.0000 0.99122  0.35048  0.52790  Biso   1.000  C
  H581     1.0000 0.92831  0.30481  0.51181  Biso   1.000  H
  H582     1.0000 0.94360  0.30359  0.57079  Biso   1.000  H
  C468     1.0000 0.96809  0.17840  0.56748  Biso   1.000  C
  N69      1.0000 0.96631  0.04370  0.71150  Biso   1.000  N
  H583     1.0000 0.94790  0.98330  0.75360  Biso   1.000  H
  C469     1.0000 0.96421  0.04271  0.80369  Biso   1.000  C
  H584     1.0000 0.01179  0.92831  0.80479  Biso   1.000  H
  H585     1.0000 0.07081  0.94360  0.80361  Biso   1.000  H
  C470     1.0000 0.02791  0.99122  0.85050  Biso   1.000  C
  N70      1.0000 0.95630  0.78851  0.46629  Biso   1.000  N
  C471     1.0000 0.95729  0.69629  0.46419  Biso   1.000  C
  H586     1.0000 0.01670  0.74642  0.44792  Biso   1.000  H
  H587     1.0000 0.07169  0.69519  0.51181  Biso   1.000  H
  H588     1.0000 0.05640  0.69641  0.57079  Biso   1.000  H
  C472     1.0000 0.00878  0.64952  0.52790  Biso   1.000  C
  H589     1.0000 0.96939  0.96748  0.11979  Biso   1.000  H
  C473     1.0000 0.93170  0.02860  0.14151  Biso   1.000  C
  H590     1.0000 0.05940  0.94961  0.11249  Biso   1.000  H
  H591     1.0000 0.07199  0.95041  0.17209  Biso   1.000  H
  H592     1.0000 0.10029  0.98890  0.13451  Biso   1.000  H
  C474     1.0000 0.92120  0.93790  0.36691  Biso   1.000  C
  H593     1.0000 0.91348  0.99840  0.31630  Biso   1.000  H
  H594     1.0000 0.94961  0.38749  0.44062  Biso   1.000  H
  H595     1.0000 0.95041  0.32790  0.42799  Biso   1.000  H
  H596     1.0000 0.98890  0.36551  0.39970  Biso   1.000  H
  C475     1.0000 0.02860  0.35851  0.56828  Biso   1.000  C
  H597     1.0000 0.96748  0.38019  0.53060  Biso   1.000  H
  C476     1.0000 0.93790  0.13311  0.57882  Biso   1.000  C
  H598     1.0000 0.99840  0.18369  0.58650  Biso   1.000  H
  C477     1.0000 0.93250  0.03191  0.67842  Biso   1.000  C
  H599     1.0000 0.98821  0.07169  0.80479  Biso   1.000  H
  H600     1.0000 0.92919  0.05640  0.80361  Biso   1.000  H
  C478     1.0000 0.97209  0.00878  0.85050  Biso   1.000  C
  C479     1.0000 0.06830  0.02860  0.85849  Biso   1.000  C
  H601     1.0000 0.03061  0.96748  0.88021  Biso   1.000  H
  C480     1.0000 0.96809  0.82160  0.43252  Biso   1.000  C
  H602     1.0000 0.92831  0.69519  0.48819  Biso   1.000  H
  H603     1.0000 0.94360  0.69641  0.42921  Biso   1.000  H
  C481     1.0000 0.99122  0.64952  0.47210  Biso   1.000  C
  C482     1.0000 0.97140  0.64149  0.56828  Biso   1.000  C
  H604     1.0000 0.03252  0.61981  0.53060  Biso   1.000  H
  H605     1.0000 0.94060  0.05039  0.11249  Biso   1.000  H
  H606     1.0000 0.92801  0.04959  0.17209  Biso   1.000  H
  H607     1.0000 0.89971  0.01110  0.13451  Biso   1.000  H
  C483     1.0000 0.95079  0.89622  0.37950  Biso   1.000  C
  C484     1.0000 0.87948  0.95079  0.39620  Biso   1.000  C
  H608     1.0000 0.05039  0.38749  0.55938  Biso   1.000  H
  H609     1.0000 0.04959  0.32790  0.57201  Biso   1.000  H
  H610     1.0000 0.01110  0.36551  0.60030  Biso   1.000  H
  C485     1.0000 0.95079  0.10378  0.62050  Biso   1.000  C
  C486     1.0000 0.89622  0.12052  0.54919  Biso   1.000  C
  C487     1.0000 0.92120  0.06210  0.63309  Biso   1.000  C
  H611     1.0000 0.91348  0.00160  0.68370  Biso   1.000  H
  C488     1.0000 0.93170  0.97140  0.85849  Biso   1.000  C
  H612     1.0000 0.96939  0.03252  0.88021  Biso   1.000  H
  H613     1.0000 0.05940  0.05039  0.88751  Biso   1.000  H
  H614     1.0000 0.07199  0.04959  0.82791  Biso   1.000  H
  H615     1.0000 0.10029  0.01110  0.86549  Biso   1.000  H
  C489     1.0000 0.93790  0.86689  0.42118  Biso   1.000  C
  H616     1.0000 0.99840  0.81631  0.41350  Biso   1.000  H
  H617     1.0000 0.96748  0.61981  0.46940  Biso   1.000  H
  C490     1.0000 0.02860  0.64149  0.43172  Biso   1.000  C
  H618     1.0000 0.94961  0.61251  0.55938  Biso   1.000  H
  H619     1.0000 0.95041  0.67210  0.57201  Biso   1.000  H
  H620     1.0000 0.98890  0.63449  0.60030  Biso   1.000  H
  H621     1.0000 0.97981  0.88770  0.35961  Biso   1.000  H
  H622     1.0000 0.85959  0.97981  0.38772  Biso   1.000  H
  C491     1.0000 0.86689  0.92120  0.43792  Biso   1.000  C
  H623     1.0000 0.97981  0.11230  0.64039  Biso   1.000  H
  H624     1.0000 0.88770  0.14041  0.52021  Biso   1.000  H
  C492     1.0000 0.86689  0.07880  0.56208  Biso   1.000  C
  C493     1.0000 0.87948  0.04921  0.60380  Biso   1.000  C
  H625     1.0000 0.94060  0.94961  0.88751  Biso   1.000  H
  H626     1.0000 0.92801  0.95041  0.82791  Biso   1.000  H
  H627     1.0000 0.89971  0.98890  0.86549  Biso   1.000  H
  C494     1.0000 0.89622  0.87948  0.45081  Biso   1.000  C
  H628     1.0000 0.05039  0.61251  0.44062  Biso   1.000  H
  H629     1.0000 0.04959  0.67210  0.42799  Biso   1.000  H
  H630     1.0000 0.01110  0.63449  0.39970  Biso   1.000  H
  C495     1.0000 0.82160  0.93250  0.46811  Biso   1.000  C
  C496     1.0000 0.82160  0.06750  0.53189  Biso   1.000  C
  H631     1.0000 0.85959  0.02019  0.61228  Biso   1.000  H
  H632     1.0000 0.88770  0.85959  0.47979  Biso   1.000  H
  H633     1.0000 0.81631  0.91348  0.49838  Biso   1.000  H
  N71      1.0000 0.78851  0.96631  0.45628  Biso   1.000  N
  H634     1.0000 0.81631  0.08652  0.50162  Biso   1.000  H
  N72      1.0000 0.78851  0.03369  0.54372  Biso   1.000  N
  C497     1.0000 0.74501  0.97342  0.48850  Biso   1.000  C
  C498     1.0000 0.74501  0.02658  0.51150  Biso   1.000  C
  H635     1.0000 0.74642  0.94790  0.51671  Biso   1.000  H
  C499     1.0000 0.69629  0.96421  0.45731  Biso   1.000  C
  H636     1.0000 0.74642  0.05210  0.48329  Biso   1.000  H
  C500     1.0000 0.69629  0.03579  0.54269  Biso   1.000  C
  H637     1.0000 0.69519  0.98821  0.42829  Biso   1.000  H
  H638     1.0000 0.69641  0.92919  0.44358  Biso   1.000  H
  C501     1.0000 0.64952  0.97209  0.49120  Biso   1.000  C
  H639     1.0000 0.69519  0.01179  0.57171  Biso   1.000  H
  H640     1.0000 0.69641  0.07081  0.55642  Biso   1.000  H
  C502     1.0000 0.64952  0.02791  0.50880  Biso   1.000  C
  C503     1.0000 0.64149  0.93170  0.52862  Biso   1.000  C
  H641     1.0000 0.61981  0.96939  0.46750  Biso   1.000  H
  C504     1.0000 0.64149  0.06830  0.47138  Biso   1.000  C
  H642     1.0000 0.61981  0.03061  0.53250  Biso   1.000  H
  H643     1.0000 0.61251  0.94060  0.55041  Biso   1.000  H
  H644     1.0000 0.67210  0.92801  0.54961  Biso   1.000  H
  H645     1.0000 0.63449  0.89971  0.51109  Biso   1.000  H
  H646     1.0000 0.61251  0.05940  0.44959  Biso   1.000  H
  H647     1.0000 0.67210  0.07199  0.45039  Biso   1.000  H
  H648     1.0000 0.63449  0.10029  0.48891  Biso   1.000  H
  C505     1.0000 0.06830  0.52862  0.35851  Biso   1.000  C
  C506     1.0000 0.02791  0.49120  0.35048  Biso   1.000  C
  H649     1.0000 0.05940  0.55041  0.38749  Biso   1.000  H
  H650     1.0000 0.07199  0.54961  0.32790  Biso   1.000  H
  H651     1.0000 0.10029  0.51109  0.36551  Biso   1.000  H
  C507     1.0000 0.03579  0.45731  0.30371  Biso   1.000  C
  H652     1.0000 0.03061  0.46750  0.38019  Biso   1.000  H
  C508     1.0000 0.97209  0.50880  0.35048  Biso   1.000  C
  C509     1.0000 0.02658  0.48850  0.25499  Biso   1.000  C
  H653     1.0000 0.01179  0.42829  0.30481  Biso   1.000  H
  H654     1.0000 0.07081  0.44358  0.30359  Biso   1.000  H
  C510     1.0000 0.96421  0.54269  0.30371  Biso   1.000  C
  C511     1.0000 0.93170  0.47138  0.35851  Biso   1.000  C
  H655     1.0000 0.96939  0.53250  0.38019  Biso   1.000  H
  N73      1.0000 0.03369  0.45628  0.21149  Biso   1.000  N
  H656     1.0000 0.05210  0.51671  0.25358  Biso   1.000  H
  C512     1.0000 0.97342  0.51150  0.25499  Biso   1.000  C
  H657     1.0000 0.98821  0.57171  0.30481  Biso   1.000  H
  H658     1.0000 0.92919  0.55642  0.30359  Biso   1.000  H
  H659     1.0000 0.94060  0.44959  0.38749  Biso   1.000  H
  H660     1.0000 0.92801  0.45039  0.32790  Biso   1.000  H
  H661     1.0000 0.89971  0.48891  0.36551  Biso   1.000  H
  C513     1.0000 0.06750  0.46811  0.17840  Biso   1.000  C
  H662     1.0000 0.94790  0.48329  0.25358  Biso   1.000  H
  N74      1.0000 0.96631  0.54372  0.21149  Biso   1.000  N
  C514     1.0000 0.07880  0.43792  0.13311  Biso   1.000  C
  H663     1.0000 0.08652  0.49838  0.18369  Biso   1.000  H
  C515     1.0000 0.93250  0.53189  0.17840  Biso   1.000  C
  C516     1.0000 0.12052  0.45081  0.10378  Biso   1.000  C
  C517     1.0000 0.04921  0.39620  0.12052  Biso   1.000  C
  C518     1.0000 0.92120  0.56208  0.13311  Biso   1.000  C
  H664     1.0000 0.91348  0.50162  0.18369  Biso   1.000  H
  C519     1.0000 0.13311  0.42118  0.06210  Biso   1.000  C
  H665     1.0000 0.14041  0.47979  0.11230  Biso   1.000  H
  C520     1.0000 0.06210  0.36691  0.07880  Biso   1.000  C
  H666     1.0000 0.02019  0.38772  0.14041  Biso   1.000  H
  C521     1.0000 0.95079  0.60380  0.12052  Biso   1.000  C
  C522     1.0000 0.87948  0.54919  0.10378  Biso   1.000  C
  C523     1.0000 0.10378  0.37950  0.04921  Biso   1.000  C
  C524     1.0000 0.17840  0.43252  0.03191  Biso   1.000  C
  C525     1.0000 0.03191  0.32158  0.06750  Biso   1.000  C
  H667     1.0000 0.97981  0.61228  0.14041  Biso   1.000  H
  C526     1.0000 0.93790  0.63309  0.07880  Biso   1.000  C
  H668     1.0000 0.85959  0.52021  0.11230  Biso   1.000  H
  C527     1.0000 0.86689  0.57882  0.06210  Biso   1.000  C
  H669     1.0000 0.11230  0.35961  0.02019  Biso   1.000  H
  H670     1.0000 0.18369  0.41350  0.00160  Biso   1.000  H
  N75      1.0000 0.21149  0.46629  0.04370  Biso   1.000  N
  H671     1.0000 0.00160  0.31630  0.08652  Biso   1.000  H
  N76      1.0000 0.04370  0.28850  0.03369  Biso   1.000  N
  C528     1.0000 0.89622  0.62050  0.04921  Biso   1.000  C
  C529     1.0000 0.96809  0.67842  0.06750  Biso   1.000  C
  C530     1.0000 0.82160  0.56748  0.03191  Biso   1.000  C
  C531     1.0000 0.25499  0.47340  0.01149  Biso   1.000  C
  C532     1.0000 0.01149  0.24499  0.02658  Biso   1.000  C
  H672     1.0000 0.88770  0.64039  0.02019  Biso   1.000  H
  H673     1.0000 0.99840  0.68370  0.08652  Biso   1.000  H
  N77      1.0000 0.95630  0.71150  0.03369  Biso   1.000  N
  H674     1.0000 0.81631  0.58650  0.00160  Biso   1.000  H
  N78      1.0000 0.78851  0.53371  0.04370  Biso   1.000  N
  C533     1.0000 0.30371  0.46419  0.04271  Biso   1.000  C
  C534     1.0000 0.25499  0.52660  0.98851  Biso   1.000  C
  H675     1.0000 0.25358  0.44792  0.98330  Biso   1.000  H
  C535     1.0000 0.04271  0.19631  0.03579  Biso   1.000  C
  C536     1.0000 0.98851  0.24499  0.97342  Biso   1.000  C
  H676     1.0000 0.98330  0.24640  0.05210  Biso   1.000  H
  C537     1.0000 0.98851  0.75501  0.02658  Biso   1.000  C
  C538     1.0000 0.74501  0.52660  0.01149  Biso   1.000  C
  H677     1.0000 0.30481  0.48819  0.07169  Biso   1.000  H
  H678     1.0000 0.30359  0.42921  0.05640  Biso   1.000  H
  C539     1.0000 0.35048  0.47210  0.00878  Biso   1.000  C
  H679     1.0000 0.25358  0.55208  0.01670  Biso   1.000  H
  C540     1.0000 0.30371  0.53581  0.95729  Biso   1.000  C
  N79      1.0000 0.21149  0.53371  0.95630  Biso   1.000  N
  H680     1.0000 0.07169  0.19521  0.01179  Biso   1.000  H
  H681     1.0000 0.05640  0.19639  0.07081  Biso   1.000  H
  C541     1.0000 0.00878  0.14950  0.02791  Biso   1.000  C
  C542     1.0000 0.95729  0.19631  0.96421  Biso   1.000  C
  N80      1.0000 0.95630  0.28850  0.96631  Biso   1.000  N
  H682     1.0000 0.01670  0.24640  0.94790  Biso   1.000  H
  C543     1.0000 0.01149  0.75501  0.97342  Biso   1.000  C
  H683     1.0000 0.01670  0.75360  0.05210  Biso   1.000  H
  C544     1.0000 0.95729  0.80369  0.03579  Biso   1.000  C
  C545     1.0000 0.74501  0.47340  0.98851  Biso   1.000  C
  H684     1.0000 0.74642  0.55208  0.98330  Biso   1.000  H
  C546     1.0000 0.69629  0.53581  0.04271  Biso   1.000  C
  H685     1.0000 0.38019  0.46940  0.03252  Biso   1.000  H
  C547     1.0000 0.35851  0.43172  0.97140  Biso   1.000  C
  C548     1.0000 0.35048  0.52790  0.99122  Biso   1.000  C
  H686     1.0000 0.30481  0.51181  0.92831  Biso   1.000  H
  H687     1.0000 0.30359  0.57079  0.94360  Biso   1.000  H
  C549     1.0000 0.17840  0.56748  0.96809  Biso   1.000  C
  H688     1.0000 0.03252  0.11979  0.03061  Biso   1.000  H
  C550     1.0000 0.99122  0.14950  0.97209  Biso   1.000  C
  C551     1.0000 0.97140  0.14151  0.06830  Biso   1.000  C
  H689     1.0000 0.92831  0.19521  0.98821  Biso   1.000  H
  H690     1.0000 0.94360  0.19639  0.92919  Biso   1.000  H
  C552     1.0000 0.96809  0.32158  0.93250  Biso   1.000  C
  N81      1.0000 0.04370  0.71150  0.96631  Biso   1.000  N
  H691     1.0000 0.98330  0.75360  0.94790  Biso   1.000  H
  C553     1.0000 0.04271  0.80369  0.96421  Biso   1.000  C
  H692     1.0000 0.92831  0.80479  0.01179  Biso   1.000  H
  H693     1.0000 0.94360  0.80361  0.07081  Biso   1.000  H
  C554     1.0000 0.99122  0.85050  0.02791  Biso   1.000  C
  N82      1.0000 0.78851  0.46629  0.95630  Biso   1.000  N
  C555     1.0000 0.69629  0.46419  0.95729  Biso   1.000  C
  H694     1.0000 0.74642  0.44792  0.01670  Biso   1.000  H
  H695     1.0000 0.69519  0.51181  0.07169  Biso   1.000  H
  H696     1.0000 0.69641  0.57079  0.05640  Biso   1.000  H
  C556     1.0000 0.64952  0.52790  0.00878  Biso   1.000  C
  H697     1.0000 0.38749  0.44062  0.94961  Biso   1.000  H
  H698     1.0000 0.32790  0.42799  0.95041  Biso   1.000  H
  H699     1.0000 0.36551  0.39970  0.98890  Biso   1.000  H
  C557     1.0000 0.35851  0.56828  0.02860  Biso   1.000  C
  H700     1.0000 0.38019  0.53060  0.96748  Biso   1.000  H
  C558     1.0000 0.13311  0.57882  0.93790  Biso   1.000  C
  H701     1.0000 0.18369  0.58650  0.99840  Biso   1.000  H
  H702     1.0000 0.96748  0.11979  0.96939  Biso   1.000  H
  C559     1.0000 0.02860  0.14151  0.93170  Biso   1.000  C
  H703     1.0000 0.94961  0.11249  0.05940  Biso   1.000  H
  H704     1.0000 0.95041  0.17209  0.07199  Biso   1.000  H
  H705     1.0000 0.98890  0.13451  0.10029  Biso   1.000  H
  C560     1.0000 0.93790  0.36691  0.92120  Biso   1.000  C
  H706     1.0000 0.99840  0.31630  0.91348  Biso   1.000  H
  C561     1.0000 0.03191  0.67842  0.93250  Biso   1.000  C
  H707     1.0000 0.07169  0.80479  0.98821  Biso   1.000  H
  H708     1.0000 0.05640  0.80361  0.92919  Biso   1.000  H
  C562     1.0000 0.00878  0.85050  0.97209  Biso   1.000  C
  C563     1.0000 0.02860  0.85849  0.06830  Biso   1.000  C
  H709     1.0000 0.96748  0.88021  0.03061  Biso   1.000  H
  C564     1.0000 0.82160  0.43252  0.96809  Biso   1.000  C
  H710     1.0000 0.69519  0.48819  0.92831  Biso   1.000  H
  H711     1.0000 0.69641  0.42921  0.94360  Biso   1.000  H
  C565     1.0000 0.64952  0.47210  0.99122  Biso   1.000  C
  C566     1.0000 0.64149  0.56828  0.97140  Biso   1.000  C
  H712     1.0000 0.61981  0.53060  0.03252  Biso   1.000  H
  H713     1.0000 0.38749  0.55938  0.05039  Biso   1.000  H
  H714     1.0000 0.32790  0.57201  0.04959  Biso   1.000  H
  H715     1.0000 0.36551  0.60030  0.01110  Biso   1.000  H
  C567     1.0000 0.12052  0.54919  0.89622  Biso   1.000  C
  C568     1.0000 0.10378  0.62050  0.95079  Biso   1.000  C
  H716     1.0000 0.05039  0.11249  0.94060  Biso   1.000  H
  H717     1.0000 0.04959  0.17209  0.92801  Biso   1.000  H
  H718     1.0000 0.01110  0.13451  0.89971  Biso   1.000  H
  C569     1.0000 0.95079  0.39620  0.87948  Biso   1.000  C
  C570     1.0000 0.89622  0.37950  0.95079  Biso   1.000  C
  C571     1.0000 0.06210  0.63309  0.92120  Biso   1.000  C
  H719     1.0000 0.00160  0.68370  0.91348  Biso   1.000  H
  C572     1.0000 0.97140  0.85849  0.93170  Biso   1.000  C
  H720     1.0000 0.03252  0.88021  0.96939  Biso   1.000  H
  H721     1.0000 0.05039  0.88751  0.05940  Biso   1.000  H
  H722     1.0000 0.04959  0.82791  0.07199  Biso   1.000  H
  H723     1.0000 0.01110  0.86549  0.10029  Biso   1.000  H
  C573     1.0000 0.86689  0.42118  0.93790  Biso   1.000  C
  H724     1.0000 0.81631  0.41350  0.99840  Biso   1.000  H
  H725     1.0000 0.61981  0.46940  0.96748  Biso   1.000  H
  C574     1.0000 0.64149  0.43172  0.02860  Biso   1.000  C
  H726     1.0000 0.61251  0.55938  0.94961  Biso   1.000  H
  H727     1.0000 0.67210  0.57201  0.95041  Biso   1.000  H
  H728     1.0000 0.63449  0.60030  0.98890  Biso   1.000  H
  H729     1.0000 0.14041  0.52021  0.88770  Biso   1.000  H
  C575     1.0000 0.07880  0.56208  0.86689  Biso   1.000  C
  H730     1.0000 0.11230  0.64039  0.97981  Biso   1.000  H
  H731     1.0000 0.97981  0.38772  0.85959  Biso   1.000  H
  C576     1.0000 0.92120  0.43792  0.86689  Biso   1.000  C
  H732     1.0000 0.88770  0.35961  0.97981  Biso   1.000  H
  C577     1.0000 0.04921  0.60380  0.87948  Biso   1.000  C
  H733     1.0000 0.94961  0.88751  0.94060  Biso   1.000  H
  H734     1.0000 0.95041  0.82791  0.92801  Biso   1.000  H
  H735     1.0000 0.98890  0.86549  0.89971  Biso   1.000  H
  C578     1.0000 0.87948  0.45081  0.89622  Biso   1.000  C
  H736     1.0000 0.61251  0.44062  0.05039  Biso   1.000  H
  H737     1.0000 0.67210  0.42799  0.04959  Biso   1.000  H
  H738     1.0000 0.63449  0.39970  0.01110  Biso   1.000  H
  C579     1.0000 0.06750  0.53189  0.82160  Biso   1.000  C
  C580     1.0000 0.93250  0.46811  0.82160  Biso   1.000  C
  H739     1.0000 0.02019  0.61228  0.85959  Biso   1.000  H
  H740     1.0000 0.85959  0.47979  0.88770  Biso   1.000  H
  H741     1.0000 0.08652  0.50162  0.81631  Biso   1.000  H
  N83      1.0000 0.03369  0.54372  0.78851  Biso   1.000  N
  H742     1.0000 0.91348  0.49838  0.81631  Biso   1.000  H
  N84      1.0000 0.96631  0.45628  0.78851  Biso   1.000  N
  C581     1.0000 0.02658  0.51150  0.74501  Biso   1.000  C
  C582     1.0000 0.97342  0.48850  0.74501  Biso   1.000  C
  H743     1.0000 0.05210  0.48329  0.74642  Biso   1.000  H
  C583     1.0000 0.03579  0.54269  0.69629  Biso   1.000  C
  H744     1.0000 0.94790  0.51671  0.74642  Biso   1.000  H
  C584     1.0000 0.96421  0.45731  0.69629  Biso   1.000  C
  H745     1.0000 0.01179  0.57171  0.69519  Biso   1.000  H
  H746     1.0000 0.07081  0.55642  0.69641  Biso   1.000  H
  C585     1.0000 0.02791  0.50880  0.64952  Biso   1.000  C
  H747     1.0000 0.98821  0.42829  0.69519  Biso   1.000  H
  H748     1.0000 0.92919  0.44358  0.69641  Biso   1.000  H
  C586     1.0000 0.97209  0.49120  0.64952  Biso   1.000  C
  C587     1.0000 0.06830  0.47138  0.64149  Biso   1.000  C
  H749     1.0000 0.03061  0.53250  0.61981  Biso   1.000  H
  C588     1.0000 0.93170  0.52862  0.64149  Biso   1.000  C
  H750     1.0000 0.96939  0.46750  0.61981  Biso   1.000  H
  H751     1.0000 0.05940  0.44959  0.61251  Biso   1.000  H
  H752     1.0000 0.07199  0.45039  0.67210  Biso   1.000  H
  H753     1.0000 0.10029  0.48891  0.63449  Biso   1.000  H
  H754     1.0000 0.94060  0.55041  0.61251  Biso   1.000  H
  H755     1.0000 0.92801  0.54961  0.67210  Biso   1.000  H
  H756     1.0000 0.89971  0.51109  0.63449  Biso   1.000  H
  C589     1.0000 0.72139  0.68169  0.39148  Biso   1.000  C
  H757     1.0000 0.69960  0.69059  0.36250  Biso   1.000  H
  H758     1.0000 0.70040  0.67800  0.42210  Biso   1.000  H
  H759     1.0000 0.73889  0.64971  0.38448  Biso   1.000  H
  C590     1.0000 0.75881  0.72211  0.39951  Biso   1.000  C
  C591     1.0000 0.79270  0.71420  0.44628  Biso   1.000  C
  C592     1.0000 0.74121  0.77790  0.39951  Biso   1.000  C
  H760     1.0000 0.78251  0.71941  0.36980  Biso   1.000  H
  C593     1.0000 0.76151  0.72341  0.49500  Biso   1.000  C
  H761     1.0000 0.82172  0.73820  0.44522  Biso   1.000  H
  H762     1.0000 0.80639  0.67922  0.44640  Biso   1.000  H
  C594     1.0000 0.70728  0.78581  0.44628  Biso   1.000  C
  C595     1.0000 0.77859  0.81829  0.39148  Biso   1.000  C
  H763     1.0000 0.71751  0.78060  0.36980  Biso   1.000  H
  C596     1.0000 0.73851  0.77661  0.49500  Biso   1.000  C
  H764     1.0000 0.73330  0.69789  0.49641  Biso   1.000  H
  N85      1.0000 0.79369  0.71630  0.53851  Biso   1.000  N
  H765     1.0000 0.67830  0.76182  0.44522  Biso   1.000  H
  H766     1.0000 0.69359  0.82080  0.44640  Biso   1.000  H
  H767     1.0000 0.80042  0.80939  0.36250  Biso   1.000  H
  H768     1.0000 0.79958  0.82198  0.42210  Biso   1.000  H
  H769     1.0000 0.76110  0.85031  0.38448  Biso   1.000  H
  H770     1.0000 0.76669  0.80209  0.49641  Biso   1.000  H
  N86      1.0000 0.70629  0.78369  0.53851  Biso   1.000  N
  C597     1.0000 0.78190  0.68249  0.57159  Biso   1.000  C
  C598     1.0000 0.71808  0.81749  0.57159  Biso   1.000  C
  C599     1.0000 0.81209  0.67119  0.61689  Biso   1.000  C
  H771     1.0000 0.75159  0.66351  0.56631  Biso   1.000  H
  C600     1.0000 0.68789  0.82879  0.61689  Biso   1.000  C
  H772     1.0000 0.74839  0.83651  0.56631  Biso   1.000  H
  C601     1.0000 0.85381  0.70082  0.62951  Biso   1.000  C
  C602     1.0000 0.79920  0.62951  0.64621  Biso   1.000  C
  C603     1.0000 0.64621  0.79920  0.62951  Biso   1.000  C
  C604     1.0000 0.70082  0.87051  0.64621  Biso   1.000  C
  H773     1.0000 0.86229  0.72980  0.60958  Biso   1.000  H
  C605     1.0000 0.88310  0.68789  0.67119  Biso   1.000  C
  H774     1.0000 0.77018  0.60958  0.63769  Biso   1.000  H
  C606     1.0000 0.82879  0.61689  0.68789  Biso   1.000  C
  H775     1.0000 0.63769  0.77018  0.60958  Biso   1.000  H
  C607     1.0000 0.61689  0.81209  0.67119  Biso   1.000  C
  H776     1.0000 0.72980  0.89040  0.63769  Biso   1.000  H
  C608     1.0000 0.67119  0.88310  0.68789  Biso   1.000  C
  C609     1.0000 0.87051  0.64621  0.70082  Biso   1.000  C
  C610     1.0000 0.92839  0.71808  0.68249  Biso   1.000  C
  C611     1.0000 0.81749  0.57159  0.71808  Biso   1.000  C
  C612     1.0000 0.62951  0.85381  0.70082  Biso   1.000  C
  C613     1.0000 0.57159  0.78190  0.68249  Biso   1.000  C
  C614     1.0000 0.68249  0.92839  0.71808  Biso   1.000  C
  H777     1.0000 0.89040  0.63769  0.72980  Biso   1.000  H
  H778     1.0000 0.93371  0.74839  0.66351  Biso   1.000  H
  N87      1.0000 0.96151  0.70629  0.71630  Biso   1.000  N
  H779     1.0000 0.83651  0.56631  0.74839  Biso   1.000  H
  N88      1.0000 0.78369  0.53851  0.70629  Biso   1.000  N
  H780     1.0000 0.60958  0.86229  0.72980  Biso   1.000  H
  H781     1.0000 0.56631  0.75159  0.66351  Biso   1.000  H
  N89      1.0000 0.53851  0.79369  0.71630  Biso   1.000  N
  H782     1.0000 0.66351  0.93371  0.74839  Biso   1.000  H
  N90      1.0000 0.71630  0.96151  0.70629  Biso   1.000  N
  C615     1.0000 0.00498  0.73851  0.72341  Biso   1.000  C
  C616     1.0000 0.77661  0.49500  0.73851  Biso   1.000  C
  C617     1.0000 0.49500  0.76151  0.72341  Biso   1.000  C
  C618     1.0000 0.72341  0.00498  0.73851  Biso   1.000  C
  C619     1.0000 0.00498  0.76151  0.77661  Biso   1.000  C
  H783     1.0000 0.00361  0.76669  0.69789  Biso   1.000  H
  C620     1.0000 0.05370  0.70728  0.71420  Biso   1.000  C
  C621     1.0000 0.72341  0.49500  0.76151  Biso   1.000  C
  H784     1.0000 0.80209  0.49641  0.76669  Biso   1.000  H
  C622     1.0000 0.78581  0.44628  0.70728  Biso   1.000  C
  C623     1.0000 0.49500  0.73851  0.77661  Biso   1.000  C
  H785     1.0000 0.49641  0.73330  0.69789  Biso   1.000  H
  C624     1.0000 0.44628  0.79270  0.71420  Biso   1.000  C
  C625     1.0000 0.77661  0.00498  0.76151  Biso   1.000  C
  H786     1.0000 0.69789  0.00361  0.76669  Biso   1.000  H
  C626     1.0000 0.71420  0.05370  0.70728  Biso   1.000  C
  N91      1.0000 0.96151  0.79369  0.78369  Biso   1.000  N
  H787     1.0000 0.00361  0.73330  0.80209  Biso   1.000  H
  C627     1.0000 0.05370  0.79270  0.78581  Biso   1.000  C
  H788     1.0000 0.05480  0.67830  0.73820  Biso   1.000  H
  H789     1.0000 0.05358  0.69359  0.67922  Biso   1.000  H
  C628     1.0000 0.10051  0.74121  0.72211  Biso   1.000  C
  H790     1.0000 0.69789  0.49641  0.73330  Biso   1.000  H
  C629     1.0000 0.71420  0.44628  0.79270  Biso   1.000  C
  N92      1.0000 0.71630  0.53851  0.79369  Biso   1.000  N
  H791     1.0000 0.76182  0.44522  0.67830  Biso   1.000  H
  H792     1.0000 0.82080  0.44640  0.69359  Biso   1.000  H
  C630     1.0000 0.77790  0.39951  0.74121  Biso   1.000  C
  H793     1.0000 0.49641  0.76669  0.80209  Biso   1.000  H
  C631     1.0000 0.44628  0.70728  0.78581  Biso   1.000  C
  N93      1.0000 0.53851  0.70629  0.78369  Biso   1.000  N
  H794     1.0000 0.44522  0.82172  0.73820  Biso   1.000  H
  H795     1.0000 0.44640  0.80639  0.67922  Biso   1.000  H
  C632     1.0000 0.39951  0.75881  0.72211  Biso   1.000  C
  N94      1.0000 0.78369  0.96151  0.79369  Biso   1.000  N
  H796     1.0000 0.80209  0.00361  0.73330  Biso   1.000  H
  C633     1.0000 0.78581  0.05370  0.79270  Biso   1.000  C
  H797     1.0000 0.73820  0.05480  0.67830  Biso   1.000  H
  H798     1.0000 0.67922  0.05358  0.69359  Biso   1.000  H
  C634     1.0000 0.72211  0.10051  0.74121  Biso   1.000  C
  C635     1.0000 0.92839  0.78190  0.81749  Biso   1.000  C
  H799     1.0000 0.05480  0.82172  0.76182  Biso   1.000  H
  H800     1.0000 0.05358  0.80639  0.82080  Biso   1.000  H
  C636     1.0000 0.10051  0.75881  0.77790  Biso   1.000  C
  C637     1.0000 0.10850  0.77859  0.68169  Biso   1.000  C
  H801     1.0000 0.13021  0.71751  0.71941  Biso   1.000  H
  H802     1.0000 0.73820  0.44522  0.82172  Biso   1.000  H
  H803     1.0000 0.67922  0.44640  0.80639  Biso   1.000  H
  C638     1.0000 0.72211  0.39951  0.75881  Biso   1.000  C
  C639     1.0000 0.68249  0.57159  0.78190  Biso   1.000  C
  C640     1.0000 0.81829  0.39148  0.77859  Biso   1.000  C
  H804     1.0000 0.78060  0.36980  0.71751  Biso   1.000  H
  H805     1.0000 0.44522  0.67830  0.76182  Biso   1.000  H
  H806     1.0000 0.44640  0.69359  0.82080  Biso   1.000  H
  C641     1.0000 0.39951  0.74121  0.77790  Biso   1.000  C
  C642     1.0000 0.57159  0.71808  0.81749  Biso   1.000  C
  C643     1.0000 0.39148  0.72139  0.68169  Biso   1.000  C
  H807     1.0000 0.36980  0.78251  0.71941  Biso   1.000  H
  C644     1.0000 0.81749  0.92839  0.78190  Biso   1.000  C
  H808     1.0000 0.76182  0.05480  0.82172  Biso   1.000  H
  H809     1.0000 0.82080  0.05358  0.80639  Biso   1.000  H
  C645     1.0000 0.77790  0.10051  0.75881  Biso   1.000  C
  C646     1.0000 0.68169  0.10850  0.77859  Biso   1.000  C
  H810     1.0000 0.71941  0.13021  0.71751  Biso   1.000  H
  C647     1.0000 0.88310  0.81209  0.82879  Biso   1.000  C
  H811     1.0000 0.93371  0.75159  0.83651  Biso   1.000  H
  C648     1.0000 0.10850  0.72139  0.81829  Biso   1.000  C
  H812     1.0000 0.13021  0.78251  0.78060  Biso   1.000  H
  H813     1.0000 0.13752  0.80042  0.69059  Biso   1.000  H
  H814     1.0000 0.07789  0.79958  0.67800  Biso   1.000  H
  H815     1.0000 0.11550  0.76110  0.64971  Biso   1.000  H
  C649     1.0000 0.68169  0.39148  0.72139  Biso   1.000  C
  H816     1.0000 0.71941  0.36980  0.78251  Biso   1.000  H
  C650     1.0000 0.67119  0.61689  0.81209  Biso   1.000  C
  H817     1.0000 0.66351  0.56631  0.75159  Biso   1.000  H
  H818     1.0000 0.80939  0.36250  0.80042  Biso   1.000  H
  H819     1.0000 0.82198  0.42210  0.79958  Biso   1.000  H
  H820     1.0000 0.85031  0.38448  0.76110  Biso   1.000  H
  C651     1.0000 0.39148  0.77859  0.81829  Biso   1.000  C
  H821     1.0000 0.36980  0.71751  0.78060  Biso   1.000  H
  C652     1.0000 0.61689  0.68789  0.82879  Biso   1.000  C
  H822     1.0000 0.56631  0.74839  0.83651  Biso   1.000  H
  H823     1.0000 0.36250  0.69960  0.69059  Biso   1.000  H
  H824     1.0000 0.42210  0.70040  0.67800  Biso   1.000  H
  H825     1.0000 0.38448  0.73889  0.64971  Biso   1.000  H
  C653     1.0000 0.82879  0.88310  0.81209  Biso   1.000  C
  H826     1.0000 0.83651  0.93371  0.75159  Biso   1.000  H
  C654     1.0000 0.81829  0.10850  0.72139  Biso   1.000  C
  H827     1.0000 0.78060  0.13021  0.78251  Biso   1.000  H
  H828     1.0000 0.69059  0.13752  0.80042  Biso   1.000  H
  H829     1.0000 0.67800  0.07789  0.79958  Biso   1.000  H
  H830     1.0000 0.64971  0.11550  0.76110  Biso   1.000  H
  C655     1.0000 0.85381  0.79920  0.87051  Biso   1.000  C
  C656     1.0000 0.87051  0.85381  0.79920  Biso   1.000  C
  H831     1.0000 0.13752  0.69960  0.80939  Biso   1.000  H
  H832     1.0000 0.07789  0.70040  0.82198  Biso   1.000  H
  H833     1.0000 0.11550  0.73889  0.85031  Biso   1.000  H
  H834     1.0000 0.69059  0.36250  0.69960  Biso   1.000  H
  H835     1.0000 0.67800  0.42210  0.70040  Biso   1.000  H
  H836     1.0000 0.64971  0.38448  0.73889  Biso   1.000  H
  C657     1.0000 0.70082  0.62951  0.85381  Biso   1.000  C
  C658     1.0000 0.62951  0.64621  0.79920  Biso   1.000  C
  H837     1.0000 0.36250  0.80042  0.80939  Biso   1.000  H
  H838     1.0000 0.42210  0.79958  0.82198  Biso   1.000  H
  H839     1.0000 0.38448  0.76110  0.85031  Biso   1.000  H
  C659     1.0000 0.64621  0.70082  0.87051  Biso   1.000  C
  C660     1.0000 0.79920  0.87051  0.85381  Biso   1.000  C
  H840     1.0000 0.80939  0.13752  0.69960  Biso   1.000  H
  H841     1.0000 0.82198  0.07789  0.70040  Biso   1.000  H
  H842     1.0000 0.85031  0.11550  0.73889  Biso   1.000  H
  H843     1.0000 0.86229  0.77018  0.89040  Biso   1.000  H
  C661     1.0000 0.81209  0.82879  0.88310  Biso   1.000  C
  H844     1.0000 0.89040  0.86229  0.77018  Biso   1.000  H
  H845     1.0000 0.72980  0.60958  0.86229  Biso   1.000  H
  C662     1.0000 0.68789  0.67119  0.88310  Biso   1.000  C
  H846     1.0000 0.60958  0.63769  0.77018  Biso   1.000  H
  H847     1.0000 0.63769  0.72980  0.89040  Biso   1.000  H
  H848     1.0000 0.77018  0.89040  0.86229  Biso   1.000  H
  C663     1.0000 0.78190  0.81749  0.92839  Biso   1.000  C
  C664     1.0000 0.71808  0.68249  0.92839  Biso   1.000  C
  H849     1.0000 0.75159  0.83651  0.93371  Biso   1.000  H
  N95      1.0000 0.79369  0.78369  0.96151  Biso   1.000  N
  H850     1.0000 0.74839  0.66351  0.93371  Biso   1.000  H
  N96      1.0000 0.70629  0.71630  0.96151  Biso   1.000  N
  C665     1.0000 0.76151  0.77661  0.00498  Biso   1.000  C
  C666     1.0000 0.73851  0.72341  0.00498  Biso   1.000  C
  H851     1.0000 0.73330  0.80209  0.00361  Biso   1.000  H
  C667     1.0000 0.79270  0.78581  0.05370  Biso   1.000  C
  H852     1.0000 0.76669  0.69789  0.00361  Biso   1.000  H
  C668     1.0000 0.70728  0.71420  0.05370  Biso   1.000  C
  H853     1.0000 0.82172  0.76182  0.05480  Biso   1.000  H
  H854     1.0000 0.80639  0.82080  0.05358  Biso   1.000  H
  C669     1.0000 0.75881  0.77790  0.10051  Biso   1.000  C
  H855     1.0000 0.67830  0.73820  0.05480  Biso   1.000  H
  H856     1.0000 0.69359  0.67922  0.05358  Biso   1.000  H
  C670     1.0000 0.74121  0.72211  0.10051  Biso   1.000  C
  C671     1.0000 0.72139  0.81829  0.10850  Biso   1.000  C
  H857     1.0000 0.78251  0.78060  0.13021  Biso   1.000  H
  C672     1.0000 0.77859  0.68169  0.10850  Biso   1.000  C
  H858     1.0000 0.71751  0.71941  0.13021  Biso   1.000  H
  H859     1.0000 0.69960  0.80939  0.13752  Biso   1.000  H
  H860     1.0000 0.70040  0.82198  0.07789  Biso   1.000  H
  H861     1.0000 0.73889  0.85031  0.11550  Biso   1.000  H
  H862     1.0000 0.80042  0.69059  0.13752  Biso   1.000  H
  H863     1.0000 0.79958  0.67800  0.07789  Biso   1.000  H
  H864     1.0000 0.76110  0.64971  0.11550  Biso   1.000  H
  Ne1      1.0000 0.50000  0.50000  0.50000  Biso   1.000  Ne
  He1      1.0000 0.56139  0.56138  0.56138  Biso   1.000  He
  He2      1.0000 0.43768  0.43768  0.56232  Biso   1.000  He
  He3      1.0000 0.55949  0.44051  0.44051  Biso   1.000  He
  He4      1.0000 0.43779  0.56221  0.43779  Biso   1.000  He
  Ar1      1.0000 0.50000  0.50000  0.50000  Biso   1.000  Ar
  Ne2      1.0000 0.75000  0.25000  0.25000  Biso   1.000  Ne
  He5      1.0000 0.68950  0.31049  0.31050  Biso   1.000  He
  He6      1.0000 0.81046  0.18954  0.31044  Biso   1.000  He
  He7      1.0000 0.68741  0.18740  0.18740  Biso   1.000  He
  He8      1.0000 0.81220  0.31219  0.18779  Biso   1.000  He
  Ar2      1.0000 0.75001  0.24999  0.24999  Biso   1.000  Ar
  Ne3      1.0000 0.25000  0.75000  0.25000  Biso   1.000  Ne
  He9      1.0000 0.18949  0.81051  0.31050  Biso   1.000  He
  He10     1.0000 0.31044  0.68956  0.31044  Biso   1.000  He
  He11     1.0000 0.18739  0.68742  0.18740  Biso   1.000  He
  He12     1.0000 0.31218  0.81221  0.18779  Biso   1.000  He
  Ar3      1.0000 0.24999  0.75001  0.24999  Biso   1.000  Ar
  Ne4      1.0000 0.25000  0.25000  0.75000  Biso   1.000  Ne
  He13     1.0000 0.18948  0.31049  0.81052  Biso   1.000  He
  He14     1.0000 0.31044  0.18954  0.81046  Biso   1.000  He
  He15     1.0000 0.18740  0.18740  0.68742  Biso   1.000  He
  He16     1.0000 0.31219  0.31219  0.68781  Biso   1.000  He
  Ar4      1.0000 0.24999  0.24999  0.75001  Biso   1.000  Ar
  Ne5      1.0000 0.50000  0.00000  0.00000  Biso   1.000  Ne
  He17     1.0000 0.56139  0.06139  0.06138  Biso   1.000  He
  He18     1.0000 0.43769  0.93769  0.06230  Biso   1.000  He
  He19     1.0000 0.55950  0.94050  0.94052  Biso   1.000  He
  He20     1.0000 0.43779  0.06221  0.93780  Biso   1.000  He
  Ar5      1.0000 0.50000  0.00000  0.00000  Biso   1.000  Ar
  Ne6      1.0000 0.00000  0.00000  0.50000  Biso   1.000  Ne
  He21     1.0000 0.06139  0.06138  0.56139  Biso   1.000  He
  He22     1.0000 0.93768  0.93769  0.56233  Biso   1.000  He
  He23     1.0000 0.05949  0.94052  0.44050  Biso   1.000  He
  He24     1.0000 0.93780  0.06219  0.43780  Biso   1.000  He
  Ar6      1.0000 0.00000  0.00000  0.50000  Biso   1.000  Ar
  Ne7      1.0000 0.00000  0.50000  0.00000  Biso   1.000  Ne
  He25     1.0000 0.06136  0.56138  0.06138  Biso   1.000  He
  He26     1.0000 0.93769  0.43767  0.06232  Biso   1.000  He
  He27     1.0000 0.05947  0.44051  0.94052  Biso   1.000  He
  He28     1.0000 0.93780  0.56222  0.93779  Biso   1.000  He
  Ar7      1.0000 0.00000  0.50000  0.00000  Biso   1.000  Ar
  Ne8      1.0000 0.75000  0.75000  0.75000  Biso   1.000  Ne
  He29     1.0000 0.68950  0.81051  0.81052  Biso   1.000  He
  He30     1.0000 0.81046  0.68956  0.81046  Biso   1.000  He
  He31     1.0000 0.68742  0.68742  0.68741  Biso   1.000  He
  He32     1.0000 0.81220  0.81220  0.68782  Biso   1.000  He
  Ar8      1.0000 0.75000  0.75000  0.75000  Biso   1.000  Ar
