data_image0
_cell_length_a       41.493
_cell_length_b       41.493
_cell_length_c       20.413
_cell_angle_alpha    90
_cell_angle_beta     90
_cell_angle_gamma    90

_symmetry_space_group_name_H-M    "P 1"
_symmetry_int_tables_number       1

loop_
  _symmetry_equiv_pos_as_xyz
  'x, y, z'

loop_
  _atom_site_label
  _atom_site_occupancy
  _atom_site_fract_x
  _atom_site_fract_y
  _atom_site_fract_z
  _atom_site_thermal_displace_type
  _atom_site_B_iso_or_equiv
  _atom_site_type_symbol
  C1       1.0000 0.23980  0.49620  0.43551  Biso   1.000  C
  C2       1.0000 0.22040  0.52561  0.46691  Biso   1.000  C
  H1       1.0000 0.23211  0.49240  0.39078  Biso   1.000  H
  H2       1.0000 0.23630  0.47680  0.46201  Biso   1.000  H
  H3       1.0000 0.26279  0.50141  0.43448  Biso   1.000  H
  C3       1.0000 0.23040  0.55797  0.43580  Biso   1.000  C
  H4       1.0000 0.19700  0.52221  0.46029  Biso   1.000  H
  H5       1.0000 0.22459  0.52631  0.51462  Biso   1.000  H
  C4       1.0000 0.25537  0.57612  0.46230  Biso   1.000  C
  C5       1.0000 0.21336  0.56949  0.38201  Biso   1.000  C
  C6       1.0000 0.26327  0.60579  0.43502  Biso   1.000  C
  C7       1.0000 0.27450  0.56359  0.51918  Biso   1.000  C
  C8       1.0000 0.22129  0.59916  0.35482  Biso   1.000  C
  C9       1.0000 0.18760  0.54869  0.35100  Biso   1.000  C
  C10      1.0000 0.24623  0.61731  0.38128  Biso   1.000  C
  C11      1.0000 0.29019  0.62649  0.46338  Biso   1.000  C
  N1       1.0000 0.25980  0.57680  0.58208  Biso   1.000  N
  H6       1.0000 0.29721  0.57060  0.51550  Biso   1.000  H
  H7       1.0000 0.27400  0.53980  0.51972  Biso   1.000  H
  C12      1.0000 0.20201  0.61179  0.29599  Biso   1.000  C
  N2       1.0000 0.15858  0.55735  0.39362  Biso   1.000  N
  H8       1.0000 0.19290  0.52551  0.35419  Biso   1.000  H
  H9       1.0000 0.18391  0.55450  0.30461  Biso   1.000  H
  C13      1.0000 0.25501  0.65011  0.34978  Biso   1.000  C
  H10      1.0000 0.29130  0.62319  0.51129  Biso   1.000  H
  H11      1.0000 0.28530  0.64951  0.45530  Biso   1.000  H
  C14      1.0000 0.32480  0.61760  0.43080  Biso   1.000  C
  C15      1.0000 0.27079  0.57019  0.63102  Biso   1.000  C
  H12      1.0000 0.20131  0.63560  0.29770  Biso   1.000  H
  H13      1.0000 0.17960  0.60369  0.29878  Biso   1.000  H
  C16      1.0000 0.21700  0.60109  0.22990  Biso   1.000  C
  C17      1.0000 0.13689  0.54383  0.38838  Biso   1.000  C
  N3       1.0000 0.23609  0.67761  0.37672  Biso   1.000  N
  H14      1.0000 0.27819  0.65430  0.35668  Biso   1.000  H
  H15      1.0000 0.25120  0.64871  0.30201  Biso   1.000  H
  H16      1.0000 0.32191  0.60051  0.39808  Biso   1.000  H
  H17      1.0000 0.33960  0.61020  0.46500  Biso   1.000  H
  H18      1.0000 0.33379  0.63681  0.40949  Biso   1.000  H
  H19      1.0000 0.28889  0.55619  0.63028  Biso   1.000  H
  C18      1.0000 0.25944  0.58178  0.69759  Biso   1.000  C
  H20      1.0000 0.20490  0.61071  0.19370  Biso   1.000  H
  H21      1.0000 0.21611  0.57749  0.22652  Biso   1.000  H
  H22      1.0000 0.23951  0.60820  0.22780  Biso   1.000  H
  H23      1.0000 0.13610  0.52609  0.35889  Biso   1.000  H
  C19      1.0000 0.10749  0.55262  0.42728  Biso   1.000  C
  C20      1.0000 0.25031  0.70019  0.40112  Biso   1.000  C
  C21      1.0000 0.23098  0.59933  0.70112  Biso   1.000  C
  C22      1.0000 0.27556  0.57316  0.75462  Biso   1.000  C
  C23      1.0000 0.10399  0.57716  0.47181  Biso   1.000  C
  C24      1.0000 0.08151  0.53354  0.41621  Biso   1.000  C
  C25      1.0000 0.23230  0.72945  0.42728  Biso   1.000  C
  H24      1.0000 0.27311  0.69961  0.40401  Biso   1.000  H
  H25      1.0000 0.21999  0.60521  0.66208  Biso   1.000  H
  C26      1.0000 0.21862  0.60827  0.76182  Biso   1.000  C
  C27      1.0000 0.26320  0.58210  0.81531  Biso   1.000  C
  H26      1.0000 0.29499  0.56120  0.75222  Biso   1.000  H
  C28      1.0000 0.07498  0.58275  0.50502  Biso   1.000  C
  H27      1.0000 0.12190  0.59080  0.48038  Biso   1.000  H
  C29      1.0000 0.05319  0.53898  0.44859  Biso   1.000  C
  H28      1.0000 0.08300  0.51630  0.38569  Biso   1.000  H
  C30      1.0000 0.25019  0.75271  0.46010  Biso   1.000  C
  C31      1.0000 0.19900  0.73273  0.42189  Biso   1.000  C
  H29      1.0000 0.19909  0.62030  0.76422  Biso   1.000  H
  C32      1.0000 0.23474  0.59964  0.81879  Biso   1.000  C
  H30      1.0000 0.27419  0.57619  0.85431  Biso   1.000  H
  H31      1.0000 0.07329  0.59991  0.53559  Biso   1.000  H
  C33      1.0000 0.04854  0.56284  0.49287  Biso   1.000  C
  H32      1.0000 0.03560  0.52510  0.43938  Biso   1.000  H
  C34      1.0000 0.23486  0.77924  0.48748  Biso   1.000  C
  H33      1.0000 0.27289  0.75049  0.46372  Biso   1.000  H
  H34      1.0000 0.18680  0.71680  0.39950  Biso   1.000  H
  C35      1.0000 0.18372  0.75931  0.44942  Biso   1.000  C
  C36      1.0000 0.21934  0.60820  0.88292  Biso   1.000  C
  C37      1.0000 0.01677  0.56800  0.52800  Biso   1.000  C
  C38      1.0000 0.01287  0.56270  0.50762  Biso   1.000  C
  C39      1.0000 0.20160  0.78254  0.48219  Biso   1.000  C
  H35      1.0000 0.24710  0.79519  0.50992  Biso   1.000  H
  H36      1.0000 0.16099  0.76150  0.44579  Biso   1.000  H
  C40      1.0000 0.18606  0.60740  0.89051  Biso   1.000  C
  C41      1.0000 0.23893  0.61569  0.93602  Biso   1.000  C
  C42      1.0000 0.01234  0.57460  0.59408  Biso   1.000  C
  C43      1.0000 0.00019  0.59369  0.50840  Biso   1.000  C
  C44      1.0000 0.99031  0.56629  0.48631  Biso   1.000  C
  C45      1.0000 0.99470  0.53710  0.53162  Biso   1.000  C
  C46      1.0000 0.18521  0.81170  0.51168  Biso   1.000  C
  H37      1.0000 0.17270  0.60229  0.85421  Biso   1.000  H
  C47      1.0000 0.17234  0.61408  0.95111  Biso   1.000  C
  C48      1.0000 0.22522  0.62239  0.99672  Biso   1.000  C
  H38      1.0000 0.26171  0.61620  0.93088  Biso   1.000  H
  H39      1.0000 0.03039  0.57581  0.62259  Biso   1.000  H
  C49      1.0000 0.98147  0.57940  0.61858  Biso   1.000  C
  H40      1.0000 0.01260  0.61121  0.49199  Biso   1.000  H
  C50      1.0000 0.96949  0.59909  0.53309  Biso   1.000  C
  C51      1.0000 0.95944  0.57111  0.51080  Biso   1.000  C
  H41      1.0000 0.99340  0.56181  0.44109  Biso   1.000  H
  H42      1.0000 0.00340  0.51589  0.53108  Biso   1.000  H
  C52      1.0000 0.96399  0.54250  0.55631  Biso   1.000  C
  C53      1.0000 0.19047  0.82081  0.57630  Biso   1.000  C
  C54      1.0000 0.16229  0.82768  0.47421  Biso   1.000  C
  C55      1.0000 0.20040  0.83961  0.53172  Biso   1.000  C
  C56      1.0000 0.15191  0.80869  0.51879  Biso   1.000  C
  H43      1.0000 0.14959  0.61350  0.95620  Biso   1.000  H
  C57      1.0000 0.19194  0.62160  0.00421  Biso   1.000  C
  H44      1.0000 0.23859  0.62750  0.03302  Biso   1.000  H
  C58      1.0000 0.95500  0.57771  0.57699  Biso   1.000  C
  H45      1.0000 0.97841  0.58391  0.66379  Biso   1.000  H
  C59      1.0000 0.95139  0.57349  0.55710  Biso   1.000  C
  H46      1.0000 0.96091  0.62030  0.53358  Biso   1.000  H
  H47      1.0000 0.94141  0.56990  0.48239  Biso   1.000  H
  H48      1.0000 0.95161  0.52500  0.57272  Biso   1.000  H
  C60      1.0000 0.17275  0.84590  0.60349  Biso   1.000  C
  H49      1.0000 0.20620  0.80990  0.60192  Biso   1.000  H
  H50      1.0000 0.15870  0.82149  0.43012  Biso   1.000  H
  C61      1.0000 0.14453  0.85277  0.50140  Biso   1.000  C
  H51      1.0000 0.22310  0.84161  0.52682  Biso   1.000  H
  C62      1.0000 0.18280  0.86460  0.55881  Biso   1.000  C
  C63      1.0000 0.13371  0.83400  0.54642  Biso   1.000  C
  H52      1.0000 0.14140  0.78951  0.50512  Biso   1.000  H
  C64      1.0000 0.17663  0.63107  0.06814  Biso   1.000  C
  C65      1.0000 0.92028  0.58101  0.59629  Biso   1.000  C
  C66      1.0000 0.14981  0.86188  0.56611  Biso   1.000  C
  H53      1.0000 0.17639  0.85210  0.64772  Biso   1.000  H
  H54      1.0000 0.12879  0.86371  0.47582  Biso   1.000  H
  H55      1.0000 0.19350  0.88381  0.57238  Biso   1.000  H
  H56      1.0000 0.11101  0.83219  0.55141  Biso   1.000  H
  C67      1.0000 0.15256  0.61203  0.09528  Biso   1.000  C
  C68      1.0000 0.18485  0.66021  0.09739  Biso   1.000  C
  C69      1.0000 0.90121  0.60511  0.56910  Biso   1.000  C
  C70      1.0000 0.91020  0.56516  0.65262  Biso   1.000  C
  C71      1.0000 0.12790  0.88668  0.59830  Biso   1.000  C
  H57      1.0000 0.14689  0.59210  0.07539  Biso   1.000  H
  C72      1.0000 0.13667  0.62208  0.15172  Biso   1.000  C
  C73      1.0000 0.16897  0.67028  0.15368  Biso   1.000  C
  H58      1.0000 0.20131  0.67320  0.07882  Biso   1.000  H
  C74      1.0000 0.87210  0.61333  0.59830  Biso   1.000  C
  H59      1.0000 0.90810  0.61601  0.53059  Biso   1.000  H
  C75      1.0000 0.88109  0.57335  0.68182  Biso   1.000  C
  H60      1.0000 0.92319  0.54869  0.67119  Biso   1.000  H
  C76      1.0000 0.13798  0.90256  0.65468  Biso   1.000  C
  C77      1.0000 0.09879  0.89487  0.56910  Biso   1.000  C
  C78      1.0000 0.14489  0.65122  0.18091  Biso   1.000  C
  C79      1.0000 0.11190  0.60020  0.18390  Biso   1.000  C
  C80      1.0000 0.17229  0.70501  0.17298  Biso   1.000  C
  C81      1.0000 0.17651  0.70140  0.19292  Biso   1.000  C
  C82      1.0000 0.86202  0.59745  0.65468  Biso   1.000  C
  C83      1.0000 0.85019  0.63811  0.56611  Biso   1.000  C
  C84      1.0000 0.87159  0.55807  0.74580  Biso   1.000  C
  C85      1.0000 0.11891  0.92664  0.68182  Biso   1.000  C
  H61      1.0000 0.15791  0.89690  0.67462  Biso   1.000  H
  H62      1.0000 0.09190  0.88400  0.53059  Biso   1.000  H
  C86      1.0000 0.07972  0.91897  0.59629  Biso   1.000  C
  H63      1.0000 0.13400  0.65811  0.21942  Biso   1.000  H
  C87      1.0000 0.09592  0.57723  0.14652  Biso   1.000  C
  C88      1.0000 0.10279  0.60545  0.24862  Biso   1.000  C
  C89      1.0000 0.08399  0.61630  0.20360  Biso   1.000  C
  C90      1.0000 0.11460  0.56720  0.19120  Biso   1.000  C
  C91      1.0000 0.17890  0.70944  0.23921  Biso   1.000  C
  C92      1.0000 0.17061  0.73145  0.13139  Biso   1.000  C
  C93      1.0000 0.20750  0.71400  0.19370  Biso   1.000  C
  C94      1.0000 0.15089  0.71949  0.21692  Biso   1.000  C
  H64      1.0000 0.84209  0.60309  0.67462  Biso   1.000  H
  C95      1.0000 0.82725  0.65409  0.60349  Biso   1.000  C
  C96      1.0000 0.85547  0.64722  0.50140  Biso   1.000  C
  C97      1.0000 0.86629  0.66599  0.54642  Biso   1.000  C
  C98      1.0000 0.81720  0.63541  0.55881  Biso   1.000  C
  C99      1.0000 0.86410  0.57764  0.79890  Biso   1.000  C
  C100     1.0000 0.87239  0.52479  0.75329  Biso   1.000  C
  C101     1.0000 0.12841  0.94194  0.74580  Biso   1.000  C
  C102     1.0000 0.08980  0.93486  0.65262  Biso   1.000  C
  C103     1.0000 0.04500  0.92230  0.57699  Biso   1.000  C
  C104     1.0000 0.04861  0.92649  0.55710  Biso   1.000  C
  H65      1.0000 0.10209  0.57359  0.10229  Biso   1.000  H
  C105     1.0000 0.07083  0.55954  0.17371  Biso   1.000  C
  C106     1.0000 0.07770  0.58769  0.27580  Biso   1.000  C
  H66      1.0000 0.11371  0.62119  0.27419  Biso   1.000  H
  H67      1.0000 0.08221  0.63900  0.19860  Biso   1.000  H
  C107     1.0000 0.05871  0.59810  0.23118  Biso   1.000  C
  C108     1.0000 0.08961  0.54961  0.21829  Biso   1.000  C
  H68      1.0000 0.13381  0.55650  0.17758  Biso   1.000  H
  H69      1.0000 0.18010  0.69139  0.26762  Biso   1.000  H
  C109     1.0000 0.18369  0.74029  0.26370  Biso   1.000  C
  C110     1.0000 0.17540  0.76232  0.15588  Biso   1.000  C
  H70      1.0000 0.16610  0.72841  0.08622  Biso   1.000  H
  C111     1.0000 0.21290  0.74470  0.21839  Biso   1.000  C
  H71      1.0000 0.22500  0.70159  0.17729  Biso   1.000  H
  H72      1.0000 0.12971  0.71089  0.21638  Biso   1.000  H
  C112     1.0000 0.15629  0.75020  0.24161  Biso   1.000  C
  H73      1.0000 0.82361  0.64789  0.64772  Biso   1.000  H
  C113     1.0000 0.80953  0.67917  0.57630  Biso   1.000  C
  C114     1.0000 0.83771  0.67231  0.47421  Biso   1.000  C
  H74      1.0000 0.87121  0.63630  0.47582  Biso   1.000  H
  H75      1.0000 0.88899  0.66780  0.55141  Biso   1.000  H
  C115     1.0000 0.84809  0.69130  0.51879  Biso   1.000  C
  C116     1.0000 0.79960  0.66040  0.53172  Biso   1.000  C
  H76      1.0000 0.80650  0.61620  0.57238  Biso   1.000  H
  C117     1.0000 0.85740  0.56395  0.85950  Biso   1.000  C
  H77      1.0000 0.86350  0.60039  0.79381  Biso   1.000  H
  H78      1.0000 0.87750  0.51141  0.71699  Biso   1.000  H
  C118     1.0000 0.86569  0.51107  0.81399  Biso   1.000  C
  C119     1.0000 0.13590  0.92235  0.79890  Biso   1.000  C
  C120     1.0000 0.12761  0.97522  0.75329  Biso   1.000  C
  H79      1.0000 0.07681  0.95129  0.67119  Biso   1.000  H
  C121     1.0000 0.04056  0.92890  0.51080  Biso   1.000  C
  C122     1.0000 0.01853  0.92059  0.61858  Biso   1.000  C
  C123     1.0000 0.03601  0.95751  0.55631  Biso   1.000  C
  C124     1.0000 0.03051  0.90090  0.53309  Biso   1.000  C
  H80      1.0000 0.05989  0.54380  0.14809  Biso   1.000  H
  C125     1.0000 0.06172  0.56479  0.23828  Biso   1.000  C
  H81      1.0000 0.07151  0.59130  0.31989  Biso   1.000  H
  H82      1.0000 0.03950  0.60861  0.24489  Biso   1.000  H
  H83      1.0000 0.09161  0.52691  0.22319  Biso   1.000  H
  H84      1.0000 0.18820  0.74340  0.30892  Biso   1.000  H
  C126     1.0000 0.18201  0.76678  0.22202  Biso   1.000  C
  C127     1.0000 0.18731  0.76285  0.24239  Biso   1.000  C
  H85      1.0000 0.17420  0.78040  0.12742  Biso   1.000  H
  H86      1.0000 0.23411  0.75340  0.21888  Biso   1.000  H
  H87      1.0000 0.13879  0.76261  0.25802  Biso   1.000  H
  H88      1.0000 0.79380  0.69009  0.60192  Biso   1.000  H
  C128     1.0000 0.81479  0.68828  0.51168  Biso   1.000  C
  H89      1.0000 0.84130  0.67850  0.43012  Biso   1.000  H
  H90      1.0000 0.85860  0.71051  0.50512  Biso   1.000  H
  H91      1.0000 0.77690  0.65840  0.52682  Biso   1.000  H
  C129     1.0000 0.85819  0.53067  0.86709  Biso   1.000  C
  H92      1.0000 0.85229  0.57730  0.89580  Biso   1.000  H
  H93      1.0000 0.86619  0.48830  0.81909  Biso   1.000  H
  C130     1.0000 0.14260  0.93606  0.85950  Biso   1.000  C
  H94      1.0000 0.13650  0.89960  0.79381  Biso   1.000  H
  H95      1.0000 0.12250  0.98860  0.71699  Biso   1.000  H
  C131     1.0000 0.13431  0.98891  0.81399  Biso   1.000  C
  H96      1.0000 0.05859  0.93011  0.48239  Biso   1.000  H
  C132     1.0000 0.00969  0.93370  0.48631  Biso   1.000  C
  H97      1.0000 0.02159  0.91611  0.66379  Biso   1.000  H
  C133     1.0000 0.98766  0.92541  0.59408  Biso   1.000  C
  C134     1.0000 0.00530  0.96291  0.53162  Biso   1.000  C
  H98      1.0000 0.04839  0.97501  0.57272  Biso   1.000  H
  H99      1.0000 0.03909  0.87969  0.53358  Biso   1.000  H
  C135     1.0000 0.99981  0.90630  0.50840  Biso   1.000  C
  C136     1.0000 0.03254  0.54841  0.26782  Biso   1.000  C
  C137     1.0000 0.18714  0.79854  0.25714  Biso   1.000  C
  C138     1.0000 0.79840  0.71747  0.48219  Biso   1.000  C
  C139     1.0000 0.84964  0.51527  0.93122  Biso   1.000  C
  C140     1.0000 0.14181  0.96934  0.86709  Biso   1.000  C
  H100     1.0000 0.14771  0.92271  0.89580  Biso   1.000  H
  H101     1.0000 0.13381  0.01169  0.81909  Biso   1.000  H
  H102     1.0000 0.00660  0.93821  0.44109  Biso   1.000  H
  C141     1.0000 0.98323  0.93199  0.52800  Biso   1.000  C
  C142     1.0000 0.98713  0.93729  0.50762  Biso   1.000  C
  H103     1.0000 0.96961  0.92420  0.62259  Biso   1.000  H
  H104     1.0000 0.99660  0.98409  0.53108  Biso   1.000  H
  H105     1.0000 0.98740  0.88880  0.49199  Biso   1.000  H
  C143     1.0000 0.02926  0.51515  0.26248  Biso   1.000  C
  C144     1.0000 0.00930  0.56629  0.30059  Biso   1.000  C
  C145     1.0000 0.16726  0.82496  0.24499  Biso   1.000  C
  C146     1.0000 0.21100  0.80320  0.30138  Biso   1.000  C
  C147     1.0000 0.76514  0.72075  0.48748  Biso   1.000  C
  C148     1.0000 0.81628  0.74070  0.44942  Biso   1.000  C
  C149     1.0000 0.85827  0.53139  0.98819  Biso   1.000  C
  C150     1.0000 0.83209  0.48678  0.93470  Biso   1.000  C
  C151     1.0000 0.15036  0.98472  0.93122  Biso   1.000  C
  C152     1.0000 0.95146  0.93715  0.49287  Biso   1.000  C
  H106     1.0000 0.04519  0.50290  0.24009  Biso   1.000  H
  C153     1.0000 0.00270  0.49982  0.28991  Biso   1.000  C
  C154     1.0000 0.98272  0.55101  0.32812  Biso   1.000  C
  H107     1.0000 0.01150  0.58899  0.30422  Biso   1.000  H
  H108     1.0000 0.15010  0.82330  0.21442  Biso   1.000  H
  C155     1.0000 0.17285  0.85400  0.27821  Biso   1.000  C
  H109     1.0000 0.22491  0.78560  0.31059  Biso   1.000  H
  C156     1.0000 0.21647  0.83149  0.33381  Biso   1.000  C
  H110     1.0000 0.75290  0.70479  0.50992  Biso   1.000  H
  C157     1.0000 0.74981  0.74731  0.46010  Biso   1.000  C
  C158     1.0000 0.80100  0.76729  0.42189  Biso   1.000  C
  H111     1.0000 0.83901  0.73851  0.44579  Biso   1.000  H
  H112     1.0000 0.87029  0.55089  0.98579  Biso   1.000  H
  C159     1.0000 0.84932  0.51903  0.04889  Biso   1.000  C
  H113     1.0000 0.82621  0.47579  0.89570  Biso   1.000  H
  C160     1.0000 0.82315  0.47444  0.99540  Biso   1.000  C
  C161     1.0000 0.14173  0.96862  0.98819  Biso   1.000  C
  C162     1.0000 0.16791  0.01321  0.93470  Biso   1.000  C
  C163     1.0000 0.92502  0.91726  0.50502  Biso   1.000  C
  C164     1.0000 0.94681  0.96101  0.44859  Biso   1.000  C
  C165     1.0000 0.97944  0.51770  0.32269  Biso   1.000  C
  H114     1.0000 0.00051  0.47709  0.28629  Biso   1.000  H
  H115     1.0000 0.96679  0.56320  0.35051  Biso   1.000  H
  H116     1.0000 0.15921  0.87191  0.26958  Biso   1.000  H
  C166     1.0000 0.19738  0.85749  0.32269  Biso   1.000  C
  H117     1.0000 0.23370  0.83301  0.36428  Biso   1.000  H
  H118     1.0000 0.72711  0.74950  0.46372  Biso   1.000  H
  C167     1.0000 0.76770  0.77056  0.42728  Biso   1.000  C
  H119     1.0000 0.81320  0.78319  0.39950  Biso   1.000  H
  C168     1.0000 0.83178  0.49054  0.05242  Biso   1.000  C
  H120     1.0000 0.85520  0.52999  0.08789  Biso   1.000  H
  H121     1.0000 0.81120  0.45499  0.99780  Biso   1.000  H
  H122     1.0000 0.12971  0.94910  0.98579  Biso   1.000  H
  C169     1.0000 0.15068  0.98096  0.04889  Biso   1.000  C
  H123     1.0000 0.17379  0.02420  0.89570  Biso   1.000  H
  C170     1.0000 0.17685  0.02557  0.99540  Biso   1.000  C
  H124     1.0000 0.92671  0.90010  0.53559  Biso   1.000  H
  C171     1.0000 0.89601  0.92283  0.47181  Biso   1.000  C
  H125     1.0000 0.96440  0.97491  0.43938  Biso   1.000  H
  C172     1.0000 0.91849  0.96645  0.41621  Biso   1.000  C
  C173     1.0000 0.95021  0.49970  0.34890  Biso   1.000  C
  C174     1.0000 0.20618  0.88690  0.36158  Biso   1.000  C
  C175     1.0000 0.74969  0.79980  0.40112  Biso   1.000  C
  C176     1.0000 0.82021  0.47919  0.11899  Biso   1.000  C
  H126     1.0000 0.14480  0.96999  0.08789  Biso   1.000  H
  C177     1.0000 0.16822  0.00945  0.05242  Biso   1.000  C
  H127     1.0000 0.18880  0.04500  0.99780  Biso   1.000  H
  H128     1.0000 0.87810  0.90919  0.48038  Biso   1.000  H
  C178     1.0000 0.89251  0.94739  0.42728  Biso   1.000  C
  H129     1.0000 0.91700  0.98371  0.38569  Biso   1.000  H
  N4       1.0000 0.92760  0.51389  0.37329  Biso   1.000  N
  H130     1.0000 0.94961  0.47690  0.34600  Biso   1.000  H
  N5       1.0000 0.19266  0.90859  0.35639  Biso   1.000  N
  H131     1.0000 0.22389  0.88610  0.39112  Biso   1.000  H
  N6       1.0000 0.76391  0.82240  0.37672  Biso   1.000  N
  H132     1.0000 0.72689  0.80040  0.40401  Biso   1.000  H
  N7       1.0000 0.82679  0.49020  0.16788  Biso   1.000  N
  H133     1.0000 0.80621  0.46109  0.11968  Biso   1.000  H
  C179     1.0000 0.17979  0.02080  0.11899  Biso   1.000  C
  C180     1.0000 0.86311  0.95616  0.38838  Biso   1.000  C
  C181     1.0000 0.90010  0.49500  0.40019  Biso   1.000  C
  C182     1.0000 0.20131  0.93760  0.39901  Biso   1.000  C
  C183     1.0000 0.74499  0.84990  0.34978  Biso   1.000  C
  C184     1.0000 0.81361  0.47550  0.23078  Biso   1.000  C
  N8       1.0000 0.17321  0.00981  0.16788  Biso   1.000  N
  H134     1.0000 0.19379  0.03890  0.11968  Biso   1.000  H
  N9       1.0000 0.84142  0.94267  0.39362  Biso   1.000  N
  H135     1.0000 0.86390  0.97390  0.35889  Biso   1.000  H
  C185     1.0000 0.86730  0.50377  0.36869  Biso   1.000  C
  H136     1.0000 0.90430  0.47179  0.39328  Biso   1.000  H
  H137     1.0000 0.89871  0.49881  0.44800  Biso   1.000  H
  C186     1.0000 0.18051  0.96337  0.36800  Biso   1.000  C
  H138     1.0000 0.22450  0.94291  0.39578  Biso   1.000  H
  H139     1.0000 0.19550  0.93389  0.44540  Biso   1.000  H
  C187     1.0000 0.75377  0.88270  0.38128  Biso   1.000  C
  H140     1.0000 0.72181  0.84571  0.35668  Biso   1.000  H
  H141     1.0000 0.74880  0.85130  0.30201  Biso   1.000  H
  C188     1.0000 0.82612  0.49464  0.28771  Biso   1.000  C
  H142     1.0000 0.82060  0.45280  0.23451  Biso   1.000  H
  H143     1.0000 0.78980  0.47601  0.23029  Biso   1.000  H
  C189     1.0000 0.18639  0.02451  0.23078  Biso   1.000  C
  C190     1.0000 0.81240  0.95129  0.35100  Biso   1.000  C
  C191     1.0000 0.84916  0.52872  0.39519  Biso   1.000  C
  C192     1.0000 0.85578  0.48671  0.31500  Biso   1.000  C
  C193     1.0000 0.19203  0.98041  0.31421  Biso   1.000  C
  C194     1.0000 0.15084  0.97127  0.39519  Biso   1.000  C
  C195     1.0000 0.77871  0.90085  0.35482  Biso   1.000  C
  C196     1.0000 0.73673  0.89422  0.43502  Biso   1.000  C
  C197     1.0000 0.80797  0.51958  0.31421  Biso   1.000  C
  C198     1.0000 0.17388  0.00537  0.28771  Biso   1.000  C
  H144     1.0000 0.17940  0.04719  0.23451  Biso   1.000  H
  H145     1.0000 0.21020  0.02400  0.23029  Biso   1.000  H
  C199     1.0000 0.78664  0.93052  0.38201  Biso   1.000  C
  H146     1.0000 0.80710  0.97450  0.35419  Biso   1.000  H
  H147     1.0000 0.81609  0.94551  0.30461  Biso   1.000  H
  C200     1.0000 0.81949  0.53664  0.36800  Biso   1.000  C
  C201     1.0000 0.86181  0.54800  0.45402  Biso   1.000  C
  C202     1.0000 0.87651  0.45979  0.28658  Biso   1.000  C
  C203     1.0000 0.22440  0.97040  0.28310  Biso   1.000  C
  C204     1.0000 0.13270  0.99624  0.36869  Biso   1.000  C
  C205     1.0000 0.13819  0.95199  0.45402  Biso   1.000  C
  C206     1.0000 0.79799  0.88820  0.29599  Biso   1.000  C
  C207     1.0000 0.74463  0.92389  0.46230  Biso   1.000  C
  C208     1.0000 0.70981  0.87350  0.46338  Biso   1.000  C
  C209     1.0000 0.77560  0.52961  0.28310  Biso   1.000  C
  C210     1.0000 0.14422  0.01328  0.31500  Biso   1.000  C
  C211     1.0000 0.76960  0.94204  0.43580  Biso   1.000  C
  C212     1.0000 0.79869  0.56241  0.39901  Biso   1.000  C
  H148     1.0000 0.88560  0.54869  0.45231  Biso   1.000  H
  H149     1.0000 0.85371  0.57041  0.45118  Biso   1.000  H
  C213     1.0000 0.85111  0.53301  0.52011  Biso   1.000  C
  H150     1.0000 0.87321  0.45870  0.23872  Biso   1.000  H
  H151     1.0000 0.89950  0.46470  0.29471  Biso   1.000  H
  C214     1.0000 0.86759  0.42520  0.31921  Biso   1.000  C
  H152     1.0000 0.22780  0.94700  0.28972  Biso   1.000  H
  H153     1.0000 0.22370  0.97460  0.23539  Biso   1.000  H
  C215     1.0000 0.25380  0.98981  0.31451  Biso   1.000  C
  C216     1.0000 0.09990  0.00499  0.40019  Biso   1.000  C
  H154     1.0000 0.11440  0.95129  0.45231  Biso   1.000  H
  H155     1.0000 0.14629  0.92960  0.45118  Biso   1.000  H
  C217     1.0000 0.14889  0.96701  0.52011  Biso   1.000  C
  H156     1.0000 0.79869  0.86441  0.29770  Biso   1.000  H
  H157     1.0000 0.82040  0.89630  0.29878  Biso   1.000  H
  C218     1.0000 0.78300  0.89890  0.22990  Biso   1.000  C
  C219     1.0000 0.72550  0.93640  0.51918  Biso   1.000  C
  H158     1.0000 0.70870  0.87680  0.51129  Biso   1.000  H
  H159     1.0000 0.71470  0.85050  0.45530  Biso   1.000  H
  C220     1.0000 0.67520  0.88239  0.43080  Biso   1.000  C
  H160     1.0000 0.77220  0.55301  0.28972  Biso   1.000  H
  H161     1.0000 0.77630  0.52539  0.23539  Biso   1.000  H
  C221     1.0000 0.74620  0.51021  0.31451  Biso   1.000  C
  C222     1.0000 0.12349  0.04020  0.28658  Biso   1.000  C
  C223     1.0000 0.77960  0.97441  0.46691  Biso   1.000  C
  N10      1.0000 0.80734  0.59143  0.35639  Biso   1.000  N
  H162     1.0000 0.77550  0.55711  0.39578  Biso   1.000  H
  H163     1.0000 0.80450  0.56610  0.44540  Biso   1.000  H
  H164     1.0000 0.86070  0.54510  0.55631  Biso   1.000  H
  H165     1.0000 0.82749  0.53390  0.52349  Biso   1.000  H
  H166     1.0000 0.85819  0.51050  0.52222  Biso   1.000  H
  H167     1.0000 0.85050  0.42810  0.35188  Biso   1.000  H
  H168     1.0000 0.86019  0.41041  0.28501  Biso   1.000  H
  H169     1.0000 0.88680  0.41619  0.34052  Biso   1.000  H
  H170     1.0000 0.25761  0.98209  0.35918  Biso   1.000  H
  H171     1.0000 0.27320  0.98631  0.28800  Biso   1.000  H
  H172     1.0000 0.24860  0.01280  0.31549  Biso   1.000  H
  N11      1.0000 0.07240  0.98609  0.37329  Biso   1.000  N
  H173     1.0000 0.09570  0.02820  0.39328  Biso   1.000  H
  H174     1.0000 0.10129  0.00121  0.44800  Biso   1.000  H
  H175     1.0000 0.13930  0.95491  0.55631  Biso   1.000  H
  H176     1.0000 0.17251  0.96609  0.52349  Biso   1.000  H
  H177     1.0000 0.14181  0.98949  0.52222  Biso   1.000  H
  H178     1.0000 0.79510  0.88931  0.19370  Biso   1.000  H
  H179     1.0000 0.78389  0.92249  0.22652  Biso   1.000  H
  H180     1.0000 0.76049  0.89179  0.22780  Biso   1.000  H
  N12      1.0000 0.74020  0.92319  0.58208  Biso   1.000  N
  H181     1.0000 0.70279  0.92941  0.51550  Biso   1.000  H
  H182     1.0000 0.72600  0.96021  0.51972  Biso   1.000  H
  H183     1.0000 0.67809  0.89950  0.39808  Biso   1.000  H
  H184     1.0000 0.66040  0.88979  0.46500  Biso   1.000  H
  H185     1.0000 0.66621  0.86321  0.40949  Biso   1.000  H
  H186     1.0000 0.74239  0.51789  0.35918  Biso   1.000  H
  H187     1.0000 0.72680  0.51370  0.28800  Biso   1.000  H
  H188     1.0000 0.75140  0.48719  0.31549  Biso   1.000  H
  H189     1.0000 0.12679  0.04131  0.23872  Biso   1.000  H
  H190     1.0000 0.10050  0.03531  0.29471  Biso   1.000  H
  C224     1.0000 0.13241  0.07481  0.31921  Biso   1.000  C
  H191     1.0000 0.80300  0.97780  0.46029  Biso   1.000  H
  H192     1.0000 0.77541  0.97371  0.51462  Biso   1.000  H
  C225     1.0000 0.76020  0.00381  0.43551  Biso   1.000  C
  C226     1.0000 0.79382  0.61309  0.36158  Biso   1.000  C
  C227     1.0000 0.04979  0.00029  0.34890  Biso   1.000  C
  C228     1.0000 0.72921  0.92980  0.63102  Biso   1.000  C
  H193     1.0000 0.14950  0.07189  0.35188  Biso   1.000  H
  H194     1.0000 0.13981  0.08961  0.28501  Biso   1.000  H
  H195     1.0000 0.11320  0.08380  0.34052  Biso   1.000  H
  H196     1.0000 0.73721  0.99860  0.43448  Biso   1.000  H
  H197     1.0000 0.76789  0.00759  0.39078  Biso   1.000  H
  H198     1.0000 0.76370  0.02321  0.46201  Biso   1.000  H
  H199     1.0000 0.77611  0.61391  0.39112  Biso   1.000  H
  C229     1.0000 0.80262  0.64249  0.32269  Biso   1.000  C
  C230     1.0000 0.02056  0.98231  0.32269  Biso   1.000  C
  H200     1.0000 0.05039  0.02309  0.34600  Biso   1.000  H
  H201     1.0000 0.71111  0.94380  0.63028  Biso   1.000  H
  C231     1.0000 0.74056  0.91823  0.69759  Biso   1.000  C
  C232     1.0000 0.82715  0.64599  0.27821  Biso   1.000  C
  C233     1.0000 0.78353  0.66850  0.33381  Biso   1.000  C
  C234     1.0000 0.99730  0.00019  0.28991  Biso   1.000  C
  C235     1.0000 0.01728  0.94900  0.32812  Biso   1.000  C
  C236     1.0000 0.76902  0.90068  0.70112  Biso   1.000  C
  C237     1.0000 0.72444  0.92683  0.75462  Biso   1.000  C
  C238     1.0000 0.83274  0.67503  0.24499  Biso   1.000  C
  H202     1.0000 0.84079  0.62811  0.26958  Biso   1.000  H
  C239     1.0000 0.78900  0.69679  0.30138  Biso   1.000  C
  H203     1.0000 0.76630  0.66700  0.36428  Biso   1.000  H
  C240     1.0000 0.97074  0.98486  0.26248  Biso   1.000  C
  H204     1.0000 0.99949  0.02290  0.28629  Biso   1.000  H
  C241     1.0000 0.99070  0.93372  0.30059  Biso   1.000  C
  H205     1.0000 0.03321  0.93681  0.35051  Biso   1.000  H
  H206     1.0000 0.78001  0.89480  0.66208  Biso   1.000  H
  C242     1.0000 0.78138  0.89174  0.76182  Biso   1.000  C
  C243     1.0000 0.73680  0.91791  0.81531  Biso   1.000  C
  H207     1.0000 0.70501  0.93881  0.75222  Biso   1.000  H
  H208     1.0000 0.84990  0.67669  0.21442  Biso   1.000  H
  C244     1.0000 0.81286  0.70147  0.25714  Biso   1.000  C
  H209     1.0000 0.77509  0.71441  0.31059  Biso   1.000  H
  C245     1.0000 0.96746  0.95161  0.26782  Biso   1.000  C
  H210     1.0000 0.95481  0.99711  0.24009  Biso   1.000  H
  H211     1.0000 0.98850  0.91100  0.30422  Biso   1.000  H
  H212     1.0000 0.80091  0.87969  0.76422  Biso   1.000  H
  C246     1.0000 0.76526  0.90037  0.81879  Biso   1.000  C
  H213     1.0000 0.72581  0.92379  0.85431  Biso   1.000  H
  C247     1.0000 0.81799  0.73323  0.22202  Biso   1.000  C
  C248     1.0000 0.81269  0.73714  0.24239  Biso   1.000  C
  C249     1.0000 0.93828  0.93522  0.23828  Biso   1.000  C
  C250     1.0000 0.78066  0.89179  0.88292  Biso   1.000  C
  C251     1.0000 0.81631  0.75969  0.26370  Biso   1.000  C
  C252     1.0000 0.82460  0.73767  0.15588  Biso   1.000  C
  C253     1.0000 0.78710  0.75531  0.21839  Biso   1.000  C
  C254     1.0000 0.84371  0.74979  0.24161  Biso   1.000  C
  C255     1.0000 0.92917  0.94047  0.17371  Biso   1.000  C
  C256     1.0000 0.92230  0.91230  0.27580  Biso   1.000  C
  C257     1.0000 0.91039  0.95040  0.21829  Biso   1.000  C
  C258     1.0000 0.94129  0.90191  0.23118  Biso   1.000  C
  C259     1.0000 0.81394  0.89261  0.89051  Biso   1.000  C
  C260     1.0000 0.76107  0.88429  0.93602  Biso   1.000  C
  C261     1.0000 0.82110  0.79054  0.23921  Biso   1.000  C
  H214     1.0000 0.81180  0.75661  0.30892  Biso   1.000  H
  H215     1.0000 0.82580  0.71959  0.12742  Biso   1.000  H
  C262     1.0000 0.82939  0.76854  0.13139  Biso   1.000  C
  H216     1.0000 0.76589  0.74661  0.21888  Biso   1.000  H
  C263     1.0000 0.79250  0.78599  0.19370  Biso   1.000  C
  C264     1.0000 0.84911  0.78049  0.21692  Biso   1.000  C
  H217     1.0000 0.86121  0.73740  0.25802  Biso   1.000  H
  C265     1.0000 0.90408  0.92276  0.14652  Biso   1.000  C
  H218     1.0000 0.94011  0.95621  0.14809  Biso   1.000  H
  H219     1.0000 0.92849  0.90871  0.31989  Biso   1.000  H
  C266     1.0000 0.89721  0.89454  0.24862  Biso   1.000  C
  H220     1.0000 0.90839  0.97310  0.22319  Biso   1.000  H
  C267     1.0000 0.88540  0.93281  0.19120  Biso   1.000  C
  C268     1.0000 0.91601  0.88369  0.20360  Biso   1.000  C
  H221     1.0000 0.96050  0.89140  0.24489  Biso   1.000  H
  H222     1.0000 0.82730  0.89769  0.85421  Biso   1.000  H
  C269     1.0000 0.82766  0.88591  0.95111  Biso   1.000  C
  C270     1.0000 0.77478  0.87762  0.99672  Biso   1.000  C
  H223     1.0000 0.73829  0.88381  0.93088  Biso   1.000  H
  C271     1.0000 0.82771  0.79500  0.17298  Biso   1.000  C
  H224     1.0000 0.81990  0.80859  0.26762  Biso   1.000  H
  C272     1.0000 0.82349  0.79862  0.19292  Biso   1.000  C
  H225     1.0000 0.83390  0.77160  0.08622  Biso   1.000  H
  H226     1.0000 0.77500  0.79840  0.17729  Biso   1.000  H
  H227     1.0000 0.87029  0.78910  0.21638  Biso   1.000  H
  C273     1.0000 0.88810  0.89979  0.18390  Biso   1.000  C
  H228     1.0000 0.89791  0.92640  0.10229  Biso   1.000  H
  H229     1.0000 0.88629  0.87880  0.27419  Biso   1.000  H
  H230     1.0000 0.86619  0.94351  0.17758  Biso   1.000  H
  H231     1.0000 0.91779  0.86099  0.19860  Biso   1.000  H
  H232     1.0000 0.85041  0.88651  0.95620  Biso   1.000  H
  C274     1.0000 0.80806  0.87841  0.00421  Biso   1.000  C
  H233     1.0000 0.76141  0.87251  0.03302  Biso   1.000  H
  C275     1.0000 0.83103  0.82973  0.15368  Biso   1.000  C
  C276     1.0000 0.86333  0.87791  0.15172  Biso   1.000  C
  C277     1.0000 0.82337  0.86892  0.06814  Biso   1.000  C
  C278     1.0000 0.85511  0.84879  0.18091  Biso   1.000  C
  C279     1.0000 0.81515  0.83978  0.09739  Biso   1.000  C
  C280     1.0000 0.84744  0.88798  0.09528  Biso   1.000  C
  H234     1.0000 0.86600  0.84190  0.21942  Biso   1.000  H
  H235     1.0000 0.79869  0.82679  0.07882  Biso   1.000  H
  H236     1.0000 0.85311  0.90789  0.07539  Biso   1.000  H
  C281     1.0000 0.32316  0.47444  0.50458  Biso   1.000  C
  C282     1.0000 0.33179  0.49054  0.44761  Biso   1.000  C
  C283     1.0000 0.33208  0.48678  0.56528  Biso   1.000  C
  H237     1.0000 0.31121  0.45499  0.50218  Biso   1.000  H
  C284     1.0000 0.32020  0.47919  0.38098  Biso   1.000  C
  C285     1.0000 0.34934  0.51903  0.45109  Biso   1.000  C
  C286     1.0000 0.34965  0.51527  0.56880  Biso   1.000  C
  H238     1.0000 0.32620  0.47579  0.60432  Biso   1.000  H
  N13      1.0000 0.32680  0.49020  0.33209  Biso   1.000  N
  H239     1.0000 0.30620  0.46109  0.38030  Biso   1.000  H
  H240     1.0000 0.35519  0.52999  0.41209  Biso   1.000  H
  C287     1.0000 0.35825  0.53139  0.51178  Biso   1.000  C
  C288     1.0000 0.35820  0.53067  0.63288  Biso   1.000  C
  C289     1.0000 0.31360  0.47550  0.26919  Biso   1.000  C
  H241     1.0000 0.37030  0.55089  0.51418  Biso   1.000  H
  C290     1.0000 0.35741  0.56395  0.64052  Biso   1.000  C
  C291     1.0000 0.36570  0.51107  0.68598  Biso   1.000  C
  C292     1.0000 0.32613  0.49464  0.21232  Biso   1.000  C
  H242     1.0000 0.32061  0.45280  0.26552  Biso   1.000  H
  H243     1.0000 0.28981  0.47601  0.26968  Biso   1.000  H
  H244     1.0000 0.35230  0.57730  0.60422  Biso   1.000  H
  C293     1.0000 0.36409  0.57764  0.70112  Biso   1.000  C
  C294     1.0000 0.37240  0.52479  0.74668  Biso   1.000  C
  H245     1.0000 0.36621  0.48830  0.68089  Biso   1.000  H
  C295     1.0000 0.35577  0.48671  0.18498  Biso   1.000  C
  C296     1.0000 0.30798  0.51958  0.18581  Biso   1.000  C
  H246     1.0000 0.36351  0.60039  0.70622  Biso   1.000  H
  C297     1.0000 0.37158  0.55807  0.75418  Biso   1.000  C
  H247     1.0000 0.37751  0.51141  0.78298  Biso   1.000  H
  C298     1.0000 0.37650  0.45979  0.21339  Biso   1.000  C
  C299     1.0000 0.36729  0.50377  0.13129  Biso   1.000  C
  C300     1.0000 0.31950  0.53664  0.13202  Biso   1.000  C
  C301     1.0000 0.27559  0.52961  0.21692  Biso   1.000  C
  C302     1.0000 0.38108  0.57335  0.81816  Biso   1.000  C
  C303     1.0000 0.36760  0.42520  0.18082  Biso   1.000  C
  H248     1.0000 0.37320  0.45870  0.26130  Biso   1.000  H
  H249     1.0000 0.39949  0.46470  0.20531  Biso   1.000  H
  C304     1.0000 0.34914  0.52872  0.10479  Biso   1.000  C
  C305     1.0000 0.40009  0.49500  0.09979  Biso   1.000  C
  C306     1.0000 0.29870  0.56241  0.10101  Biso   1.000  C
  H250     1.0000 0.27219  0.55301  0.21031  Biso   1.000  H
  H251     1.0000 0.27631  0.52539  0.26459  Biso   1.000  H
  C307     1.0000 0.24621  0.51021  0.18552  Biso   1.000  C
  C308     1.0000 0.36201  0.59745  0.84529  Biso   1.000  C
  C309     1.0000 0.41021  0.56516  0.84740  Biso   1.000  C
  H252     1.0000 0.35049  0.42810  0.14809  Biso   1.000  H
  H253     1.0000 0.36021  0.41041  0.21501  Biso   1.000  H
  H254     1.0000 0.38679  0.41619  0.15951  Biso   1.000  H
  C310     1.0000 0.36180  0.54800  0.04600  Biso   1.000  C
  N14      1.0000 0.42759  0.51389  0.12668  Biso   1.000  N
  H255     1.0000 0.40431  0.47179  0.10670  Biso   1.000  H
  H256     1.0000 0.39869  0.49881  0.05198  Biso   1.000  H
  N15      1.0000 0.30733  0.59143  0.14358  Biso   1.000  N
  H257     1.0000 0.27549  0.55711  0.10420  Biso   1.000  H
  H258     1.0000 0.30451  0.56610  0.05462  Biso   1.000  H
  H259     1.0000 0.24240  0.51789  0.14079  Biso   1.000  H
  H260     1.0000 0.22681  0.51370  0.21202  Biso   1.000  H
  H261     1.0000 0.25139  0.48719  0.18449  Biso   1.000  H
  H262     1.0000 0.34211  0.60309  0.82541  Biso   1.000  H
  C311     1.0000 0.37209  0.61333  0.90168  Biso   1.000  C
  C312     1.0000 0.42026  0.58101  0.90369  Biso   1.000  C
  H263     1.0000 0.42320  0.54869  0.82879  Biso   1.000  H
  H264     1.0000 0.38561  0.54869  0.04771  Biso   1.000  H
  H265     1.0000 0.35370  0.57041  0.04879  Biso   1.000  H
  C313     1.0000 0.35110  0.53301  0.97991  Biso   1.000  C
  C314     1.0000 0.45020  0.49970  0.15108  Biso   1.000  C
  C315     1.0000 0.29383  0.61309  0.13839  Biso   1.000  C
  C316     1.0000 0.40120  0.60511  0.93088  Biso   1.000  C
  C317     1.0000 0.35020  0.63811  0.93391  Biso   1.000  C
  C318     1.0000 0.45502  0.57771  0.92299  Biso   1.000  C
  C319     1.0000 0.45140  0.57349  0.94288  Biso   1.000  C
  H266     1.0000 0.36071  0.54510  0.94371  Biso   1.000  H
  H267     1.0000 0.32750  0.53390  0.97649  Biso   1.000  H
  H268     1.0000 0.35820  0.51050  0.97781  Biso   1.000  H
  C320     1.0000 0.47943  0.51770  0.17729  Biso   1.000  C
  H269     1.0000 0.44959  0.47690  0.15402  Biso   1.000  H
  H270     1.0000 0.27609  0.61391  0.10890  Biso   1.000  H
  C321     1.0000 0.30263  0.64249  0.17729  Biso   1.000  C
  H271     1.0000 0.40809  0.61601  0.96938  Biso   1.000  H
  C322     1.0000 0.32724  0.65409  0.89649  Biso   1.000  C
  C323     1.0000 0.35546  0.64722  0.99858  Biso   1.000  C
  C324     1.0000 0.36630  0.66599  0.95361  Biso   1.000  C
  C325     1.0000 0.31721  0.63541  0.94121  Biso   1.000  C
  C326     1.0000 0.45945  0.57111  0.98922  Biso   1.000  C
  C327     1.0000 0.48145  0.57940  0.88140  Biso   1.000  C
  C328     1.0000 0.46401  0.54250  0.94371  Biso   1.000  C
  C329     1.0000 0.46950  0.59909  0.96688  Biso   1.000  C
  C330     1.0000 0.50271  0.49982  0.21011  Biso   1.000  C
  C331     1.0000 0.48273  0.55101  0.17190  Biso   1.000  C
  C332     1.0000 0.32716  0.64599  0.22182  Biso   1.000  C
  C333     1.0000 0.28354  0.66850  0.16622  Biso   1.000  C
  H272     1.0000 0.32360  0.64789  0.85230  Biso   1.000  H
  C334     1.0000 0.30952  0.67917  0.92368  Biso   1.000  C
  C335     1.0000 0.33770  0.67231  0.02582  Biso   1.000  C
  H273     1.0000 0.37120  0.63630  0.02420  Biso   1.000  H
  H274     1.0000 0.38901  0.66780  0.94861  Biso   1.000  H
  C336     1.0000 0.34811  0.69130  0.98119  Biso   1.000  C
  C337     1.0000 0.29959  0.66040  0.96830  Biso   1.000  C
  H275     1.0000 0.30651  0.61620  0.92760  Biso   1.000  H
  H276     1.0000 0.44140  0.56990  0.01759  Biso   1.000  H
  C338     1.0000 0.49030  0.56629  0.01372  Biso   1.000  C
  C339     1.0000 0.51233  0.57460  0.90589  Biso   1.000  C
  H277     1.0000 0.47839  0.58391  0.83618  Biso   1.000  H
  C340     1.0000 0.49471  0.53710  0.96840  Biso   1.000  C
  H278     1.0000 0.45159  0.52500  0.92730  Biso   1.000  H
  H279     1.0000 0.46090  0.62030  0.96639  Biso   1.000  H
  C341     1.0000 0.50020  0.59369  0.99162  Biso   1.000  C
  C342     1.0000 0.52925  0.51515  0.23750  Biso   1.000  C
  H280     1.0000 0.50049  0.47709  0.21369  Biso   1.000  H
  H281     1.0000 0.46680  0.56320  0.14951  Biso   1.000  H
  C343     1.0000 0.50929  0.56629  0.19938  Biso   1.000  C
  C344     1.0000 0.33273  0.67503  0.25503  Biso   1.000  C
  H282     1.0000 0.34080  0.62811  0.23039  Biso   1.000  H
  C345     1.0000 0.28899  0.69679  0.19860  Biso   1.000  C
  H283     1.0000 0.26631  0.66700  0.13570  Biso   1.000  H
  H284     1.0000 0.29381  0.69009  0.89810  Biso   1.000  H
  C346     1.0000 0.31480  0.68828  0.98829  Biso   1.000  C
  H285     1.0000 0.34131  0.67850  0.06991  Biso   1.000  H
  H286     1.0000 0.35859  0.71051  0.99491  Biso   1.000  H
  H287     1.0000 0.27689  0.65840  0.97320  Biso   1.000  H
  C347     1.0000 0.51676  0.56800  0.97198  Biso   1.000  C
  C348     1.0000 0.51286  0.56270  0.99241  Biso   1.000  C
  H288     1.0000 0.49341  0.56181  0.05888  Biso   1.000  H
  H289     1.0000 0.53040  0.57581  0.87738  Biso   1.000  H
  H290     1.0000 0.50341  0.51589  0.96889  Biso   1.000  H
  H291     1.0000 0.51259  0.61121  0.00799  Biso   1.000  H
  C349     1.0000 0.53252  0.54841  0.23220  Biso   1.000  C
  H292     1.0000 0.54520  0.50290  0.25988  Biso   1.000  H
  H293     1.0000 0.51151  0.58899  0.19581  Biso   1.000  H
  H294     1.0000 0.34989  0.67669  0.28560  Biso   1.000  H
  C350     1.0000 0.31285  0.70147  0.24288  Biso   1.000  C
  H295     1.0000 0.27511  0.71441  0.18939  Biso   1.000  H
  C351     1.0000 0.29841  0.71747  0.01778  Biso   1.000  C
  C352     1.0000 0.54855  0.56284  0.00710  Biso   1.000  C
  C353     1.0000 0.56171  0.56479  0.26170  Biso   1.000  C
  C354     1.0000 0.31801  0.73323  0.27801  Biso   1.000  C
  C355     1.0000 0.31270  0.73714  0.25758  Biso   1.000  C
  C356     1.0000 0.26513  0.72075  0.01249  Biso   1.000  C
  C357     1.0000 0.31627  0.74070  0.05061  Biso   1.000  C
  C358     1.0000 0.57496  0.58275  0.99500  Biso   1.000  C
  C359     1.0000 0.55320  0.53898  0.05139  Biso   1.000  C
  C360     1.0000 0.57082  0.55954  0.32631  Biso   1.000  C
  C361     1.0000 0.57769  0.58769  0.22422  Biso   1.000  C
  C362     1.0000 0.58959  0.54961  0.28168  Biso   1.000  C
  C363     1.0000 0.55870  0.59810  0.26880  Biso   1.000  C
  C364     1.0000 0.31629  0.75969  0.23632  Biso   1.000  C
  C365     1.0000 0.32461  0.73767  0.34409  Biso   1.000  C
  C366     1.0000 0.28711  0.75531  0.28159  Biso   1.000  C
  C367     1.0000 0.34370  0.74979  0.25841  Biso   1.000  C
  H296     1.0000 0.25291  0.70479  0.99010  Biso   1.000  H
  C368     1.0000 0.24980  0.74731  0.03988  Biso   1.000  C
  C369     1.0000 0.30099  0.76729  0.07809  Biso   1.000  C
  H297     1.0000 0.33900  0.73851  0.05418  Biso   1.000  H
  H298     1.0000 0.57330  0.59991  0.96439  Biso   1.000  H
  C370     1.0000 0.60401  0.57716  0.02822  Biso   1.000  C
  H299     1.0000 0.53561  0.52510  0.06060  Biso   1.000  H
  C371     1.0000 0.58150  0.53354  0.08382  Biso   1.000  C
  C372     1.0000 0.59591  0.57723  0.35350  Biso   1.000  C
  H300     1.0000 0.55990  0.54380  0.35188  Biso   1.000  H
  H301     1.0000 0.57149  0.59130  0.18008  Biso   1.000  H
  C373     1.0000 0.60278  0.60545  0.25141  Biso   1.000  C
  H302     1.0000 0.59159  0.52691  0.27678  Biso   1.000  H
  C374     1.0000 0.61461  0.56720  0.30882  Biso   1.000  C
  C375     1.0000 0.58400  0.61630  0.29638  Biso   1.000  C
  H303     1.0000 0.53949  0.60861  0.25508  Biso   1.000  H
  C376     1.0000 0.32109  0.79054  0.26081  Biso   1.000  C
  H304     1.0000 0.31181  0.75661  0.19110  Biso   1.000  H
  H305     1.0000 0.32579  0.71959  0.37261  Biso   1.000  H
  C377     1.0000 0.32940  0.76854  0.36859  Biso   1.000  C
  H306     1.0000 0.26590  0.74661  0.28110  Biso   1.000  H
  C378     1.0000 0.29251  0.78599  0.30632  Biso   1.000  C
  C379     1.0000 0.34910  0.78049  0.28310  Biso   1.000  C
  H307     1.0000 0.36119  0.73740  0.24200  Biso   1.000  H
  H308     1.0000 0.22710  0.74950  0.03630  Biso   1.000  H
  C380     1.0000 0.26771  0.77056  0.07270  Biso   1.000  C
  H309     1.0000 0.31321  0.78319  0.10052  Biso   1.000  H
  H310     1.0000 0.62189  0.59080  0.01960  Biso   1.000  H
  C381     1.0000 0.60750  0.55262  0.07270  Biso   1.000  C
  H311     1.0000 0.58299  0.51630  0.11429  Biso   1.000  H
  C382     1.0000 0.61189  0.60020  0.31612  Biso   1.000  C
  H312     1.0000 0.60210  0.57359  0.39769  Biso   1.000  H
  H313     1.0000 0.61369  0.62119  0.22579  Biso   1.000  H
  H314     1.0000 0.63379  0.55650  0.32239  Biso   1.000  H
  H315     1.0000 0.58219  0.63900  0.30138  Biso   1.000  H
  C383     1.0000 0.32769  0.79500  0.32700  Biso   1.000  C
  H316     1.0000 0.31991  0.80859  0.23240  Biso   1.000  H
  C384     1.0000 0.32350  0.79862  0.30711  Biso   1.000  C
  H317     1.0000 0.33391  0.77160  0.41380  Biso   1.000  H
  H318     1.0000 0.27501  0.79840  0.32269  Biso   1.000  H
  H319     1.0000 0.37030  0.78910  0.28359  Biso   1.000  H
  C385     1.0000 0.24970  0.79980  0.09891  Biso   1.000  C
  C386     1.0000 0.63690  0.54383  0.11160  Biso   1.000  C
  C387     1.0000 0.63666  0.62208  0.34831  Biso   1.000  C
  C388     1.0000 0.33102  0.82973  0.34630  Biso   1.000  C
  N16      1.0000 0.26390  0.82240  0.12330  Biso   1.000  N
  H320     1.0000 0.22691  0.80040  0.09602  Biso   1.000  H
  N17      1.0000 0.65857  0.55735  0.10640  Biso   1.000  N
  H321     1.0000 0.63611  0.52609  0.14109  Biso   1.000  H
  C389     1.0000 0.65254  0.61203  0.40469  Biso   1.000  C
  C390     1.0000 0.64488  0.65122  0.31911  Biso   1.000  C
  C391     1.0000 0.35512  0.84879  0.31911  Biso   1.000  C
  C392     1.0000 0.31516  0.83978  0.40259  Biso   1.000  C
  C393     1.0000 0.24501  0.84990  0.15020  Biso   1.000  C
  C394     1.0000 0.68761  0.54869  0.14902  Biso   1.000  C
  C395     1.0000 0.67664  0.63107  0.43183  Biso   1.000  C
  H322     1.0000 0.64690  0.59210  0.42458  Biso   1.000  H
  H323     1.0000 0.63401  0.65811  0.28061  Biso   1.000  H
  C396     1.0000 0.66898  0.67028  0.34630  Biso   1.000  C
  C397     1.0000 0.36334  0.87791  0.34831  Biso   1.000  C
  H324     1.0000 0.36599  0.84190  0.28061  Biso   1.000  H
  C398     1.0000 0.32336  0.86892  0.43183  Biso   1.000  C
  H325     1.0000 0.29870  0.82679  0.42120  Biso   1.000  H
  C399     1.0000 0.25375  0.88270  0.11870  Biso   1.000  C
  H326     1.0000 0.22180  0.84571  0.14329  Biso   1.000  H
  H327     1.0000 0.24879  0.85130  0.19801  Biso   1.000  H
  C400     1.0000 0.71335  0.56949  0.11801  Biso   1.000  C
  H328     1.0000 0.69289  0.52551  0.14579  Biso   1.000  H
  H329     1.0000 0.68390  0.55450  0.19541  Biso   1.000  H
  C401     1.0000 0.69192  0.62160  0.49581  Biso   1.000  C
  C402     1.0000 0.68484  0.66021  0.40259  Biso   1.000  C
  C403     1.0000 0.67231  0.70501  0.32700  Biso   1.000  C
  C404     1.0000 0.67650  0.70140  0.30711  Biso   1.000  C
  C405     1.0000 0.34746  0.88798  0.40469  Biso   1.000  C
  C406     1.0000 0.38811  0.89979  0.31612  Biso   1.000  C
  C407     1.0000 0.30808  0.87841  0.49581  Biso   1.000  C
  C408     1.0000 0.27872  0.90085  0.14520  Biso   1.000  C
  C409     1.0000 0.23671  0.89422  0.06501  Biso   1.000  C
  C410     1.0000 0.73041  0.55797  0.06422  Biso   1.000  C
  C411     1.0000 0.72128  0.59916  0.14520  Biso   1.000  C
  C412     1.0000 0.67235  0.61408  0.54891  Biso   1.000  C
  C413     1.0000 0.72523  0.62239  0.50331  Biso   1.000  C
  H330     1.0000 0.70130  0.67320  0.42120  Biso   1.000  H
  C414     1.0000 0.67891  0.70944  0.26081  Biso   1.000  C
  C415     1.0000 0.67060  0.73145  0.36859  Biso   1.000  C
  C416     1.0000 0.70749  0.71400  0.30632  Biso   1.000  C
  C417     1.0000 0.65090  0.71949  0.28310  Biso   1.000  C
  H331     1.0000 0.35310  0.90789  0.42458  Biso   1.000  H
  C418     1.0000 0.40409  0.92276  0.35350  Biso   1.000  C
  C419     1.0000 0.39722  0.89454  0.25141  Biso   1.000  C
  C420     1.0000 0.41600  0.88369  0.29638  Biso   1.000  C
  C421     1.0000 0.38539  0.93281  0.30882  Biso   1.000  C
  C422     1.0000 0.32765  0.88591  0.54891  Biso   1.000  C
  C423     1.0000 0.27477  0.87762  0.50331  Biso   1.000  C
  C424     1.0000 0.28665  0.93052  0.11801  Biso   1.000  C
  C425     1.0000 0.29800  0.88820  0.20399  Biso   1.000  C
  C426     1.0000 0.24462  0.92389  0.03772  Biso   1.000  C
  C427     1.0000 0.20979  0.87350  0.03659  Biso   1.000  C
  C428     1.0000 0.75538  0.57612  0.03772  Biso   1.000  C
  C429     1.0000 0.72041  0.52561  0.03312  Biso   1.000  C
  C430     1.0000 0.74625  0.61731  0.11870  Biso   1.000  C
  C431     1.0000 0.70200  0.61179  0.20399  Biso   1.000  C
  C432     1.0000 0.68604  0.60740  0.60951  Biso   1.000  C
  H332     1.0000 0.64960  0.61350  0.54382  Biso   1.000  H
  H333     1.0000 0.73861  0.62750  0.46701  Biso   1.000  H
  C433     1.0000 0.73892  0.61569  0.56400  Biso   1.000  C
  H334     1.0000 0.68009  0.69139  0.23240  Biso   1.000  H
  C434     1.0000 0.68371  0.74029  0.23632  Biso   1.000  C
  C435     1.0000 0.67539  0.76232  0.34409  Biso   1.000  C
  H335     1.0000 0.66609  0.72841  0.41380  Biso   1.000  H
  C436     1.0000 0.71289  0.74470  0.28159  Biso   1.000  C
  H336     1.0000 0.72499  0.70159  0.32269  Biso   1.000  H
  H337     1.0000 0.62970  0.71089  0.28359  Biso   1.000  H
  C437     1.0000 0.65630  0.75020  0.25841  Biso   1.000  C
  H338     1.0000 0.39790  0.92640  0.39769  Biso   1.000  H
  C438     1.0000 0.42918  0.94047  0.32631  Biso   1.000  C
  C439     1.0000 0.42231  0.91230  0.22422  Biso   1.000  C
  H339     1.0000 0.38631  0.87880  0.22579  Biso   1.000  H
  H340     1.0000 0.41781  0.86099  0.30138  Biso   1.000  H
  C440     1.0000 0.44130  0.90191  0.26880  Biso   1.000  C
  C441     1.0000 0.41041  0.95040  0.28168  Biso   1.000  C
  H341     1.0000 0.36621  0.94351  0.32239  Biso   1.000  H
  C442     1.0000 0.31396  0.89261  0.60951  Biso   1.000  C
  H342     1.0000 0.35040  0.88651  0.54382  Biso   1.000  H
  H343     1.0000 0.26139  0.87251  0.46701  Biso   1.000  H
  C443     1.0000 0.26108  0.88429  0.56400  Biso   1.000  C
  C444     1.0000 0.26959  0.94204  0.06422  Biso   1.000  C
  C445     1.0000 0.31239  0.95129  0.14902  Biso   1.000  C
  H344     1.0000 0.29870  0.86441  0.20232  Biso   1.000  H
  H345     1.0000 0.32039  0.89630  0.20120  Biso   1.000  H
  C446     1.0000 0.28301  0.89890  0.27012  Biso   1.000  C
  C447     1.0000 0.22551  0.93640  0.98080  Biso   1.000  C
  H346     1.0000 0.20871  0.87680  0.98868  Biso   1.000  H
  H347     1.0000 0.21471  0.85050  0.04468  Biso   1.000  H
  C448     1.0000 0.17521  0.88239  0.06922  Biso   1.000  C
  C449     1.0000 0.77449  0.56359  0.98080  Biso   1.000  C
  C450     1.0000 0.76329  0.60579  0.06501  Biso   1.000  C
  H348     1.0000 0.72460  0.52631  0.98540  Biso   1.000  H
  H349     1.0000 0.69701  0.52221  0.03968  Biso   1.000  H
  C451     1.0000 0.73981  0.49620  0.06452  Biso   1.000  C
  C452     1.0000 0.75499  0.65011  0.15020  Biso   1.000  C
  H350     1.0000 0.70130  0.63560  0.20232  Biso   1.000  H
  H351     1.0000 0.67961  0.60369  0.20120  Biso   1.000  H
  C453     1.0000 0.71699  0.60109  0.27012  Biso   1.000  C
  C454     1.0000 0.71935  0.60820  0.61711  Biso   1.000  C
  H352     1.0000 0.67269  0.60229  0.64581  Biso   1.000  H
  H353     1.0000 0.76169  0.61620  0.56910  Biso   1.000  H
  H354     1.0000 0.68819  0.74340  0.19110  Biso   1.000  H
  C455     1.0000 0.68199  0.76678  0.27801  Biso   1.000  C
  C456     1.0000 0.68730  0.76285  0.25758  Biso   1.000  C
  H355     1.0000 0.67421  0.78040  0.37261  Biso   1.000  H
  H356     1.0000 0.73410  0.75340  0.28110  Biso   1.000  H
  H357     1.0000 0.63881  0.76261  0.24200  Biso   1.000  H
  H358     1.0000 0.44010  0.95621  0.35188  Biso   1.000  H
  C457     1.0000 0.43829  0.93522  0.26170  Biso   1.000  C
  H359     1.0000 0.42851  0.90871  0.18008  Biso   1.000  H
  H360     1.0000 0.46051  0.89140  0.25508  Biso   1.000  H
  H361     1.0000 0.40841  0.97310  0.27678  Biso   1.000  H
  C458     1.0000 0.28065  0.89179  0.61711  Biso   1.000  C
  H362     1.0000 0.32731  0.89769  0.64581  Biso   1.000  H
  H363     1.0000 0.23831  0.88381  0.56910  Biso   1.000  H
  C459     1.0000 0.27959  0.97441  0.03312  Biso   1.000  C
  N18      1.0000 0.34143  0.94267  0.10640  Biso   1.000  N
  H364     1.0000 0.30711  0.97450  0.14579  Biso   1.000  H
  H365     1.0000 0.31610  0.94551  0.19541  Biso   1.000  H
  H366     1.0000 0.29511  0.88931  0.30632  Biso   1.000  H
  H367     1.0000 0.28390  0.92249  0.27350  Biso   1.000  H
  H368     1.0000 0.26050  0.89179  0.27218  Biso   1.000  H
  N19      1.0000 0.24021  0.92319  0.91790  Biso   1.000  N
  H369     1.0000 0.20281  0.92941  0.98452  Biso   1.000  H
  H370     1.0000 0.22599  0.96021  0.98031  Biso   1.000  H
  H371     1.0000 0.17810  0.89950  0.10190  Biso   1.000  H
  H372     1.0000 0.16039  0.88979  0.03498  Biso   1.000  H
  H373     1.0000 0.16620  0.86321  0.09048  Biso   1.000  H
  N20      1.0000 0.75979  0.57680  0.91790  Biso   1.000  N
  H374     1.0000 0.79719  0.57060  0.98452  Biso   1.000  H
  H375     1.0000 0.77401  0.53980  0.98031  Biso   1.000  H
  C460     1.0000 0.79021  0.62649  0.03659  Biso   1.000  C
  H376     1.0000 0.73210  0.49240  0.10920  Biso   1.000  H
  H377     1.0000 0.73629  0.47680  0.03801  Biso   1.000  H
  H378     1.0000 0.76280  0.50141  0.06550  Biso   1.000  H
  N21      1.0000 0.73610  0.67761  0.12330  Biso   1.000  N
  H379     1.0000 0.77820  0.65430  0.14329  Biso   1.000  H
  H380     1.0000 0.75121  0.64871  0.19801  Biso   1.000  H
  H381     1.0000 0.70489  0.61071  0.30632  Biso   1.000  H
  H382     1.0000 0.71610  0.57749  0.27350  Biso   1.000  H
  H383     1.0000 0.73950  0.60820  0.27218  Biso   1.000  H
  C461     1.0000 0.73473  0.59964  0.68118  Biso   1.000  C
  C462     1.0000 0.68715  0.79854  0.24288  Biso   1.000  C
  C463     1.0000 0.46748  0.95161  0.23220  Biso   1.000  C
  C464     1.0000 0.26527  0.90037  0.68118  Biso   1.000  C
  H384     1.0000 0.27540  0.97371  0.98540  Biso   1.000  H
  H385     1.0000 0.30299  0.97780  0.03968  Biso   1.000  H
  C465     1.0000 0.26019  0.00381  0.06452  Biso   1.000  C
  C466     1.0000 0.36310  0.95616  0.11160  Biso   1.000  C
  C467     1.0000 0.22920  0.92980  0.86901  Biso   1.000  C
  C468     1.0000 0.77080  0.57019  0.86901  Biso   1.000  C
  H386     1.0000 0.79129  0.62319  0.98868  Biso   1.000  H
  H387     1.0000 0.78529  0.64951  0.04468  Biso   1.000  H
  C469     1.0000 0.82479  0.61760  0.06922  Biso   1.000  C
  C470     1.0000 0.75030  0.70019  0.09891  Biso   1.000  C
  C471     1.0000 0.71860  0.60827  0.73821  Biso   1.000  C
  C472     1.0000 0.76321  0.58210  0.68471  Biso   1.000  C
  C473     1.0000 0.66727  0.82496  0.25503  Biso   1.000  C
  C474     1.0000 0.71101  0.80320  0.19860  Biso   1.000  C
  C475     1.0000 0.47075  0.98486  0.23750  Biso   1.000  C
  C476     1.0000 0.49071  0.93372  0.19938  Biso   1.000  C
  C477     1.0000 0.28140  0.89174  0.73821  Biso   1.000  C
  C478     1.0000 0.23679  0.91791  0.68471  Biso   1.000  C
  H388     1.0000 0.23720  0.99860  0.06550  Biso   1.000  H
  H389     1.0000 0.26790  0.00759  0.10920  Biso   1.000  H
  H390     1.0000 0.26371  0.02321  0.03801  Biso   1.000  H
  H391     1.0000 0.36389  0.97390  0.14109  Biso   1.000  H
  C479     1.0000 0.39250  0.94739  0.07270  Biso   1.000  C
  C480     1.0000 0.24055  0.91823  0.80238  Biso   1.000  C
  H392     1.0000 0.21110  0.94380  0.86969  Biso   1.000  H
  C481     1.0000 0.75945  0.58178  0.80238  Biso   1.000  C
  H393     1.0000 0.78890  0.55619  0.86969  Biso   1.000  H
  H394     1.0000 0.82190  0.60051  0.10190  Biso   1.000  H
  H395     1.0000 0.83961  0.61020  0.03498  Biso   1.000  H
  H396     1.0000 0.83380  0.63681  0.09048  Biso   1.000  H
  C482     1.0000 0.73229  0.72945  0.07270  Biso   1.000  C
  H397     1.0000 0.77309  0.69961  0.09602  Biso   1.000  H
  C483     1.0000 0.73097  0.59933  0.79890  Biso   1.000  C
  H398     1.0000 0.69911  0.62030  0.73581  Biso   1.000  H
  H399     1.0000 0.77420  0.57619  0.64572  Biso   1.000  H
  C484     1.0000 0.77558  0.57316  0.74541  Biso   1.000  C
  H400     1.0000 0.65011  0.82330  0.28560  Biso   1.000  H
  C485     1.0000 0.67284  0.85400  0.22182  Biso   1.000  C
  H401     1.0000 0.72489  0.78560  0.18939  Biso   1.000  H
  C486     1.0000 0.71646  0.83149  0.16622  Biso   1.000  C
  H402     1.0000 0.45480  0.99711  0.25988  Biso   1.000  H
  C487     1.0000 0.49729  0.00019  0.21011  Biso   1.000  C
  C488     1.0000 0.51727  0.94900  0.17190  Biso   1.000  C
  H403     1.0000 0.48849  0.91100  0.19581  Biso   1.000  H
  C489     1.0000 0.26903  0.90068  0.79890  Biso   1.000  C
  H404     1.0000 0.30089  0.87969  0.73581  Biso   1.000  H
  H405     1.0000 0.22580  0.92379  0.64572  Biso   1.000  H
  C490     1.0000 0.22442  0.92683  0.74541  Biso   1.000  C
  C491     1.0000 0.39599  0.92283  0.02822  Biso   1.000  C
  C492     1.0000 0.41850  0.96645  0.08382  Biso   1.000  C
  C493     1.0000 0.75020  0.75271  0.03988  Biso   1.000  C
  C494     1.0000 0.69901  0.73273  0.07809  Biso   1.000  C
  H406     1.0000 0.72000  0.60521  0.83790  Biso   1.000  H
  H407     1.0000 0.79500  0.56120  0.74781  Biso   1.000  H
  H408     1.0000 0.65920  0.87191  0.23039  Biso   1.000  H
  C495     1.0000 0.69737  0.85749  0.17729  Biso   1.000  C
  H409     1.0000 0.73369  0.83301  0.13570  Biso   1.000  H
  C496     1.0000 0.52057  0.98231  0.17729  Biso   1.000  C
  H410     1.0000 0.49951  0.02290  0.21369  Biso   1.000  H
  H411     1.0000 0.53320  0.93681  0.14951  Biso   1.000  H
  H412     1.0000 0.28000  0.89480  0.83790  Biso   1.000  H
  H413     1.0000 0.20500  0.93881  0.74781  Biso   1.000  H
  C497     1.0000 0.42504  0.91726  0.99500  Biso   1.000  C
  H414     1.0000 0.37811  0.90919  0.01960  Biso   1.000  H
  C498     1.0000 0.44680  0.96101  0.05139  Biso   1.000  C
  H415     1.0000 0.41701  0.98371  0.11429  Biso   1.000  H
  C499     1.0000 0.73487  0.77924  0.01249  Biso   1.000  C
  H416     1.0000 0.77290  0.75049  0.03630  Biso   1.000  H
  H417     1.0000 0.68679  0.71680  0.10052  Biso   1.000  H
  C500     1.0000 0.68373  0.75931  0.05061  Biso   1.000  C
  C501     1.0000 0.70617  0.88690  0.13839  Biso   1.000  C
  C502     1.0000 0.54980  0.00029  0.15108  Biso   1.000  C
  H418     1.0000 0.42670  0.90010  0.96439  Biso   1.000  H
  C503     1.0000 0.45145  0.93715  0.00710  Biso   1.000  C
  H419     1.0000 0.46439  0.97491  0.06060  Biso   1.000  H
  H420     1.0000 0.74709  0.79519  0.99010  Biso   1.000  H
  C504     1.0000 0.70159  0.78254  0.01778  Biso   1.000  C
  H421     1.0000 0.66100  0.76150  0.05418  Biso   1.000  H
  N22      1.0000 0.69267  0.90859  0.14358  Biso   1.000  N
  H422     1.0000 0.72391  0.88610  0.10890  Biso   1.000  H
  N23      1.0000 0.57241  0.98609  0.12668  Biso   1.000  N
  H423     1.0000 0.55041  0.02309  0.15402  Biso   1.000  H
  C505     1.0000 0.48324  0.93199  0.97198  Biso   1.000  C
  C506     1.0000 0.48714  0.93729  0.99241  Biso   1.000  C
  C507     1.0000 0.68520  0.81170  0.98829  Biso   1.000  C
  C508     1.0000 0.70130  0.93760  0.10101  Biso   1.000  C
  C509     1.0000 0.59991  0.00499  0.09979  Biso   1.000  C
  C510     1.0000 0.48767  0.92541  0.90589  Biso   1.000  C
  C511     1.0000 0.50529  0.96291  0.96840  Biso   1.000  C
  C512     1.0000 0.49980  0.90630  0.99162  Biso   1.000  C
  C513     1.0000 0.50970  0.93370  0.01372  Biso   1.000  C
  C514     1.0000 0.69048  0.82081  0.92368  Biso   1.000  C
  C515     1.0000 0.70041  0.83961  0.96830  Biso   1.000  C
  C516     1.0000 0.65189  0.80869  0.98119  Biso   1.000  C
  C517     1.0000 0.66230  0.82768  0.02582  Biso   1.000  C
  C518     1.0000 0.68050  0.96337  0.13202  Biso   1.000  C
  H424     1.0000 0.72451  0.94291  0.10420  Biso   1.000  H
  H425     1.0000 0.69549  0.93389  0.05462  Biso   1.000  H
  C519     1.0000 0.63271  0.99624  0.13129  Biso   1.000  C
  H426     1.0000 0.59569  0.02820  0.10670  Biso   1.000  H
  H427     1.0000 0.60131  0.00121  0.05198  Biso   1.000  H
  H428     1.0000 0.46960  0.92420  0.87738  Biso   1.000  H
  C520     1.0000 0.51855  0.92059  0.88140  Biso   1.000  C
  H429     1.0000 0.49659  0.98409  0.96889  Biso   1.000  H
  C521     1.0000 0.53599  0.95751  0.94371  Biso   1.000  C
  C522     1.0000 0.53050  0.90090  0.96688  Biso   1.000  C
  H430     1.0000 0.48741  0.88880  0.00799  Biso   1.000  H
  C523     1.0000 0.54055  0.92890  0.98922  Biso   1.000  C
  H431     1.0000 0.50659  0.93821  0.05888  Biso   1.000  H
  C524     1.0000 0.67276  0.84590  0.89649  Biso   1.000  C
  H432     1.0000 0.70619  0.80990  0.89810  Biso   1.000  H
  H433     1.0000 0.72311  0.84161  0.97320  Biso   1.000  H
  C525     1.0000 0.68279  0.86460  0.94121  Biso   1.000  C
  C526     1.0000 0.63370  0.83400  0.95361  Biso   1.000  C
  H434     1.0000 0.64141  0.78951  0.99491  Biso   1.000  H
  C527     1.0000 0.64454  0.85277  0.99858  Biso   1.000  C
  H435     1.0000 0.65869  0.82149  0.06991  Biso   1.000  H
  C528     1.0000 0.69202  0.98041  0.18581  Biso   1.000  C
  C529     1.0000 0.65086  0.97127  0.10479  Biso   1.000  C
  C530     1.0000 0.64423  0.01328  0.18498  Biso   1.000  C
  C531     1.0000 0.54498  0.92230  0.92299  Biso   1.000  C
  H436     1.0000 0.52161  0.91611  0.83618  Biso   1.000  H
  H437     1.0000 0.54841  0.97501  0.92730  Biso   1.000  H
  C532     1.0000 0.54860  0.92649  0.94288  Biso   1.000  C
  H438     1.0000 0.53910  0.87969  0.96639  Biso   1.000  H
  H439     1.0000 0.55860  0.93011  0.01759  Biso   1.000  H
  C533     1.0000 0.64980  0.86188  0.93391  Biso   1.000  C
  H440     1.0000 0.67640  0.85210  0.85230  Biso   1.000  H
  H441     1.0000 0.69349  0.88381  0.92760  Biso   1.000  H
  H442     1.0000 0.61099  0.83219  0.94861  Biso   1.000  H
  H443     1.0000 0.62880  0.86371  0.02420  Biso   1.000  H
  C534     1.0000 0.72441  0.97040  0.21692  Biso   1.000  C
  C535     1.0000 0.67387  0.00537  0.21232  Biso   1.000  C
  C536     1.0000 0.63820  0.95199  0.04600  Biso   1.000  C
  C537     1.0000 0.62350  0.04020  0.21339  Biso   1.000  C
  C538     1.0000 0.57974  0.91897  0.90369  Biso   1.000  C
  C539     1.0000 0.62791  0.88668  0.90168  Biso   1.000  C
  H444     1.0000 0.72781  0.94700  0.21031  Biso   1.000  H
  H445     1.0000 0.72369  0.97460  0.26459  Biso   1.000  H
  C540     1.0000 0.75379  0.98981  0.18552  Biso   1.000  C
  C541     1.0000 0.68640  0.02451  0.26919  Biso   1.000  C
  H446     1.0000 0.61439  0.95129  0.04771  Biso   1.000  H
  H447     1.0000 0.64630  0.92960  0.04879  Biso   1.000  H
  C542     1.0000 0.64890  0.96701  0.97991  Biso   1.000  C
  H448     1.0000 0.62680  0.04131  0.26130  Biso   1.000  H
  H449     1.0000 0.60051  0.03531  0.20531  Biso   1.000  H
  C543     1.0000 0.63240  0.07481  0.18082  Biso   1.000  C
  C544     1.0000 0.59880  0.89487  0.93088  Biso   1.000  C
  C545     1.0000 0.58979  0.93486  0.84740  Biso   1.000  C
  C546     1.0000 0.63799  0.90256  0.84529  Biso   1.000  C
  H450     1.0000 0.75760  0.98209  0.14079  Biso   1.000  H
  H451     1.0000 0.77319  0.98631  0.21202  Biso   1.000  H
  H452     1.0000 0.74861  0.01280  0.18449  Biso   1.000  H
  N24      1.0000 0.67320  0.00981  0.33209  Biso   1.000  N
  H453     1.0000 0.67939  0.04719  0.26552  Biso   1.000  H
  H454     1.0000 0.71019  0.02400  0.26968  Biso   1.000  H
  H455     1.0000 0.63929  0.95491  0.94371  Biso   1.000  H
  H456     1.0000 0.67250  0.96609  0.97649  Biso   1.000  H
  H457     1.0000 0.64180  0.98949  0.97781  Biso   1.000  H
  H458     1.0000 0.64951  0.07189  0.14809  Biso   1.000  H
  H459     1.0000 0.63979  0.08961  0.21501  Biso   1.000  H
  H460     1.0000 0.61321  0.08380  0.15951  Biso   1.000  H
  H461     1.0000 0.59191  0.88400  0.96938  Biso   1.000  H
  C547     1.0000 0.61892  0.92664  0.81816  Biso   1.000  C
  H462     1.0000 0.57680  0.95129  0.82879  Biso   1.000  H
  H463     1.0000 0.65789  0.89690  0.82541  Biso   1.000  H
  C548     1.0000 0.67980  0.02080  0.38098  Biso   1.000  C
  C549     1.0000 0.62842  0.94194  0.75418  Biso   1.000  C
  H464     1.0000 0.69380  0.03890  0.38030  Biso   1.000  H
  C550     1.0000 0.66821  0.00945  0.44761  Biso   1.000  C
  C551     1.0000 0.63591  0.92235  0.70112  Biso   1.000  C
  C552     1.0000 0.62760  0.97522  0.74668  Biso   1.000  C
  C553     1.0000 0.65066  0.98096  0.45109  Biso   1.000  C
  C554     1.0000 0.67684  0.02557  0.50458  Biso   1.000  C
  C555     1.0000 0.64259  0.93606  0.64052  Biso   1.000  C
  H465     1.0000 0.63649  0.89960  0.70622  Biso   1.000  H
  C556     1.0000 0.63430  0.98891  0.68598  Biso   1.000  C
  H466     1.0000 0.62249  0.98860  0.78298  Biso   1.000  H
  H467     1.0000 0.64481  0.96999  0.41209  Biso   1.000  H
  C557     1.0000 0.64175  0.96862  0.51178  Biso   1.000  C
  C558     1.0000 0.66792  0.01321  0.56528  Biso   1.000  C
  H468     1.0000 0.68879  0.04500  0.50218  Biso   1.000  H
  C559     1.0000 0.64180  0.96934  0.63288  Biso   1.000  C
  H469     1.0000 0.64770  0.92271  0.60422  Biso   1.000  H
  H470     1.0000 0.63379  0.01169  0.68089  Biso   1.000  H
  H471     1.0000 0.62970  0.94910  0.51418  Biso   1.000  H
  C560     1.0000 0.65035  0.98472  0.56880  Biso   1.000  C
  H472     1.0000 0.67380  0.02420  0.60432  Biso   1.000  H
  C561     1.0000 0.26108  0.38431  0.43600  Biso   1.000  C
  C562     1.0000 0.28065  0.39180  0.38289  Biso   1.000  C
  C563     1.0000 0.27477  0.37761  0.49669  Biso   1.000  C
  H473     1.0000 0.23831  0.38380  0.43090  Biso   1.000  H
  C564     1.0000 0.26527  0.40036  0.31882  Biso   1.000  C
  C565     1.0000 0.31396  0.39260  0.39049  Biso   1.000  C
  C566     1.0000 0.30808  0.37840  0.50419  Biso   1.000  C
  H474     1.0000 0.26139  0.37250  0.53299  Biso   1.000  H
  C567     1.0000 0.28140  0.39173  0.26179  Biso   1.000  C
  C568     1.0000 0.23679  0.41790  0.31529  Biso   1.000  C
  H475     1.0000 0.32731  0.39771  0.35419  Biso   1.000  H
  C569     1.0000 0.32765  0.38592  0.45109  Biso   1.000  C
  C570     1.0000 0.32336  0.36893  0.56817  Biso   1.000  C
  C571     1.0000 0.26903  0.40067  0.20110  Biso   1.000  C
  H476     1.0000 0.30089  0.37970  0.26419  Biso   1.000  H
  C572     1.0000 0.22442  0.42684  0.25459  Biso   1.000  C
  H477     1.0000 0.22580  0.42381  0.35428  Biso   1.000  H
  H478     1.0000 0.35040  0.38650  0.45618  Biso   1.000  H
  C573     1.0000 0.34746  0.38797  0.59531  Biso   1.000  C
  C574     1.0000 0.31516  0.33979  0.59741  Biso   1.000  C
  C575     1.0000 0.24055  0.41822  0.19762  Biso   1.000  C
  H479     1.0000 0.28000  0.39479  0.16210  Biso   1.000  H
  H480     1.0000 0.20500  0.43880  0.25219  Biso   1.000  H
  H481     1.0000 0.35310  0.40790  0.57542  Biso   1.000  H
  C576     1.0000 0.36334  0.37792  0.65169  Biso   1.000  C
  C577     1.0000 0.33102  0.32972  0.65370  Biso   1.000  C
  H482     1.0000 0.29870  0.32680  0.57880  Biso   1.000  H
  C578     1.0000 0.22920  0.42981  0.13099  Biso   1.000  C
  C579     1.0000 0.35512  0.34878  0.68089  Biso   1.000  C
  C580     1.0000 0.38811  0.39980  0.68388  Biso   1.000  C
  C581     1.0000 0.32769  0.29499  0.67300  Biso   1.000  C
  C582     1.0000 0.32350  0.29860  0.69289  Biso   1.000  C
  N25      1.0000 0.24021  0.42320  0.08210  Biso   1.000  N
  H483     1.0000 0.21110  0.44381  0.13031  Biso   1.000  H
  H484     1.0000 0.36599  0.34189  0.71939  Biso   1.000  H
  C583     1.0000 0.40409  0.42277  0.64650  Biso   1.000  C
  C584     1.0000 0.39722  0.39455  0.74859  Biso   1.000  C
  C585     1.0000 0.41600  0.38370  0.70362  Biso   1.000  C
  C586     1.0000 0.38539  0.43280  0.69118  Biso   1.000  C
  C587     1.0000 0.32109  0.29056  0.73919  Biso   1.000  C
  C588     1.0000 0.32940  0.26855  0.63141  Biso   1.000  C
  C589     1.0000 0.29251  0.28600  0.69368  Biso   1.000  C
  C590     1.0000 0.34910  0.28051  0.71690  Biso   1.000  C
  C591     1.0000 0.22551  0.43641  0.01920  Biso   1.000  C
  H485     1.0000 0.39790  0.42641  0.60231  Biso   1.000  H
  C592     1.0000 0.42918  0.44046  0.67369  Biso   1.000  C
  C593     1.0000 0.42231  0.41231  0.77578  Biso   1.000  C
  H486     1.0000 0.38631  0.37881  0.77421  Biso   1.000  H
  H487     1.0000 0.41781  0.36100  0.69862  Biso   1.000  H
  C594     1.0000 0.44130  0.40190  0.73120  Biso   1.000  C
  C595     1.0000 0.41041  0.45039  0.71832  Biso   1.000  C
  H488     1.0000 0.36621  0.44350  0.67761  Biso   1.000  H
  C596     1.0000 0.31629  0.25971  0.76368  Biso   1.000  C
  H489     1.0000 0.31991  0.30861  0.76760  Biso   1.000  H
  C597     1.0000 0.32461  0.23768  0.65591  Biso   1.000  C
  H490     1.0000 0.33391  0.27159  0.58620  Biso   1.000  H
  C598     1.0000 0.28711  0.25530  0.71841  Biso   1.000  C
  H491     1.0000 0.27501  0.29841  0.67731  Biso   1.000  H
  C599     1.0000 0.34370  0.24980  0.74159  Biso   1.000  C
  H492     1.0000 0.37030  0.28911  0.71641  Biso   1.000  H
  C600     1.0000 0.24462  0.42388  0.96228  Biso   1.000  C
  H493     1.0000 0.20281  0.42940  0.01548  Biso   1.000  H
  H494     1.0000 0.22599  0.46020  0.01969  Biso   1.000  H
  H495     1.0000 0.44010  0.45620  0.64812  Biso   1.000  H
  C601     1.0000 0.43829  0.43521  0.73830  Biso   1.000  C
  H496     1.0000 0.42851  0.40870  0.81992  Biso   1.000  H
  H497     1.0000 0.46051  0.39139  0.74492  Biso   1.000  H
  H498     1.0000 0.40841  0.47309  0.72322  Biso   1.000  H
  C602     1.0000 0.31801  0.23322  0.72199  Biso   1.000  C
  C603     1.0000 0.31270  0.23715  0.74242  Biso   1.000  C
  H499     1.0000 0.31181  0.25660  0.80890  Biso   1.000  H
  H500     1.0000 0.32579  0.21960  0.62739  Biso   1.000  H
  H501     1.0000 0.26590  0.24660  0.71890  Biso   1.000  H
  H502     1.0000 0.36119  0.23739  0.75800  Biso   1.000  H
  C604     1.0000 0.23671  0.39421  0.93499  Biso   1.000  C
  C605     1.0000 0.26959  0.44203  0.93578  Biso   1.000  C
  C606     1.0000 0.46748  0.45159  0.76780  Biso   1.000  C
  C607     1.0000 0.31285  0.20146  0.75712  Biso   1.000  C
  C608     1.0000 0.25375  0.38269  0.88130  Biso   1.000  C
  C609     1.0000 0.20979  0.37351  0.96341  Biso   1.000  C
  C610     1.0000 0.28665  0.43051  0.88199  Biso   1.000  C
  C611     1.0000 0.27959  0.47439  0.96688  Biso   1.000  C
  C612     1.0000 0.47075  0.48485  0.76250  Biso   1.000  C
  C613     1.0000 0.49071  0.43371  0.80062  Biso   1.000  C
  C614     1.0000 0.33273  0.17504  0.74497  Biso   1.000  C
  C615     1.0000 0.28899  0.19680  0.80140  Biso   1.000  C
  C616     1.0000 0.24501  0.34989  0.84980  Biso   1.000  C
  C617     1.0000 0.27872  0.40084  0.85480  Biso   1.000  C
  H503     1.0000 0.20871  0.37681  0.01132  Biso   1.000  H
  H504     1.0000 0.21471  0.35049  0.95532  Biso   1.000  H
  C618     1.0000 0.17521  0.38240  0.93078  Biso   1.000  C
  C619     1.0000 0.31239  0.45131  0.85098  Biso   1.000  C
  H505     1.0000 0.27540  0.47369  0.01460  Biso   1.000  H
  H506     1.0000 0.30299  0.47779  0.96032  Biso   1.000  H
  C620     1.0000 0.26019  0.50380  0.93548  Biso   1.000  C
  H507     1.0000 0.45480  0.49710  0.74012  Biso   1.000  H
  C621     1.0000 0.49729  0.50018  0.78989  Biso   1.000  C
  C622     1.0000 0.51727  0.44899  0.82810  Biso   1.000  C
  H508     1.0000 0.48849  0.41101  0.80419  Biso   1.000  H
  C623     1.0000 0.32716  0.14600  0.77818  Biso   1.000  C
  H509     1.0000 0.34989  0.17670  0.71440  Biso   1.000  H
  C624     1.0000 0.28354  0.16851  0.83378  Biso   1.000  C
  H510     1.0000 0.27511  0.21440  0.81061  Biso   1.000  H
  N26      1.0000 0.26390  0.32239  0.87670  Biso   1.000  N
  H511     1.0000 0.22180  0.34570  0.85671  Biso   1.000  H
  H512     1.0000 0.24879  0.35129  0.80199  Biso   1.000  H
  C625     1.0000 0.29800  0.38821  0.79601  Biso   1.000  C
  H513     1.0000 0.17810  0.39949  0.89810  Biso   1.000  H
  H514     1.0000 0.16039  0.38980  0.96502  Biso   1.000  H
  H515     1.0000 0.16620  0.36319  0.90952  Biso   1.000  H
  N27      1.0000 0.34143  0.44265  0.89360  Biso   1.000  N
  H516     1.0000 0.30711  0.47449  0.85421  Biso   1.000  H
  H517     1.0000 0.31610  0.44550  0.80459  Biso   1.000  H
  H518     1.0000 0.26790  0.50760  0.89080  Biso   1.000  H
  H519     1.0000 0.26371  0.52320  0.96199  Biso   1.000  H
  H520     1.0000 0.23720  0.49859  0.93450  Biso   1.000  H
  H521     1.0000 0.49951  0.52291  0.78631  Biso   1.000  H
  C626     1.0000 0.52057  0.48230  0.82271  Biso   1.000  C
  H522     1.0000 0.53320  0.43680  0.85049  Biso   1.000  H
  C627     1.0000 0.30263  0.14251  0.82271  Biso   1.000  C
  H523     1.0000 0.34080  0.12809  0.76961  Biso   1.000  H
  H524     1.0000 0.26631  0.16699  0.86430  Biso   1.000  H
  C628     1.0000 0.24970  0.29981  0.90109  Biso   1.000  C
  H525     1.0000 0.29870  0.36440  0.79768  Biso   1.000  H
  H526     1.0000 0.32039  0.39631  0.79880  Biso   1.000  H
  C629     1.0000 0.28301  0.39891  0.72988  Biso   1.000  C
  C630     1.0000 0.36310  0.45617  0.88840  Biso   1.000  C
  C631     1.0000 0.54980  0.50030  0.84892  Biso   1.000  C
  C632     1.0000 0.29383  0.11310  0.86161  Biso   1.000  C
  C633     1.0000 0.26771  0.27055  0.92730  Biso   1.000  C
  H527     1.0000 0.22691  0.30039  0.90398  Biso   1.000  H
  H528     1.0000 0.29511  0.38929  0.69368  Biso   1.000  H
  H529     1.0000 0.28390  0.42251  0.72650  Biso   1.000  H
  H530     1.0000 0.26050  0.39180  0.72782  Biso   1.000  H
  H531     1.0000 0.36389  0.47391  0.85891  Biso   1.000  H
  C634     1.0000 0.39250  0.44738  0.92730  Biso   1.000  C
  N28      1.0000 0.57241  0.48611  0.87332  Biso   1.000  N
  H532     1.0000 0.55041  0.52310  0.84598  Biso   1.000  H
  N29      1.0000 0.30733  0.09141  0.85642  Biso   1.000  N
  H533     1.0000 0.27609  0.11390  0.89110  Biso   1.000  H
  C635     1.0000 0.24980  0.24729  0.96012  Biso   1.000  C
  C636     1.0000 0.30099  0.26727  0.92191  Biso   1.000  C
  C637     1.0000 0.39599  0.42284  0.97178  Biso   1.000  C
  C638     1.0000 0.41850  0.46646  0.91618  Biso   1.000  C
  C639     1.0000 0.59991  0.50500  0.90021  Biso   1.000  C
  C640     1.0000 0.29870  0.06240  0.89899  Biso   1.000  C
  C641     1.0000 0.26513  0.22076  0.98751  Biso   1.000  C
  H534     1.0000 0.22710  0.24951  0.96370  Biso   1.000  H
  C642     1.0000 0.31627  0.24069  0.94939  Biso   1.000  C
  H535     1.0000 0.31321  0.28320  0.89948  Biso   1.000  H
  C643     1.0000 0.42504  0.41725  0.00500  Biso   1.000  C
  H536     1.0000 0.37811  0.40920  0.98040  Biso   1.000  H
  C644     1.0000 0.44680  0.46102  0.94861  Biso   1.000  C
  H537     1.0000 0.41701  0.48370  0.88571  Biso   1.000  H
  C645     1.0000 0.63271  0.49623  0.86871  Biso   1.000  C
  H538     1.0000 0.59569  0.52821  0.89330  Biso   1.000  H
  H539     1.0000 0.60131  0.50119  0.94802  Biso   1.000  H
  C646     1.0000 0.31950  0.03663  0.86798  Biso   1.000  C
  H540     1.0000 0.27549  0.05709  0.89580  Biso   1.000  H
  H541     1.0000 0.30451  0.06611  0.94538  Biso   1.000  H
  C647     1.0000 0.29841  0.21746  0.98222  Biso   1.000  C
  H542     1.0000 0.25291  0.20481  0.00990  Biso   1.000  H
  H543     1.0000 0.33900  0.23850  0.94582  Biso   1.000  H
  H544     1.0000 0.42670  0.40009  0.03561  Biso   1.000  H
  C648     1.0000 0.45145  0.43716  0.99290  Biso   1.000  C
  H545     1.0000 0.46439  0.47490  0.93940  Biso   1.000  H
  C649     1.0000 0.64423  0.51329  0.81502  Biso   1.000  C
  C650     1.0000 0.65086  0.47128  0.89521  Biso   1.000  C
  C651     1.0000 0.30798  0.01959  0.81419  Biso   1.000  C
  C652     1.0000 0.34914  0.02873  0.89521  Biso   1.000  C
  C653     1.0000 0.31480  0.18830  0.01171  Biso   1.000  C
  C654     1.0000 0.48324  0.43200  0.02802  Biso   1.000  C
  C655     1.0000 0.48714  0.43730  0.00759  Biso   1.000  C
  C656     1.0000 0.67387  0.50536  0.78768  Biso   1.000  C
  C657     1.0000 0.62350  0.54021  0.78661  Biso   1.000  C
  C658     1.0000 0.68050  0.46336  0.86798  Biso   1.000  C
  C659     1.0000 0.63820  0.45200  0.95400  Biso   1.000  C
  C660     1.0000 0.32613  0.99463  0.78768  Biso   1.000  C
  C661     1.0000 0.27559  0.02960  0.78308  Biso   1.000  C
  C662     1.0000 0.36729  0.00376  0.86871  Biso   1.000  C
  C663     1.0000 0.36180  0.04801  0.95400  Biso   1.000  C
  C664     1.0000 0.30952  0.17919  0.07632  Biso   1.000  C
  C665     1.0000 0.29959  0.16039  0.03170  Biso   1.000  C
  C666     1.0000 0.34811  0.19131  0.01881  Biso   1.000  C
  C667     1.0000 0.33770  0.17232  0.97418  Biso   1.000  C
  C668     1.0000 0.48767  0.42540  0.09411  Biso   1.000  C
  C669     1.0000 0.50529  0.46290  0.03160  Biso   1.000  C
  C670     1.0000 0.49980  0.40631  0.00838  Biso   1.000  C
  C671     1.0000 0.50970  0.43371  0.98628  Biso   1.000  C
  C672     1.0000 0.68640  0.52450  0.73081  Biso   1.000  C
  C673     1.0000 0.69202  0.48042  0.81419  Biso   1.000  C
  H546     1.0000 0.62680  0.54130  0.73870  Biso   1.000  H
  H547     1.0000 0.60051  0.53530  0.79469  Biso   1.000  H
  C674     1.0000 0.63240  0.57480  0.81918  Biso   1.000  C
  C675     1.0000 0.70130  0.43759  0.89899  Biso   1.000  C
  H548     1.0000 0.61439  0.45131  0.95229  Biso   1.000  H
  H549     1.0000 0.64630  0.42959  0.95121  Biso   1.000  H
  C676     1.0000 0.64890  0.46699  0.02009  Biso   1.000  C
  C677     1.0000 0.31360  0.97549  0.73081  Biso   1.000  C
  C678     1.0000 0.35577  0.98672  0.81502  Biso   1.000  C
  H550     1.0000 0.27219  0.05300  0.78969  Biso   1.000  H
  H551     1.0000 0.27631  0.02540  0.73541  Biso   1.000  H
  C679     1.0000 0.24621  0.01019  0.81448  Biso   1.000  C
  C680     1.0000 0.40009  0.99501  0.90021  Biso   1.000  C
  H552     1.0000 0.38561  0.04871  0.95229  Biso   1.000  H
  H553     1.0000 0.35370  0.07040  0.95121  Biso   1.000  H
  C681     1.0000 0.35110  0.03299  0.02009  Biso   1.000  C
  C682     1.0000 0.32724  0.15410  0.10351  Biso   1.000  C
  H554     1.0000 0.29381  0.19010  0.10190  Biso   1.000  H
  C683     1.0000 0.31721  0.13540  0.05879  Biso   1.000  C
  H555     1.0000 0.27689  0.15839  0.02680  Biso   1.000  H
  C684     1.0000 0.36630  0.16600  0.04639  Biso   1.000  C
  H556     1.0000 0.35859  0.21049  0.00509  Biso   1.000  H
  C685     1.0000 0.35546  0.14723  0.00142  Biso   1.000  C
  H557     1.0000 0.34131  0.17851  0.93009  Biso   1.000  H
  H558     1.0000 0.46960  0.42419  0.12262  Biso   1.000  H
  C686     1.0000 0.51855  0.42060  0.11860  Biso   1.000  C
  H559     1.0000 0.49659  0.48411  0.03111  Biso   1.000  H
  C687     1.0000 0.53599  0.45750  0.05629  Biso   1.000  C
  C688     1.0000 0.53050  0.40091  0.03312  Biso   1.000  C
  H560     1.0000 0.48741  0.38879  0.99201  Biso   1.000  H
  C689     1.0000 0.54055  0.42889  0.01078  Biso   1.000  C
  H561     1.0000 0.50659  0.43819  0.94112  Biso   1.000  H
  N30      1.0000 0.67320  0.50980  0.66791  Biso   1.000  N
  H562     1.0000 0.67939  0.54720  0.73448  Biso   1.000  H
  H563     1.0000 0.71019  0.52399  0.73032  Biso   1.000  H
  C690     1.0000 0.72441  0.47039  0.78308  Biso   1.000  C
  H564     1.0000 0.64951  0.57190  0.85191  Biso   1.000  H
  H565     1.0000 0.63979  0.58959  0.78499  Biso   1.000  H
  H566     1.0000 0.61321  0.58381  0.84049  Biso   1.000  H
  N31      1.0000 0.69267  0.40857  0.85642  Biso   1.000  N
  H567     1.0000 0.72451  0.44289  0.89580  Biso   1.000  H
  H568     1.0000 0.69549  0.43390  0.94538  Biso   1.000  H
  H569     1.0000 0.63929  0.45490  0.05629  Biso   1.000  H
  H570     1.0000 0.67250  0.46610  0.02351  Biso   1.000  H
  H571     1.0000 0.64180  0.48950  0.02219  Biso   1.000  H
  N32      1.0000 0.32680  0.99019  0.66791  Biso   1.000  N
  H572     1.0000 0.32061  0.95281  0.73448  Biso   1.000  H
  H573     1.0000 0.28981  0.97600  0.73032  Biso   1.000  H
  C691     1.0000 0.37650  0.95980  0.78661  Biso   1.000  C
  H574     1.0000 0.24240  0.01791  0.85921  Biso   1.000  H
  H575     1.0000 0.22681  0.01369  0.78798  Biso   1.000  H
  H576     1.0000 0.25139  0.98720  0.81551  Biso   1.000  H
  N33      1.0000 0.42759  0.01391  0.87332  Biso   1.000  N
  H577     1.0000 0.40431  0.97180  0.89330  Biso   1.000  H
  H578     1.0000 0.39869  0.99879  0.94802  Biso   1.000  H
  H579     1.0000 0.36071  0.04509  0.05629  Biso   1.000  H
  H580     1.0000 0.32750  0.03391  0.02351  Biso   1.000  H
  H581     1.0000 0.35820  0.01051  0.02219  Biso   1.000  H
  C692     1.0000 0.35020  0.13812  0.06609  Biso   1.000  C
  H582     1.0000 0.32360  0.14790  0.14770  Biso   1.000  H
  H583     1.0000 0.30651  0.11619  0.07240  Biso   1.000  H
  H584     1.0000 0.38901  0.16781  0.05139  Biso   1.000  H
  H585     1.0000 0.37120  0.13629  0.97580  Biso   1.000  H
  C693     1.0000 0.54498  0.42229  0.07701  Biso   1.000  C
  H586     1.0000 0.52161  0.41609  0.16382  Biso   1.000  H
  H587     1.0000 0.54841  0.47500  0.07270  Biso   1.000  H
  C694     1.0000 0.54860  0.42651  0.05712  Biso   1.000  C
  H588     1.0000 0.53910  0.37970  0.03361  Biso   1.000  H
  H589     1.0000 0.55860  0.43010  0.98241  Biso   1.000  H
  C695     1.0000 0.67980  0.52081  0.61902  Biso   1.000  C
  H590     1.0000 0.72781  0.44699  0.78969  Biso   1.000  H
  H591     1.0000 0.72369  0.47461  0.73541  Biso   1.000  H
  C696     1.0000 0.75379  0.48979  0.81448  Biso   1.000  C
  C697     1.0000 0.70617  0.38691  0.86161  Biso   1.000  C
  C698     1.0000 0.32020  0.97920  0.61902  Biso   1.000  C
  H592     1.0000 0.37320  0.95869  0.73870  Biso   1.000  H
  H593     1.0000 0.39949  0.96469  0.79469  Biso   1.000  H
  C699     1.0000 0.36760  0.92519  0.81918  Biso   1.000  C
  C700     1.0000 0.45020  0.99971  0.84892  Biso   1.000  C
  C701     1.0000 0.37209  0.11332  0.09832  Biso   1.000  C
  C702     1.0000 0.57974  0.41899  0.09631  Biso   1.000  C
  C703     1.0000 0.66821  0.50946  0.55239  Biso   1.000  C
  H594     1.0000 0.69380  0.53891  0.61970  Biso   1.000  H
  H595     1.0000 0.75760  0.48211  0.85921  Biso   1.000  H
  H596     1.0000 0.77319  0.48630  0.78798  Biso   1.000  H
  H597     1.0000 0.74861  0.51281  0.81551  Biso   1.000  H
  C704     1.0000 0.69737  0.35751  0.82271  Biso   1.000  C
  H598     1.0000 0.72391  0.38609  0.89110  Biso   1.000  H
  C705     1.0000 0.33179  0.99055  0.55239  Biso   1.000  C
  H599     1.0000 0.30620  0.96110  0.61970  Biso   1.000  H
  H600     1.0000 0.35049  0.92811  0.85191  Biso   1.000  H
  H601     1.0000 0.36021  0.91039  0.78499  Biso   1.000  H
  H602     1.0000 0.38679  0.91620  0.84049  Biso   1.000  H
  C706     1.0000 0.47943  0.01769  0.82271  Biso   1.000  C
  H603     1.0000 0.44959  0.97691  0.84598  Biso   1.000  H
  C707     1.0000 0.36201  0.09744  0.15471  Biso   1.000  C
  C708     1.0000 0.40120  0.10513  0.06912  Biso   1.000  C
  C709     1.0000 0.59880  0.39489  0.06912  Biso   1.000  C
  C710     1.0000 0.58979  0.43484  0.15260  Biso   1.000  C
  C711     1.0000 0.65066  0.48097  0.54891  Biso   1.000  C
  C712     1.0000 0.67684  0.52556  0.49542  Biso   1.000  C
  C713     1.0000 0.67284  0.35401  0.77818  Biso   1.000  C
  C714     1.0000 0.71646  0.33150  0.83378  Biso   1.000  C
  C715     1.0000 0.34934  0.01904  0.54891  Biso   1.000  C
  C716     1.0000 0.32316  0.97443  0.49542  Biso   1.000  C
  C717     1.0000 0.48273  0.05100  0.82810  Biso   1.000  C
  C718     1.0000 0.50271  0.99981  0.78989  Biso   1.000  C
  C719     1.0000 0.38108  0.07336  0.18184  Biso   1.000  C
  H604     1.0000 0.34211  0.10310  0.17459  Biso   1.000  H
  H605     1.0000 0.40809  0.11600  0.03062  Biso   1.000  H
  C720     1.0000 0.42026  0.08103  0.09631  Biso   1.000  C
  C721     1.0000 0.62791  0.38667  0.09832  Biso   1.000  C
  H606     1.0000 0.59191  0.38399  0.03062  Biso   1.000  H
  C722     1.0000 0.61892  0.42665  0.18184  Biso   1.000  C
  H607     1.0000 0.57680  0.45131  0.17121  Biso   1.000  H
  C723     1.0000 0.64175  0.46861  0.48822  Biso   1.000  C
  H608     1.0000 0.64481  0.47001  0.58791  Biso   1.000  H
  C724     1.0000 0.66792  0.51322  0.43472  Biso   1.000  C
  H609     1.0000 0.68879  0.54501  0.49782  Biso   1.000  H
  C725     1.0000 0.66727  0.32497  0.74497  Biso   1.000  C
  H610     1.0000 0.65920  0.37189  0.76961  Biso   1.000  H
  C726     1.0000 0.71101  0.30321  0.80140  Biso   1.000  C
  H611     1.0000 0.73369  0.33300  0.86430  Biso   1.000  H
  C727     1.0000 0.35825  0.03138  0.48822  Biso   1.000  C
  H612     1.0000 0.35519  0.03001  0.58791  Biso   1.000  H
  C728     1.0000 0.33208  0.98679  0.43472  Biso   1.000  C
  H613     1.0000 0.31121  0.95500  0.49782  Biso   1.000  H
  H614     1.0000 0.46680  0.06319  0.85049  Biso   1.000  H
  C729     1.0000 0.50929  0.06628  0.80062  Biso   1.000  C
  C730     1.0000 0.52925  0.01514  0.76250  Biso   1.000  C
  H615     1.0000 0.50049  0.97710  0.78631  Biso   1.000  H
  C731     1.0000 0.37158  0.05806  0.24582  Biso   1.000  C
  C732     1.0000 0.41021  0.06514  0.15260  Biso   1.000  C
  C733     1.0000 0.45502  0.07770  0.07701  Biso   1.000  C
  C734     1.0000 0.45140  0.07351  0.05712  Biso   1.000  C
  C735     1.0000 0.63799  0.40255  0.15471  Biso   1.000  C
  C736     1.0000 0.64980  0.36189  0.06609  Biso   1.000  C
  C737     1.0000 0.62842  0.44193  0.24582  Biso   1.000  C
  C738     1.0000 0.65035  0.48473  0.43120  Biso   1.000  C
  H616     1.0000 0.62970  0.44911  0.48582  Biso   1.000  H
  H617     1.0000 0.67380  0.52421  0.39568  Biso   1.000  H
  C739     1.0000 0.68715  0.29853  0.75712  Biso   1.000  C
  H618     1.0000 0.65011  0.32331  0.71440  Biso   1.000  H
  H619     1.0000 0.72489  0.28559  0.81061  Biso   1.000  H
  C740     1.0000 0.34965  0.01528  0.43120  Biso   1.000  C
  H620     1.0000 0.37030  0.05090  0.48582  Biso   1.000  H
  H621     1.0000 0.32620  0.97580  0.39568  Biso   1.000  H
  C741     1.0000 0.53252  0.04839  0.76780  Biso   1.000  C
  H622     1.0000 0.51151  0.08900  0.80419  Biso   1.000  H
  H623     1.0000 0.54520  0.00289  0.74012  Biso   1.000  H
  C742     1.0000 0.36409  0.07765  0.29888  Biso   1.000  C
  C743     1.0000 0.37240  0.02478  0.25332  Biso   1.000  C
  H624     1.0000 0.42320  0.04871  0.17121  Biso   1.000  H
  C744     1.0000 0.45945  0.07110  0.01078  Biso   1.000  C
  C745     1.0000 0.48145  0.07941  0.11860  Biso   1.000  C
  C746     1.0000 0.46401  0.04249  0.05629  Biso   1.000  C
  C747     1.0000 0.46950  0.09910  0.03312  Biso   1.000  C
  H625     1.0000 0.65789  0.39691  0.17459  Biso   1.000  H
  C748     1.0000 0.67276  0.34591  0.10351  Biso   1.000  C
  C749     1.0000 0.64454  0.35278  0.00142  Biso   1.000  C
  C750     1.0000 0.63370  0.33401  0.04639  Biso   1.000  C
  C751     1.0000 0.68279  0.36459  0.05879  Biso   1.000  C
  C752     1.0000 0.63591  0.42236  0.29888  Biso   1.000  C
  C753     1.0000 0.62760  0.47521  0.25332  Biso   1.000  C
  C754     1.0000 0.64180  0.46933  0.36712  Biso   1.000  C
  C755     1.0000 0.68199  0.26677  0.72199  Biso   1.000  C
  C756     1.0000 0.68730  0.26286  0.74242  Biso   1.000  C
  C757     1.0000 0.35820  0.03066  0.36712  Biso   1.000  C
  C758     1.0000 0.56171  0.06478  0.73830  Biso   1.000  C
  C759     1.0000 0.35741  0.06394  0.35948  Biso   1.000  C
  H626     1.0000 0.36351  0.10040  0.29378  Biso   1.000  H
  H627     1.0000 0.37751  0.01140  0.21702  Biso   1.000  H
  C760     1.0000 0.36570  0.01109  0.31402  Biso   1.000  C
  H628     1.0000 0.44140  0.06989  0.98241  Biso   1.000  H
  C761     1.0000 0.49030  0.06630  0.98628  Biso   1.000  C
  C762     1.0000 0.51233  0.07459  0.09411  Biso   1.000  C
  H629     1.0000 0.47839  0.08389  0.16382  Biso   1.000  H
  C763     1.0000 0.49471  0.03709  0.03160  Biso   1.000  C
  H630     1.0000 0.45159  0.02499  0.07270  Biso   1.000  H
  H631     1.0000 0.46090  0.12031  0.03361  Biso   1.000  H
  C764     1.0000 0.50020  0.09370  0.00838  Biso   1.000  C
  C765     1.0000 0.69048  0.32083  0.07632  Biso   1.000  C
  H632     1.0000 0.67640  0.35211  0.14770  Biso   1.000  H
  C766     1.0000 0.66230  0.32769  0.97418  Biso   1.000  C
  H633     1.0000 0.62880  0.36370  0.97580  Biso   1.000  H
  C767     1.0000 0.65189  0.30870  0.01881  Biso   1.000  C
  H634     1.0000 0.61099  0.33220  0.05139  Biso   1.000  H
  C768     1.0000 0.70041  0.33960  0.03170  Biso   1.000  C
  H635     1.0000 0.69349  0.38380  0.07240  Biso   1.000  H
  C769     1.0000 0.64259  0.43605  0.35948  Biso   1.000  C
  H636     1.0000 0.63649  0.39961  0.29378  Biso   1.000  H
  H637     1.0000 0.62249  0.48859  0.21702  Biso   1.000  H
  C770     1.0000 0.63430  0.48893  0.31402  Biso   1.000  C
  C771     1.0000 0.68371  0.24031  0.76368  Biso   1.000  C
  C772     1.0000 0.67539  0.26233  0.65591  Biso   1.000  C
  C773     1.0000 0.71289  0.24469  0.71841  Biso   1.000  C
  C774     1.0000 0.65630  0.25021  0.74159  Biso   1.000  C
  C775     1.0000 0.57082  0.05953  0.67369  Biso   1.000  C
  C776     1.0000 0.57769  0.08770  0.77578  Biso   1.000  C
  C777     1.0000 0.58959  0.04960  0.71832  Biso   1.000  C
  C778     1.0000 0.55870  0.09809  0.73120  Biso   1.000  C
  H638     1.0000 0.35230  0.07729  0.39578  Biso   1.000  H
  H639     1.0000 0.36621  0.98831  0.31911  Biso   1.000  H
  C779     1.0000 0.51676  0.06801  0.02802  Biso   1.000  C
  C780     1.0000 0.51286  0.06271  0.00759  Biso   1.000  C
  H640     1.0000 0.49341  0.06179  0.94112  Biso   1.000  H
  H641     1.0000 0.53040  0.07580  0.12262  Biso   1.000  H
  H642     1.0000 0.50341  0.01591  0.03111  Biso   1.000  H
  H643     1.0000 0.51259  0.11120  0.99201  Biso   1.000  H
  C781     1.0000 0.68520  0.31172  0.01171  Biso   1.000  C
  H644     1.0000 0.70619  0.30991  0.10190  Biso   1.000  H
  H645     1.0000 0.65869  0.32150  0.93009  Biso   1.000  H
  H646     1.0000 0.64141  0.28949  0.00509  Biso   1.000  H
  H647     1.0000 0.72311  0.34160  0.02680  Biso   1.000  H
  H648     1.0000 0.64770  0.42270  0.39578  Biso   1.000  H
  H649     1.0000 0.63379  0.51170  0.31911  Biso   1.000  H
  C782     1.0000 0.67891  0.20946  0.73919  Biso   1.000  C
  H650     1.0000 0.68819  0.24339  0.80890  Biso   1.000  H
  C783     1.0000 0.67060  0.23146  0.63141  Biso   1.000  C
  H651     1.0000 0.67421  0.28041  0.62739  Biso   1.000  H
  C784     1.0000 0.70749  0.21401  0.69368  Biso   1.000  C
  H652     1.0000 0.73410  0.25339  0.71890  Biso   1.000  H
  C785     1.0000 0.65090  0.21951  0.71690  Biso   1.000  C
  H653     1.0000 0.63881  0.26260  0.75800  Biso   1.000  H
  C786     1.0000 0.59591  0.07724  0.64650  Biso   1.000  C
  H654     1.0000 0.55990  0.04379  0.64812  Biso   1.000  H
  H655     1.0000 0.57149  0.09129  0.81992  Biso   1.000  H
  C787     1.0000 0.60278  0.10546  0.74859  Biso   1.000  C
  H656     1.0000 0.59159  0.02690  0.72322  Biso   1.000  H
  C788     1.0000 0.61461  0.06719  0.69118  Biso   1.000  C
  C789     1.0000 0.58400  0.11631  0.70362  Biso   1.000  C
  H657     1.0000 0.53949  0.10860  0.74492  Biso   1.000  H
  C790     1.0000 0.54855  0.06285  0.99290  Biso   1.000  C
  C791     1.0000 0.70159  0.28253  0.98222  Biso   1.000  C
  C792     1.0000 0.67231  0.20500  0.67300  Biso   1.000  C
  C793     1.0000 0.67650  0.20138  0.69289  Biso   1.000  C
  H658     1.0000 0.68009  0.19141  0.76760  Biso   1.000  H
  H659     1.0000 0.66609  0.22840  0.58620  Biso   1.000  H
  H660     1.0000 0.72499  0.20160  0.67731  Biso   1.000  H
  H661     1.0000 0.62970  0.21090  0.71641  Biso   1.000  H
  C794     1.0000 0.61189  0.10021  0.68388  Biso   1.000  C
  H662     1.0000 0.60210  0.07360  0.60231  Biso   1.000  H
  H663     1.0000 0.61369  0.12120  0.77421  Biso   1.000  H
  H664     1.0000 0.63379  0.05649  0.67761  Biso   1.000  H
  H665     1.0000 0.58219  0.13901  0.69862  Biso   1.000  H
  C795     1.0000 0.57496  0.08274  0.00500  Biso   1.000  C
  C796     1.0000 0.55320  0.03899  0.94861  Biso   1.000  C
  C797     1.0000 0.73487  0.27925  0.98751  Biso   1.000  C
  C798     1.0000 0.68373  0.25930  0.94939  Biso   1.000  C
  C799     1.0000 0.66898  0.17027  0.65370  Biso   1.000  C
  C800     1.0000 0.63666  0.12209  0.65169  Biso   1.000  C
  H666     1.0000 0.57330  0.09990  0.03561  Biso   1.000  H
  C801     1.0000 0.60401  0.07717  0.97178  Biso   1.000  C
  H667     1.0000 0.53561  0.02509  0.93940  Biso   1.000  H
  C802     1.0000 0.58150  0.03355  0.91618  Biso   1.000  C
  C803     1.0000 0.75020  0.25269  0.96012  Biso   1.000  C
  H668     1.0000 0.74709  0.29521  0.00990  Biso   1.000  H
  C804     1.0000 0.69901  0.23271  0.92191  Biso   1.000  C
  H669     1.0000 0.66100  0.26149  0.94582  Biso   1.000  H
  C805     1.0000 0.64488  0.15121  0.68089  Biso   1.000  C
  C806     1.0000 0.68484  0.16022  0.59741  Biso   1.000  C
  C807     1.0000 0.65254  0.11202  0.59531  Biso   1.000  C
  H670     1.0000 0.62189  0.09081  0.98040  Biso   1.000  H
  C808     1.0000 0.60750  0.05261  0.92730  Biso   1.000  C
  H671     1.0000 0.58299  0.01629  0.88571  Biso   1.000  H
  C809     1.0000 0.73229  0.22944  0.92730  Biso   1.000  C
  H672     1.0000 0.77290  0.25050  0.96370  Biso   1.000  H
  H673     1.0000 0.68679  0.21681  0.89948  Biso   1.000  H
  H674     1.0000 0.63401  0.15810  0.71939  Biso   1.000  H
  C810     1.0000 0.67664  0.13108  0.56817  Biso   1.000  C
  H675     1.0000 0.70130  0.17321  0.57880  Biso   1.000  H
  H676     1.0000 0.64690  0.09211  0.57542  Biso   1.000  H
  C811     1.0000 0.63690  0.04384  0.88840  Biso   1.000  C
  C812     1.0000 0.75030  0.20020  0.90109  Biso   1.000  C
  C813     1.0000 0.69192  0.12159  0.50419  Biso   1.000  C
  N34      1.0000 0.65857  0.05733  0.89360  Biso   1.000  N
  H677     1.0000 0.63611  0.02610  0.85891  Biso   1.000  H
  N35      1.0000 0.73610  0.17760  0.87670  Biso   1.000  N
  H678     1.0000 0.77309  0.19960  0.90398  Biso   1.000  H
  C814     1.0000 0.67235  0.11409  0.45109  Biso   1.000  C
  C815     1.0000 0.72523  0.12238  0.49669  Biso   1.000  C
  C816     1.0000 0.68761  0.04871  0.85098  Biso   1.000  C
  C817     1.0000 0.75499  0.15010  0.84980  Biso   1.000  C
  C818     1.0000 0.68604  0.10739  0.39049  Biso   1.000  C
  H679     1.0000 0.64960  0.11349  0.45618  Biso   1.000  H
  C819     1.0000 0.73892  0.11571  0.43600  Biso   1.000  C
  H680     1.0000 0.73861  0.12749  0.53299  Biso   1.000  H
  C820     1.0000 0.71335  0.06948  0.88199  Biso   1.000  C
  H681     1.0000 0.69289  0.02550  0.85421  Biso   1.000  H
  H682     1.0000 0.68390  0.05449  0.80459  Biso   1.000  H
  C821     1.0000 0.74625  0.11730  0.88130  Biso   1.000  C
  H683     1.0000 0.77820  0.15429  0.85671  Biso   1.000  H
  H684     1.0000 0.75121  0.14870  0.80199  Biso   1.000  H
  C822     1.0000 0.71935  0.10821  0.38289  Biso   1.000  C
  H685     1.0000 0.67269  0.10231  0.35419  Biso   1.000  H
  H686     1.0000 0.76169  0.11619  0.43090  Biso   1.000  H
  C823     1.0000 0.73041  0.05796  0.93578  Biso   1.000  C
  C824     1.0000 0.72128  0.09915  0.85480  Biso   1.000  C
  C825     1.0000 0.76329  0.10578  0.93499  Biso   1.000  C
  C826     1.0000 0.73473  0.09963  0.31882  Biso   1.000  C
  C827     1.0000 0.75538  0.07611  0.96228  Biso   1.000  C
  C828     1.0000 0.72041  0.02559  0.96688  Biso   1.000  C
  C829     1.0000 0.70200  0.11180  0.79601  Biso   1.000  C
  C830     1.0000 0.79021  0.12650  0.96341  Biso   1.000  C
  C831     1.0000 0.71860  0.10826  0.26179  Biso   1.000  C
  C832     1.0000 0.76321  0.08209  0.31529  Biso   1.000  C
  C833     1.0000 0.77449  0.06360  0.01920  Biso   1.000  C
  H687     1.0000 0.72460  0.02629  0.01460  Biso   1.000  H
  C834     1.0000 0.73981  0.99619  0.93548  Biso   1.000  C
  H688     1.0000 0.69701  0.02220  0.96032  Biso   1.000  H
  H689     1.0000 0.70130  0.13559  0.79768  Biso   1.000  H
  H690     1.0000 0.67961  0.10370  0.79880  Biso   1.000  H
  C835     1.0000 0.71699  0.10110  0.72988  Biso   1.000  C
  H691     1.0000 0.79129  0.12320  0.01132  Biso   1.000  H
  H692     1.0000 0.78529  0.14950  0.95532  Biso   1.000  H
  C836     1.0000 0.82479  0.11761  0.93078  Biso   1.000  C
  C837     1.0000 0.73097  0.09932  0.20110  Biso   1.000  C
  H693     1.0000 0.69911  0.12031  0.26419  Biso   1.000  H
  C838     1.0000 0.77558  0.07317  0.25459  Biso   1.000  C
  H694     1.0000 0.77420  0.07621  0.35428  Biso   1.000  H
  N36      1.0000 0.75979  0.07681  0.08210  Biso   1.000  N
  H695     1.0000 0.79719  0.07059  0.01548  Biso   1.000  H
  H696     1.0000 0.77401  0.03979  0.01969  Biso   1.000  H
  H697     1.0000 0.73210  0.99241  0.89080  Biso   1.000  H
  H698     1.0000 0.73629  0.97679  0.96199  Biso   1.000  H
  H699     1.0000 0.76280  0.00140  0.93450  Biso   1.000  H
  H700     1.0000 0.70489  0.11069  0.69368  Biso   1.000  H
  H701     1.0000 0.71610  0.07751  0.72650  Biso   1.000  H
  H702     1.0000 0.73950  0.10821  0.72782  Biso   1.000  H
  H703     1.0000 0.82190  0.10050  0.89810  Biso   1.000  H
  H704     1.0000 0.83961  0.11021  0.96502  Biso   1.000  H
  H705     1.0000 0.83380  0.13679  0.90952  Biso   1.000  H
  C839     1.0000 0.75945  0.08177  0.19762  Biso   1.000  C
  H706     1.0000 0.72000  0.10520  0.16210  Biso   1.000  H
  H707     1.0000 0.79500  0.06119  0.25219  Biso   1.000  H
  C840     1.0000 0.77080  0.07020  0.13099  Biso   1.000  C
  H708     1.0000 0.78890  0.05620  0.13031  Biso   1.000  H
  C841     1.0000 0.18280  0.36459  0.44119  Biso   1.000  C
  C842     1.0000 0.17275  0.34591  0.39651  Biso   1.000  C
  C843     1.0000 0.20040  0.33960  0.46828  Biso   1.000  C
  C844     1.0000 0.14981  0.36189  0.43389  Biso   1.000  C
  H709     1.0000 0.19350  0.38380  0.42762  Biso   1.000  H
  C845     1.0000 0.19047  0.32083  0.42370  Biso   1.000  C
  H710     1.0000 0.17639  0.35211  0.35228  Biso   1.000  H
  C846     1.0000 0.18521  0.31172  0.48832  Biso   1.000  C
  H711     1.0000 0.22310  0.34160  0.47318  Biso   1.000  H
  C847     1.0000 0.12790  0.38667  0.40170  Biso   1.000  C
  C848     1.0000 0.14453  0.35278  0.49860  Biso   1.000  C
  C849     1.0000 0.13371  0.33401  0.45358  Biso   1.000  C
  H712     1.0000 0.20620  0.30991  0.39808  Biso   1.000  H
  C850     1.0000 0.16229  0.32769  0.52579  Biso   1.000  C
  C851     1.0000 0.20160  0.28253  0.51781  Biso   1.000  C
  C852     1.0000 0.15191  0.30870  0.48121  Biso   1.000  C
  C853     1.0000 0.13798  0.40255  0.34532  Biso   1.000  C
  C854     1.0000 0.09879  0.39489  0.43090  Biso   1.000  C
  H713     1.0000 0.12879  0.36370  0.52418  Biso   1.000  H
  H714     1.0000 0.11101  0.33220  0.44859  Biso   1.000  H
  H715     1.0000 0.15870  0.32150  0.56988  Biso   1.000  H
  C855     1.0000 0.23486  0.27925  0.51252  Biso   1.000  C
  C856     1.0000 0.18372  0.25930  0.55058  Biso   1.000  C
  H716     1.0000 0.14140  0.28949  0.49488  Biso   1.000  H
  C857     1.0000 0.11891  0.42665  0.31818  Biso   1.000  C
  H717     1.0000 0.15791  0.39691  0.32538  Biso   1.000  H
  H718     1.0000 0.09190  0.38399  0.46941  Biso   1.000  H
  C858     1.0000 0.07972  0.41899  0.40371  Biso   1.000  C
  H719     1.0000 0.24710  0.29521  0.49008  Biso   1.000  H
  C859     1.0000 0.25019  0.25269  0.53990  Biso   1.000  C
  C860     1.0000 0.19900  0.23271  0.57811  Biso   1.000  C
  H720     1.0000 0.16099  0.26149  0.55421  Biso   1.000  H
  C861     1.0000 0.12841  0.44193  0.25420  Biso   1.000  C
  C862     1.0000 0.08980  0.43484  0.34738  Biso   1.000  C
  C863     1.0000 0.04500  0.42229  0.42301  Biso   1.000  C
  C864     1.0000 0.04861  0.42651  0.44290  Biso   1.000  C
  H721     1.0000 0.27289  0.25050  0.53628  Biso   1.000  H
  C865     1.0000 0.23230  0.22944  0.57272  Biso   1.000  C
  H722     1.0000 0.18680  0.21681  0.60050  Biso   1.000  H
  C866     1.0000 0.13590  0.42236  0.20110  Biso   1.000  C
  C867     1.0000 0.12761  0.47521  0.24671  Biso   1.000  C
  H723     1.0000 0.07681  0.45131  0.32881  Biso   1.000  H
  C868     1.0000 0.04056  0.42889  0.48920  Biso   1.000  C
  C869     1.0000 0.01853  0.42060  0.38142  Biso   1.000  C
  C870     1.0000 0.03601  0.45750  0.44369  Biso   1.000  C
  C871     1.0000 0.03051  0.40091  0.46691  Biso   1.000  C
  C872     1.0000 0.25031  0.20020  0.59888  Biso   1.000  C
  C873     1.0000 0.14260  0.43605  0.14050  Biso   1.000  C
  H724     1.0000 0.13650  0.39961  0.20619  Biso   1.000  H
  H725     1.0000 0.12250  0.48859  0.28301  Biso   1.000  H
  C874     1.0000 0.13431  0.48893  0.18601  Biso   1.000  C
  H726     1.0000 0.05859  0.43010  0.51761  Biso   1.000  H
  C875     1.0000 0.00969  0.43371  0.51369  Biso   1.000  C
  H727     1.0000 0.02159  0.41609  0.33621  Biso   1.000  H
  C876     1.0000 0.98766  0.42540  0.40592  Biso   1.000  C
  C877     1.0000 0.00530  0.46290  0.46838  Biso   1.000  C
  H728     1.0000 0.04839  0.47500  0.42728  Biso   1.000  H
  H729     1.0000 0.03909  0.37970  0.46642  Biso   1.000  H
  C878     1.0000 0.99981  0.40631  0.49160  Biso   1.000  C
  N37      1.0000 0.23609  0.17760  0.62328  Biso   1.000  N
  H730     1.0000 0.27311  0.19960  0.59599  Biso   1.000  H
  C879     1.0000 0.14181  0.46933  0.13291  Biso   1.000  C
  H731     1.0000 0.14771  0.42270  0.10420  Biso   1.000  H
  H732     1.0000 0.13381  0.51170  0.18091  Biso   1.000  H
  H733     1.0000 0.00660  0.43819  0.55891  Biso   1.000  H
  C880     1.0000 0.98323  0.43200  0.47200  Biso   1.000  C
  C881     1.0000 0.98713  0.43730  0.49238  Biso   1.000  C
  H734     1.0000 0.96961  0.42419  0.37741  Biso   1.000  H
  H735     1.0000 0.99660  0.48411  0.46892  Biso   1.000  H
  H736     1.0000 0.98740  0.38879  0.50801  Biso   1.000  H
  C882     1.0000 0.25501  0.15010  0.65022  Biso   1.000  C
  C883     1.0000 0.15036  0.48473  0.06878  Biso   1.000  C
  C884     1.0000 0.95146  0.43716  0.50713  Biso   1.000  C
  C885     1.0000 0.24623  0.11730  0.61872  Biso   1.000  C
  H737     1.0000 0.27819  0.15429  0.64332  Biso   1.000  H
  H738     1.0000 0.25120  0.14870  0.69799  Biso   1.000  H
  C886     1.0000 0.14173  0.46861  0.01181  Biso   1.000  C
  C887     1.0000 0.16791  0.51322  0.06530  Biso   1.000  C
  C888     1.0000 0.92502  0.41725  0.49498  Biso   1.000  C
  C889     1.0000 0.94681  0.46102  0.55141  Biso   1.000  C
  C890     1.0000 0.22129  0.09915  0.64518  Biso   1.000  C
  C891     1.0000 0.26327  0.10578  0.56498  Biso   1.000  C
  H739     1.0000 0.12971  0.44911  0.01421  Biso   1.000  H
  C892     1.0000 0.15068  0.48097  0.95111  Biso   1.000  C
  H740     1.0000 0.17379  0.52421  0.10430  Biso   1.000  H
  C893     1.0000 0.17685  0.52556  0.00460  Biso   1.000  C
  H741     1.0000 0.92671  0.40009  0.46441  Biso   1.000  H
  C894     1.0000 0.89601  0.42284  0.52819  Biso   1.000  C
  H742     1.0000 0.96440  0.47490  0.56062  Biso   1.000  H
  C895     1.0000 0.91849  0.46646  0.58379  Biso   1.000  C
  C896     1.0000 0.21336  0.06948  0.61799  Biso   1.000  C
  C897     1.0000 0.20201  0.11180  0.70401  Biso   1.000  C
  C898     1.0000 0.25537  0.07611  0.53770  Biso   1.000  C
  C899     1.0000 0.29019  0.12650  0.53662  Biso   1.000  C
  C900     1.0000 0.16822  0.50946  0.94758  Biso   1.000  C
  H743     1.0000 0.14480  0.47001  0.91211  Biso   1.000  H
  H744     1.0000 0.18880  0.54501  0.00220  Biso   1.000  H
  H745     1.0000 0.87810  0.40920  0.51962  Biso   1.000  H
  C901     1.0000 0.89251  0.44738  0.57272  Biso   1.000  C
  H746     1.0000 0.91700  0.48370  0.61431  Biso   1.000  H
  C902     1.0000 0.23040  0.05796  0.56420  Biso   1.000  C
  C903     1.0000 0.18760  0.04871  0.64900  Biso   1.000  C
  H747     1.0000 0.20131  0.13559  0.70230  Biso   1.000  H
  H748     1.0000 0.17960  0.10370  0.70122  Biso   1.000  H
  C904     1.0000 0.21700  0.10110  0.77010  Biso   1.000  C
  C905     1.0000 0.27450  0.06360  0.48082  Biso   1.000  C
  H749     1.0000 0.29130  0.12320  0.48871  Biso   1.000  H
  H750     1.0000 0.28530  0.14950  0.54470  Biso   1.000  H
  C906     1.0000 0.32480  0.11761  0.56920  Biso   1.000  C
  C907     1.0000 0.17979  0.52081  0.88101  Biso   1.000  C
  C908     1.0000 0.86311  0.45617  0.61162  Biso   1.000  C
  C909     1.0000 0.22040  0.02559  0.53309  Biso   1.000  C
  N38      1.0000 0.15858  0.05733  0.60638  Biso   1.000  N
  H751     1.0000 0.19290  0.02550  0.64581  Biso   1.000  H
  H752     1.0000 0.18391  0.05449  0.69539  Biso   1.000  H
  H753     1.0000 0.20490  0.11069  0.80630  Biso   1.000  H
  H754     1.0000 0.21611  0.07751  0.77348  Biso   1.000  H
  H755     1.0000 0.23951  0.10821  0.77220  Biso   1.000  H
  N39      1.0000 0.25980  0.07681  0.41792  Biso   1.000  N
  H756     1.0000 0.29721  0.07059  0.48450  Biso   1.000  H
  H757     1.0000 0.27400  0.03979  0.48028  Biso   1.000  H
  H758     1.0000 0.32191  0.10050  0.60192  Biso   1.000  H
  H759     1.0000 0.33960  0.11021  0.53500  Biso   1.000  H
  H760     1.0000 0.33379  0.13679  0.59051  Biso   1.000  H
  N40      1.0000 0.17321  0.50980  0.83212  Biso   1.000  N
  H761     1.0000 0.19379  0.53891  0.88032  Biso   1.000  H
  N41      1.0000 0.84142  0.44265  0.60638  Biso   1.000  N
  H762     1.0000 0.86390  0.47391  0.64111  Biso   1.000  H
  H763     1.0000 0.19700  0.02220  0.53971  Biso   1.000  H
  H764     1.0000 0.22459  0.02629  0.48538  Biso   1.000  H
  C910     1.0000 0.23980  0.99619  0.56449  Biso   1.000  C
  C911     1.0000 0.13689  0.04384  0.61162  Biso   1.000  C
  C912     1.0000 0.27079  0.07020  0.36898  Biso   1.000  C
  C913     1.0000 0.18639  0.52450  0.76922  Biso   1.000  C
  C914     1.0000 0.81240  0.45131  0.64900  Biso   1.000  C
  H765     1.0000 0.26279  0.00140  0.56552  Biso   1.000  H
  H766     1.0000 0.23211  0.99241  0.60922  Biso   1.000  H
  H767     1.0000 0.23630  0.97679  0.53799  Biso   1.000  H
  H768     1.0000 0.13610  0.02610  0.64111  Biso   1.000  H
  C915     1.0000 0.10749  0.05261  0.57272  Biso   1.000  C
  H769     1.0000 0.28889  0.05620  0.36972  Biso   1.000  H
  C916     1.0000 0.25944  0.08177  0.30241  Biso   1.000  C
  C917     1.0000 0.17388  0.50536  0.71229  Biso   1.000  C
  H770     1.0000 0.17940  0.54720  0.76549  Biso   1.000  H
  H771     1.0000 0.21020  0.52399  0.76971  Biso   1.000  H
  C918     1.0000 0.78664  0.43051  0.61799  Biso   1.000  C
  H772     1.0000 0.80710  0.47449  0.64581  Biso   1.000  H
  H773     1.0000 0.81609  0.44550  0.69539  Biso   1.000  H
  C919     1.0000 0.10399  0.07717  0.52819  Biso   1.000  C
  C920     1.0000 0.08151  0.03355  0.58379  Biso   1.000  C
  C921     1.0000 0.23098  0.09932  0.29888  Biso   1.000  C
  C922     1.0000 0.27556  0.07317  0.24538  Biso   1.000  C
  C923     1.0000 0.19203  0.48042  0.68579  Biso   1.000  C
  C924     1.0000 0.14422  0.51329  0.68500  Biso   1.000  C
  C925     1.0000 0.76960  0.44203  0.56420  Biso   1.000  C
  C926     1.0000 0.77871  0.40084  0.64518  Biso   1.000  C
  C927     1.0000 0.07498  0.08274  0.49498  Biso   1.000  C
  H774     1.0000 0.12190  0.09081  0.51962  Biso   1.000  H
  C928     1.0000 0.05319  0.03899  0.55141  Biso   1.000  C
  H775     1.0000 0.08300  0.01629  0.61431  Biso   1.000  H
  H776     1.0000 0.21999  0.10520  0.33792  Biso   1.000  H
  C929     1.0000 0.21862  0.10826  0.23818  Biso   1.000  C
  C930     1.0000 0.26320  0.08209  0.18469  Biso   1.000  C
  H777     1.0000 0.29499  0.06119  0.24778  Biso   1.000  H
  C931     1.0000 0.18051  0.46336  0.63200  Biso   1.000  C
  C932     1.0000 0.22440  0.47039  0.71690  Biso   1.000  C
  C933     1.0000 0.13270  0.49623  0.63131  Biso   1.000  C
  C934     1.0000 0.12349  0.54021  0.71342  Biso   1.000  C
  C935     1.0000 0.74463  0.42388  0.53770  Biso   1.000  C
  C936     1.0000 0.77960  0.47439  0.53309  Biso   1.000  C
  C937     1.0000 0.75377  0.38269  0.61872  Biso   1.000  C
  C938     1.0000 0.79799  0.38821  0.70401  Biso   1.000  C
  H778     1.0000 0.07329  0.09990  0.46441  Biso   1.000  H
  C939     1.0000 0.04854  0.06285  0.50713  Biso   1.000  C
  H779     1.0000 0.03560  0.02509  0.56062  Biso   1.000  H
  H780     1.0000 0.19909  0.12031  0.23578  Biso   1.000  H
  C940     1.0000 0.23474  0.09963  0.18121  Biso   1.000  C
  H781     1.0000 0.27419  0.07621  0.14569  Biso   1.000  H
  C941     1.0000 0.15084  0.47128  0.60481  Biso   1.000  C
  C942     1.0000 0.20131  0.43759  0.60099  Biso   1.000  C
  H782     1.0000 0.22780  0.44699  0.71028  Biso   1.000  H
  H783     1.0000 0.22370  0.47461  0.76461  Biso   1.000  H
  C943     1.0000 0.25380  0.48979  0.68549  Biso   1.000  C
  C944     1.0000 0.09990  0.50500  0.59981  Biso   1.000  C
  H784     1.0000 0.12679  0.54130  0.76128  Biso   1.000  H
  H785     1.0000 0.10050  0.53530  0.70529  Biso   1.000  H
  C945     1.0000 0.13241  0.57480  0.68079  Biso   1.000  C
  C946     1.0000 0.73673  0.39421  0.56498  Biso   1.000  C
  C947     1.0000 0.72550  0.43641  0.48082  Biso   1.000  C
  H786     1.0000 0.80300  0.47779  0.53971  Biso   1.000  H
  H787     1.0000 0.77541  0.47369  0.48538  Biso   1.000  H
  C948     1.0000 0.76020  0.50380  0.56449  Biso   1.000  C
  C949     1.0000 0.74499  0.34989  0.65022  Biso   1.000  C
  H788     1.0000 0.79869  0.36440  0.70230  Biso   1.000  H
  H789     1.0000 0.82040  0.39631  0.70122  Biso   1.000  H
  C950     1.0000 0.78300  0.39891  0.77010  Biso   1.000  C
  C951     1.0000 0.01677  0.06801  0.47200  Biso   1.000  C
  C952     1.0000 0.01287  0.06271  0.49238  Biso   1.000  C
  C953     1.0000 0.21934  0.10821  0.11708  Biso   1.000  C
  C954     1.0000 0.13819  0.45200  0.54598  Biso   1.000  C
  N42      1.0000 0.19266  0.40857  0.64361  Biso   1.000  N
  H790     1.0000 0.22450  0.44289  0.60422  Biso   1.000  H
  H791     1.0000 0.19550  0.43390  0.55460  Biso   1.000  H
  H792     1.0000 0.25761  0.48211  0.64082  Biso   1.000  H
  H793     1.0000 0.27320  0.48630  0.71200  Biso   1.000  H
  H794     1.0000 0.24860  0.51281  0.68451  Biso   1.000  H
  N43      1.0000 0.07240  0.48611  0.62671  Biso   1.000  N
  H795     1.0000 0.09570  0.52821  0.60672  Biso   1.000  H
  H796     1.0000 0.10129  0.50119  0.55200  Biso   1.000  H
  H797     1.0000 0.14950  0.57190  0.64812  Biso   1.000  H
  H798     1.0000 0.13981  0.58959  0.71499  Biso   1.000  H
  H799     1.0000 0.11320  0.58381  0.65948  Biso   1.000  H
  C955     1.0000 0.70981  0.37351  0.53662  Biso   1.000  C
  N44      1.0000 0.74020  0.42320  0.41792  Biso   1.000  N
  H800     1.0000 0.70279  0.42940  0.48450  Biso   1.000  H
  H801     1.0000 0.72600  0.46020  0.48028  Biso   1.000  H
  H802     1.0000 0.76789  0.50760  0.60922  Biso   1.000  H
  H803     1.0000 0.76370  0.52320  0.53799  Biso   1.000  H
  H804     1.0000 0.73721  0.49859  0.56552  Biso   1.000  H
  N45      1.0000 0.76391  0.32239  0.62328  Biso   1.000  N
  H805     1.0000 0.72181  0.34570  0.64332  Biso   1.000  H
  H806     1.0000 0.74880  0.35129  0.69799  Biso   1.000  H
  H807     1.0000 0.79510  0.38929  0.80630  Biso   1.000  H
  H808     1.0000 0.78389  0.42251  0.77348  Biso   1.000  H
  H809     1.0000 0.76049  0.39180  0.77220  Biso   1.000  H
  C956     1.0000 0.01234  0.07459  0.40592  Biso   1.000  C
  C957     1.0000 0.00019  0.09370  0.49160  Biso   1.000  C
  C958     1.0000 0.99031  0.06630  0.51369  Biso   1.000  C
  C959     1.0000 0.99470  0.03709  0.46838  Biso   1.000  C
  C960     1.0000 0.18606  0.10739  0.10949  Biso   1.000  C
  C961     1.0000 0.23893  0.11571  0.06398  Biso   1.000  C
  H810     1.0000 0.11440  0.45131  0.54769  Biso   1.000  H
  H811     1.0000 0.14629  0.42959  0.54882  Biso   1.000  H
  C962     1.0000 0.14889  0.46699  0.47989  Biso   1.000  C
  C963     1.0000 0.20618  0.38691  0.63842  Biso   1.000  C
  C964     1.0000 0.04979  0.50030  0.65110  Biso   1.000  C
  H812     1.0000 0.70870  0.37681  0.48871  Biso   1.000  H
  H813     1.0000 0.71470  0.35049  0.54470  Biso   1.000  H
  C965     1.0000 0.67520  0.38240  0.56920  Biso   1.000  C
  C966     1.0000 0.72921  0.42981  0.36898  Biso   1.000  C
  C967     1.0000 0.74969  0.29981  0.59888  Biso   1.000  C
  H814     1.0000 0.03039  0.07580  0.37741  Biso   1.000  H
  C968     1.0000 0.98147  0.07941  0.38142  Biso   1.000  C
  H815     1.0000 0.01260  0.11120  0.50801  Biso   1.000  H
  C969     1.0000 0.96949  0.09910  0.46691  Biso   1.000  C
  C970     1.0000 0.95944  0.07110  0.48920  Biso   1.000  C
  H816     1.0000 0.99340  0.06179  0.55891  Biso   1.000  H
  H817     1.0000 0.00340  0.01591  0.46892  Biso   1.000  H
  C971     1.0000 0.96399  0.04249  0.44369  Biso   1.000  C
  H818     1.0000 0.17270  0.10231  0.14579  Biso   1.000  H
  C972     1.0000 0.17234  0.11409  0.04889  Biso   1.000  C
  C973     1.0000 0.22522  0.12238  0.00328  Biso   1.000  C
  H819     1.0000 0.26171  0.11619  0.06912  Biso   1.000  H
  H820     1.0000 0.13930  0.45490  0.44369  Biso   1.000  H
  H821     1.0000 0.17251  0.46610  0.47651  Biso   1.000  H
  H822     1.0000 0.14181  0.48950  0.47778  Biso   1.000  H
  H823     1.0000 0.22389  0.38609  0.60888  Biso   1.000  H
  C974     1.0000 0.19738  0.35751  0.67731  Biso   1.000  C
  C975     1.0000 0.02056  0.48230  0.67731  Biso   1.000  C
  H824     1.0000 0.05039  0.52310  0.65400  Biso   1.000  H
  H825     1.0000 0.67809  0.39949  0.60192  Biso   1.000  H
  H826     1.0000 0.66040  0.38980  0.53500  Biso   1.000  H
  H827     1.0000 0.66621  0.36319  0.59051  Biso   1.000  H
  H828     1.0000 0.71111  0.44381  0.36972  Biso   1.000  H
  C976     1.0000 0.74056  0.41822  0.30241  Biso   1.000  C
  C977     1.0000 0.76770  0.27055  0.57272  Biso   1.000  C
  H829     1.0000 0.72689  0.30039  0.59599  Biso   1.000  H
  C978     1.0000 0.95500  0.07770  0.42301  Biso   1.000  C
  H830     1.0000 0.97841  0.08389  0.33621  Biso   1.000  H
  C979     1.0000 0.95139  0.07351  0.44290  Biso   1.000  C
  H831     1.0000 0.96091  0.12031  0.46642  Biso   1.000  H
  H832     1.0000 0.94141  0.06989  0.51761  Biso   1.000  H
  H833     1.0000 0.95161  0.02499  0.42728  Biso   1.000  H
  H834     1.0000 0.14959  0.11349  0.04380  Biso   1.000  H
  C980     1.0000 0.19194  0.12159  0.99579  Biso   1.000  C
  H835     1.0000 0.23859  0.12749  0.96698  Biso   1.000  H
  C981     1.0000 0.17285  0.35401  0.72179  Biso   1.000  C
  C982     1.0000 0.21647  0.33150  0.66619  Biso   1.000  C
  C983     1.0000 0.99730  0.50018  0.71009  Biso   1.000  C
  C984     1.0000 0.01728  0.44899  0.67188  Biso   1.000  C
  C985     1.0000 0.76902  0.40067  0.29888  Biso   1.000  C
  C986     1.0000 0.72444  0.42684  0.24538  Biso   1.000  C
  C987     1.0000 0.74981  0.24729  0.53990  Biso   1.000  C
  C988     1.0000 0.80100  0.26727  0.57811  Biso   1.000  C
  C989     1.0000 0.92028  0.08103  0.40371  Biso   1.000  C
  C990     1.0000 0.17663  0.13108  0.93186  Biso   1.000  C
  C991     1.0000 0.16726  0.32497  0.75501  Biso   1.000  C
  H836     1.0000 0.15921  0.37189  0.73042  Biso   1.000  H
  C992     1.0000 0.21100  0.30321  0.69862  Biso   1.000  C
  H837     1.0000 0.23370  0.33300  0.63572  Biso   1.000  H
  C993     1.0000 0.97074  0.48485  0.73752  Biso   1.000  C
  H838     1.0000 0.99949  0.52291  0.71371  Biso   1.000  H
  C994     1.0000 0.99070  0.43371  0.69941  Biso   1.000  C
  H839     1.0000 0.03321  0.43680  0.64949  Biso   1.000  H
  H840     1.0000 0.78001  0.39479  0.33792  Biso   1.000  H
  C995     1.0000 0.78138  0.39173  0.23818  Biso   1.000  C
  C996     1.0000 0.73680  0.41790  0.18469  Biso   1.000  C
  H841     1.0000 0.70501  0.43880  0.24778  Biso   1.000  H
  C997     1.0000 0.76514  0.22076  0.51252  Biso   1.000  C
  H842     1.0000 0.72711  0.24951  0.53628  Biso   1.000  H
  H843     1.0000 0.81320  0.28320  0.60050  Biso   1.000  H
  C998     1.0000 0.81628  0.24069  0.55058  Biso   1.000  C
  C999     1.0000 0.90121  0.10513  0.43090  Biso   1.000  C
  C1000    1.0000 0.91020  0.06514  0.34738  Biso   1.000  C
  C1001    1.0000 0.15256  0.11202  0.90472  Biso   1.000  C
  C1002    1.0000 0.18485  0.16022  0.90261  Biso   1.000  C
  H844     1.0000 0.15010  0.32331  0.78558  Biso   1.000  H
  C1003    1.0000 0.18714  0.29853  0.74286  Biso   1.000  C
  H845     1.0000 0.22491  0.28559  0.68941  Biso   1.000  H
  C1004    1.0000 0.96746  0.45159  0.73218  Biso   1.000  C
  H846     1.0000 0.95481  0.49710  0.75991  Biso   1.000  H
  H847     1.0000 0.98850  0.41101  0.69578  Biso   1.000  H
  H848     1.0000 0.80091  0.37970  0.23578  Biso   1.000  H
  C1005    1.0000 0.76526  0.40036  0.18121  Biso   1.000  C
  H849     1.0000 0.72581  0.42381  0.14569  Biso   1.000  H
  C1006    1.0000 0.79840  0.21746  0.51781  Biso   1.000  C
  H850     1.0000 0.75290  0.20481  0.49008  Biso   1.000  H
  H851     1.0000 0.83901  0.23850  0.55421  Biso   1.000  H
  C1007    1.0000 0.87210  0.11332  0.40170  Biso   1.000  C
  H852     1.0000 0.90810  0.11600  0.46941  Biso   1.000  H
  C1008    1.0000 0.88109  0.07336  0.31818  Biso   1.000  C
  H853     1.0000 0.92319  0.04871  0.32881  Biso   1.000  H
  H854     1.0000 0.14689  0.09211  0.92461  Biso   1.000  H
  C1009    1.0000 0.13667  0.12209  0.84828  Biso   1.000  C
  C1010    1.0000 0.16897  0.17027  0.84632  Biso   1.000  C
  H855     1.0000 0.20131  0.17321  0.92118  Biso   1.000  H
  C1011    1.0000 0.18201  0.26677  0.77798  Biso   1.000  C
  C1012    1.0000 0.18731  0.26286  0.75761  Biso   1.000  C
  C1013    1.0000 0.93828  0.43521  0.76172  Biso   1.000  C
  C1014    1.0000 0.78066  0.39180  0.11708  Biso   1.000  C
  C1015    1.0000 0.81479  0.18830  0.48832  Biso   1.000  C
  C1016    1.0000 0.86202  0.09744  0.34532  Biso   1.000  C
  C1017    1.0000 0.85019  0.13812  0.43389  Biso   1.000  C
  C1018    1.0000 0.87159  0.05806  0.25420  Biso   1.000  C
  C1019    1.0000 0.14489  0.15121  0.81909  Biso   1.000  C
  C1020    1.0000 0.11190  0.10021  0.81610  Biso   1.000  C
  C1021    1.0000 0.17229  0.20500  0.82702  Biso   1.000  C
  C1022    1.0000 0.17651  0.20138  0.80708  Biso   1.000  C
  C1023    1.0000 0.18369  0.24031  0.73630  Biso   1.000  C
  C1024    1.0000 0.17540  0.26233  0.84412  Biso   1.000  C
  C1025    1.0000 0.21290  0.24469  0.78161  Biso   1.000  C
  C1026    1.0000 0.15629  0.25021  0.75839  Biso   1.000  C
  C1027    1.0000 0.92917  0.44046  0.82629  Biso   1.000  C
  C1028    1.0000 0.92230  0.41231  0.72420  Biso   1.000  C
  C1029    1.0000 0.91039  0.45039  0.78171  Biso   1.000  C
  C1030    1.0000 0.94129  0.40190  0.76882  Biso   1.000  C
  C1031    1.0000 0.81394  0.39260  0.10949  Biso   1.000  C
  C1032    1.0000 0.76107  0.38431  0.06398  Biso   1.000  C
  C1033    1.0000 0.80953  0.17919  0.42370  Biso   1.000  C
  C1034    1.0000 0.83771  0.17232  0.52579  Biso   1.000  C
  C1035    1.0000 0.79960  0.16039  0.46828  Biso   1.000  C
  C1036    1.0000 0.84809  0.19131  0.48121  Biso   1.000  C
  H856     1.0000 0.84209  0.10310  0.32538  Biso   1.000  H
  C1037    1.0000 0.82725  0.15410  0.39651  Biso   1.000  C
  C1038    1.0000 0.85547  0.14723  0.49860  Biso   1.000  C
  C1039    1.0000 0.86629  0.16600  0.45358  Biso   1.000  C
  C1040    1.0000 0.81720  0.13540  0.44119  Biso   1.000  C
  C1041    1.0000 0.86410  0.07765  0.20110  Biso   1.000  C
  C1042    1.0000 0.87239  0.02478  0.24671  Biso   1.000  C
  H857     1.0000 0.13400  0.15810  0.78058  Biso   1.000  H
  C1043    1.0000 0.09592  0.07724  0.85348  Biso   1.000  C
  C1044    1.0000 0.10279  0.10546  0.75138  Biso   1.000  C
  C1045    1.0000 0.08399  0.11631  0.79640  Biso   1.000  C
  C1046    1.0000 0.11460  0.06719  0.80880  Biso   1.000  C
  C1047    1.0000 0.17890  0.20946  0.76079  Biso   1.000  C
  C1048    1.0000 0.17061  0.23146  0.86861  Biso   1.000  C
  C1049    1.0000 0.20750  0.21401  0.80630  Biso   1.000  C
  C1050    1.0000 0.15089  0.21951  0.78308  Biso   1.000  C
  H858     1.0000 0.18820  0.24339  0.69108  Biso   1.000  H
  H859     1.0000 0.17420  0.28041  0.87258  Biso   1.000  H
  H860     1.0000 0.23411  0.25339  0.78112  Biso   1.000  H
  H861     1.0000 0.13879  0.26260  0.74198  Biso   1.000  H
  C1051    1.0000 0.90408  0.42277  0.85348  Biso   1.000  C
  H862     1.0000 0.94011  0.45620  0.85191  Biso   1.000  H
  H863     1.0000 0.92849  0.40870  0.68011  Biso   1.000  H
  C1052    1.0000 0.89721  0.39455  0.75138  Biso   1.000  C
  H864     1.0000 0.90839  0.47309  0.77681  Biso   1.000  H
  C1053    1.0000 0.88540  0.43280  0.80880  Biso   1.000  C
  C1054    1.0000 0.91601  0.38370  0.79640  Biso   1.000  C
  H865     1.0000 0.96050  0.39139  0.75511  Biso   1.000  H
  H866     1.0000 0.82730  0.39771  0.14579  Biso   1.000  H
  C1055    1.0000 0.82766  0.38592  0.04889  Biso   1.000  C
  C1056    1.0000 0.77478  0.37761  0.00328  Biso   1.000  C
  H867     1.0000 0.73829  0.38380  0.06912  Biso   1.000  H
  H868     1.0000 0.79380  0.19010  0.39808  Biso   1.000  H
  H869     1.0000 0.84130  0.17851  0.56988  Biso   1.000  H
  H870     1.0000 0.77690  0.15839  0.47318  Biso   1.000  H
  H871     1.0000 0.85860  0.21049  0.49488  Biso   1.000  H
  H872     1.0000 0.82361  0.14790  0.35228  Biso   1.000  H
  H873     1.0000 0.87121  0.13629  0.52418  Biso   1.000  H
  H874     1.0000 0.88899  0.16781  0.44859  Biso   1.000  H
  H875     1.0000 0.80650  0.11619  0.42762  Biso   1.000  H
  C1057    1.0000 0.85740  0.06394  0.14050  Biso   1.000  C
  H876     1.0000 0.86350  0.10040  0.20619  Biso   1.000  H
  H877     1.0000 0.87750  0.01140  0.28301  Biso   1.000  H
  C1058    1.0000 0.86569  0.01109  0.18601  Biso   1.000  C
  H878     1.0000 0.10209  0.07360  0.89771  Biso   1.000  H
  C1059    1.0000 0.07083  0.05953  0.82629  Biso   1.000  C
  C1060    1.0000 0.07770  0.08770  0.72420  Biso   1.000  C
  H879     1.0000 0.11371  0.12120  0.72581  Biso   1.000  H
  H880     1.0000 0.08221  0.13901  0.80140  Biso   1.000  H
  C1061    1.0000 0.05871  0.09809  0.76882  Biso   1.000  C
  C1062    1.0000 0.08961  0.04960  0.78171  Biso   1.000  C
  H881     1.0000 0.13381  0.05649  0.82242  Biso   1.000  H
  H882     1.0000 0.18010  0.19141  0.73238  Biso   1.000  H
  H883     1.0000 0.16610  0.22840  0.91378  Biso   1.000  H
  H884     1.0000 0.22500  0.20160  0.82271  Biso   1.000  H
  H885     1.0000 0.12971  0.21090  0.78362  Biso   1.000  H
  C1063    1.0000 0.88810  0.39980  0.81610  Biso   1.000  C
  H886     1.0000 0.89791  0.42641  0.89771  Biso   1.000  H
  H887     1.0000 0.88629  0.37881  0.72581  Biso   1.000  H
  H888     1.0000 0.86619  0.44350  0.82242  Biso   1.000  H
  H889     1.0000 0.91779  0.36100  0.80140  Biso   1.000  H
  C1064    1.0000 0.80806  0.37840  0.99579  Biso   1.000  C
  H890     1.0000 0.85041  0.38650  0.04380  Biso   1.000  H
  H891     1.0000 0.76141  0.37250  0.96698  Biso   1.000  H
  C1065    1.0000 0.85819  0.03066  0.13291  Biso   1.000  C
  H892     1.0000 0.85229  0.07729  0.10420  Biso   1.000  H
  H893     1.0000 0.86619  0.98831  0.18091  Biso   1.000  H
  H894     1.0000 0.05989  0.04379  0.85191  Biso   1.000  H
  C1066    1.0000 0.06172  0.06478  0.76172  Biso   1.000  C
  H895     1.0000 0.07151  0.09129  0.68011  Biso   1.000  H
  H896     1.0000 0.03950  0.10860  0.75511  Biso   1.000  H
  H897     1.0000 0.09161  0.02690  0.77681  Biso   1.000  H
  C1067    1.0000 0.86333  0.37792  0.84828  Biso   1.000  C
  C1068    1.0000 0.82337  0.36893  0.93186  Biso   1.000  C
  C1069    1.0000 0.84964  0.01528  0.06878  Biso   1.000  C
  C1070    1.0000 0.03254  0.04839  0.73218  Biso   1.000  C
  C1071    1.0000 0.84744  0.38797  0.90472  Biso   1.000  C
  C1072    1.0000 0.85511  0.34878  0.81909  Biso   1.000  C
  C1073    1.0000 0.81515  0.33979  0.90261  Biso   1.000  C
  C1074    1.0000 0.83209  0.98679  0.06530  Biso   1.000  C
  C1075    1.0000 0.85827  0.03138  0.01181  Biso   1.000  C
  C1076    1.0000 0.02926  0.01514  0.73752  Biso   1.000  C
  C1077    1.0000 0.00930  0.06628  0.69941  Biso   1.000  C
  H898     1.0000 0.85311  0.40790  0.92461  Biso   1.000  H
  H899     1.0000 0.86600  0.34189  0.78058  Biso   1.000  H
  C1078    1.0000 0.83103  0.32972  0.84632  Biso   1.000  C
  H900     1.0000 0.79869  0.32680  0.92118  Biso   1.000  H
  H901     1.0000 0.82621  0.97580  0.10430  Biso   1.000  H
  C1079    1.0000 0.82315  0.97443  0.00460  Biso   1.000  C
  C1080    1.0000 0.84932  0.01904  0.95111  Biso   1.000  C
  H902     1.0000 0.87029  0.05090  0.01421  Biso   1.000  H
  C1081    1.0000 0.00270  0.99981  0.71009  Biso   1.000  C
  H903     1.0000 0.04519  0.00289  0.75991  Biso   1.000  H
  C1082    1.0000 0.98272  0.05100  0.67188  Biso   1.000  C
  H904     1.0000 0.01150  0.08900  0.69578  Biso   1.000  H
  C1083    1.0000 0.82771  0.29499  0.82702  Biso   1.000  C
  C1084    1.0000 0.82349  0.29860  0.80708  Biso   1.000  C
  C1085    1.0000 0.83178  0.99055  0.94758  Biso   1.000  C
  H905     1.0000 0.81120  0.95500  0.00220  Biso   1.000  H
  H906     1.0000 0.85520  0.03001  0.91211  Biso   1.000  H
  C1086    1.0000 0.97944  0.01769  0.67731  Biso   1.000  C
  H907     1.0000 0.00051  0.97710  0.71371  Biso   1.000  H
  H908     1.0000 0.96679  0.06319  0.64949  Biso   1.000  H
  C1087    1.0000 0.82110  0.29056  0.76079  Biso   1.000  C
  C1088    1.0000 0.82939  0.26855  0.86861  Biso   1.000  C
  C1089    1.0000 0.79250  0.28600  0.80630  Biso   1.000  C
  C1090    1.0000 0.84911  0.28051  0.78308  Biso   1.000  C
  C1091    1.0000 0.82021  0.97920  0.88101  Biso   1.000  C
  C1092    1.0000 0.95021  0.99971  0.65110  Biso   1.000  C
  H909     1.0000 0.81990  0.30861  0.73238  Biso   1.000  H
  C1093    1.0000 0.81631  0.25971  0.73630  Biso   1.000  C
  C1094    1.0000 0.82460  0.23768  0.84412  Biso   1.000  C
  H910     1.0000 0.83390  0.27159  0.91378  Biso   1.000  H
  C1095    1.0000 0.78710  0.25530  0.78161  Biso   1.000  C
  H911     1.0000 0.77500  0.29841  0.82271  Biso   1.000  H
  H912     1.0000 0.87029  0.28911  0.78362  Biso   1.000  H
  C1096    1.0000 0.84371  0.24980  0.75839  Biso   1.000  C
  N46      1.0000 0.82679  0.99019  0.83212  Biso   1.000  N
  H913     1.0000 0.80621  0.96110  0.88032  Biso   1.000  H
  H914     1.0000 0.94961  0.97691  0.65400  Biso   1.000  H
  N47      1.0000 0.92760  0.01391  0.62671  Biso   1.000  N
  H915     1.0000 0.81180  0.25660  0.69108  Biso   1.000  H
  C1097    1.0000 0.81799  0.23322  0.77798  Biso   1.000  C
  C1098    1.0000 0.81269  0.23715  0.75761  Biso   1.000  C
  H916     1.0000 0.82580  0.21960  0.87258  Biso   1.000  H
  H917     1.0000 0.76589  0.24660  0.78112  Biso   1.000  H
  H918     1.0000 0.86121  0.23739  0.74198  Biso   1.000  H
  C1099    1.0000 0.81361  0.97549  0.76922  Biso   1.000  C
  C1100    1.0000 0.90010  0.99501  0.59981  Biso   1.000  C
  C1101    1.0000 0.81286  0.20146  0.74286  Biso   1.000  C
  C1102    1.0000 0.82612  0.99463  0.71229  Biso   1.000  C
  H919     1.0000 0.82060  0.95281  0.76549  Biso   1.000  H
  H920     1.0000 0.78980  0.97600  0.76971  Biso   1.000  H
  H921     1.0000 0.90430  0.97180  0.60672  Biso   1.000  H
  H922     1.0000 0.89871  0.99879  0.55200  Biso   1.000  H
  C1103    1.0000 0.86730  0.00376  0.63131  Biso   1.000  C
  C1104    1.0000 0.83274  0.17504  0.75501  Biso   1.000  C
  C1105    1.0000 0.78900  0.19680  0.69862  Biso   1.000  C
  C1106    1.0000 0.85578  0.98672  0.68500  Biso   1.000  C
  C1107    1.0000 0.80797  0.01959  0.68579  Biso   1.000  C
  C1108    1.0000 0.84916  0.02873  0.60481  Biso   1.000  C
  H923     1.0000 0.84990  0.17670  0.78558  Biso   1.000  H
  C1109    1.0000 0.82715  0.14600  0.72179  Biso   1.000  C
  H924     1.0000 0.77509  0.21440  0.68941  Biso   1.000  H
  C1110    1.0000 0.78353  0.16851  0.66619  Biso   1.000  C
  C1111    1.0000 0.87651  0.95980  0.71342  Biso   1.000  C
  C1112    1.0000 0.81949  0.03663  0.63200  Biso   1.000  C
  C1113    1.0000 0.77560  0.02960  0.71690  Biso   1.000  C
  C1114    1.0000 0.86181  0.04801  0.54598  Biso   1.000  C
  H925     1.0000 0.84079  0.12809  0.73042  Biso   1.000  H
  C1115    1.0000 0.80262  0.14251  0.67731  Biso   1.000  C
  H926     1.0000 0.76630  0.16699  0.63572  Biso   1.000  H
  H927     1.0000 0.87321  0.95869  0.76128  Biso   1.000  H
  H928     1.0000 0.89950  0.96469  0.70529  Biso   1.000  H
  C1116    1.0000 0.86759  0.92519  0.68079  Biso   1.000  C
  C1117    1.0000 0.79869  0.06240  0.60099  Biso   1.000  C
  H929     1.0000 0.77220  0.05300  0.71028  Biso   1.000  H
  H930     1.0000 0.77630  0.02540  0.76461  Biso   1.000  H
  C1118    1.0000 0.74620  0.01019  0.68549  Biso   1.000  C
  H931     1.0000 0.88560  0.04871  0.54769  Biso   1.000  H
  H932     1.0000 0.85371  0.07040  0.54882  Biso   1.000  H
  C1119    1.0000 0.85111  0.03299  0.47989  Biso   1.000  C
  C1120    1.0000 0.79382  0.11310  0.63842  Biso   1.000  C
  H933     1.0000 0.85050  0.92811  0.64812  Biso   1.000  H
  H934     1.0000 0.86019  0.91039  0.71499  Biso   1.000  H
  H935     1.0000 0.88680  0.91620  0.65948  Biso   1.000  H
  N48      1.0000 0.80734  0.09141  0.64361  Biso   1.000  N
  H936     1.0000 0.77550  0.05709  0.60422  Biso   1.000  H
  H937     1.0000 0.80450  0.06611  0.55460  Biso   1.000  H
  H938     1.0000 0.75140  0.98720  0.68451  Biso   1.000  H
  H939     1.0000 0.74239  0.01791  0.64082  Biso   1.000  H
  H940     1.0000 0.72680  0.01369  0.71200  Biso   1.000  H
  H941     1.0000 0.86070  0.04509  0.44369  Biso   1.000  H
  H942     1.0000 0.82749  0.03391  0.47651  Biso   1.000  H
  H943     1.0000 0.85819  0.01051  0.47778  Biso   1.000  H
  H944     1.0000 0.77611  0.11390  0.60888  Biso   1.000  H
