data_image0
_cell_length_a       26.591
_cell_length_b       16.367
_cell_length_c       39.525
_cell_angle_alpha    90
_cell_angle_beta     98.79
_cell_angle_gamma    90

_symmetry_space_group_name_H-M    "P 1"
_symmetry_int_tables_number       1

loop_
  _symmetry_equiv_pos_as_xyz
  'x, y, z'

loop_
  _atom_site_label
  _atom_site_occupancy
  _atom_site_fract_x
  _atom_site_fract_y
  _atom_site_fract_z
  _atom_site_thermal_displace_type
  _atom_site_B_iso_or_equiv
  _atom_site_type_symbol
  C1       1.0000 0.51688  0.58581  0.46479  Biso   1.000  C
  C2       1.0000 0.52335  0.59070  0.43069  Biso   1.000  C
  C3       1.0000 0.55887  0.58930  0.49039  Biso   1.000  C
  H1       1.0000 0.48366  0.58013  0.47070  Biso   1.000  H
  C4       1.0000 0.54516  0.60182  0.46479  Biso   1.000  C
  C5       1.0000 0.55806  0.61031  0.43220  Biso   1.000  C
  H2       1.0000 0.53266  0.60494  0.41259  Biso   1.000  H
  C6       1.0000 0.57186  0.59913  0.42209  Biso   1.000  C
  H3       1.0000 0.49457  0.58844  0.41310  Biso   1.000  H
  C7       1.0000 0.60745  0.59760  0.48189  Biso   1.000  C
  N1       1.0000 0.56326  0.59394  0.52726  Biso   1.000  N
  C8       1.0000 0.58234  0.60970  0.49338  Biso   1.000  C
  H4       1.0000 0.51095  0.59052  0.46750  Biso   1.000  H
  C9       1.0000 0.60808  0.62669  0.42820  Biso   1.000  C
  C10      1.0000 0.61385  0.60262  0.44769  Biso   1.000  C
  C11      1.0000 0.57716  0.60671  0.38781  Biso   1.000  C
  C12      1.0000 0.64526  0.63463  0.45680  Biso   1.000  C
  H5       1.0000 0.63617  0.59999  0.49940  Biso   1.000  H
  C13      1.0000 0.58456  0.52979  0.54753  Biso   1.000  C
  C14      1.0000 0.53024  0.65369  0.53952  Biso   1.000  C
  C15      1.0000 0.63247  0.62614  0.48939  Biso   1.000  C
  C16      1.0000 0.62098  0.63573  0.39479  Biso   1.000  C
  H6       1.0000 0.64706  0.60830  0.44190  Biso   1.000  H
  N2       1.0000 0.61777  0.61349  0.37501  Biso   1.000  N
  H7       1.0000 0.54647  0.60683  0.37191  Biso   1.000  H
  H8       1.0000 0.67947  0.64593  0.45409  Biso   1.000  H
  C17      1.0000 0.60126  0.46081  0.53199  Biso   1.000  C
  C18      1.0000 0.59097  0.53528  0.58301  Biso   1.000  C
  C19      1.0000 0.49634  0.63243  0.56161  Biso   1.000  C
  C20      1.0000 0.53626  0.73520  0.53110  Biso   1.000  C
  H9       1.0000 0.65787  0.63151  0.50900  Biso   1.000  H
  N3       1.0000 0.59055  0.62082  0.36779  Biso   1.000  N
  H10      1.0000 0.65437  0.65382  0.39280  Biso   1.000  H
  C21      1.0000 0.61509  0.62339  0.33573  Biso   1.000  C
  C22      1.0000 0.62426  0.39732  0.55196  Biso   1.000  C
  H11      1.0000 0.59687  0.45714  0.50770  Biso   1.000  H
  H12      1.0000 0.57955  0.58239  0.59369  Biso   1.000  H
  C23      1.0000 0.61397  0.47174  0.60298  Biso   1.000  C
  C24      1.0000 0.46856  0.69274  0.57526  Biso   1.000  C
  H13      1.0000 0.49224  0.57671  0.56740  Biso   1.000  H
  H14      1.0000 0.55935  0.74974  0.51599  Biso   1.000  H
  C25      1.0000 0.50846  0.79544  0.54477  Biso   1.000  C
  C26      1.0000 0.66336  0.67251  0.33302  Biso   1.000  C
  H15      1.0000 0.58867  0.64300  0.31710  Biso   1.000  H
  H16      1.0000 0.62248  0.56614  0.33020  Biso   1.000  H
  H17      1.0000 0.61557  0.56974  0.32429  Biso   1.000  H
  H18      1.0000 0.58419  0.65363  0.32570  Biso   1.000  H
  C27      1.0000 0.63056  0.40270  0.58744  Biso   1.000  C
  H19      1.0000 0.63564  0.35009  0.54128  Biso   1.000  H
  H20      1.0000 0.61826  0.47541  0.62720  Biso   1.000  H
  C28      1.0000 0.47466  0.77424  0.56683  Biso   1.000  C
  H21      1.0000 0.44545  0.67819  0.59039  Biso   1.000  H
  H22      1.0000 0.51256  0.85110  0.53901  Biso   1.000  H
  C29      1.0000 0.71007  0.63164  0.33665  Biso   1.000  C
  C30      1.0000 0.66119  0.75420  0.32762  Biso   1.000  C
  C31      1.0000 0.65744  0.33219  0.60780  Biso   1.000  C
  C32      1.0000 0.44564  0.83803  0.58330  Biso   1.000  C
  C33      1.0000 0.75436  0.67532  0.33448  Biso   1.000  C
  C34      1.0000 0.71348  0.54023  0.34339  Biso   1.000  C
  C35      1.0000 0.70608  0.80070  0.32508  Biso   1.000  C
  C36      1.0000 0.60996  0.80112  0.32309  Biso   1.000  C
  N4       1.0000 0.67165  0.32859  0.63460  Biso   1.000  N
  H23      1.0000 0.66226  0.28460  0.59489  Biso   1.000  H
  N5       1.0000 0.45185  0.90585  0.58130  Biso   1.000  N
  H24      1.0000 0.42046  0.81994  0.59610  Biso   1.000  H
  C37      1.0000 0.75238  0.76019  0.32956  Biso   1.000  C
  C38      1.0000 0.80566  0.63231  0.33962  Biso   1.000  C
  H25      1.0000 0.68667  0.52429  0.35701  Biso   1.000  H
  H26      1.0000 0.74687  0.52783  0.35729  Biso   1.000  H
  C39      1.0000 0.70746  0.48873  0.31029  Biso   1.000  C
  C40      1.0000 0.70348  0.89234  0.31710  Biso   1.000  C
  H27      1.0000 0.58678  0.77455  0.33709  Biso   1.000  H
  H28      1.0000 0.61608  0.85770  0.33151  Biso   1.000  H
  C41      1.0000 0.58476  0.80314  0.28599  Biso   1.000  C
  C42      1.0000 0.69646  0.25771  0.65291  Biso   1.000  C
  C43      1.0000 0.41864  0.96285  0.60050  Biso   1.000  C
  C44      1.0000 0.80099  0.81023  0.32752  Biso   1.000  C
  N6       1.0000 0.83096  0.64013  0.37536  Biso   1.000  N
  H29      1.0000 0.80076  0.57384  0.33379  Biso   1.000  H
  H30      1.0000 0.82755  0.65650  0.32408  Biso   1.000  H
  H31      1.0000 0.67336  0.49691  0.29741  Biso   1.000  H
  H32      1.0000 0.71226  0.43081  0.31620  Biso   1.000  H
  H33      1.0000 0.73309  0.50571  0.29631  Biso   1.000  H
  N7       1.0000 0.71048  0.94782  0.34741  Biso   1.000  N
  H34      1.0000 0.72987  0.90530  0.30281  Biso   1.000  H
  H35      1.0000 0.66996  0.90414  0.30330  Biso   1.000  H
  H36      1.0000 0.60489  0.83754  0.27281  Biso   1.000  H
  H37      1.0000 0.55037  0.82562  0.28461  Biso   1.000  H
  H38      1.0000 0.58288  0.74760  0.27670  Biso   1.000  H
  C45      1.0000 0.74956  0.27953  0.67177  Biso   1.000  C
  H39      1.0000 0.69944  0.21323  0.63639  Biso   1.000  H
  H40      1.0000 0.67513  0.23761  0.66960  Biso   1.000  H
  H41      1.0000 0.39094  0.98790  0.58419  Biso   1.000  H
  H42      1.0000 0.40324  0.93163  0.61781  Biso   1.000  H
  C46      1.0000 0.45454  0.02792  0.61750  Biso   1.000  C
  H43      1.0000 0.79629  0.86650  0.33561  Biso   1.000  H
  H44      1.0000 0.82987  0.78554  0.34290  Biso   1.000  H
  C47      1.0000 0.81367  0.81322  0.29126  Biso   1.000  C
  C48      1.0000 0.84636  0.57561  0.39149  Biso   1.000  C
  C49      1.0000 0.71148  0.92155  0.37501  Biso   1.000  C
  C50      1.0000 0.75264  0.32663  0.70173  Biso   1.000  C
  C51      1.0000 0.79344  0.25582  0.65884  Biso   1.000  C
  C52      1.0000 0.47356  0.01491  0.65239  Biso   1.000  C
  C53      1.0000 0.46844  0.09458  0.59989  Biso   1.000  C
  H45      1.0000 0.78848  0.84713  0.27690  Biso   1.000  H
  H46      1.0000 0.81298  0.75781  0.28179  Biso   1.000  H
  H47      1.0000 0.84769  0.83674  0.29170  Biso   1.000  H
  H48      1.0000 0.84048  0.52423  0.38048  Biso   1.000  H
  C54      1.0000 0.87275  0.57860  0.42639  Biso   1.000  C
  C55      1.0000 0.71896  0.97703  0.40596  Biso   1.000  C
  H49      1.0000 0.70769  0.86442  0.37800  Biso   1.000  H
  C56      1.0000 0.80054  0.35022  0.71857  Biso   1.000  C
  C57      1.0000 0.70403  0.35193  0.71571  Biso   1.000  C
  C58      1.0000 0.84045  0.27983  0.67607  Biso   1.000  C
  C59      1.0000 0.78954  0.20401  0.62661  Biso   1.000  C
  C60      1.0000 0.46253  0.94073  0.67139  Biso   1.000  C
  C61      1.0000 0.50714  0.07411  0.66929  Biso   1.000  C
  C62      1.0000 0.50214  0.15159  0.61829  Biso   1.000  C
  C63      1.0000 0.44793  0.10289  0.56358  Biso   1.000  C
  C64      1.0000 0.88715  0.50693  0.44390  Biso   1.000  C
  C65      1.0000 0.88486  0.65204  0.44310  Biso   1.000  C
  C66      1.0000 0.71478  0.94342  0.43770  Biso   1.000  C
  C67      1.0000 0.73125  0.05908  0.40342  Biso   1.000  C
  C68      1.0000 0.84482  0.32920  0.70493  Biso   1.000  C
  C69      1.0000 0.80374  0.40099  0.75119  Biso   1.000  C
  H50      1.0000 0.71023  0.40441  0.72810  Biso   1.000  H
  H51      1.0000 0.67634  0.36073  0.69630  Biso   1.000  H
  C70      1.0000 0.68695  0.28771  0.74000  Biso   1.000  C
  C71      1.0000 0.88903  0.25393  0.66279  Biso   1.000  C
  H52      1.0000 0.81965  0.21391  0.61530  Biso   1.000  H
  H53      1.0000 0.75894  0.22063  0.61059  Biso   1.000  H
  C72      1.0000 0.78603  0.11303  0.63450  Biso   1.000  C
  H54      1.0000 0.49194  0.92882  0.68928  Biso   1.000  H
  H55      1.0000 0.45794  0.89375  0.65549  Biso   1.000  H
  C73      1.0000 0.41365  0.95143  0.68849  Biso   1.000  C
  C74      1.0000 0.52104  0.14040  0.65250  Biso   1.000  C
  C75      1.0000 0.52773  0.06293  0.70710  Biso   1.000  C
  C76      1.0000 0.52054  0.22338  0.59930  Biso   1.000  C
  H56      1.0000 0.43904  0.04790  0.55409  Biso   1.000  H
  H57      1.0000 0.47494  0.12519  0.55150  Biso   1.000  H
  C77      1.0000 0.40256  0.15611  0.55639  Biso   1.000  C
  H58      1.0000 0.88005  0.45592  0.43268  Biso   1.000  H
  C78      1.0000 0.91197  0.50858  0.47800  Biso   1.000  C
  C79      1.0000 0.90997  0.65290  0.47700  Biso   1.000  C
  H59      1.0000 0.87615  0.70214  0.43158  Biso   1.000  H
  C80      1.0000 0.72307  0.99193  0.46694  Biso   1.000  C
  H60      1.0000 0.70635  0.88733  0.43949  Biso   1.000  H
  H61      1.0000 0.73417  0.08199  0.38169  Biso   1.000  H
  C81      1.0000 0.73957  0.10747  0.43261  Biso   1.000  C
  C82      1.0000 0.89673  0.36048  0.72200  Biso   1.000  C
  N8       1.0000 0.79353  0.48628  0.74266  Biso   1.000  N
  H62      1.0000 0.77855  0.38071  0.76529  Biso   1.000  H
  H63      1.0000 0.83804  0.39561  0.76478  Biso   1.000  H
  H64      1.0000 0.68275  0.23480  0.72830  Biso   1.000  H
  H65      1.0000 0.65445  0.30452  0.74661  Biso   1.000  H
  H66      1.0000 0.71262  0.28301  0.76048  Biso   1.000  H
  N9       1.0000 0.90927  0.30781  0.63780  Biso   1.000  N
  H67      1.0000 0.91614  0.24733  0.68278  Biso   1.000  H
  H68      1.0000 0.88295  0.19930  0.65209  Biso   1.000  H
  H69      1.0000 0.78133  0.08199  0.61299  Biso   1.000  H
  H70      1.0000 0.75704  0.10332  0.64658  Biso   1.000  H
  H71      1.0000 0.81743  0.09537  0.64889  Biso   1.000  H
  H72      1.0000 0.38476  0.96481  0.67090  Biso   1.000  H
  H73      1.0000 0.41896  0.99572  0.70539  Biso   1.000  H
  H74      1.0000 0.40665  0.90053  0.69988  Biso   1.000  H
  C83      1.0000 0.56063  0.20480  0.67101  Biso   1.000  C
  N10      1.0000 0.57866  0.01888  0.71739  Biso   1.000  N
  H75      1.0000 0.50165  0.03287  0.71760  Biso   1.000  H
  H76      1.0000 0.53084  0.11792  0.71780  Biso   1.000  H
  N11      1.0000 0.56884  0.19662  0.58709  Biso   1.000  N
  H77      1.0000 0.49467  0.23883  0.57958  Biso   1.000  H
  H78      1.0000 0.52716  0.27109  0.61468  Biso   1.000  H
  H79      1.0000 0.38994  0.15598  0.53179  Biso   1.000  H
  H80      1.0000 0.41166  0.21189  0.56399  Biso   1.000  H
  H81      1.0000 0.37596  0.13552  0.56888  Biso   1.000  H
  H82      1.0000 0.92006  0.45903  0.49011  Biso   1.000  H
  C84      1.0000 0.92446  0.58172  0.49359  Biso   1.000  C
  H83      1.0000 0.91697  0.70349  0.48860  Biso   1.000  H
  H84      1.0000 0.72025  0.96890  0.48860  Biso   1.000  H
  C85      1.0000 0.73547  0.07393  0.46438  Biso   1.000  C
  H85      1.0000 0.74806  0.16362  0.43089  Biso   1.000  H
  H86      1.0000 0.89214  0.41461  0.73229  Biso   1.000  H
  H87      1.0000 0.91885  0.36800  0.70418  Biso   1.000  H
  C86      1.0000 0.92394  0.30280  0.75024  Biso   1.000  C
  C87      1.0000 0.82315  0.53724  0.75621  Biso   1.000  C
  C88      1.0000 0.88486  0.36409  0.62521  Biso   1.000  C
  H88      1.0000 0.58265  0.17743  0.69010  Biso   1.000  H
  H89      1.0000 0.58263  0.22423  0.65460  Biso   1.000  H
  C89      1.0000 0.53504  0.27843  0.68498  Biso   1.000  C
  C90      1.0000 0.60555  0.01411  0.69640  Biso   1.000  C
  C91      1.0000 0.57136  0.20523  0.55729  Biso   1.000  C
  N12      1.0000 0.95117  0.58184  0.52756  Biso   1.000  N
  N13      1.0000 0.74435  0.12159  0.49554  Biso   1.000  N
  H90      1.0000 0.92933  0.24928  0.74021  Biso   1.000  H
  H91      1.0000 0.90283  0.29633  0.76839  Biso   1.000  H
  H92      1.0000 0.95695  0.32633  0.76000  Biso   1.000  H
  H93      1.0000 0.85185  0.51964  0.77180  Biso   1.000  H
  C92      1.0000 0.81624  0.62663  0.74929  Biso   1.000  C
  H94      1.0000 0.85265  0.37453  0.63178  Biso   1.000  H
  C93      1.0000 0.90303  0.41914  0.59942  Biso   1.000  C
  H95      1.0000 0.51795  0.31124  0.66589  Biso   1.000  H
  H96      1.0000 0.56073  0.31172  0.69909  Biso   1.000  H
  H97      1.0000 0.50994  0.25930  0.69899  Biso   1.000  H
  C94      1.0000 0.65694  0.97690  0.70459  Biso   1.000  C
  H98      1.0000 0.59424  0.03428  0.67390  Biso   1.000  H
  H99      1.0000 0.54286  0.22833  0.54310  Biso   1.000  H
  C95      1.0000 0.61686  0.18140  0.54090  Biso   1.000  C
  C96      1.0000 0.99044  0.63689  0.53870  Biso   1.000  C
  C97      1.0000 0.93606  0.52429  0.55214  Biso   1.000  C
  C98      1.0000 0.70098  0.13998  0.51120  Biso   1.000  C
  C99      1.0000 0.79377  0.13698  0.51131  Biso   1.000  C
  C100     1.0000 0.85174  0.68302  0.76550  Biso   1.000  C
  C101     1.0000 0.77594  0.65479  0.72648  Biso   1.000  C
  C102     1.0000 0.95387  0.41889  0.59477  Biso   1.000  C
  C103     1.0000 0.86882  0.47199  0.58045  Biso   1.000  C
  C104     1.0000 0.68906  0.98191  0.68009  Biso   1.000  C
  C105     1.0000 0.67305  0.93963  0.73480  Biso   1.000  C
  C106     1.0000 0.61665  0.19619  0.50718  Biso   1.000  C
  C107     1.0000 0.65867  0.14651  0.56020  Biso   1.000  C
  C108     1.0000 0.01907  0.67001  0.51640  Biso   1.000  C
  C109     1.0000 0.00105  0.66060  0.57300  Biso   1.000  C
  C110     1.0000 0.97035  0.47150  0.57111  Biso   1.000  C
  C111     1.0000 0.88534  0.52459  0.55682  Biso   1.000  C
  C112     1.0000 0.65906  0.17767  0.49159  Biso   1.000  C
  C113     1.0000 0.70124  0.12562  0.54530  Biso   1.000  C
  C114     1.0000 0.80486  0.20321  0.53360  Biso   1.000  C
  C115     1.0000 0.83378  0.08872  0.50480  Biso   1.000  C
  H100     1.0000 0.87925  0.66494  0.78199  Biso   1.000  H
  C116     1.0000 0.84665  0.76422  0.75749  Biso   1.000  C
  C117     1.0000 0.77072  0.73734  0.71809  Biso   1.000  C
  H101     1.0000 0.75105  0.61710  0.71609  Biso   1.000  H
  H102     1.0000 0.97726  0.38272  0.60769  Biso   1.000  H
  H103     1.0000 0.83414  0.47223  0.58371  Biso   1.000  H
  C118     1.0000 0.73736  0.95002  0.68660  Biso   1.000  C
  H104     1.0000 0.67754  0.00739  0.65869  Biso   1.000  H
  H105     1.0000 0.65124  0.93823  0.75170  Biso   1.000  H
  C119     1.0000 0.72163  0.90255  0.74169  Biso   1.000  C
  H106     1.0000 0.58735  0.21940  0.49390  Biso   1.000  H
  H107     1.0000 0.65864  0.13649  0.58378  Biso   1.000  H
  C120     1.0000 0.05707  0.72689  0.52759  Biso   1.000  C
  H108     1.0000 0.01317  0.65412  0.49310  Biso   1.000  H
  H109     1.0000 0.98184  0.63799  0.58911  Biso   1.000  H
  C121     1.0000 0.03876  0.71614  0.58371  Biso   1.000  C
  H110     1.0000 0.00504  0.47131  0.56788  Biso   1.000  H
  H111     1.0000 0.86195  0.56070  0.54390  Biso   1.000  H
  H112     1.0000 0.65947  0.19038  0.46819  Biso   1.000  H
  H113     1.0000 0.73014  0.10161  0.55880  Biso   1.000  H
  H114     1.0000 0.77835  0.23780  0.53860  Biso   1.000  H
  C122     1.0000 0.85404  0.21812  0.54799  Biso   1.000  C
  C123     1.0000 0.88345  0.10460  0.52001  Biso   1.000  C
  H115     1.0000 0.82714  0.04369  0.48949  Biso   1.000  H
  H116     1.0000 0.87013  0.80241  0.76898  Biso   1.000  H
  C124     1.0000 0.80805  0.79135  0.73309  Biso   1.000  C
  H117     1.0000 0.74236  0.75622  0.70249  Biso   1.000  H
  C125     1.0000 0.75413  0.91165  0.71788  Biso   1.000  C
  H118     1.0000 0.75934  0.95411  0.66980  Biso   1.000  H
  H119     1.0000 0.73162  0.87243  0.76220  Biso   1.000  H
  C126     1.0000 0.06627  0.75194  0.56031  Biso   1.000  C
  H120     1.0000 0.07687  0.74864  0.51159  Biso   1.000  H
  H121     1.0000 0.04616  0.73031  0.60721  Biso   1.000  H
  H122     1.0000 0.86087  0.26291  0.56330  Biso   1.000  H
  C127     1.0000 0.89475  0.16992  0.54128  Biso   1.000  C
  H123     1.0000 0.91007  0.06941  0.51550  Biso   1.000  H
  N14      1.0000 0.80313  0.87530  0.72387  Biso   1.000  N
  C128     1.0000 0.10326  0.81970  0.57050  Biso   1.000  C
  C129     1.0000 0.94654  0.19112  0.55718  Biso   1.000  C
  C130     1.0000 0.84673  0.92100  0.71860  Biso   1.000  C
  N15      1.0000 0.10473  0.85599  0.59835  Biso   1.000  N
  H124     1.0000 0.12615  0.83534  0.55539  Biso   1.000  H
  N16      1.0000 0.98534  0.14908  0.55467  Biso   1.000  N
  H125     1.0000 0.95106  0.23993  0.57029  Biso   1.000  H
  C131     1.0000 0.88964  0.88391  0.71199  Biso   1.000  C
  C132     1.0000 0.84724  0.00562  0.72187  Biso   1.000  C
  C133     1.0000 0.14025  0.92693  0.60439  Biso   1.000  C
  C134     1.0000 0.03436  0.18232  0.57195  Biso   1.000  C
  C135     1.0000 0.93264  0.92882  0.70759  Biso   1.000  C
  H126     1.0000 0.89042  0.82599  0.71048  Biso   1.000  H
  H127     1.0000 0.81783  0.03312  0.72700  Biso   1.000  H
  C136     1.0000 0.89064  0.05090  0.71770  Biso   1.000  C
  C137     1.0000 0.10936  0.99921  0.61409  Biso   1.000  C
  H128     1.0000 0.15495  0.93933  0.58350  Biso   1.000  H
  H129     1.0000 0.16833  0.91440  0.62318  Biso   1.000  H
  C138     1.0000 0.05945  0.12140  0.59899  Biso   1.000  C
  H130     1.0000 0.02846  0.23492  0.58309  Biso   1.000  H
  H131     1.0000 0.05715  0.19252  0.55490  Biso   1.000  H
  H132     1.0000 0.96183  0.90145  0.70198  Biso   1.000  H
  C139     1.0000 0.93315  0.01112  0.71099  Biso   1.000  C
  H133     1.0000 0.89054  0.10882  0.71960  Biso   1.000  H
  C140     1.0000 0.08955  0.05658  0.58893  Biso   1.000  C
  C141     1.0000 0.10055  0.00648  0.64799  Biso   1.000  C
  C142     1.0000 0.05036  0.13020  0.63263  Biso   1.000  C
  C143     1.0000 0.98025  0.06073  0.70728  Biso   1.000  C
  C144     1.0000 0.09816  0.05077  0.55250  Biso   1.000  C
  C145     1.0000 0.12116  0.94153  0.67380  Biso   1.000  C
  C146     1.0000 0.07135  0.07228  0.65716  Biso   1.000  C
  C147     1.0000 0.01886  0.19949  0.64279  Biso   1.000  C
  H134     1.0000 0.98135  0.11743  0.71258  Biso   1.000  H
  N17      1.0000 0.01714  0.02762  0.69748  Biso   1.000  N
  H135     1.0000 0.10175  0.99273  0.54630  Biso   1.000  H
  H136     1.0000 0.06845  0.07381  0.53729  Biso   1.000  H
  C148     1.0000 0.14675  0.09819  0.54740  Biso   1.000  C
  H137     1.0000 0.09845  0.93744  0.69138  Biso   1.000  H
  H138     1.0000 0.12054  0.88813  0.66199  Biso   1.000  H
  C149     1.0000 0.17473  0.95882  0.69128  Biso   1.000  C
  C150     1.0000 0.06125  0.07821  0.69348  Biso   1.000  C
  H139     1.0000 0.99204  0.21299  0.62339  Biso   1.000  H
  H140     1.0000 0.00194  0.18189  0.66220  Biso   1.000  H
  C151     1.0000 0.05063  0.27610  0.65319  Biso   1.000  C
  H141     1.0000 0.15084  0.09678  0.52318  Biso   1.000  H
  H142     1.0000 0.17644  0.07289  0.56120  Biso   1.000  H
  H143     1.0000 0.14384  0.15513  0.55460  Biso   1.000  H
  H144     1.0000 0.19753  0.96273  0.67410  Biso   1.000  H
  H145     1.0000 0.18615  0.91440  0.70728  Biso   1.000  H
  H146     1.0000 0.17534  0.01039  0.70390  Biso   1.000  H
  H147     1.0000 0.09145  0.05920  0.70938  Biso   1.000  H
  H148     1.0000 0.05455  0.13582  0.69909  Biso   1.000  H
  H149     1.0000 0.07214  0.28832  0.63580  Biso   1.000  H
  H150     1.0000 0.07216  0.26670  0.67531  Biso   1.000  H
  H151     1.0000 0.02794  0.32242  0.65529  Biso   1.000  H
  C152     1.0000 0.48304  0.41419  0.53519  Biso   1.000  C
  C153     1.0000 0.44105  0.41070  0.50959  Biso   1.000  C
  C154     1.0000 0.47653  0.40930  0.56929  Biso   1.000  C
  H152     1.0000 0.51626  0.41993  0.52930  Biso   1.000  H
  N18      1.0000 0.43667  0.40612  0.47275  Biso   1.000  N
  C155     1.0000 0.45476  0.39818  0.53519  Biso   1.000  C
  C156     1.0000 0.39247  0.40240  0.51809  Biso   1.000  C
  C157     1.0000 0.44186  0.38969  0.56781  Biso   1.000  C
  C158     1.0000 0.42806  0.40093  0.57789  Biso   1.000  C
  H153     1.0000 0.46726  0.39512  0.58739  Biso   1.000  H
  H154     1.0000 0.50535  0.41162  0.58691  Biso   1.000  H
  C159     1.0000 0.41536  0.47021  0.45245  Biso   1.000  C
  C160     1.0000 0.46968  0.34631  0.46049  Biso   1.000  C
  C161     1.0000 0.41754  0.39030  0.50660  Biso   1.000  C
  H155     1.0000 0.48897  0.40948  0.53250  Biso   1.000  H
  C162     1.0000 0.35467  0.36543  0.54320  Biso   1.000  C
  C163     1.0000 0.38606  0.39738  0.55229  Biso   1.000  C
  H156     1.0000 0.36376  0.40001  0.50060  Biso   1.000  H
  C164     1.0000 0.39185  0.37331  0.57180  Biso   1.000  C
  C165     1.0000 0.42276  0.39329  0.61220  Biso   1.000  C
  C166     1.0000 0.39865  0.53919  0.46799  Biso   1.000  C
  C167     1.0000 0.40895  0.46472  0.41697  Biso   1.000  C
  C168     1.0000 0.50355  0.36763  0.43839  Biso   1.000  C
  C169     1.0000 0.46365  0.26480  0.46888  Biso   1.000  C
  C170     1.0000 0.36745  0.37392  0.51059  Biso   1.000  C
  H157     1.0000 0.32045  0.35413  0.54589  Biso   1.000  H
  H158     1.0000 0.35286  0.39170  0.55810  Biso   1.000  H
  C171     1.0000 0.37894  0.36433  0.60519  Biso   1.000  C
  N19      1.0000 0.38216  0.38651  0.62500  Biso   1.000  N
  H159     1.0000 0.45345  0.39323  0.62810  Biso   1.000  H
  C172     1.0000 0.37566  0.60274  0.44805  Biso   1.000  C
  H160     1.0000 0.40305  0.54292  0.49228  Biso   1.000  H
  C173     1.0000 0.38595  0.52832  0.39700  Biso   1.000  C
  H161     1.0000 0.42037  0.41761  0.40629  Biso   1.000  H
  C174     1.0000 0.53136  0.30733  0.42472  Biso   1.000  C
  H162     1.0000 0.50765  0.42329  0.43261  Biso   1.000  H
  C175     1.0000 0.49147  0.20462  0.45524  Biso   1.000  C
  H163     1.0000 0.44057  0.25032  0.48399  Biso   1.000  H
  H164     1.0000 0.34206  0.36849  0.49100  Biso   1.000  H
  N20      1.0000 0.40936  0.37924  0.63219  Biso   1.000  N
  H165     1.0000 0.34555  0.34618  0.60721  Biso   1.000  H
  C176     1.0000 0.38483  0.37661  0.66425  Biso   1.000  C
  C177     1.0000 0.36936  0.59730  0.41254  Biso   1.000  C
  H166     1.0000 0.36428  0.64991  0.45870  Biso   1.000  H
  H167     1.0000 0.38166  0.52459  0.37280  Biso   1.000  H
  C178     1.0000 0.52526  0.22582  0.43315  Biso   1.000  C
  H168     1.0000 0.55447  0.32181  0.40959  Biso   1.000  H
  H169     1.0000 0.48736  0.14890  0.46100  Biso   1.000  H
  C179     1.0000 0.33656  0.32749  0.66699  Biso   1.000  C
  H170     1.0000 0.41125  0.35700  0.68288  Biso   1.000  H
  H171     1.0000 0.37744  0.43392  0.66980  Biso   1.000  H
  H172     1.0000 0.38435  0.43032  0.67569  Biso   1.000  H
  H173     1.0000 0.41573  0.34643  0.67428  Biso   1.000  H
  C180     1.0000 0.34248  0.66781  0.39221  Biso   1.000  C
  C181     1.0000 0.55428  0.16203  0.41668  Biso   1.000  C
  C182     1.0000 0.28985  0.36842  0.66333  Biso   1.000  C
  C183     1.0000 0.33873  0.24580  0.67239  Biso   1.000  C
  N21      1.0000 0.32827  0.67141  0.36540  Biso   1.000  N
  H174     1.0000 0.33766  0.71540  0.40509  Biso   1.000  H
  N22      1.0000 0.54808  0.09421  0.41871  Biso   1.000  N
  H175     1.0000 0.57947  0.18012  0.40391  Biso   1.000  H
  C184     1.0000 0.24556  0.32468  0.66553  Biso   1.000  C
  C185     1.0000 0.28644  0.45983  0.65659  Biso   1.000  C
  C186     1.0000 0.29383  0.19930  0.67490  Biso   1.000  C
  C187     1.0000 0.38996  0.19888  0.67689  Biso   1.000  C
  C188     1.0000 0.30347  0.74235  0.34710  Biso   1.000  C
  C189     1.0000 0.58129  0.03721  0.39951  Biso   1.000  C
  C190     1.0000 0.19426  0.36769  0.66036  Biso   1.000  C
  C191     1.0000 0.24754  0.23981  0.67042  Biso   1.000  C
  H176     1.0000 0.31325  0.47571  0.64300  Biso   1.000  H
  H177     1.0000 0.25305  0.47223  0.64269  Biso   1.000  H
  C192     1.0000 0.29246  0.51133  0.68969  Biso   1.000  C
  C193     1.0000 0.29644  0.10772  0.68288  Biso   1.000  C
  H178     1.0000 0.41314  0.22551  0.66289  Biso   1.000  H
  H179     1.0000 0.38384  0.14230  0.66850  Biso   1.000  H
  C194     1.0000 0.41516  0.19692  0.71399  Biso   1.000  C
  C195     1.0000 0.25037  0.72054  0.32823  Biso   1.000  C
  H180     1.0000 0.30048  0.78683  0.36359  Biso   1.000  H
  H181     1.0000 0.32476  0.76245  0.33041  Biso   1.000  H
  C196     1.0000 0.54538  0.97214  0.38251  Biso   1.000  C
  H182     1.0000 0.60898  0.01210  0.41579  Biso   1.000  H
  H183     1.0000 0.59669  0.06843  0.38220  Biso   1.000  H
  N23      1.0000 0.16895  0.35993  0.62462  Biso   1.000  N
  H184     1.0000 0.19916  0.42622  0.66619  Biso   1.000  H
  H185     1.0000 0.17233  0.34350  0.67590  Biso   1.000  H
  C197     1.0000 0.19893  0.18983  0.67249  Biso   1.000  C
  H186     1.0000 0.32653  0.50309  0.70260  Biso   1.000  H
  H187     1.0000 0.28766  0.56919  0.68381  Biso   1.000  H
  H188     1.0000 0.26683  0.49429  0.70370  Biso   1.000  H
  N24      1.0000 0.28945  0.05218  0.65260  Biso   1.000  N
  H189     1.0000 0.27005  0.09470  0.69720  Biso   1.000  H
  H190     1.0000 0.32992  0.09592  0.69668  Biso   1.000  H
  H191     1.0000 0.39503  0.16252  0.72720  Biso   1.000  H
  H192     1.0000 0.44955  0.17438  0.71540  Biso   1.000  H
  H193     1.0000 0.41704  0.25240  0.72328  Biso   1.000  H
  C198     1.0000 0.24728  0.67343  0.29825  Biso   1.000  C
  C199     1.0000 0.20648  0.74424  0.34114  Biso   1.000  C
  C200     1.0000 0.52636  0.98515  0.34759  Biso   1.000  C
  C201     1.0000 0.53148  0.90542  0.40009  Biso   1.000  C
  C202     1.0000 0.15356  0.42439  0.60849  Biso   1.000  C
  H194     1.0000 0.20364  0.13350  0.66440  Biso   1.000  H
  H195     1.0000 0.17005  0.21452  0.65710  Biso   1.000  H
  C203     1.0000 0.18626  0.18678  0.70874  Biso   1.000  C
  C204     1.0000 0.28844  0.07851  0.62500  Biso   1.000  C
  C205     1.0000 0.19938  0.64984  0.28141  Biso   1.000  C
  C206     1.0000 0.29586  0.64813  0.28430  Biso   1.000  C
  C207     1.0000 0.15947  0.72023  0.32391  Biso   1.000  C
  C208     1.0000 0.21038  0.79599  0.37337  Biso   1.000  C
  C209     1.0000 0.49277  0.92595  0.33069  Biso   1.000  C
  C210     1.0000 0.53739  0.05933  0.32859  Biso   1.000  C
  C211     1.0000 0.49778  0.84841  0.38169  Biso   1.000  C
  C212     1.0000 0.55195  0.89711  0.43640  Biso   1.000  C
  C213     1.0000 0.12717  0.42140  0.57359  Biso   1.000  C
  H196     1.0000 0.15944  0.47584  0.61950  Biso   1.000  H
  H197     1.0000 0.21144  0.15293  0.72310  Biso   1.000  H
  H198     1.0000 0.18694  0.24219  0.71819  Biso   1.000  H
  H199     1.0000 0.15224  0.16332  0.70831  Biso   1.000  H
  C214     1.0000 0.28095  0.02297  0.59402  Biso   1.000  C
  H200     1.0000 0.29224  0.13558  0.62200  Biso   1.000  H
  C215     1.0000 0.19618  0.59901  0.24879  Biso   1.000  C
  C216     1.0000 0.15506  0.67080  0.29508  Biso   1.000  C
  H201     1.0000 0.28970  0.59559  0.27191  Biso   1.000  H
  H202     1.0000 0.32358  0.63934  0.30371  Biso   1.000  H
  C217     1.0000 0.31298  0.71229  0.26001  Biso   1.000  C
  C218     1.0000 0.11089  0.74614  0.33719  Biso   1.000  C
  H203     1.0000 0.18027  0.78609  0.38471  Biso   1.000  H
  H204     1.0000 0.24098  0.77943  0.38939  Biso   1.000  H
  C219     1.0000 0.21386  0.88703  0.36551  Biso   1.000  C
  C220     1.0000 0.47219  0.93713  0.29290  Biso   1.000  C
  C221     1.0000 0.47888  0.85960  0.34751  Biso   1.000  C
  H205     1.0000 0.50798  0.07118  0.31070  Biso   1.000  H
  H206     1.0000 0.54198  0.10631  0.34449  Biso   1.000  H
  C222     1.0000 0.58627  0.04857  0.31149  Biso   1.000  C
  C223     1.0000 0.47938  0.77662  0.40071  Biso   1.000  C
  H207     1.0000 0.56087  0.95210  0.44589  Biso   1.000  H
  H208     1.0000 0.52495  0.87481  0.44851  Biso   1.000  H
  C224     1.0000 0.59735  0.84389  0.44359  Biso   1.000  C
  C225     1.0000 0.11274  0.49313  0.55611  Biso   1.000  C
  C226     1.0000 0.11506  0.34802  0.55690  Biso   1.000  C
  C227     1.0000 0.28514  0.05658  0.56230  Biso   1.000  C
  C228     1.0000 0.26864  0.94092  0.59658  Biso   1.000  C
  N25      1.0000 0.20640  0.51372  0.25734  Biso   1.000  N
  H209     1.0000 0.22137  0.61929  0.23469  Biso   1.000  H
  H210     1.0000 0.16188  0.60439  0.23520  Biso   1.000  H
  C229     1.0000 0.10319  0.63952  0.27798  Biso   1.000  C
  H211     1.0000 0.31718  0.76520  0.27170  Biso   1.000  H
  H212     1.0000 0.34547  0.69555  0.25340  Biso   1.000  H
  H213     1.0000 0.28730  0.71699  0.23950  Biso   1.000  H
  N26      1.0000 0.09066  0.69225  0.36220  Biso   1.000  N
  H214     1.0000 0.08378  0.75273  0.31720  Biso   1.000  H
  H215     1.0000 0.11697  0.80070  0.34789  Biso   1.000  H
  H216     1.0000 0.21855  0.91801  0.38699  Biso   1.000  H
  H217     1.0000 0.24288  0.89674  0.35340  Biso   1.000  H
  H218     1.0000 0.18245  0.90463  0.35109  Biso   1.000  H
  N27      1.0000 0.42126  0.98112  0.28259  Biso   1.000  N
  H219     1.0000 0.49828  0.96713  0.28241  Biso   1.000  H
  H220     1.0000 0.46909  0.88214  0.28220  Biso   1.000  H
  C230     1.0000 0.43929  0.79520  0.32900  Biso   1.000  C
  H221     1.0000 0.61516  0.03519  0.32910  Biso   1.000  H
  H222     1.0000 0.58096  0.00428  0.29459  Biso   1.000  H
  H223     1.0000 0.59327  0.09953  0.30010  Biso   1.000  H
  N28      1.0000 0.43108  0.80345  0.41289  Biso   1.000  N
  H224     1.0000 0.50525  0.76123  0.42040  Biso   1.000  H
  H225     1.0000 0.47276  0.72891  0.38530  Biso   1.000  H
  H226     1.0000 0.60998  0.84402  0.46819  Biso   1.000  H
  H227     1.0000 0.58826  0.78811  0.43599  Biso   1.000  H
  H228     1.0000 0.62396  0.86454  0.43110  Biso   1.000  H
  C231     1.0000 0.08796  0.49142  0.52201  Biso   1.000  C
  H229     1.0000 0.11987  0.54414  0.56730  Biso   1.000  H
  C232     1.0000 0.08995  0.34710  0.52301  Biso   1.000  C
  H230     1.0000 0.12377  0.29792  0.56840  Biso   1.000  H
  C233     1.0000 0.27685  0.00813  0.53307  Biso   1.000  C
  H231     1.0000 0.29357  0.11273  0.56049  Biso   1.000  H
  C234     1.0000 0.26035  0.89253  0.56740  Biso   1.000  C
  H232     1.0000 0.26575  0.91801  0.61829  Biso   1.000  H
  C235     1.0000 0.17677  0.46282  0.24380  Biso   1.000  C
  H233     1.0000 0.10777  0.58539  0.26769  Biso   1.000  H
  H234     1.0000 0.08106  0.63200  0.29580  Biso   1.000  H
  C236     1.0000 0.07598  0.69720  0.24974  Biso   1.000  C
  C237     1.0000 0.11507  0.63591  0.37480  Biso   1.000  C
  C238     1.0000 0.39437  0.98595  0.30360  Biso   1.000  C
  H235     1.0000 0.41728  0.82263  0.30990  Biso   1.000  H
  H236     1.0000 0.41725  0.77583  0.34538  Biso   1.000  H
  C239     1.0000 0.46488  0.72163  0.31500  Biso   1.000  C
  C240     1.0000 0.42856  0.79483  0.44269  Biso   1.000  C
  C241     1.0000 0.07546  0.41828  0.50639  Biso   1.000  C
  H237     1.0000 0.07987  0.54103  0.50990  Biso   1.000  H
  H238     1.0000 0.08296  0.29651  0.51141  Biso   1.000  H
  C242     1.0000 0.26445  0.92613  0.53560  Biso   1.000  C
  H239     1.0000 0.27968  0.03110  0.51141  Biso   1.000  H
  H240     1.0000 0.25186  0.83644  0.56909  Biso   1.000  H
  C243     1.0000 0.18368  0.37343  0.25069  Biso   1.000  C
  H241     1.0000 0.14807  0.48042  0.22821  Biso   1.000  H
  H242     1.0000 0.07059  0.75072  0.25980  Biso   1.000  H
  H243     1.0000 0.09709  0.70373  0.23159  Biso   1.000  H
  H244     1.0000 0.04297  0.67373  0.24001  Biso   1.000  H
  H245     1.0000 0.14726  0.62553  0.36820  Biso   1.000  H
  C244     1.0000 0.09685  0.58093  0.40056  Biso   1.000  C
  C245     1.0000 0.34298  0.02310  0.29539  Biso   1.000  C
  H246     1.0000 0.40569  0.96572  0.32611  Biso   1.000  H
  H247     1.0000 0.48196  0.68883  0.33409  Biso   1.000  H
  H248     1.0000 0.43918  0.68834  0.30089  Biso   1.000  H
  H249     1.0000 0.48998  0.74070  0.30099  Biso   1.000  H
  H250     1.0000 0.45706  0.77174  0.45690  Biso   1.000  H
  C246     1.0000 0.38306  0.81860  0.45910  Biso   1.000  C
  N29      1.0000 0.04875  0.41822  0.47242  Biso   1.000  N
  N30      1.0000 0.25557  0.87841  0.50444  Biso   1.000  N
  C247     1.0000 0.22398  0.34521  0.27350  Biso   1.000  C
  C248     1.0000 0.14819  0.31698  0.23451  Biso   1.000  C
  C249     1.0000 0.04605  0.58111  0.40521  Biso   1.000  C
  C250     1.0000 0.13109  0.52801  0.41953  Biso   1.000  C
  C251     1.0000 0.31086  0.01809  0.31989  Biso   1.000  C
  C252     1.0000 0.32687  0.06043  0.26520  Biso   1.000  C
  C253     1.0000 0.38327  0.80381  0.49280  Biso   1.000  C
  C254     1.0000 0.34126  0.85355  0.43980  Biso   1.000  C
  C255     1.0000 0.06385  0.47571  0.44784  Biso   1.000  C
  C256     1.0000 0.00945  0.36311  0.46131  Biso   1.000  C
  C257     1.0000 0.20615  0.86302  0.48870  Biso   1.000  C
  C258     1.0000 0.29895  0.86002  0.48880  Biso   1.000  C
  C259     1.0000 0.22916  0.26272  0.28189  Biso   1.000  C
  H251     1.0000 0.24887  0.38290  0.28389  Biso   1.000  H
  C260     1.0000 0.15327  0.23578  0.24249  Biso   1.000  C
  H252     1.0000 0.12067  0.33513  0.21799  Biso   1.000  H
  H253     1.0000 0.02265  0.61734  0.39229  Biso   1.000  H
  C261     1.0000 0.02957  0.52850  0.42887  Biso   1.000  C
  C262     1.0000 0.11458  0.47541  0.44318  Biso   1.000  C
  H254     1.0000 0.16575  0.52783  0.41630  Biso   1.000  H
  C263     1.0000 0.26257  0.04998  0.31341  Biso   1.000  C
  H255     1.0000 0.32238  0.99261  0.34129  Biso   1.000  H
  C264     1.0000 0.27829  0.09751  0.25829  Biso   1.000  C
  H256     1.0000 0.34868  0.06183  0.24831  Biso   1.000  H
  H257     1.0000 0.41257  0.78060  0.50608  Biso   1.000  H
  C265     1.0000 0.34085  0.82233  0.50839  Biso   1.000  C
  C266     1.0000 0.29865  0.87444  0.45470  Biso   1.000  C
  H258     1.0000 0.34127  0.86351  0.41620  Biso   1.000  H
  C267     1.0000 0.98086  0.32999  0.48361  Biso   1.000  C
  C268     1.0000 0.99887  0.33940  0.42700  Biso   1.000  C
  C269     1.0000 0.19507  0.79685  0.46640  Biso   1.000  C
  C270     1.0000 0.16615  0.91135  0.49520  Biso   1.000  C
  C271     1.0000 0.19187  0.20871  0.26689  Biso   1.000  C
  H259     1.0000 0.25756  0.24378  0.29749  Biso   1.000  H
  H260     1.0000 0.12979  0.19759  0.23100  Biso   1.000  H
  H261     1.0000 0.99488  0.52869  0.43210  Biso   1.000  H
  H262     1.0000 0.13797  0.43930  0.45608  Biso   1.000  H
  C272     1.0000 0.24579  0.08841  0.28210  Biso   1.000  C
  H263     1.0000 0.24059  0.04589  0.33020  Biso   1.000  H
  H264     1.0000 0.26830  0.12757  0.23781  Biso   1.000  H
  H265     1.0000 0.34045  0.80962  0.53179  Biso   1.000  H
  H266     1.0000 0.26974  0.89839  0.44118  Biso   1.000  H
  C273     1.0000 0.94285  0.27311  0.47239  Biso   1.000  C
  H267     1.0000 0.98675  0.34588  0.50690  Biso   1.000  H
  C274     1.0000 0.96117  0.28392  0.41630  Biso   1.000  C
  H268     1.0000 0.01808  0.36201  0.41090  Biso   1.000  H
  C275     1.0000 0.14588  0.78194  0.45199  Biso   1.000  C
  H269     1.0000 0.22157  0.76220  0.46138  Biso   1.000  H
  C276     1.0000 0.11647  0.89540  0.47997  Biso   1.000  C
  H270     1.0000 0.17274  0.95631  0.51049  Biso   1.000  H
  N31      1.0000 0.19678  0.12470  0.27611  Biso   1.000  N
  C277     1.0000 0.93365  0.24812  0.43970  Biso   1.000  C
  H271     1.0000 0.92305  0.25142  0.48839  Biso   1.000  H
  H272     1.0000 0.95376  0.26969  0.39280  Biso   1.000  H
  C278     1.0000 0.10517  0.83015  0.45872  Biso   1.000  C
  H273     1.0000 0.13906  0.73709  0.43670  Biso   1.000  H
  H274     1.0000 0.08986  0.93065  0.48450  Biso   1.000  H
  C279     1.0000 0.15319  0.07900  0.28138  Biso   1.000  C
  C280     1.0000 0.89666  0.18030  0.42948  Biso   1.000  C
  C281     1.0000 0.05335  0.80894  0.44282  Biso   1.000  C
  C282     1.0000 0.11028  0.11609  0.28799  Biso   1.000  C
  C283     1.0000 0.15268  0.99444  0.27813  Biso   1.000  C
  N32      1.0000 0.89518  0.14401  0.40163  Biso   1.000  N
  H275     1.0000 0.87377  0.16472  0.44459  Biso   1.000  H
  N33      1.0000 0.01455  0.85092  0.44533  Biso   1.000  N
  H276     1.0000 0.04886  0.76013  0.42969  Biso   1.000  H
  C284     1.0000 0.06728  0.07118  0.29239  Biso   1.000  C
  H277     1.0000 0.10949  0.17401  0.28950  Biso   1.000  H
  H278     1.0000 0.18209  0.96695  0.27301  Biso   1.000  H
  C285     1.0000 0.10928  0.94910  0.28228  Biso   1.000  C
  C286     1.0000 0.85966  0.07307  0.39559  Biso   1.000  C
  C287     1.0000 0.96556  0.81774  0.42803  Biso   1.000  C
  H279     1.0000 0.03809  0.09861  0.29800  Biso   1.000  H
  C288     1.0000 0.06677  0.98894  0.28899  Biso   1.000  C
  H280     1.0000 0.10939  0.89124  0.28041  Biso   1.000  H
  C289     1.0000 0.89055  0.00079  0.38589  Biso   1.000  C
  H281     1.0000 0.84497  0.06073  0.41650  Biso   1.000  H
  H282     1.0000 0.83155  0.08560  0.37680  Biso   1.000  H
  C290     1.0000 0.94047  0.87860  0.40102  Biso   1.000  C
  H283     1.0000 0.97146  0.76514  0.41689  Biso   1.000  H
  H284     1.0000 0.94278  0.80754  0.44510  Biso   1.000  H
  C291     1.0000 0.01966  0.93933  0.29270  Biso   1.000  C
  C292     1.0000 0.89936  0.99352  0.35199  Biso   1.000  C
  C293     1.0000 0.91037  0.94342  0.41105  Biso   1.000  C
  C294     1.0000 0.94957  0.86980  0.36738  Biso   1.000  C
  N34      1.0000 0.98278  0.97244  0.30250  Biso   1.000  N
  H285     1.0000 0.01857  0.88263  0.28740  Biso   1.000  H
  C295     1.0000 0.92857  0.92772  0.34282  Biso   1.000  C
  C296     1.0000 0.87877  0.05847  0.32621  Biso   1.000  C
  C297     1.0000 0.90177  0.94923  0.44751  Biso   1.000  C
  C298     1.0000 0.98106  0.80051  0.35719  Biso   1.000  C
  C299     1.0000 0.93867  0.92179  0.30650  Biso   1.000  C
  H286     1.0000 0.90147  0.06263  0.30860  Biso   1.000  H
  H287     1.0000 0.87937  0.11193  0.33799  Biso   1.000  H
  C300     1.0000 0.82519  0.04118  0.30870  Biso   1.000  C
  H288     1.0000 0.93147  0.92619  0.46269  Biso   1.000  H
  C301     1.0000 0.85317  0.90181  0.45260  Biso   1.000  C
  H289     1.0000 0.89817  0.00727  0.45370  Biso   1.000  H
  H290     1.0000 0.99798  0.81811  0.33781  Biso   1.000  H
  C302     1.0000 0.94925  0.72390  0.34679  Biso   1.000  C
  H291     1.0000 0.00788  0.78701  0.37659  Biso   1.000  H
  H292     1.0000 0.90847  0.94080  0.29060  Biso   1.000  H
  H293     1.0000 0.94537  0.86424  0.30089  Biso   1.000  H
  H294     1.0000 0.82458  0.98961  0.29610  Biso   1.000  H
  H295     1.0000 0.80236  0.03733  0.32590  Biso   1.000  H
  H296     1.0000 0.81377  0.08560  0.29270  Biso   1.000  H
  H297     1.0000 0.84908  0.90322  0.47680  Biso   1.000  H
  H298     1.0000 0.82345  0.92711  0.43880  Biso   1.000  H
  H299     1.0000 0.85605  0.84493  0.44541  Biso   1.000  H
  H300     1.0000 0.92779  0.71174  0.36420  Biso   1.000  H
  H301     1.0000 0.92776  0.73330  0.32470  Biso   1.000  H
  H302     1.0000 0.97198  0.67764  0.34469  Biso   1.000  H
  C303     1.0000 0.68699  0.71229  0.24001  Biso   1.000  C
  C304     1.0000 0.70406  0.64813  0.21569  Biso   1.000  C
  H303     1.0000 0.68278  0.76520  0.22829  Biso   1.000  H
  H304     1.0000 0.65448  0.69555  0.24659  Biso   1.000  H
  H305     1.0000 0.71266  0.71699  0.26049  Biso   1.000  H
  C305     1.0000 0.75268  0.67343  0.20174  Biso   1.000  C
  H306     1.0000 0.71027  0.59559  0.22811  Biso   1.000  H
  H307     1.0000 0.67638  0.63934  0.19631  Biso   1.000  H
  C306     1.0000 0.80058  0.64984  0.21858  Biso   1.000  C
  C307     1.0000 0.74959  0.72054  0.17176  Biso   1.000  C
  C308     1.0000 0.80378  0.59901  0.25120  Biso   1.000  C
  C309     1.0000 0.84490  0.67080  0.20494  Biso   1.000  C
  C310     1.0000 0.69649  0.74235  0.15289  Biso   1.000  C
  C311     1.0000 0.79348  0.74424  0.15885  Biso   1.000  C
  N35      1.0000 0.79356  0.51372  0.24265  Biso   1.000  N
  H308     1.0000 0.77859  0.61929  0.26530  Biso   1.000  H
  H309     1.0000 0.83808  0.60439  0.26479  Biso   1.000  H
  C312     1.0000 0.84049  0.72023  0.17608  Biso   1.000  C
  C313     1.0000 0.89677  0.63952  0.22201  Biso   1.000  C
  N36      1.0000 0.67169  0.67141  0.13461  Biso   1.000  N
  H310     1.0000 0.69948  0.78683  0.13640  Biso   1.000  H
  H311     1.0000 0.67517  0.76245  0.16961  Biso   1.000  H
  C314     1.0000 0.78958  0.79599  0.12662  Biso   1.000  C
  C315     1.0000 0.82319  0.46282  0.25619  Biso   1.000  C
  C316     1.0000 0.88907  0.74614  0.16280  Biso   1.000  C
  H312     1.0000 0.89219  0.58539  0.23230  Biso   1.000  H
  H313     1.0000 0.91889  0.63200  0.20419  Biso   1.000  H
  C317     1.0000 0.92398  0.69720  0.25025  Biso   1.000  C
  C318     1.0000 0.65748  0.66781  0.10781  Biso   1.000  C
  H314     1.0000 0.81969  0.78609  0.11531  Biso   1.000  H
  H315     1.0000 0.75898  0.77943  0.11060  Biso   1.000  H
  C319     1.0000 0.78611  0.88703  0.13451  Biso   1.000  C
  C320     1.0000 0.81628  0.37343  0.24930  Biso   1.000  C
  H316     1.0000 0.85189  0.48042  0.27181  Biso   1.000  H
  N37      1.0000 0.90931  0.69225  0.13781  Biso   1.000  N
  H317     1.0000 0.91618  0.75273  0.18279  Biso   1.000  H
  H318     1.0000 0.88299  0.80070  0.15210  Biso   1.000  H
  H319     1.0000 0.92936  0.75072  0.24019  Biso   1.000  H
  H320     1.0000 0.90287  0.70373  0.26840  Biso   1.000  H
  H321     1.0000 0.95699  0.67373  0.26001  Biso   1.000  H
  C321     1.0000 0.63060  0.59730  0.08745  Biso   1.000  C
  H322     1.0000 0.66230  0.71540  0.09490  Biso   1.000  H
  H323     1.0000 0.78137  0.91801  0.11300  Biso   1.000  H
  H324     1.0000 0.75708  0.89674  0.14659  Biso   1.000  H
  H325     1.0000 0.81747  0.90463  0.14890  Biso   1.000  H
  C322     1.0000 0.85178  0.31698  0.26551  Biso   1.000  C
  C323     1.0000 0.77598  0.34521  0.22649  Biso   1.000  C
  C324     1.0000 0.88489  0.63591  0.12519  Biso   1.000  C
  C325     1.0000 0.62431  0.60274  0.05197  Biso   1.000  C
  C326     1.0000 0.61401  0.52832  0.10299  Biso   1.000  C
  C327     1.0000 0.84669  0.23578  0.25750  Biso   1.000  C
  H326     1.0000 0.87929  0.33513  0.28200  Biso   1.000  H
  C328     1.0000 0.77080  0.26272  0.21810  Biso   1.000  C
  H327     1.0000 0.75109  0.38290  0.21610  Biso   1.000  H
  H328     1.0000 0.85270  0.62553  0.13179  Biso   1.000  H
  C329     1.0000 0.90311  0.58093  0.09943  Biso   1.000  C
  C330     1.0000 0.60130  0.53919  0.03200  Biso   1.000  C
  H329     1.0000 0.63568  0.64991  0.04129  Biso   1.000  H
  C331     1.0000 0.59101  0.46472  0.08302  Biso   1.000  C
  H330     1.0000 0.61830  0.52459  0.12719  Biso   1.000  H
  C332     1.0000 0.80809  0.20871  0.23310  Biso   1.000  C
  H331     1.0000 0.87017  0.19759  0.26899  Biso   1.000  H
  H332     1.0000 0.74240  0.24378  0.20250  Biso   1.000  H
  C333     1.0000 0.95391  0.58111  0.09478  Biso   1.000  C
  C334     1.0000 0.86887  0.52801  0.08046  Biso   1.000  C
  C335     1.0000 0.58460  0.47021  0.04754  Biso   1.000  C
  H333     1.0000 0.59691  0.54292  0.00771  Biso   1.000  H
  H334     1.0000 0.57959  0.41761  0.09370  Biso   1.000  H
  N38      1.0000 0.80318  0.12470  0.22388  Biso   1.000  N
  H335     1.0000 0.97731  0.61734  0.10770  Biso   1.000  H
  C336     1.0000 0.97039  0.52850  0.07112  Biso   1.000  C
  C337     1.0000 0.88538  0.47541  0.05681  Biso   1.000  C
  H336     1.0000 0.83417  0.52783  0.08369  Biso   1.000  H
  N39      1.0000 0.56329  0.40612  0.02724  Biso   1.000  N
  C338     1.0000 0.75417  0.08841  0.21789  Biso   1.000  C
  C339     1.0000 0.84677  0.07900  0.21861  Biso   1.000  C
  C340     1.0000 0.93611  0.47571  0.05215  Biso   1.000  C
  H337     1.0000 0.00508  0.52869  0.06789  Biso   1.000  H
  H338     1.0000 0.86199  0.43930  0.04391  Biso   1.000  H
  C341     1.0000 0.53028  0.34631  0.03953  Biso   1.000  C
  C342     1.0000 0.58231  0.39030  0.99340  Biso   1.000  C
  C343     1.0000 0.55883  0.41070  0.99038  Biso   1.000  C
  C344     1.0000 0.73740  0.04998  0.18661  Biso   1.000  C
  C345     1.0000 0.72167  0.09751  0.24170  Biso   1.000  C
  C346     1.0000 0.88968  0.11609  0.21200  Biso   1.000  C
  C347     1.0000 0.84728  0.99444  0.22186  Biso   1.000  C
  N40      1.0000 0.95121  0.41822  0.02757  Biso   1.000  N
  C348     1.0000 0.49642  0.36763  0.06162  Biso   1.000  C
  C349     1.0000 0.53630  0.26480  0.03111  Biso   1.000  C
  C350     1.0000 0.63242  0.37392  0.98938  Biso   1.000  C
  C351     1.0000 0.54512  0.39818  0.96480  Biso   1.000  C
  C352     1.0000 0.60740  0.40240  0.98188  Biso   1.000  C
  C353     1.0000 0.51681  0.41419  0.96480  Biso   1.000  C
  C354     1.0000 0.68910  0.01809  0.18010  Biso   1.000  C
  H339     1.0000 0.75937  0.04589  0.16979  Biso   1.000  H
  C355     1.0000 0.67309  0.06043  0.23479  Biso   1.000  C
  H340     1.0000 0.73167  0.12757  0.26221  Biso   1.000  H
  C356     1.0000 0.93268  0.07118  0.20760  Biso   1.000  C
  H341     1.0000 0.89047  0.17401  0.21049  Biso   1.000  H
  H342     1.0000 0.81787  0.96695  0.22701  Biso   1.000  H
  C357     1.0000 0.89068  0.94910  0.21771  Biso   1.000  C
  C358     1.0000 0.99052  0.36311  0.03871  Biso   1.000  C
  C359     1.0000 0.92442  0.41828  0.99358  Biso   1.000  C
  C360     1.0000 0.46860  0.30733  0.07527  Biso   1.000  C
  H343     1.0000 0.49231  0.42329  0.06741  Biso   1.000  H
  C361     1.0000 0.50849  0.20462  0.04475  Biso   1.000  C
  H344     1.0000 0.55939  0.25032  0.01600  Biso   1.000  H
  H345     1.0000 0.65791  0.36849  0.00901  Biso   1.000  H
  C362     1.0000 0.64522  0.36543  0.95679  Biso   1.000  C
  C363     1.0000 0.61382  0.39738  0.94770  Biso   1.000  C
  H346     1.0000 0.63613  0.40001  0.99939  Biso   1.000  H
  H347     1.0000 0.51091  0.40948  0.96749  Biso   1.000  H
  C364     1.0000 0.55802  0.38969  0.93219  Biso   1.000  C
  C365     1.0000 0.52331  0.40930  0.93070  Biso   1.000  C
  H348     1.0000 0.48362  0.41993  0.97069  Biso   1.000  H
  C366     1.0000 0.65698  0.02310  0.20460  Biso   1.000  C
  H349     1.0000 0.67758  0.99261  0.15870  Biso   1.000  H
  H350     1.0000 0.65128  0.06183  0.25171  Biso   1.000  H
  H351     1.0000 0.96187  0.09861  0.20199  Biso   1.000  H
  C367     1.0000 0.93319  0.98894  0.21100  Biso   1.000  C
  H352     1.0000 0.89058  0.89124  0.21961  Biso   1.000  H
  C368     1.0000 0.01911  0.32999  0.01641  Biso   1.000  C
  C369     1.0000 0.00108  0.33940  0.07299  Biso   1.000  C
  C370     1.0000 0.91193  0.49142  0.97799  Biso   1.000  C
  C371     1.0000 0.90993  0.34710  0.97699  Biso   1.000  C
  C372     1.0000 0.47470  0.22582  0.06684  Biso   1.000  C
  H353     1.0000 0.44549  0.32181  0.09040  Biso   1.000  H
  H354     1.0000 0.51260  0.14890  0.03899  Biso   1.000  H
  C373     1.0000 0.60803  0.37331  0.92819  Biso   1.000  C
  H355     1.0000 0.67943  0.35413  0.95410  Biso   1.000  H
  H356     1.0000 0.64702  0.39170  0.94189  Biso   1.000  H
  C374     1.0000 0.57183  0.40093  0.92210  Biso   1.000  C
  H357     1.0000 0.53263  0.39512  0.91260  Biso   1.000  H
  H358     1.0000 0.49453  0.41162  0.91309  Biso   1.000  H
  C375     1.0000 0.60559  0.98595  0.19639  Biso   1.000  C
  C376     1.0000 0.98030  0.93933  0.20729  Biso   1.000  C
  C377     1.0000 0.05711  0.27311  0.02760  Biso   1.000  C
  H359     1.0000 0.01313  0.34588  0.99309  Biso   1.000  H
  C378     1.0000 0.03879  0.28392  0.08369  Biso   1.000  C
  H360     1.0000 0.98188  0.36201  0.08909  Biso   1.000  H
  C379     1.0000 0.88711  0.49313  0.94389  Biso   1.000  C
  H361     1.0000 0.92002  0.54103  0.99010  Biso   1.000  H
  C380     1.0000 0.88482  0.34802  0.94309  Biso   1.000  C
  H362     1.0000 0.91693  0.29651  0.98859  Biso   1.000  H
  C381     1.0000 0.44568  0.16203  0.08331  Biso   1.000  C
  C382     1.0000 0.62094  0.36433  0.89478  Biso   1.000  C
  C383     1.0000 0.57712  0.39329  0.88780  Biso   1.000  C
  N41      1.0000 0.57870  0.98112  0.21740  Biso   1.000  N
  H363     1.0000 0.59428  0.96572  0.17391  Biso   1.000  H
  H364     1.0000 0.98139  0.88263  0.21259  Biso   1.000  H
  N42      1.0000 0.01718  0.97244  0.19749  Biso   1.000  N
  C384     1.0000 0.06631  0.24812  0.06029  Biso   1.000  C
  H365     1.0000 0.07691  0.25142  0.01160  Biso   1.000  H
  H366     1.0000 0.04620  0.26969  0.10719  Biso   1.000  H
  C385     1.0000 0.87272  0.42140  0.92640  Biso   1.000  C
  H367     1.0000 0.88001  0.54414  0.93270  Biso   1.000  H
  H368     1.0000 0.87612  0.29792  0.93160  Biso   1.000  H
  N43      1.0000 0.45189  0.09421  0.08131  Biso   1.000  N
  H369     1.0000 0.42050  0.18012  0.09611  Biso   1.000  H
  N44      1.0000 0.59052  0.37924  0.86780  Biso   1.000  N
  H370     1.0000 0.65433  0.34618  0.89279  Biso   1.000  H
  N45      1.0000 0.61773  0.38651  0.87500  Biso   1.000  N
  H371     1.0000 0.54643  0.39323  0.87190  Biso   1.000  H
  C386     1.0000 0.52776  0.93713  0.20709  Biso   1.000  C
  C387     1.0000 0.06129  0.92179  0.19349  Biso   1.000  C
  C388     1.0000 0.10330  0.18030  0.07051  Biso   1.000  C
  C389     1.0000 0.84632  0.42439  0.89148  Biso   1.000  C
  C390     1.0000 0.41868  0.03721  0.10051  Biso   1.000  C
  C391     1.0000 0.61501  0.37661  0.83572  Biso   1.000  C
  C392     1.0000 0.50719  0.92595  0.16930  Biso   1.000  C
  H372     1.0000 0.50169  0.96713  0.21761  Biso   1.000  H
  H373     1.0000 0.53087  0.88214  0.21779  Biso   1.000  H
  C393     1.0000 0.07139  0.92772  0.15717  Biso   1.000  C
  H374     1.0000 0.09149  0.94080  0.20939  Biso   1.000  H
  H375     1.0000 0.05459  0.86424  0.19910  Biso   1.000  H
  N46      1.0000 0.10478  0.14401  0.09836  Biso   1.000  N
  H376     1.0000 0.12619  0.16472  0.05540  Biso   1.000  H
  N47      1.0000 0.83092  0.35993  0.87535  Biso   1.000  N
  H377     1.0000 0.84044  0.47584  0.88050  Biso   1.000  H
  C394     1.0000 0.45458  0.97214  0.11751  Biso   1.000  C
  H378     1.0000 0.39098  0.01210  0.08420  Biso   1.000  H
  H379     1.0000 0.40327  0.06843  0.11779  Biso   1.000  H
  C395     1.0000 0.66332  0.32749  0.83301  Biso   1.000  C
  H380     1.0000 0.58863  0.35700  0.81709  Biso   1.000  H
  H381     1.0000 0.62244  0.43392  0.83019  Biso   1.000  H
  H382     1.0000 0.61554  0.43032  0.82431  Biso   1.000  H
  H383     1.0000 0.58411  0.34643  0.82569  Biso   1.000  H
  C396     1.0000 0.47360  0.98515  0.15240  Biso   1.000  C
  C397     1.0000 0.52108  0.85960  0.15251  Biso   1.000  C
  C398     1.0000 0.10059  0.99352  0.14800  Biso   1.000  C
  C399     1.0000 0.05040  0.86980  0.13264  Biso   1.000  C
  C400     1.0000 0.14029  0.07307  0.10440  Biso   1.000  C
  C401     1.0000 0.80563  0.36769  0.83964  Biso   1.000  C
  C402     1.0000 0.46848  0.90542  0.09990  Biso   1.000  C
  C403     1.0000 0.71003  0.36842  0.83664  Biso   1.000  C
  C404     1.0000 0.66111  0.24580  0.82761  Biso   1.000  C
  C405     1.0000 0.46257  0.05933  0.17140  Biso   1.000  C
  C406     1.0000 0.50218  0.84841  0.11830  Biso   1.000  C
  C407     1.0000 0.56067  0.79520  0.17099  Biso   1.000  C
  C408     1.0000 0.10940  0.00079  0.11410  Biso   1.000  C
  C409     1.0000 0.12120  0.05847  0.17381  Biso   1.000  C
  C410     1.0000 0.05949  0.87860  0.09900  Biso   1.000  C
  C411     1.0000 0.01890  0.80051  0.14280  Biso   1.000  C
  H384     1.0000 0.15499  0.06073  0.08351  Biso   1.000  H
  H385     1.0000 0.16841  0.08560  0.12319  Biso   1.000  H
  C412     1.0000 0.75432  0.32468  0.83447  Biso   1.000  C
  H386     1.0000 0.80073  0.42622  0.83380  Biso   1.000  H
  H387     1.0000 0.82752  0.34350  0.82410  Biso   1.000  H
  C413     1.0000 0.44797  0.89711  0.06359  Biso   1.000  C
  C414     1.0000 0.71344  0.45983  0.84340  Biso   1.000  C
  C415     1.0000 0.70604  0.19930  0.82507  Biso   1.000  C
  C416     1.0000 0.60992  0.19888  0.82310  Biso   1.000  C
  C417     1.0000 0.41369  0.04857  0.18850  Biso   1.000  C
  H388     1.0000 0.49198  0.07118  0.18929  Biso   1.000  H
  H389     1.0000 0.45798  0.10631  0.15550  Biso   1.000  H
  C418     1.0000 0.52058  0.77662  0.09931  Biso   1.000  C
  H390     1.0000 0.58268  0.82263  0.19009  Biso   1.000  H
  H391     1.0000 0.58267  0.77583  0.15461  Biso   1.000  H
  C419     1.0000 0.53508  0.72163  0.18499  Biso   1.000  C
  C420     1.0000 0.08959  0.94342  0.08894  Biso   1.000  C
  H392     1.0000 0.09849  0.06263  0.19139  Biso   1.000  H
  H393     1.0000 0.12059  0.11193  0.16200  Biso   1.000  H
  C421     1.0000 0.17477  0.04118  0.19129  Biso   1.000  C
  C422     1.0000 0.03440  0.81774  0.07196  Biso   1.000  C
  H394     1.0000 0.99208  0.78701  0.12340  Biso   1.000  H
  H395     1.0000 0.00198  0.81811  0.16221  Biso   1.000  H
  C423     1.0000 0.05071  0.72390  0.15320  Biso   1.000  C
  C424     1.0000 0.75234  0.23981  0.82955  Biso   1.000  C
  H396     1.0000 0.43909  0.95210  0.05410  Biso   1.000  H
  H397     1.0000 0.47501  0.87481  0.05151  Biso   1.000  H
  C425     1.0000 0.40260  0.84389  0.05640  Biso   1.000  C
  H398     1.0000 0.68663  0.47571  0.85700  Biso   1.000  H
  H399     1.0000 0.74683  0.47223  0.85730  Biso   1.000  H
  C426     1.0000 0.70743  0.51133  0.81030  Biso   1.000  C
  C427     1.0000 0.70344  0.10772  0.81709  Biso   1.000  C
  H400     1.0000 0.58674  0.22551  0.83708  Biso   1.000  H
  H401     1.0000 0.61604  0.14230  0.83150  Biso   1.000  H
  C428     1.0000 0.58473  0.19692  0.78601  Biso   1.000  C
  H402     1.0000 0.38480  0.03519  0.17089  Biso   1.000  H
  H403     1.0000 0.41900  0.00428  0.20540  Biso   1.000  H
  H404     1.0000 0.40669  0.09953  0.19989  Biso   1.000  H
  N48      1.0000 0.56888  0.80345  0.08710  Biso   1.000  N
  H405     1.0000 0.49471  0.76123  0.07959  Biso   1.000  H
  H406     1.0000 0.52720  0.72891  0.11469  Biso   1.000  H
  H407     1.0000 0.51799  0.68883  0.16590  Biso   1.000  H
  H408     1.0000 0.56077  0.68834  0.19910  Biso   1.000  H
  H409     1.0000 0.50998  0.74070  0.19900  Biso   1.000  H
  C429     1.0000 0.09820  0.94923  0.05251  Biso   1.000  C
  H410     1.0000 0.17538  0.98961  0.20389  Biso   1.000  H
  H411     1.0000 0.19757  0.03733  0.17409  Biso   1.000  H
  H412     1.0000 0.18619  0.08560  0.20729  Biso   1.000  H
  N49      1.0000 0.98538  0.85092  0.05466  Biso   1.000  N
  H413     1.0000 0.02850  0.76514  0.08310  Biso   1.000  H
  H414     1.0000 0.05718  0.80754  0.05489  Biso   1.000  H
  H415     1.0000 0.07217  0.71174  0.13579  Biso   1.000  H
  H416     1.0000 0.07220  0.73330  0.17529  Biso   1.000  H
  H417     1.0000 0.02798  0.67764  0.15530  Biso   1.000  H
  C430     1.0000 0.80091  0.18983  0.82751  Biso   1.000  C
  H418     1.0000 0.38998  0.84402  0.03180  Biso   1.000  H
  H419     1.0000 0.41170  0.78811  0.06400  Biso   1.000  H
  H420     1.0000 0.37600  0.86454  0.06889  Biso   1.000  H
  H421     1.0000 0.67332  0.50309  0.79740  Biso   1.000  H
  H422     1.0000 0.71222  0.56919  0.81619  Biso   1.000  H
  H423     1.0000 0.73305  0.49429  0.79630  Biso   1.000  H
  N50      1.0000 0.71044  0.05218  0.84740  Biso   1.000  N
  H424     1.0000 0.72983  0.09470  0.80280  Biso   1.000  H
  H425     1.0000 0.66992  0.09592  0.80329  Biso   1.000  H
  H426     1.0000 0.60485  0.16252  0.77280  Biso   1.000  H
  H427     1.0000 0.55033  0.17438  0.78460  Biso   1.000  H
  H428     1.0000 0.58283  0.25240  0.77669  Biso   1.000  H
  C431     1.0000 0.57140  0.79483  0.05730  Biso   1.000  C
  H429     1.0000 0.06849  0.92619  0.03730  Biso   1.000  H
  C432     1.0000 0.14679  0.90181  0.04739  Biso   1.000  C
  H430     1.0000 0.10179  0.00727  0.04629  Biso   1.000  H
  C433     1.0000 0.94661  0.80894  0.05717  Biso   1.000  C
  H431     1.0000 0.79625  0.13350  0.83560  Biso   1.000  H
  H432     1.0000 0.82983  0.21452  0.84289  Biso   1.000  H
  C434     1.0000 0.81363  0.18678  0.79125  Biso   1.000  C
  C435     1.0000 0.71144  0.07851  0.87500  Biso   1.000  C
  H433     1.0000 0.54291  0.77174  0.04311  Biso   1.000  H
  C436     1.0000 0.61690  0.81860  0.04091  Biso   1.000  C
  H434     1.0000 0.15088  0.90322  0.02319  Biso   1.000  H
  H435     1.0000 0.17651  0.92711  0.06119  Biso   1.000  H
  H436     1.0000 0.14391  0.84493  0.05461  Biso   1.000  H
  C437     1.0000 0.89479  0.83015  0.04127  Biso   1.000  C
  H437     1.0000 0.95110  0.76013  0.07030  Biso   1.000  H
  H438     1.0000 0.78844  0.15293  0.77689  Biso   1.000  H
  H439     1.0000 0.81294  0.24219  0.78178  Biso   1.000  H
  H440     1.0000 0.84765  0.16332  0.79169  Biso   1.000  H
  C438     1.0000 0.71893  0.02297  0.90597  Biso   1.000  C
  H441     1.0000 0.70761  0.13558  0.87799  Biso   1.000  H
  C439     1.0000 0.61669  0.80381  0.00719  Biso   1.000  C
  C440     1.0000 0.65870  0.85355  0.06019  Biso   1.000  C
  C441     1.0000 0.85408  0.78194  0.04800  Biso   1.000  C
  C442     1.0000 0.88349  0.89540  0.02002  Biso   1.000  C
  C443     1.0000 0.73121  0.94092  0.90341  Biso   1.000  C
  C444     1.0000 0.71474  0.05658  0.93769  Biso   1.000  C
  H442     1.0000 0.58730  0.78060  0.99389  Biso   1.000  H
  C445     1.0000 0.65902  0.82233  0.99158  Biso   1.000  C
  C446     1.0000 0.70131  0.87444  0.04529  Biso   1.000  C
  H443     1.0000 0.65869  0.86351  0.08379  Biso   1.000  H
  C447     1.0000 0.80489  0.79685  0.03359  Biso   1.000  C
  H444     1.0000 0.86091  0.73709  0.06331  Biso   1.000  H
  C448     1.0000 0.83381  0.91135  0.00479  Biso   1.000  C
  H445     1.0000 0.91010  0.93065  0.01549  Biso   1.000  H
  C449     1.0000 0.73953  0.89253  0.93260  Biso   1.000  C
  H446     1.0000 0.73414  0.91801  0.88170  Biso   1.000  H
  C450     1.0000 0.72303  0.00813  0.96693  Biso   1.000  C
  H447     1.0000 0.70631  0.11273  0.93948  Biso   1.000  H
  H448     1.0000 0.65943  0.80962  0.96818  Biso   1.000  H
  C451     1.0000 0.70101  0.86002  0.01119  Biso   1.000  C
  H449     1.0000 0.73018  0.89839  0.05881  Biso   1.000  H
  C452     1.0000 0.79381  0.86302  0.01129  Biso   1.000  C
  H450     1.0000 0.77839  0.76220  0.03861  Biso   1.000  H
  H451     1.0000 0.82710  0.95631  0.98948  Biso   1.000  H
  C453     1.0000 0.73543  0.92613  0.96439  Biso   1.000  C
  H452     1.0000 0.74802  0.83644  0.93088  Biso   1.000  H
  H453     1.0000 0.72021  0.03110  0.98859  Biso   1.000  H
  N51      1.0000 0.74431  0.87841  0.99555  Biso   1.000  N
  C454     1.0000 0.31294  0.28771  0.76000  Biso   1.000  C
  C455     1.0000 0.29582  0.35193  0.78429  Biso   1.000  C
  H454     1.0000 0.31714  0.23480  0.77169  Biso   1.000  H
  H455     1.0000 0.34543  0.30452  0.75339  Biso   1.000  H
  H456     1.0000 0.28722  0.28301  0.73949  Biso   1.000  H
  C456     1.0000 0.24724  0.32663  0.79824  Biso   1.000  C
  H457     1.0000 0.28962  0.40441  0.77190  Biso   1.000  H
  H458     1.0000 0.32354  0.36073  0.80370  Biso   1.000  H
  C457     1.0000 0.25033  0.27953  0.82822  Biso   1.000  C
  C458     1.0000 0.19934  0.35022  0.78140  Biso   1.000  C
  C459     1.0000 0.20644  0.25582  0.84113  Biso   1.000  C
  C460     1.0000 0.30343  0.25771  0.84709  Biso   1.000  C
  C461     1.0000 0.15502  0.32920  0.79507  Biso   1.000  C
  C462     1.0000 0.19614  0.40099  0.74878  Biso   1.000  C
  C463     1.0000 0.15943  0.27983  0.82390  Biso   1.000  C
  C464     1.0000 0.21034  0.20401  0.87338  Biso   1.000  C
  N52      1.0000 0.32823  0.32859  0.86539  Biso   1.000  N
  H459     1.0000 0.30044  0.21323  0.86360  Biso   1.000  H
  H460     1.0000 0.32472  0.23761  0.83040  Biso   1.000  H
  C465     1.0000 0.10312  0.36048  0.77799  Biso   1.000  C
  N53      1.0000 0.20632  0.48628  0.75733  Biso   1.000  N
  H461     1.0000 0.22134  0.38071  0.73470  Biso   1.000  H
  H462     1.0000 0.16184  0.39561  0.73519  Biso   1.000  H
  C466     1.0000 0.11081  0.25393  0.83718  Biso   1.000  C
  H463     1.0000 0.18023  0.21391  0.88470  Biso   1.000  H
  H464     1.0000 0.24094  0.22063  0.88938  Biso   1.000  H
  C467     1.0000 0.21382  0.11303  0.86550  Biso   1.000  C
  C468     1.0000 0.34244  0.33219  0.89220  Biso   1.000  C
  H465     1.0000 0.10774  0.41461  0.76770  Biso   1.000  H
  H466     1.0000 0.08102  0.36800  0.79579  Biso   1.000  H
  C469     1.0000 0.07595  0.30280  0.74975  Biso   1.000  C
  C470     1.0000 0.17673  0.53724  0.74379  Biso   1.000  C
  N54      1.0000 0.09062  0.30781  0.86219  Biso   1.000  N
  H467     1.0000 0.08374  0.24733  0.81719  Biso   1.000  H
  H468     1.0000 0.11693  0.19930  0.84788  Biso   1.000  H
  H469     1.0000 0.21851  0.08199  0.88700  Biso   1.000  H
  H470     1.0000 0.24284  0.10332  0.85339  Biso   1.000  H
  H471     1.0000 0.18241  0.09537  0.85108  Biso   1.000  H
  H472     1.0000 0.33762  0.28460  0.90510  Biso   1.000  H
  C471     1.0000 0.36933  0.40270  0.91255  Biso   1.000  C
  H473     1.0000 0.07055  0.24928  0.75979  Biso   1.000  H
  H474     1.0000 0.09706  0.29633  0.73160  Biso   1.000  H
  H475     1.0000 0.04293  0.32633  0.74000  Biso   1.000  H
  H476     1.0000 0.14803  0.51964  0.72820  Biso   1.000  H
  C472     1.0000 0.18364  0.62663  0.75070  Biso   1.000  C
  C473     1.0000 0.11503  0.36409  0.87479  Biso   1.000  C
  C474     1.0000 0.37562  0.39732  0.94804  Biso   1.000  C
  C475     1.0000 0.38592  0.47174  0.89701  Biso   1.000  C
  C476     1.0000 0.14814  0.68302  0.73450  Biso   1.000  C
  C477     1.0000 0.22394  0.65479  0.77349  Biso   1.000  C
  H477     1.0000 0.14722  0.37453  0.86819  Biso   1.000  H
  C478     1.0000 0.09681  0.41914  0.90055  Biso   1.000  C
  H478     1.0000 0.36424  0.35009  0.95869  Biso   1.000  H
  C479     1.0000 0.39862  0.46081  0.96800  Biso   1.000  C
  C480     1.0000 0.40891  0.53528  0.91696  Biso   1.000  C
  H479     1.0000 0.38162  0.47541  0.87279  Biso   1.000  H
  H480     1.0000 0.12063  0.66494  0.71798  Biso   1.000  H
  C481     1.0000 0.15323  0.76422  0.74248  Biso   1.000  C
  C482     1.0000 0.22912  0.73734  0.78188  Biso   1.000  C
  H481     1.0000 0.24883  0.61710  0.78388  Biso   1.000  H
  C483     1.0000 0.04601  0.41889  0.90523  Biso   1.000  C
  C484     1.0000 0.13105  0.47199  0.91952  Biso   1.000  C
  H482     1.0000 0.40301  0.45714  0.99230  Biso   1.000  H
  C485     1.0000 0.41532  0.52979  0.95246  Biso   1.000  C
  H483     1.0000 0.42033  0.58239  0.90628  Biso   1.000  H
  H484     1.0000 0.12975  0.80241  0.73099  Biso   1.000  H
  C486     1.0000 0.19183  0.79135  0.76688  Biso   1.000  C
  H485     1.0000 0.25753  0.75622  0.79750  Biso   1.000  H
  H486     1.0000 0.02262  0.38272  0.89230  Biso   1.000  H
  C487     1.0000 0.02953  0.47150  0.92886  Biso   1.000  C
  C488     1.0000 0.11454  0.52459  0.94317  Biso   1.000  C
  H487     1.0000 0.16571  0.47223  0.91629  Biso   1.000  H
  N55      1.0000 0.43663  0.59394  0.97274  Biso   1.000  N
  N56      1.0000 0.19675  0.87530  0.77612  Biso   1.000  N
  C489     1.0000 0.06381  0.52429  0.94783  Biso   1.000  C
  H488     1.0000 0.99484  0.47131  0.93209  Biso   1.000  H
  H489     1.0000 0.13793  0.56070  0.95610  Biso   1.000  H
  C490     1.0000 0.46960  0.65369  0.96048  Biso   1.000  C
  C491     1.0000 0.41762  0.60970  0.00661  Biso   1.000  C
  C492     1.0000 0.44109  0.58930  0.00960  Biso   1.000  C
  C493     1.0000 0.15311  0.92100  0.78137  Biso   1.000  C
  C494     1.0000 0.24575  0.91165  0.78209  Biso   1.000  C
  N57      1.0000 0.04872  0.58184  0.97243  Biso   1.000  N
  C495     1.0000 0.50351  0.63243  0.93838  Biso   1.000  C
  C496     1.0000 0.46362  0.73520  0.96890  Biso   1.000  C
  C497     1.0000 0.36749  0.62614  0.01060  Biso   1.000  C
  C498     1.0000 0.45480  0.60182  0.03520  Biso   1.000  C
  C499     1.0000 0.39251  0.59760  0.01810  Biso   1.000  C
  C500     1.0000 0.48308  0.58581  0.03520  Biso   1.000  C
  C501     1.0000 0.11024  0.88391  0.78800  Biso   1.000  C
  C502     1.0000 0.15264  0.00562  0.77812  Biso   1.000  C
  C503     1.0000 0.26253  0.95002  0.81340  Biso   1.000  C
  C504     1.0000 0.27826  0.90255  0.75831  Biso   1.000  C
  C505     1.0000 0.00941  0.63689  0.96130  Biso   1.000  C
  C506     1.0000 0.07550  0.58172  0.00640  Biso   1.000  C
  C507     1.0000 0.53132  0.69274  0.92471  Biso   1.000  C
  H490     1.0000 0.50761  0.57671  0.93260  Biso   1.000  H
  H491     1.0000 0.44053  0.74974  0.98398  Biso   1.000  H
  C508     1.0000 0.49143  0.79544  0.95523  Biso   1.000  C
  H492     1.0000 0.34202  0.63151  0.99099  Biso   1.000  H
  C509     1.0000 0.35470  0.63463  0.04319  Biso   1.000  C
  C510     1.0000 0.38610  0.60262  0.05230  Biso   1.000  C
  H493     1.0000 0.36379  0.59999  0.00059  Biso   1.000  H
  H494     1.0000 0.48901  0.59052  0.03249  Biso   1.000  H
  C511     1.0000 0.44190  0.61031  0.06779  Biso   1.000  C
  C512     1.0000 0.47661  0.59070  0.06930  Biso   1.000  C
  H495     1.0000 0.51630  0.58013  0.02929  Biso   1.000  H
  C513     1.0000 0.06724  0.92882  0.79238  Biso   1.000  C
  H496     1.0000 0.10942  0.82599  0.78949  Biso   1.000  H
  H497     1.0000 0.18205  0.03312  0.77300  Biso   1.000  H
  C514     1.0000 0.10924  0.05090  0.78227  Biso   1.000  C
  H498     1.0000 0.24054  0.95411  0.83019  Biso   1.000  H
  C515     1.0000 0.31083  0.98191  0.81990  Biso   1.000  C
  C516     1.0000 0.32683  0.93963  0.76519  Biso   1.000  C
  H499     1.0000 0.26822  0.87243  0.73780  Biso   1.000  H
  C517     1.0000 0.98082  0.67001  0.98360  Biso   1.000  C
  C518     1.0000 0.99883  0.66060  0.92699  Biso   1.000  C
  C519     1.0000 0.08799  0.50858  0.02199  Biso   1.000  C
  C520     1.0000 0.08999  0.65290  0.02299  Biso   1.000  C
  C521     1.0000 0.52522  0.77424  0.93316  Biso   1.000  C
  H500     1.0000 0.55443  0.67819  0.90958  Biso   1.000  H
  H501     1.0000 0.48732  0.85110  0.96099  Biso   1.000  H
  C522     1.0000 0.39189  0.62669  0.07181  Biso   1.000  C
  H502     1.0000 0.32049  0.64593  0.04590  Biso   1.000  H
  H503     1.0000 0.35290  0.60830  0.05809  Biso   1.000  H
  C523     1.0000 0.42810  0.59913  0.07790  Biso   1.000  C
  H504     1.0000 0.46730  0.60494  0.08740  Biso   1.000  H
  H505     1.0000 0.50539  0.58844  0.08689  Biso   1.000  H
  H506     1.0000 0.03801  0.90145  0.79799  Biso   1.000  H
  C524     1.0000 0.06673  0.01112  0.78900  Biso   1.000  C
  H507     1.0000 0.10934  0.10882  0.78040  Biso   1.000  H
  C525     1.0000 0.34294  0.97690  0.79540  Biso   1.000  C
  H508     1.0000 0.32234  0.00739  0.84130  Biso   1.000  H
  H509     1.0000 0.34864  0.93823  0.74830  Biso   1.000  H
  C526     1.0000 0.94281  0.72689  0.97238  Biso   1.000  C
  H510     1.0000 0.98679  0.65412  0.00691  Biso   1.000  H
  H511     1.0000 0.01804  0.63799  0.91089  Biso   1.000  H
  C527     1.0000 0.96113  0.71614  0.91629  Biso   1.000  C
  C528     1.0000 0.11281  0.50693  0.05609  Biso   1.000  C
  H512     1.0000 0.07991  0.45903  0.00991  Biso   1.000  H
  H513     1.0000 0.08299  0.70349  0.01139  Biso   1.000  H
  C529     1.0000 0.11510  0.65204  0.05691  Biso   1.000  C
  C530     1.0000 0.55424  0.83803  0.91670  Biso   1.000  C
  C531     1.0000 0.37898  0.63573  0.10520  Biso   1.000  C
  C532     1.0000 0.42280  0.60671  0.11221  Biso   1.000  C
  C533     1.0000 0.01962  0.06073  0.79269  Biso   1.000  C
  C534     1.0000 0.39433  0.01411  0.80359  Biso   1.000  C
  C535     1.0000 0.93361  0.75194  0.93969  Biso   1.000  C
  H514     1.0000 0.92301  0.74864  0.98838  Biso   1.000  H
  H515     1.0000 0.95372  0.73031  0.89279  Biso   1.000  H
  C536     1.0000 0.12721  0.57860  0.07360  Biso   1.000  C
  H516     1.0000 0.11991  0.45592  0.06731  Biso   1.000  H
  H517     1.0000 0.12381  0.70214  0.06841  Biso   1.000  H
  N58      1.0000 0.54804  0.90585  0.91870  Biso   1.000  N
  H518     1.0000 0.57943  0.81994  0.90390  Biso   1.000  H
  N59      1.0000 0.40941  0.62082  0.13220  Biso   1.000  N
  H519     1.0000 0.34558  0.65382  0.10719  Biso   1.000  H
  N60      1.0000 0.38220  0.61349  0.12501  Biso   1.000  N
  H520     1.0000 0.45349  0.60683  0.12811  Biso   1.000  H
  N61      1.0000 0.98274  0.02762  0.80249  Biso   1.000  N
  H521     1.0000 0.01853  0.11743  0.78739  Biso   1.000  H
  N62      1.0000 0.42123  0.01888  0.78260  Biso   1.000  N
  H522     1.0000 0.40565  0.03428  0.82610  Biso   1.000  H
  C537     1.0000 0.89662  0.81970  0.92950  Biso   1.000  C
  C538     1.0000 0.15360  0.57561  0.10850  Biso   1.000  C
  C539     1.0000 0.58121  0.96285  0.89950  Biso   1.000  C
  C540     1.0000 0.38487  0.62339  0.16426  Biso   1.000  C
  C541     1.0000 0.93864  0.07821  0.80651  Biso   1.000  C
  C542     1.0000 0.47212  0.06293  0.79289  Biso   1.000  C
  N63      1.0000 0.89511  0.85599  0.90162  Biso   1.000  N
  H523     1.0000 0.87372  0.83534  0.94458  Biso   1.000  H
  N64      1.0000 0.16899  0.64013  0.12463  Biso   1.000  N
  H524     1.0000 0.15948  0.52423  0.11951  Biso   1.000  H
  H525     1.0000 0.60894  0.98790  0.91580  Biso   1.000  H
  H526     1.0000 0.59661  0.93163  0.88219  Biso   1.000  H
  C543     1.0000 0.54534  0.02792  0.88250  Biso   1.000  C
  C544     1.0000 0.33660  0.67251  0.16697  Biso   1.000  C
  H527     1.0000 0.41129  0.64300  0.18289  Biso   1.000  H
  H528     1.0000 0.37748  0.56614  0.16979  Biso   1.000  H
  H529     1.0000 0.38439  0.56974  0.17570  Biso   1.000  H
  H530     1.0000 0.41577  0.65363  0.17429  Biso   1.000  H
  C545     1.0000 0.92853  0.07228  0.84281  Biso   1.000  C
  H531     1.0000 0.90843  0.05920  0.79059  Biso   1.000  H
  H532     1.0000 0.94534  0.13582  0.80091  Biso   1.000  H
  C546     1.0000 0.49274  0.07411  0.83071  Biso   1.000  C
  H533     1.0000 0.49824  0.03287  0.78240  Biso   1.000  H
  H534     1.0000 0.46905  0.11792  0.78219  Biso   1.000  H
  C547     1.0000 0.85963  0.92693  0.89560  Biso   1.000  C
  C548     1.0000 0.19430  0.63231  0.16037  Biso   1.000  C
  C549     1.0000 0.52632  0.01491  0.84760  Biso   1.000  C
  C550     1.0000 0.53144  0.09458  0.90008  Biso   1.000  C
  C551     1.0000 0.28989  0.63164  0.16334  Biso   1.000  C
  C552     1.0000 0.33877  0.75420  0.17240  Biso   1.000  C
  C553     1.0000 0.89932  0.00648  0.85198  Biso   1.000  C
  C554     1.0000 0.94953  0.13020  0.86737  Biso   1.000  C
  C555     1.0000 0.47884  0.14040  0.84750  Biso   1.000  C
  C556     1.0000 0.89052  0.99921  0.88590  Biso   1.000  C
  H535     1.0000 0.84493  0.93933  0.91649  Biso   1.000  H
  H536     1.0000 0.83151  0.91440  0.87679  Biso   1.000  H
  C557     1.0000 0.24560  0.67532  0.16554  Biso   1.000  C
  H537     1.0000 0.19920  0.57384  0.16620  Biso   1.000  H
  H538     1.0000 0.17237  0.65650  0.17591  Biso   1.000  H
  C558     1.0000 0.53731  0.94073  0.82858  Biso   1.000  C
  C559     1.0000 0.49774  0.15159  0.88170  Biso   1.000  C
  C560     1.0000 0.55191  0.10289  0.93639  Biso   1.000  C
  C561     1.0000 0.28648  0.54023  0.15660  Biso   1.000  C
  C562     1.0000 0.29387  0.80070  0.17491  Biso   1.000  C
  C563     1.0000 0.39000  0.80112  0.17690  Biso   1.000  C
  C564     1.0000 0.87873  0.94153  0.82620  Biso   1.000  C
  C565     1.0000 0.94043  0.12140  0.90101  Biso   1.000  C
  C566     1.0000 0.98103  0.19949  0.85720  Biso   1.000  C
  C567     1.0000 0.43925  0.20480  0.82899  Biso   1.000  C
  C568     1.0000 0.91033  0.05658  0.91104  Biso   1.000  C
  C569     1.0000 0.24758  0.76019  0.17043  Biso   1.000  C
  H539     1.0000 0.50793  0.92882  0.81069  Biso   1.000  H
  H540     1.0000 0.54194  0.89375  0.84450  Biso   1.000  H
  C570     1.0000 0.58623  0.95143  0.81150  Biso   1.000  C
  C571     1.0000 0.47934  0.22338  0.90070  Biso   1.000  C
  H541     1.0000 0.56083  0.04790  0.94588  Biso   1.000  H
  H542     1.0000 0.52491  0.12519  0.94850  Biso   1.000  H
  C572     1.0000 0.59731  0.15611  0.94358  Biso   1.000  C
  H543     1.0000 0.31329  0.52429  0.14301  Biso   1.000  H
  H544     1.0000 0.25309  0.52783  0.14270  Biso   1.000  H
  C573     1.0000 0.29250  0.48873  0.18970  Biso   1.000  C
  C574     1.0000 0.29648  0.89234  0.18289  Biso   1.000  C
  H545     1.0000 0.41318  0.77455  0.16290  Biso   1.000  H
  H546     1.0000 0.38388  0.85770  0.16851  Biso   1.000  H
  C575     1.0000 0.41520  0.80314  0.21400  Biso   1.000  C
  H547     1.0000 0.90143  0.93744  0.80859  Biso   1.000  H
  H548     1.0000 0.87934  0.88813  0.83800  Biso   1.000  H
  C576     1.0000 0.82515  0.95882  0.80869  Biso   1.000  C
  C577     1.0000 0.96553  0.18232  0.92804  Biso   1.000  C
  H549     1.0000 0.99794  0.18189  0.83780  Biso   1.000  H
  C578     1.0000 0.94921  0.27610  0.84678  Biso   1.000  C
  H550     1.0000 0.00784  0.21299  0.87658  Biso   1.000  H
  H551     1.0000 0.41724  0.17743  0.80989  Biso   1.000  H
  H552     1.0000 0.41722  0.22423  0.84540  Biso   1.000  H
  C579     1.0000 0.46484  0.27843  0.81499  Biso   1.000  C
  C580     1.0000 0.90173  0.05077  0.94750  Biso   1.000  C
  C581     1.0000 0.19897  0.81023  0.17250  Biso   1.000  C
  H553     1.0000 0.61512  0.96481  0.82909  Biso   1.000  H
  H554     1.0000 0.58092  0.99572  0.79458  Biso   1.000  H
  H555     1.0000 0.59323  0.90053  0.80009  Biso   1.000  H
  N65      1.0000 0.43104  0.19662  0.91288  Biso   1.000  N
  H556     1.0000 0.50521  0.23883  0.92039  Biso   1.000  H
  H557     1.0000 0.47272  0.27109  0.88529  Biso   1.000  H
  H558     1.0000 0.60993  0.15598  0.96818  Biso   1.000  H
  H559     1.0000 0.58822  0.21189  0.93600  Biso   1.000  H
  H560     1.0000 0.62392  0.13552  0.93109  Biso   1.000  H
  H561     1.0000 0.32657  0.49691  0.20261  Biso   1.000  H
  H562     1.0000 0.28769  0.43081  0.18379  Biso   1.000  H
  H563     1.0000 0.26687  0.50571  0.20371  Biso   1.000  H
  N66      1.0000 0.28949  0.94782  0.15261  Biso   1.000  N
  H564     1.0000 0.27010  0.90530  0.19721  Biso   1.000  H
  H565     1.0000 0.33000  0.90414  0.19669  Biso   1.000  H
  H566     1.0000 0.39507  0.83754  0.22721  Biso   1.000  H
  H567     1.0000 0.44959  0.82562  0.21541  Biso   1.000  H
  H568     1.0000 0.41708  0.74760  0.22329  Biso   1.000  H
  H569     1.0000 0.80231  0.96273  0.82589  Biso   1.000  H
  H570     1.0000 0.81373  0.91440  0.79269  Biso   1.000  H
  H571     1.0000 0.82454  0.01039  0.79609  Biso   1.000  H
  H572     1.0000 0.97142  0.23492  0.91690  Biso   1.000  H
  H573     1.0000 0.94274  0.19252  0.94509  Biso   1.000  H
  N67      1.0000 0.01450  0.14908  0.94532  Biso   1.000  N
  H574     1.0000 0.92775  0.28832  0.86419  Biso   1.000  H
  H575     1.0000 0.92772  0.26670  0.82469  Biso   1.000  H
  H576     1.0000 0.97194  0.32242  0.84468  Biso   1.000  H
  H577     1.0000 0.48192  0.31124  0.83408  Biso   1.000  H
  H578     1.0000 0.43915  0.31172  0.80091  Biso   1.000  H
  H579     1.0000 0.48994  0.25930  0.80098  Biso   1.000  H
  H580     1.0000 0.89813  0.99273  0.95369  Biso   1.000  H
  H581     1.0000 0.93143  0.07381  0.96268  Biso   1.000  H
  C582     1.0000 0.85313  0.09819  0.95259  Biso   1.000  C
  H582     1.0000 0.20368  0.86650  0.16441  Biso   1.000  H
  H583     1.0000 0.17009  0.78554  0.15709  Biso   1.000  H
  C583     1.0000 0.18629  0.81322  0.20873  Biso   1.000  C
  C584     1.0000 0.42852  0.20523  0.94268  Biso   1.000  C
  C585     1.0000 0.28848  0.92155  0.12501  Biso   1.000  C
  C586     1.0000 0.05331  0.19112  0.94281  Biso   1.000  C
  H584     1.0000 0.84900  0.09678  0.97679  Biso   1.000  H
  H585     1.0000 0.82341  0.07289  0.93879  Biso   1.000  H
  H586     1.0000 0.85601  0.15513  0.94540  Biso   1.000  H
  H587     1.0000 0.21148  0.84713  0.22309  Biso   1.000  H
  H588     1.0000 0.18698  0.75781  0.21820  Biso   1.000  H
  H589     1.0000 0.15227  0.83674  0.20829  Biso   1.000  H
  H590     1.0000 0.45702  0.22833  0.95689  Biso   1.000  H
  C587     1.0000 0.38302  0.18140  0.95909  Biso   1.000  C
  C588     1.0000 0.28100  0.97703  0.09403  Biso   1.000  C
  H591     1.0000 0.29227  0.86442  0.12199  Biso   1.000  H
  C589     1.0000 0.10513  0.16992  0.95871  Biso   1.000  C
  H592     1.0000 0.04882  0.23993  0.92968  Biso   1.000  H
  C590     1.0000 0.38323  0.19619  0.99279  Biso   1.000  C
  C591     1.0000 0.34122  0.14651  0.93979  Biso   1.000  C
  C592     1.0000 0.28518  0.94342  0.06229  Biso   1.000  C
  C593     1.0000 0.26867  0.05908  0.09657  Biso   1.000  C
  C594     1.0000 0.14584  0.21812  0.95200  Biso   1.000  C
  C595     1.0000 0.11643  0.10460  0.97996  Biso   1.000  C
  H593     1.0000 0.41261  0.21940  0.00609  Biso   1.000  H
  C596     1.0000 0.34089  0.17767  0.00840  Biso   1.000  C
  C597     1.0000 0.29861  0.12562  0.95469  Biso   1.000  C
  H594     1.0000 0.34123  0.13649  0.91619  Biso   1.000  H
  C598     1.0000 0.27688  0.99193  0.03305  Biso   1.000  C
  H595     1.0000 0.29361  0.88733  0.06050  Biso   1.000  H
  H596     1.0000 0.26579  0.08199  0.11830  Biso   1.000  H
  C599     1.0000 0.26039  0.10747  0.06741  Biso   1.000  C
  C600     1.0000 0.19503  0.20321  0.96639  Biso   1.000  C
  H597     1.0000 0.13902  0.26291  0.93669  Biso   1.000  H
  H598     1.0000 0.08982  0.06941  0.98449  Biso   1.000  H
  C601     1.0000 0.16611  0.08872  0.99519  Biso   1.000  C
  C602     1.0000 0.29891  0.13998  0.98879  Biso   1.000  C
  H599     1.0000 0.34049  0.19038  0.03180  Biso   1.000  H
  H600     1.0000 0.26971  0.10161  0.94120  Biso   1.000  H
  H601     1.0000 0.27971  0.96890  0.01139  Biso   1.000  H
  C603     1.0000 0.26449  0.07393  0.03561  Biso   1.000  C
  H602     1.0000 0.25190  0.16362  0.06910  Biso   1.000  H
  C604     1.0000 0.20611  0.13698  0.98869  Biso   1.000  C
  H603     1.0000 0.22153  0.23780  0.96140  Biso   1.000  H
  H604     1.0000 0.17278  0.04369  0.01050  Biso   1.000  H
  N68      1.0000 0.25561  0.12159  0.00445  Biso   1.000  N
  Ne1      1.0000 0.75778  0.78278  0.56262  Biso   1.000  Ne
  He1      1.0000 0.02944  0.61393  0.71791  Biso   1.000  He
  He2      1.0000 0.61618  0.75515  0.65078  Biso   1.000  He
  He3      1.0000 0.84884  0.97900  0.60854  Biso   1.000  He
  He4      1.0000 0.74987  0.52692  0.52908  Biso   1.000  He
  He5      1.0000 0.84407  0.85768  0.47259  Biso   1.000  He
  He6      1.0000 0.64792  0.89943  0.56040  Biso   1.000  He
  Ar1      1.0000 0.77845  0.78955  0.57695  Biso   1.000  Ar
  Ne2      1.0000 0.24214  0.21724  0.43738  Biso   1.000  Ne
  He7      1.0000 0.05838  0.12373  0.46894  Biso   1.000  He
  He8      1.0000 0.35080  0.10182  0.43770  Biso   1.000  He
  He9      1.0000 0.27220  0.44794  0.43023  Biso   1.000  He
  He10     1.0000 0.21981  0.82019  0.35378  Biso   1.000  He
  He11     1.0000 0.35596  0.22785  0.37960  Biso   1.000  He
  He12     1.0000 0.96887  0.38612  0.28120  Biso   1.000  He
  Ar2      1.0000 0.22132  0.21030  0.42306  Biso   1.000  Ar
  Ne3      1.0000 0.75779  0.21724  0.06262  Biso   1.000  Ne
  He13     1.0000 0.89968  0.33924  0.15232  Biso   1.000  He
  He14     1.0000 0.61528  0.24615  0.15176  Biso   1.000  He
  He15     1.0000 0.84889  0.02133  0.10849  Biso   1.000  He
  He16     1.0000 0.72901  0.45889  0.06288  Biso   1.000  He
  He17     1.0000 0.89178  0.10762  0.96036  Biso   1.000  He
  He18     1.0000 0.54382  0.06350  0.94897  Biso   1.000  He
  Ar3      1.0000 0.77854  0.21041  0.07694  Biso   1.000  Ar
  Ne4      1.0000 0.24212  0.78278  0.93737  Biso   1.000  Ne
  He19     1.0000 0.15666  0.85684  0.02618  Biso   1.000  He
  He20     1.0000 0.35155  0.89901  0.93898  Biso   1.000  He
  He21     1.0000 0.27220  0.54992  0.93120  Biso   1.000  He
  He22     1.0000 0.15103  0.97860  0.89150  Biso   1.000  He
  He23     1.0000 0.35459  0.77178  0.88004  Biso   1.000  He
  He24     1.0000 0.11611  0.64428  0.84029  Biso   1.000  He
  Ar4      1.0000 0.22128  0.78969  0.92305  Biso   1.000  Ar
