data_image0
_cell_length_a       38.167
_cell_length_b       16.311
_cell_length_c       20.656
_cell_angle_alpha    90
_cell_angle_beta     109.58
_cell_angle_gamma    90

_symmetry_space_group_name_H-M    "P 1"
_symmetry_int_tables_number       1

loop_
  _symmetry_equiv_pos_as_xyz
  'x, y, z'

loop_
  _atom_site_label
  _atom_site_occupancy
  _atom_site_fract_x
  _atom_site_fract_y
  _atom_site_fract_z
  _atom_site_thermal_displace_type
  _atom_site_B_iso_or_equiv
  _atom_site_type_symbol
  C1       1.0000 0.57240  0.50052  0.52134  Biso   1.000  C
  N1       1.0000 0.56040  0.54846  0.45731  Biso   1.000  N
  H1       1.0000 0.55332  0.46055  0.51985  Biso   1.000  H
  H2       1.0000 0.59489  0.47073  0.52426  Biso   1.000  H
  C2       1.0000 0.57980  0.55257  0.58510  Biso   1.000  C
  C3       1.0000 0.52098  0.57041  0.43979  Biso   1.000  C
  C4       1.0000 0.56580  0.49770  0.40187  Biso   1.000  C
  N2       1.0000 0.61370  0.60493  0.59882  Biso   1.000  N
  H3       1.0000 0.58289  0.51720  0.62436  Biso   1.000  H
  H4       1.0000 0.55846  0.58758  0.57981  Biso   1.000  H
  H5       1.0000 0.50605  0.52155  0.42391  Biso   1.000  H
  H6       1.0000 0.51668  0.58911  0.48105  Biso   1.000  H
  C5       1.0000 0.50789  0.63607  0.38522  Biso   1.000  C
  H7       1.0000 0.55783  0.44209  0.40603  Biso   1.000  H
  H8       1.0000 0.55018  0.51891  0.35778  Biso   1.000  H
  C6       1.0000 0.60545  0.49611  0.40351  Biso   1.000  C
  H9       1.0000 0.63258  0.57446  0.59641  Biso   1.000  H
  H10      1.0000 0.60943  0.64404  0.56702  Biso   1.000  H
  C7       1.0000 0.62383  0.64349  0.66911  Biso   1.000  C
  N3       1.0000 0.52526  0.71786  0.40572  Biso   1.000  N
  H11      1.0000 0.48116  0.64178  0.37289  Biso   1.000  H
  H12      1.0000 0.51301  0.61811  0.34453  Biso   1.000  H
  N4       1.0000 0.61782  0.57654  0.38532  Biso   1.000  N
  H13      1.0000 0.60801  0.45485  0.37155  Biso   1.000  H
  H14      1.0000 0.62144  0.48053  0.44919  Biso   1.000  H
  H15      1.0000 0.63491  0.60211  0.70359  Biso   1.000  H
  H16      1.0000 0.60131  0.66274  0.67610  Biso   1.000  H
  C8       1.0000 0.65054  0.71418  0.67898  Biso   1.000  C
  H17      1.0000 0.51940  0.74962  0.36852  Biso   1.000  H
  H18      1.0000 0.54985  0.71173  0.42098  Biso   1.000  H
  C9       1.0000 0.51443  0.75998  0.45839  Biso   1.000  C
  H19      1.0000 0.60225  0.59267  0.34468  Biso   1.000  H
  H20      1.0000 0.61721  0.61370  0.41646  Biso   1.000  H
  C10      1.0000 0.65610  0.57152  0.38229  Biso   1.000  C
  C11      1.0000 0.68772  0.70198  0.68694  Biso   1.000  C
  C12      1.0000 0.63823  0.79382  0.68278  Biso   1.000  C
  H21      1.0000 0.48752  0.75900  0.44539  Biso   1.000  H
  H22      1.0000 0.52457  0.73055  0.50145  Biso   1.000  H
  C13      1.0000 0.52761  0.84802  0.46898  Biso   1.000  C
  H23      1.0000 0.67208  0.54650  0.42448  Biso   1.000  H
  H24      1.0000 0.65575  0.53559  0.34468  Biso   1.000  H
  C14      1.0000 0.67308  0.65299  0.37279  Biso   1.000  C
  H25      1.0000 0.69650  0.64901  0.68607  Biso   1.000  H
  C15      1.0000 0.71209  0.76789  0.69619  Biso   1.000  C
  C16      1.0000 0.66224  0.85997  0.69208  Biso   1.000  C
  H26      1.0000 0.61355  0.80271  0.67903  Biso   1.000  H
  C17      1.0000 0.56109  0.86708  0.51949  Biso   1.000  C
  C18      1.0000 0.50734  0.91018  0.42828  Biso   1.000  C
  C19      1.0000 0.65671  0.70400  0.31719  Biso   1.000  C
  C20      1.0000 0.70776  0.67402  0.41852  Biso   1.000  C
  H27      1.0000 0.73696  0.75912  0.70128  Biso   1.000  H
  C21      1.0000 0.69892  0.84691  0.69784  Biso   1.000  C
  H28      1.0000 0.65369  0.91288  0.69450  Biso   1.000  H
  H29      1.0000 0.57518  0.82570  0.54708  Biso   1.000  H
  C22      1.0000 0.57366  0.94721  0.52899  Biso   1.000  C
  C23      1.0000 0.51956  0.99172  0.43743  Biso   1.000  C
  H30      1.0000 0.48499  0.89780  0.39406  Biso   1.000  H
  H31      1.0000 0.63380  0.68978  0.28533  Biso   1.000  H
  C24      1.0000 0.67402  0.77641  0.30804  Biso   1.000  C
  C25      1.0000 0.72547  0.74453  0.40953  Biso   1.000  C
  H32      1.0000 0.71923  0.64006  0.45577  Biso   1.000  H
  O1       1.0000 0.71978  0.91723  0.70493  Biso   1.000  O
  H33      1.0000 0.59601  0.95960  0.56326  Biso   1.000  H
  C26      1.0000 0.55296  0.00920  0.48753  Biso   1.000  C
  H34      1.0000 0.50538  0.03323  0.41009  Biso   1.000  H
  H35      1.0000 0.66274  0.81056  0.27084  Biso   1.000  H
  C27      1.0000 0.70810  0.79640  0.35511  Biso   1.000  C
  H36      1.0000 0.74899  0.75716  0.43984  Biso   1.000  H
  C28      1.0000 0.75768  0.91043  0.71079  Biso   1.000  C
  O2       1.0000 0.56868  0.08638  0.50083  Biso   1.000  O
  O3       1.0000 0.72842  0.86567  0.35270  Biso   1.000  O
  H37      1.0000 0.77202  0.89007  0.75605  Biso   1.000  H
  H38      1.0000 0.76028  0.87187  0.67687  Biso   1.000  H
  C29      1.0000 0.77203  0.99399  0.69933  Biso   1.000  C
  C30      1.0000 0.54979  0.15352  0.45968  Biso   1.000  C
  C31      1.0000 0.70919  0.93232  0.31056  Biso   1.000  C
  N5       1.0000 0.74673  0.04708  0.66171  Biso   1.000  N
  O4       1.0000 0.80602  0.00809  0.72194  Biso   1.000  O
  H39      1.0000 0.54092  0.13770  0.41163  Biso   1.000  H
  H40      1.0000 0.52851  0.16909  0.47262  Biso   1.000  H
  C32      1.0000 0.57612  0.22488  0.47005  Biso   1.000  C
  H41      1.0000 0.70812  0.92477  0.26334  Biso   1.000  H
  H42      1.0000 0.68403  0.93685  0.31154  Biso   1.000  H
  C33      1.0000 0.73181  0.00822  0.34165  Biso   1.000  C
  C34      1.0000 0.75763  0.12887  0.64424  Biso   1.000  C
  N6       1.0000 0.61227  0.20673  0.49122  Biso   1.000  N
  O5       1.0000 0.56380  0.29569  0.45526  Biso   1.000  O
  N7       1.0000 0.71223  0.06787  0.35722  Biso   1.000  N
  O6       1.0000 0.76567  0.01128  0.35110  Biso   1.000  O
  H43      1.0000 0.75669  0.16811  0.67893  Biso   1.000  H
  H44      1.0000 0.78301  0.12672  0.64419  Biso   1.000  H
  C35      1.0000 0.73228  0.15707  0.57467  Biso   1.000  C
  C36      1.0000 0.64075  0.27031  0.49688  Biso   1.000  C
  C37      1.0000 0.72878  0.14573  0.38851  Biso   1.000  C
  C38      1.0000 0.70028  0.20293  0.56928  Biso   1.000  C
  C39      1.0000 0.74087  0.13659  0.51599  Biso   1.000  C
  H45      1.0000 0.63326  0.30482  0.45628  Biso   1.000  H
  H46      1.0000 0.64366  0.30458  0.53675  Biso   1.000  H
  C40      1.0000 0.67700  0.22819  0.50376  Biso   1.000  C
  H47      1.0000 0.75563  0.14236  0.40177  Biso   1.000  H
  H48      1.0000 0.72034  0.18957  0.35511  Biso   1.000  H
  C41      1.0000 0.71805  0.16529  0.45140  Biso   1.000  C
  C42      1.0000 0.68971  0.22212  0.63202  Biso   1.000  C
  C43      1.0000 0.77378  0.08117  0.52221  Biso   1.000  C
  C44      1.0000 0.68571  0.20967  0.44472  Biso   1.000  C
  H49      1.0000 0.69709  0.27711  0.64687  Biso   1.000  H
  H50      1.0000 0.66328  0.21685  0.62066  Biso   1.000  H
  H51      1.0000 0.70200  0.18442  0.66819  Biso   1.000  H
  H52      1.0000 0.77877  0.04739  0.56229  Biso   1.000  H
  H53      1.0000 0.76815  0.04715  0.48208  Biso   1.000  H
  H54      1.0000 0.79522  0.11416  0.52601  Biso   1.000  H
  C45      1.0000 0.65938  0.23450  0.37494  Biso   1.000  C
  H55      1.0000 0.66499  0.20373  0.34000  Biso   1.000  H
  H56      1.0000 0.63426  0.22347  0.37253  Biso   1.000  H
  H57      1.0000 0.66217  0.29195  0.36796  Biso   1.000  H
  C46      1.0000 0.47902  0.42959  0.56018  Biso   1.000  C
  N8       1.0000 0.43958  0.45154  0.54266  Biso   1.000  N
  H58      1.0000 0.49393  0.47845  0.57611  Biso   1.000  H
  H59      1.0000 0.48331  0.41089  0.51897  Biso   1.000  H
  C47      1.0000 0.49210  0.36393  0.61480  Biso   1.000  C
  C48      1.0000 0.42758  0.49948  0.47864  Biso   1.000  C
  C49      1.0000 0.43418  0.50230  0.59810  Biso   1.000  C
  N9       1.0000 0.47473  0.28214  0.59430  Biso   1.000  N
  H60      1.0000 0.51885  0.35822  0.62708  Biso   1.000  H
  H61      1.0000 0.48698  0.38189  0.65550  Biso   1.000  H
  C50      1.0000 0.42018  0.44743  0.41487  Biso   1.000  C
  H62      1.0000 0.44666  0.53945  0.48013  Biso   1.000  H
  H63      1.0000 0.40510  0.52927  0.47576  Biso   1.000  H
  H64      1.0000 0.44217  0.55791  0.59394  Biso   1.000  H
  H65      1.0000 0.44981  0.48109  0.64224  Biso   1.000  H
  C51      1.0000 0.39453  0.50389  0.59651  Biso   1.000  C
  H66      1.0000 0.48057  0.25038  0.63145  Biso   1.000  H
  H67      1.0000 0.45013  0.28827  0.57904  Biso   1.000  H
  C52      1.0000 0.48555  0.24002  0.54158  Biso   1.000  C
  N10      1.0000 0.38628  0.39507  0.40120  Biso   1.000  N
  H68      1.0000 0.41713  0.48280  0.37566  Biso   1.000  H
  H69      1.0000 0.44156  0.41242  0.42021  Biso   1.000  H
  N11      1.0000 0.38219  0.42346  0.61470  Biso   1.000  N
  H70      1.0000 0.39196  0.54515  0.62842  Biso   1.000  H
  H71      1.0000 0.37855  0.51947  0.55083  Biso   1.000  H
  H72      1.0000 0.51246  0.24100  0.55458  Biso   1.000  H
  H73      1.0000 0.47542  0.26945  0.49857  Biso   1.000  H
  C53      1.0000 0.47237  0.15198  0.53105  Biso   1.000  C
  C54      1.0000 0.37615  0.35651  0.33091  Biso   1.000  C
  H74      1.0000 0.36743  0.42554  0.40356  Biso   1.000  H
  H75      1.0000 0.39057  0.35596  0.43296  Biso   1.000  H
  H76      1.0000 0.39773  0.40733  0.65529  Biso   1.000  H
  H77      1.0000 0.38278  0.38630  0.58356  Biso   1.000  H
  C55      1.0000 0.34388  0.42848  0.61768  Biso   1.000  C
  C56      1.0000 0.43891  0.13292  0.48049  Biso   1.000  C
  C57      1.0000 0.49266  0.08982  0.57169  Biso   1.000  C
  C58      1.0000 0.34947  0.28582  0.32104  Biso   1.000  C
  H78      1.0000 0.36507  0.39789  0.29638  Biso   1.000  H
  H79      1.0000 0.39867  0.33726  0.32387  Biso   1.000  H
  H80      1.0000 0.32790  0.45350  0.57554  Biso   1.000  H
  H81      1.0000 0.34424  0.46441  0.65534  Biso   1.000  H
  C59      1.0000 0.32692  0.34701  0.62719  Biso   1.000  C
  H82      1.0000 0.42479  0.17430  0.45289  Biso   1.000  H
  C60      1.0000 0.42634  0.05279  0.47098  Biso   1.000  C
  C61      1.0000 0.48043  0.00828  0.56260  Biso   1.000  C
  H83      1.0000 0.51499  0.10220  0.60596  Biso   1.000  H
  C62      1.0000 0.31229  0.29802  0.31308  Biso   1.000  C
  C63      1.0000 0.36177  0.20618  0.31719  Biso   1.000  C
  C64      1.0000 0.34327  0.29600  0.68278  Biso   1.000  C
  C65      1.0000 0.29222  0.32598  0.58145  Biso   1.000  C
  H84      1.0000 0.40399  0.04040  0.43671  Biso   1.000  H
  C66      1.0000 0.44702  0.99080  0.51245  Biso   1.000  C
  H85      1.0000 0.49460  0.96677  0.58988  Biso   1.000  H
  C67      1.0000 0.28789  0.23211  0.30378  Biso   1.000  C
  H86      1.0000 0.30349  0.35099  0.31395  Biso   1.000  H
  C68      1.0000 0.33773  0.14003  0.30789  Biso   1.000  C
  H87      1.0000 0.38643  0.19729  0.32099  Biso   1.000  H
  H88      1.0000 0.36618  0.31022  0.71464  Biso   1.000  H
  C69      1.0000 0.32596  0.22359  0.69193  Biso   1.000  C
  C70      1.0000 0.27454  0.25547  0.59045  Biso   1.000  C
  H89      1.0000 0.28077  0.35994  0.54420  Biso   1.000  H
  O7       1.0000 0.43132  0.91362  0.49914  Biso   1.000  O
  H90      1.0000 0.26305  0.24088  0.29874  Biso   1.000  H
  C71      1.0000 0.30109  0.15309  0.30219  Biso   1.000  C
  H91      1.0000 0.34628  0.08712  0.30547  Biso   1.000  H
  H92      1.0000 0.33726  0.18944  0.72913  Biso   1.000  H
  C72      1.0000 0.29190  0.20360  0.64486  Biso   1.000  C
  H93      1.0000 0.25101  0.24284  0.56013  Biso   1.000  H
  C73      1.0000 0.45018  0.84648  0.54030  Biso   1.000  C
  O8       1.0000 0.28020  0.08277  0.29504  Biso   1.000  O
  O9       1.0000 0.27156  0.13433  0.64728  Biso   1.000  O
  C74      1.0000 0.42385  0.77512  0.52992  Biso   1.000  C
  H94      1.0000 0.45905  0.86230  0.58834  Biso   1.000  H
  H95      1.0000 0.47148  0.83091  0.52740  Biso   1.000  H
  C75      1.0000 0.24231  0.08957  0.28924  Biso   1.000  C
  C76      1.0000 0.29082  0.06768  0.68946  Biso   1.000  C
  N12      1.0000 0.38771  0.79327  0.50875  Biso   1.000  N
  O10      1.0000 0.43619  0.70431  0.54477  Biso   1.000  O
  H96      1.0000 0.22797  0.10993  0.24397  Biso   1.000  H
  H97      1.0000 0.23970  0.12813  0.32310  Biso   1.000  H
  C77      1.0000 0.22795  0.00601  0.30064  Biso   1.000  C
  C78      1.0000 0.26818  0.99178  0.65837  Biso   1.000  C
  H98      1.0000 0.29185  0.07523  0.73663  Biso   1.000  H
  H99      1.0000 0.31597  0.06315  0.68843  Biso   1.000  H
  C79      1.0000 0.35923  0.72969  0.50309  Biso   1.000  C
  N13      1.0000 0.25327  0.95292  0.33826  Biso   1.000  N
  O11      1.0000 0.19396  0.99191  0.27809  Biso   1.000  O
  N14      1.0000 0.28778  0.93213  0.64281  Biso   1.000  N
  O12      1.0000 0.23433  0.98872  0.64887  Biso   1.000  O
  C80      1.0000 0.32297  0.77181  0.49621  Biso   1.000  C
  H100     1.0000 0.36675  0.69518  0.54369  Biso   1.000  H
  H101     1.0000 0.35633  0.69542  0.46327  Biso   1.000  H
  C81      1.0000 0.24235  0.87113  0.35578  Biso   1.000  C
  C82      1.0000 0.27122  0.85427  0.61146  Biso   1.000  C
  C83      1.0000 0.29969  0.79707  0.43070  Biso   1.000  C
  C84      1.0000 0.31427  0.79033  0.55525  Biso   1.000  C
  H102     1.0000 0.24329  0.83189  0.32109  Biso   1.000  H
  H103     1.0000 0.21697  0.87328  0.35583  Biso   1.000  H
  C85      1.0000 0.26769  0.84293  0.42530  Biso   1.000  C
  C86      1.0000 0.28194  0.83471  0.54862  Biso   1.000  C
  H104     1.0000 0.24436  0.85764  0.59826  Biso   1.000  H
  H105     1.0000 0.27964  0.81043  0.64486  Biso   1.000  H
  C87      1.0000 0.31031  0.77788  0.36801  Biso   1.000  C
  C88      1.0000 0.34061  0.76550  0.62508  Biso   1.000  C
  C89      1.0000 0.25910  0.86341  0.48398  Biso   1.000  C
  H106     1.0000 0.30289  0.72289  0.35311  Biso   1.000  H
  H107     1.0000 0.33673  0.78315  0.37936  Biso   1.000  H
  H108     1.0000 0.29797  0.81558  0.33178  Biso   1.000  H
  H109     1.0000 0.33502  0.79627  0.66002  Biso   1.000  H
  H110     1.0000 0.36573  0.77653  0.62749  Biso   1.000  H
  H111     1.0000 0.33781  0.70805  0.63207  Biso   1.000  H
  C90      1.0000 0.22623  0.91883  0.47781  Biso   1.000  C
  H112     1.0000 0.22122  0.95261  0.43773  Biso   1.000  H
  H113     1.0000 0.23182  0.95285  0.51789  Biso   1.000  H
  H114     1.0000 0.20476  0.88584  0.47401  Biso   1.000  H
  O13      1.0000 0.73432  0.48875  0.64887  Biso   1.000  O
  C91      1.0000 0.76819  0.49182  0.65837  Biso   1.000  C
  N15      1.0000 0.78777  0.43216  0.64281  Biso   1.000  N
  C92      1.0000 0.79081  0.56772  0.68946  Biso   1.000  C
  C93      1.0000 0.77121  0.35430  0.61146  Biso   1.000  C
  O14      1.0000 0.77157  0.63436  0.64728  Biso   1.000  O
  H115     1.0000 0.79187  0.57526  0.73663  Biso   1.000  H
  H116     1.0000 0.81595  0.56312  0.68843  Biso   1.000  H
  C94      1.0000 0.78195  0.33468  0.54862  Biso   1.000  C
  H117     1.0000 0.74437  0.35761  0.59826  Biso   1.000  H
  H118     1.0000 0.77965  0.31047  0.64486  Biso   1.000  H
  C95      1.0000 0.79189  0.70357  0.64486  Biso   1.000  C
  C96      1.0000 0.75912  0.36337  0.48398  Biso   1.000  C
  C97      1.0000 0.81425  0.29029  0.55525  Biso   1.000  C
  C98      1.0000 0.82594  0.72362  0.69193  Biso   1.000  C
  C99      1.0000 0.77452  0.75550  0.59045  Biso   1.000  C
  C100     1.0000 0.76771  0.34290  0.42530  Biso   1.000  C
  C101     1.0000 0.72622  0.41880  0.47781  Biso   1.000  C
  C102     1.0000 0.82299  0.27178  0.49621  Biso   1.000  C
  C103     1.0000 0.84062  0.26553  0.62508  Biso   1.000  C
  C104     1.0000 0.84328  0.79603  0.68278  Biso   1.000  C
  H119     1.0000 0.83725  0.68941  0.72913  Biso   1.000  H
  H120     1.0000 0.75100  0.74281  0.56013  Biso   1.000  H
  C105     1.0000 0.79223  0.82601  0.58145  Biso   1.000  C
  C106     1.0000 0.74236  0.37110  0.35578  Biso   1.000  C
  C107     1.0000 0.79971  0.29710  0.43070  Biso   1.000  C
  H121     1.0000 0.72123  0.45258  0.43773  Biso   1.000  H
  H122     1.0000 0.73184  0.45288  0.51789  Biso   1.000  H
  H123     1.0000 0.70475  0.38581  0.47401  Biso   1.000  H
  C108     1.0000 0.85921  0.22972  0.50309  Biso   1.000  C
  H124     1.0000 0.83501  0.29630  0.66002  Biso   1.000  H
  H125     1.0000 0.86574  0.27650  0.62749  Biso   1.000  H
  H126     1.0000 0.83783  0.20808  0.63207  Biso   1.000  H
  C109     1.0000 0.82691  0.84697  0.62719  Biso   1.000  C
  H127     1.0000 0.86617  0.81025  0.71464  Biso   1.000  H
  H128     1.0000 0.78076  0.85991  0.54420  Biso   1.000  H
  N16      1.0000 0.75326  0.45295  0.33826  Biso   1.000  N
  H129     1.0000 0.74330  0.33192  0.32109  Biso   1.000  H
  H130     1.0000 0.71696  0.37325  0.35583  Biso   1.000  H
  C110     1.0000 0.81029  0.27791  0.36801  Biso   1.000  C
  N17      1.0000 0.88772  0.29324  0.50875  Biso   1.000  N
  H131     1.0000 0.86673  0.19514  0.54369  Biso   1.000  H
  H132     1.0000 0.85634  0.19545  0.46327  Biso   1.000  H
  C111     1.0000 0.84389  0.92851  0.61768  Biso   1.000  C
  C112     1.0000 0.72794  0.50598  0.30064  Biso   1.000  C
  H133     1.0000 0.80287  0.22292  0.35311  Biso   1.000  H
  H134     1.0000 0.83672  0.28312  0.37936  Biso   1.000  H
  H135     1.0000 0.79799  0.31555  0.33178  Biso   1.000  H
  C113     1.0000 0.92387  0.27509  0.52992  Biso   1.000  C
  N18      1.0000 0.88218  0.92349  0.61470  Biso   1.000  N
  H136     1.0000 0.82792  0.95353  0.57554  Biso   1.000  H
  H137     1.0000 0.84425  0.96444  0.65534  Biso   1.000  H
  O15      1.0000 0.69395  0.49188  0.27809  Biso   1.000  O
  C114     1.0000 0.74232  0.58960  0.28924  Biso   1.000  C
  O16      1.0000 0.93620  0.20434  0.54477  Biso   1.000  O
  C115     1.0000 0.95019  0.34651  0.54030  Biso   1.000  C
  C116     1.0000 0.89455  0.00392  0.59651  Biso   1.000  C
  H138     1.0000 0.89774  0.90730  0.65529  Biso   1.000  H
  H139     1.0000 0.88279  0.88627  0.58356  Biso   1.000  H
  O17      1.0000 0.78021  0.58274  0.29504  Biso   1.000  O
  H140     1.0000 0.72798  0.60990  0.24397  Biso   1.000  H
  H141     1.0000 0.73969  0.62817  0.32310  Biso   1.000  H
  O18      1.0000 0.93131  0.41365  0.49914  Biso   1.000  O
  H142     1.0000 0.95907  0.36227  0.58834  Biso   1.000  H
  H143     1.0000 0.97146  0.33094  0.52740  Biso   1.000  H
  C117     1.0000 0.93419  0.00233  0.59810  Biso   1.000  C
  H144     1.0000 0.89198  0.04518  0.62842  Biso   1.000  H
  H145     1.0000 0.87856  0.01950  0.55083  Biso   1.000  H
  C118     1.0000 0.80108  0.65312  0.30219  Biso   1.000  C
  C119     1.0000 0.94703  0.49077  0.51245  Biso   1.000  C
  N19      1.0000 0.93959  0.95151  0.54266  Biso   1.000  N
  H146     1.0000 0.94982  0.98106  0.64224  Biso   1.000  H
  H147     1.0000 0.94216  0.05794  0.59394  Biso   1.000  H
  C120     1.0000 0.78790  0.73208  0.30378  Biso   1.000  C
  C121     1.0000 0.83775  0.64000  0.30789  Biso   1.000  C
  C122     1.0000 0.92633  0.55282  0.47098  Biso   1.000  C
  C123     1.0000 0.98044  0.50831  0.56260  Biso   1.000  C
  C124     1.0000 0.92759  0.99951  0.47864  Biso   1.000  C
  C125     1.0000 0.97901  0.92962  0.56018  Biso   1.000  C
  C126     1.0000 0.81228  0.79799  0.31308  Biso   1.000  C
  H148     1.0000 0.76304  0.74085  0.29874  Biso   1.000  H
  H149     1.0000 0.84630  0.58715  0.30547  Biso   1.000  H
  C127     1.0000 0.86176  0.70621  0.31719  Biso   1.000  C
  C128     1.0000 0.93890  0.63289  0.48049  Biso   1.000  C
  H150     1.0000 0.90398  0.54043  0.43671  Biso   1.000  H
  H151     1.0000 0.99461  0.46674  0.58988  Biso   1.000  H
  C129     1.0000 0.99265  0.58979  0.57169  Biso   1.000  C
  C130     1.0000 0.92019  0.94740  0.41487  Biso   1.000  C
  H152     1.0000 0.94667  0.03942  0.48013  Biso   1.000  H
  H153     1.0000 0.90511  0.02924  0.47576  Biso   1.000  H
  H154     1.0000 0.99395  0.97848  0.57611  Biso   1.000  H
  H155     1.0000 0.98332  0.91092  0.51897  Biso   1.000  H
  C131     1.0000 0.99211  0.86390  0.61480  Biso   1.000  C
  C132     1.0000 0.84946  0.78579  0.32104  Biso   1.000  C
  H156     1.0000 0.80350  0.85102  0.31395  Biso   1.000  H
  H157     1.0000 0.88645  0.69732  0.32099  Biso   1.000  H
  C133     1.0000 0.97239  0.65201  0.53105  Biso   1.000  C
  H158     1.0000 0.92481  0.67433  0.45289  Biso   1.000  H
  H159     1.0000 0.01500  0.60223  0.60596  Biso   1.000  H
  N20      1.0000 0.88630  0.89504  0.40120  Biso   1.000  N
  H160     1.0000 0.91711  0.98277  0.37566  Biso   1.000  H
  H161     1.0000 0.94154  0.91239  0.42021  Biso   1.000  H
  N21      1.0000 0.97474  0.78217  0.59430  Biso   1.000  N
  H162     1.0000 0.98699  0.88192  0.65550  Biso   1.000  H
  H163     1.0000 0.01883  0.85819  0.62708  Biso   1.000  H
  C134     1.0000 0.87617  0.85648  0.33091  Biso   1.000  C
  C135     1.0000 0.98556  0.73999  0.54158  Biso   1.000  C
  H164     1.0000 0.86741  0.92557  0.40356  Biso   1.000  H
  H165     1.0000 0.89056  0.85599  0.43296  Biso   1.000  H
  H166     1.0000 0.98059  0.75041  0.63145  Biso   1.000  H
  H167     1.0000 0.95015  0.78824  0.57904  Biso   1.000  H
  H168     1.0000 0.86508  0.89786  0.29638  Biso   1.000  H
  H169     1.0000 0.89865  0.83723  0.32387  Biso   1.000  H
  H170     1.0000 0.97543  0.76948  0.49857  Biso   1.000  H
  H171     1.0000 0.01244  0.74097  0.55458  Biso   1.000  H
  C136     1.0000 0.65672  0.29600  0.81720  Biso   1.000  C
  C137     1.0000 0.67306  0.34701  0.87280  Biso   1.000  C
  H172     1.0000 0.63380  0.31022  0.78534  Biso   1.000  H
  C138     1.0000 0.67403  0.22359  0.80805  Biso   1.000  C
  C139     1.0000 0.65611  0.42848  0.88230  Biso   1.000  C
  C140     1.0000 0.70777  0.32598  0.91853  Biso   1.000  C
  H173     1.0000 0.66272  0.18944  0.77085  Biso   1.000  H
  C141     1.0000 0.70808  0.20360  0.85512  Biso   1.000  C
  N22      1.0000 0.61779  0.42346  0.88528  Biso   1.000  N
  H174     1.0000 0.67208  0.45350  0.92444  Biso   1.000  H
  H175     1.0000 0.65575  0.46441  0.84469  Biso   1.000  H
  C142     1.0000 0.72545  0.25547  0.90954  Biso   1.000  C
  H176     1.0000 0.71921  0.35994  0.95578  Biso   1.000  H
  O19      1.0000 0.72842  0.13433  0.85271  Biso   1.000  O
  C143     1.0000 0.60545  0.50389  0.90347  Biso   1.000  C
  H177     1.0000 0.60225  0.40733  0.84469  Biso   1.000  H
  H178     1.0000 0.61720  0.38630  0.91642  Biso   1.000  H
  H179     1.0000 0.74897  0.24284  0.93985  Biso   1.000  H
  C144     1.0000 0.70919  0.06768  0.81052  Biso   1.000  C
  C145     1.0000 0.56581  0.50230  0.90188  Biso   1.000  C
  H180     1.0000 0.60802  0.54515  0.87156  Biso   1.000  H
  H181     1.0000 0.62144  0.51947  0.94920  Biso   1.000  H
  H182     1.0000 0.70813  0.07523  0.76335  Biso   1.000  H
  H183     1.0000 0.68404  0.06315  0.81155  Biso   1.000  H
  C146     1.0000 0.73182  0.99178  0.84166  Biso   1.000  C
  N23      1.0000 0.56040  0.45154  0.95732  Biso   1.000  N
  H184     1.0000 0.55784  0.55791  0.90604  Biso   1.000  H
  H185     1.0000 0.55018  0.48109  0.85779  Biso   1.000  H
  N24      1.0000 0.71220  0.93213  0.85718  Biso   1.000  N
  O20      1.0000 0.76565  0.98872  0.85111  Biso   1.000  O
  C147     1.0000 0.52096  0.42959  0.93980  Biso   1.000  C
  C148     1.0000 0.57240  0.49948  0.02138  Biso   1.000  C
  C149     1.0000 0.72876  0.85427  0.88852  Biso   1.000  C
  C150     1.0000 0.50789  0.36393  0.88518  Biso   1.000  C
  H186     1.0000 0.50606  0.47845  0.92392  Biso   1.000  H
  H187     1.0000 0.51667  0.41089  0.98101  Biso   1.000  H
  H188     1.0000 0.55335  0.53945  0.01989  Biso   1.000  H
  H189     1.0000 0.59489  0.52927  0.02430  Biso   1.000  H
  C151     1.0000 0.57981  0.44743  0.08519  Biso   1.000  C
  C152     1.0000 0.71804  0.83471  0.95136  Biso   1.000  C
  H190     1.0000 0.75563  0.85764  0.90173  Biso   1.000  H
  H191     1.0000 0.72034  0.81043  0.85512  Biso   1.000  H
  N25      1.0000 0.52525  0.28214  0.90568  Biso   1.000  N
  H192     1.0000 0.48116  0.35822  0.87290  Biso   1.000  H
  H193     1.0000 0.51301  0.38189  0.84454  Biso   1.000  H
  N26      1.0000 0.61370  0.39507  0.09881  Biso   1.000  N
  H194     1.0000 0.58288  0.48280  0.12435  Biso   1.000  H
  H195     1.0000 0.55845  0.41242  0.07980  Biso   1.000  H
  C153     1.0000 0.68572  0.79033  0.94473  Biso   1.000  C
  C154     1.0000 0.74087  0.86341  0.01603  Biso   1.000  C
  H196     1.0000 0.51941  0.25038  0.86853  Biso   1.000  H
  H197     1.0000 0.54986  0.28827  0.92100  Biso   1.000  H
  C155     1.0000 0.51443  0.24002  0.95840  Biso   1.000  C
  H198     1.0000 0.63257  0.42554  0.09640  Biso   1.000  H
  H199     1.0000 0.60943  0.35596  0.06706  Biso   1.000  H
  C156     1.0000 0.62384  0.35651  0.16915  Biso   1.000  C
  C157     1.0000 0.67704  0.77181  0.00385  Biso   1.000  C
  C158     1.0000 0.65938  0.76550  0.87496  Biso   1.000  C
  C159     1.0000 0.73229  0.84293  0.07471  Biso   1.000  C
  C160     1.0000 0.77377  0.91883  0.02220  Biso   1.000  C
  H200     1.0000 0.48752  0.24100  0.94540  Biso   1.000  H
  C161     1.0000 0.52761  0.15198  0.96894  Biso   1.000  C
  H201     1.0000 0.52459  0.26945  0.00144  Biso   1.000  H
  H202     1.0000 0.63490  0.39789  0.20358  Biso   1.000  H
  H203     1.0000 0.60134  0.33726  0.17614  Biso   1.000  H
  C162     1.0000 0.65053  0.28582  0.17897  Biso   1.000  C
  C163     1.0000 0.64076  0.72969  0.99689  Biso   1.000  C
  C164     1.0000 0.70030  0.79707  0.06926  Biso   1.000  C
  H204     1.0000 0.66496  0.79627  0.83996  Biso   1.000  H
  H205     1.0000 0.63426  0.77653  0.87254  Biso   1.000  H
  H206     1.0000 0.66217  0.70805  0.86792  Biso   1.000  H
  C165     1.0000 0.75764  0.87113  0.14428  Biso   1.000  C
  H207     1.0000 0.76816  0.95285  0.98209  Biso   1.000  H
  H208     1.0000 0.77876  0.95261  0.06228  Biso   1.000  H
  H209     1.0000 0.79524  0.88584  0.02600  Biso   1.000  H
  C166     1.0000 0.50732  0.08982  0.92829  Biso   1.000  C
  C167     1.0000 0.56109  0.13292  0.01953  Biso   1.000  C
  C168     1.0000 0.68772  0.29802  0.18698  Biso   1.000  C
  C169     1.0000 0.63823  0.20618  0.18277  Biso   1.000  C
  N27      1.0000 0.61227  0.79327  0.99124  Biso   1.000  N
  H210     1.0000 0.63324  0.69518  0.95630  Biso   1.000  H
  H211     1.0000 0.64368  0.69542  0.03674  Biso   1.000  H
  C170     1.0000 0.68971  0.77788  0.13206  Biso   1.000  C
  N28      1.0000 0.74674  0.95292  0.16175  Biso   1.000  N
  H212     1.0000 0.75669  0.83189  0.17892  Biso   1.000  H
  H213     1.0000 0.78303  0.87328  0.14418  Biso   1.000  H
  C171     1.0000 0.51956  0.00828  0.93744  Biso   1.000  C
  H214     1.0000 0.48500  0.10220  0.89407  Biso   1.000  H
  H215     1.0000 0.57520  0.17430  0.04707  Biso   1.000  H
  C172     1.0000 0.57365  0.05279  0.02898  Biso   1.000  C
  H216     1.0000 0.69652  0.35099  0.18606  Biso   1.000  H
  C173     1.0000 0.71210  0.23211  0.19628  Biso   1.000  C
  C174     1.0000 0.66225  0.14003  0.19217  Biso   1.000  C
  H217     1.0000 0.61355  0.19729  0.17902  Biso   1.000  H
  C175     1.0000 0.57613  0.77512  0.97007  Biso   1.000  C
  H218     1.0000 0.69712  0.72289  0.14691  Biso   1.000  H
  H219     1.0000 0.66327  0.78315  0.12065  Biso   1.000  H
  H220     1.0000 0.70201  0.81558  0.16823  Biso   1.000  H
  C176     1.0000 0.77206  0.00601  0.19937  Biso   1.000  C
  C177     1.0000 0.55297  0.99080  0.98754  Biso   1.000  C
  H221     1.0000 0.50538  0.96677  0.91010  Biso   1.000  H
  H222     1.0000 0.59602  0.04040  0.06330  Biso   1.000  H
  H223     1.0000 0.73695  0.24088  0.20127  Biso   1.000  H
  C178     1.0000 0.69891  0.15309  0.19783  Biso   1.000  C
  H224     1.0000 0.65369  0.08712  0.19449  Biso   1.000  H
  C179     1.0000 0.54980  0.84648  0.95969  Biso   1.000  C
  O21      1.0000 0.56379  0.70431  0.95522  Biso   1.000  O
  C180     1.0000 0.75767  0.08957  0.21077  Biso   1.000  C
  O22      1.0000 0.80604  0.99191  0.22192  Biso   1.000  O
  O23      1.0000 0.56868  0.91362  0.00082  Biso   1.000  O
  O24      1.0000 0.71980  0.08277  0.20492  Biso   1.000  O
  H225     1.0000 0.54093  0.86230  0.91164  Biso   1.000  H
  H226     1.0000 0.52851  0.83091  0.97258  Biso   1.000  H
  H227     1.0000 0.77202  0.10993  0.25609  Biso   1.000  H
  H228     1.0000 0.76030  0.12813  0.17686  Biso   1.000  H
  C181     1.0000 0.49212  0.63607  0.11479  Biso   1.000  C
  C182     1.0000 0.47902  0.57041  0.06022  Biso   1.000  C
  N29      1.0000 0.47475  0.71786  0.09429  Biso   1.000  N
  H229     1.0000 0.51885  0.64178  0.12712  Biso   1.000  H
  H230     1.0000 0.48700  0.61811  0.15549  Biso   1.000  H
  N30      1.0000 0.43958  0.54846  0.04270  Biso   1.000  N
  H231     1.0000 0.49393  0.52155  0.07610  Biso   1.000  H
  H232     1.0000 0.48330  0.58911  0.01896  Biso   1.000  H
  H233     1.0000 0.48057  0.74962  0.13144  Biso   1.000  H
  H234     1.0000 0.45013  0.71173  0.07903  Biso   1.000  H
  C183     1.0000 0.48558  0.75998  0.04162  Biso   1.000  C
  C184     1.0000 0.43421  0.49770  0.09814  Biso   1.000  C
  C185     1.0000 0.42757  0.50052  0.97860  Biso   1.000  C
  H235     1.0000 0.51245  0.75900  0.05457  Biso   1.000  H
  C186     1.0000 0.47237  0.84802  0.03104  Biso   1.000  C
  H236     1.0000 0.47542  0.73055  0.99858  Biso   1.000  H
  C187     1.0000 0.39456  0.49611  0.09650  Biso   1.000  C
  H237     1.0000 0.44218  0.44209  0.09398  Biso   1.000  H
  H238     1.0000 0.44980  0.51891  0.14223  Biso   1.000  H
  H239     1.0000 0.44665  0.46055  0.98009  Biso   1.000  H
  H240     1.0000 0.40509  0.47073  0.97572  Biso   1.000  H
  C188     1.0000 0.42018  0.55257  0.91488  Biso   1.000  C
  C189     1.0000 0.49266  0.91018  0.07168  Biso   1.000  C
  C190     1.0000 0.43889  0.86708  0.98045  Biso   1.000  C
  N31      1.0000 0.38219  0.57654  0.11469  Biso   1.000  N
  H241     1.0000 0.39199  0.45485  0.12846  Biso   1.000  H
  H242     1.0000 0.37854  0.48053  0.05082  Biso   1.000  H
  N32      1.0000 0.38628  0.60493  0.90116  Biso   1.000  N
  H243     1.0000 0.41711  0.51720  0.87568  Biso   1.000  H
  H244     1.0000 0.44153  0.58758  0.92017  Biso   1.000  H
  C191     1.0000 0.48042  0.99172  0.06258  Biso   1.000  C
  H245     1.0000 0.51501  0.89780  0.10595  Biso   1.000  H
  H246     1.0000 0.42480  0.82570  0.95290  Biso   1.000  H
  C192     1.0000 0.42632  0.94721  0.97099  Biso   1.000  C
  C193     1.0000 0.34388  0.57152  0.11772  Biso   1.000  C
  H247     1.0000 0.39776  0.59267  0.15533  Biso   1.000  H
  H248     1.0000 0.38280  0.61370  0.08355  Biso   1.000  H
  H249     1.0000 0.36740  0.57446  0.90352  Biso   1.000  H
  H250     1.0000 0.39054  0.64404  0.93292  Biso   1.000  H
  C194     1.0000 0.37616  0.64349  0.83092  Biso   1.000  C
  C195     1.0000 0.44704  0.00920  0.01243  Biso   1.000  C
  H251     1.0000 0.49462  0.03323  0.08987  Biso   1.000  H
  H252     1.0000 0.40397  0.95960  0.93672  Biso   1.000  H
  H253     1.0000 0.32792  0.54650  0.07553  Biso   1.000  H
  H254     1.0000 0.34426  0.53559  0.15533  Biso   1.000  H
  C196     1.0000 0.32692  0.65299  0.12723  Biso   1.000  C
  H255     1.0000 0.36508  0.60211  0.79639  Biso   1.000  H
  H256     1.0000 0.39867  0.66274  0.82388  Biso   1.000  H
  C197     1.0000 0.34944  0.71418  0.82100  Biso   1.000  C
  O25      1.0000 0.43130  0.08638  0.99915  Biso   1.000  O
  C198     1.0000 0.34330  0.70400  0.18282  Biso   1.000  C
  C199     1.0000 0.29222  0.67402  0.08149  Biso   1.000  C
  C200     1.0000 0.31227  0.70198  0.81309  Biso   1.000  C
  C201     1.0000 0.36175  0.79382  0.81720  Biso   1.000  C
  C202     1.0000 0.45018  0.15352  0.04028  Biso   1.000  C
  H257     1.0000 0.36617  0.68978  0.21463  Biso   1.000  H
  C203     1.0000 0.32595  0.77641  0.19192  Biso   1.000  C
  C204     1.0000 0.27454  0.74453  0.09049  Biso   1.000  C
  H258     1.0000 0.28077  0.64006  0.04424  Biso   1.000  H
  H259     1.0000 0.30350  0.64901  0.81396  Biso   1.000  H
  C205     1.0000 0.28789  0.76789  0.80379  Biso   1.000  C
  C206     1.0000 0.33774  0.85997  0.80790  Biso   1.000  C
  H260     1.0000 0.38643  0.80271  0.82095  Biso   1.000  H
  H261     1.0000 0.45906  0.13770  0.08838  Biso   1.000  H
  H262     1.0000 0.47147  0.16909  0.02739  Biso   1.000  H
  C207     1.0000 0.42387  0.22488  0.02991  Biso   1.000  C
  H263     1.0000 0.33726  0.81056  0.22917  Biso   1.000  H
  C208     1.0000 0.29190  0.79640  0.14490  Biso   1.000  C
  H264     1.0000 0.25101  0.75716  0.06012  Biso   1.000  H
  H265     1.0000 0.26302  0.75912  0.79870  Biso   1.000  H
  C209     1.0000 0.30109  0.84691  0.80215  Biso   1.000  C
  H266     1.0000 0.34629  0.91288  0.80549  Biso   1.000  H
  N33      1.0000 0.38773  0.20673  0.00874  Biso   1.000  N
  O26      1.0000 0.43621  0.29569  0.04475  Biso   1.000  O
  O27      1.0000 0.27155  0.86567  0.14726  Biso   1.000  O
  O28      1.0000 0.28021  0.91723  0.79505  Biso   1.000  O
  C210     1.0000 0.35922  0.27031  0.00308  Biso   1.000  C
  C211     1.0000 0.29081  0.93232  0.18945  Biso   1.000  C
  C212     1.0000 0.24231  0.91043  0.78925  Biso   1.000  C
  C213     1.0000 0.32298  0.22819  0.99622  Biso   1.000  C
  H267     1.0000 0.35633  0.30458  0.96328  Biso   1.000  H
  H268     1.0000 0.36674  0.30482  0.04368  Biso   1.000  H
  H269     1.0000 0.29188  0.92477  0.23667  Biso   1.000  H
  H270     1.0000 0.31596  0.93685  0.18842  Biso   1.000  H
  C214     1.0000 0.26820  0.00822  0.15836  Biso   1.000  C
  H271     1.0000 0.22796  0.89007  0.74393  Biso   1.000  H
  H272     1.0000 0.23970  0.87187  0.82311  Biso   1.000  H
  C215     1.0000 0.22796  0.99399  0.80066  Biso   1.000  C
  C216     1.0000 0.31426  0.20967  0.05524  Biso   1.000  C
  C217     1.0000 0.29969  0.20293  0.93066  Biso   1.000  C
  N34      1.0000 0.28777  0.06787  0.14279  Biso   1.000  N
  O29      1.0000 0.23432  0.01128  0.14886  Biso   1.000  O
  N35      1.0000 0.25327  0.04708  0.83827  Biso   1.000  N
  O30      1.0000 0.19395  0.00809  0.77800  Biso   1.000  O
  C218     1.0000 0.28196  0.16529  0.04861  Biso   1.000  C
  C219     1.0000 0.34060  0.23450  0.12507  Biso   1.000  C
  C220     1.0000 0.26770  0.15707  0.92531  Biso   1.000  C
  C221     1.0000 0.31029  0.22212  0.86802  Biso   1.000  C
  C222     1.0000 0.27123  0.14573  0.11150  Biso   1.000  C
  C223     1.0000 0.24235  0.12887  0.85574  Biso   1.000  C
  C224     1.0000 0.25911  0.13659  0.98399  Biso   1.000  C
  H273     1.0000 0.33502  0.20373  0.16001  Biso   1.000  H
  H274     1.0000 0.36572  0.22347  0.12748  Biso   1.000  H
  H275     1.0000 0.33783  0.29195  0.13206  Biso   1.000  H
  H276     1.0000 0.30288  0.27711  0.85307  Biso   1.000  H
  H277     1.0000 0.33674  0.21685  0.87937  Biso   1.000  H
  H278     1.0000 0.29798  0.18442  0.83179  Biso   1.000  H
  H279     1.0000 0.24435  0.14236  0.09824  Biso   1.000  H
  H280     1.0000 0.27966  0.18957  0.14485  Biso   1.000  H
  H281     1.0000 0.24329  0.16811  0.82105  Biso   1.000  H
  H282     1.0000 0.21698  0.12672  0.85584  Biso   1.000  H
  C225     1.0000 0.22620  0.08117  0.97777  Biso   1.000  C
  H283     1.0000 0.22121  0.04739  0.93769  Biso   1.000  H
  H284     1.0000 0.20477  0.11416  0.97402  Biso   1.000  H
  H285     1.0000 0.23184  0.04715  0.01788  Biso   1.000  H
  O31      1.0000 0.26566  0.51125  0.35110  Biso   1.000  O
  C226     1.0000 0.23180  0.50818  0.34165  Biso   1.000  C
  C227     1.0000 0.20918  0.43228  0.31056  Biso   1.000  C
  N36      1.0000 0.21222  0.56784  0.35722  Biso   1.000  N
  O32      1.0000 0.22843  0.36564  0.35270  Biso   1.000  O
  H286     1.0000 0.20811  0.42474  0.26334  Biso   1.000  H
  H287     1.0000 0.18402  0.43688  0.31154  Biso   1.000  H
  C228     1.0000 0.22877  0.64570  0.38851  Biso   1.000  C
  C229     1.0000 0.20809  0.29643  0.35511  Biso   1.000  C
  H288     1.0000 0.25564  0.64239  0.40177  Biso   1.000  H
  H289     1.0000 0.22035  0.68953  0.35511  Biso   1.000  H
  C230     1.0000 0.21806  0.66532  0.45140  Biso   1.000  C
  C231     1.0000 0.17403  0.27638  0.30804  Biso   1.000  C
  C232     1.0000 0.22545  0.24450  0.40953  Biso   1.000  C
  C233     1.0000 0.18572  0.70971  0.44472  Biso   1.000  C
  C234     1.0000 0.24088  0.63663  0.51599  Biso   1.000  C
  C235     1.0000 0.15672  0.20397  0.31719  Biso   1.000  C
  H290     1.0000 0.16273  0.31059  0.27084  Biso   1.000  H
  H291     1.0000 0.24898  0.25719  0.43984  Biso   1.000  H
  C236     1.0000 0.20777  0.17399  0.41852  Biso   1.000  C
  C237     1.0000 0.17702  0.72822  0.50376  Biso   1.000  C
  C238     1.0000 0.15939  0.73447  0.37494  Biso   1.000  C
  C239     1.0000 0.23227  0.65710  0.57467  Biso   1.000  C
  C240     1.0000 0.27377  0.58120  0.52221  Biso   1.000  C
  C241     1.0000 0.17307  0.15303  0.37279  Biso   1.000  C
  H292     1.0000 0.13381  0.18975  0.28533  Biso   1.000  H
  H293     1.0000 0.21922  0.14009  0.45577  Biso   1.000  H
  C242     1.0000 0.14076  0.77028  0.49688  Biso   1.000  C
  C243     1.0000 0.20030  0.70290  0.56928  Biso   1.000  C
  H294     1.0000 0.16498  0.70370  0.34000  Biso   1.000  H
  H295     1.0000 0.13427  0.72350  0.37253  Biso   1.000  H
  H296     1.0000 0.16218  0.79192  0.36796  Biso   1.000  H
  C244     1.0000 0.25765  0.62890  0.64424  Biso   1.000  C
  H297     1.0000 0.27876  0.54742  0.56229  Biso   1.000  H
  H298     1.0000 0.26817  0.54712  0.48208  Biso   1.000  H
  H299     1.0000 0.29523  0.61419  0.52601  Biso   1.000  H
  C245     1.0000 0.15611  0.07149  0.38229  Biso   1.000  C
  N37      1.0000 0.11228  0.70676  0.49122  Biso   1.000  N
  H300     1.0000 0.13324  0.80486  0.45628  Biso   1.000  H
  H301     1.0000 0.14367  0.80455  0.53675  Biso   1.000  H
  C246     1.0000 0.18969  0.72209  0.63202  Biso   1.000  C
  N38      1.0000 0.24672  0.54705  0.66171  Biso   1.000  N
  H302     1.0000 0.25671  0.66808  0.67893  Biso   1.000  H
  H303     1.0000 0.28303  0.62675  0.64419  Biso   1.000  H
  N39      1.0000 0.11781  0.07651  0.38532  Biso   1.000  N
  H304     1.0000 0.17210  0.04647  0.42448  Biso   1.000  H
  H305     1.0000 0.15576  0.03556  0.34468  Biso   1.000  H
  C247     1.0000 0.07611  0.72491  0.47005  Biso   1.000  C
  H306     1.0000 0.19710  0.77708  0.64687  Biso   1.000  H
  H307     1.0000 0.16327  0.71688  0.62066  Biso   1.000  H
  H308     1.0000 0.20199  0.68445  0.66819  Biso   1.000  H
  C248     1.0000 0.27204  0.49402  0.69933  Biso   1.000  C
  H309     1.0000 0.10223  0.09270  0.34468  Biso   1.000  H
  H310     1.0000 0.11719  0.11373  0.41646  Biso   1.000  H
  C249     1.0000 0.10544  0.99608  0.40351  Biso   1.000  C
  O33      1.0000 0.06381  0.79566  0.45526  Biso   1.000  O
  C250     1.0000 0.04981  0.65349  0.45968  Biso   1.000  C
  O34      1.0000 0.30604  0.50812  0.72194  Biso   1.000  O
  C251     1.0000 0.25766  0.41040  0.71079  Biso   1.000  C
  C252     1.0000 0.06579  0.99767  0.40187  Biso   1.000  C
  H311     1.0000 0.10803  0.95482  0.37155  Biso   1.000  H
  H312     1.0000 0.12145  0.98050  0.44919  Biso   1.000  H
  O35      1.0000 0.06867  0.58635  0.50083  Biso   1.000  O
  H313     1.0000 0.04094  0.63773  0.41163  Biso   1.000  H
  H314     1.0000 0.02852  0.66906  0.47262  Biso   1.000  H
  O36      1.0000 0.21979  0.41726  0.70493  Biso   1.000  O
  H315     1.0000 0.27203  0.39010  0.75605  Biso   1.000  H
  H316     1.0000 0.26029  0.37183  0.67687  Biso   1.000  H
  N40      1.0000 0.06041  0.04849  0.45731  Biso   1.000  N
  H317     1.0000 0.05019  0.01894  0.35778  Biso   1.000  H
  H318     1.0000 0.05782  0.94206  0.40603  Biso   1.000  H
  C253     1.0000 0.05297  0.50923  0.48753  Biso   1.000  C
  C254     1.0000 0.19891  0.34688  0.69784  Biso   1.000  C
  C255     1.0000 0.07241  0.00049  0.52134  Biso   1.000  C
  C256     1.0000 0.02097  0.07038  0.43979  Biso   1.000  C
  C257     1.0000 0.07365  0.44718  0.52899  Biso   1.000  C
  C258     1.0000 0.01957  0.49169  0.43743  Biso   1.000  C
  C259     1.0000 0.21210  0.26792  0.69619  Biso   1.000  C
  C260     1.0000 0.16223  0.36000  0.69208  Biso   1.000  C
  C261     1.0000 0.07981  0.05260  0.58510  Biso   1.000  C
  H319     1.0000 0.05333  0.96058  0.51985  Biso   1.000  H
  H320     1.0000 0.09488  0.97076  0.52426  Biso   1.000  H
  H321     1.0000 0.00606  0.02152  0.42391  Biso   1.000  H
  H322     1.0000 0.01669  0.08908  0.48105  Biso   1.000  H
  C262     1.0000 0.00790  0.13610  0.38522  Biso   1.000  C
  C263     1.0000 0.06107  0.36711  0.51949  Biso   1.000  C
  H323     1.0000 0.09600  0.45957  0.56326  Biso   1.000  H
  C264     1.0000 0.00733  0.41021  0.42828  Biso   1.000  C
  H324     1.0000 0.00539  0.53326  0.41009  Biso   1.000  H
  C265     1.0000 0.18771  0.20201  0.68694  Biso   1.000  C
  H325     1.0000 0.23694  0.25915  0.70128  Biso   1.000  H
  C266     1.0000 0.13822  0.29379  0.68278  Biso   1.000  C
  H326     1.0000 0.15368  0.41285  0.69450  Biso   1.000  H
  N41      1.0000 0.11372  0.10496  0.59882  Biso   1.000  N
  H327     1.0000 0.08287  0.01723  0.62436  Biso   1.000  H
  H328     1.0000 0.05844  0.08761  0.57981  Biso   1.000  H
  N42      1.0000 0.02527  0.21783  0.40572  Biso   1.000  N
  H329     1.0000 0.01302  0.11808  0.34453  Biso   1.000  H
  H330     1.0000 0.98114  0.14181  0.37289  Biso   1.000  H
  C267     1.0000 0.02763  0.34799  0.46898  Biso   1.000  C
  H331     1.0000 0.07520  0.32567  0.54708  Biso   1.000  H
  H332     1.0000 0.98501  0.39777  0.39406  Biso   1.000  H
  C268     1.0000 0.15053  0.21421  0.67898  Biso   1.000  C
  H333     1.0000 0.19651  0.14898  0.68607  Biso   1.000  H
  H334     1.0000 0.11357  0.30268  0.67903  Biso   1.000  H
  H335     1.0000 0.13256  0.07443  0.59641  Biso   1.000  H
  H336     1.0000 0.10942  0.14401  0.56702  Biso   1.000  H
  C269     1.0000 0.12385  0.14352  0.66911  Biso   1.000  C
  H337     1.0000 0.01942  0.24959  0.36852  Biso   1.000  H
  H338     1.0000 0.04986  0.21176  0.42098  Biso   1.000  H
  C270     1.0000 0.01441  0.26001  0.45839  Biso   1.000  C
  H339     1.0000 0.13492  0.10214  0.70359  Biso   1.000  H
  H340     1.0000 0.10132  0.16277  0.67610  Biso   1.000  H
  H341     1.0000 0.02458  0.23052  0.50145  Biso   1.000  H
  H342     1.0000 0.98753  0.25903  0.44539  Biso   1.000  H
  O37      1.0000 0.73434  0.51125  0.14886  Biso   1.000  O
  C271     1.0000 0.76818  0.50818  0.15836  Biso   1.000  C
  N43      1.0000 0.78779  0.56784  0.14279  Biso   1.000  N
  C272     1.0000 0.79080  0.43228  0.18945  Biso   1.000  C
  C273     1.0000 0.77121  0.64570  0.11150  Biso   1.000  C
  O38      1.0000 0.77157  0.36564  0.14726  Biso   1.000  O
  H343     1.0000 0.79187  0.42474  0.23667  Biso   1.000  H
  H344     1.0000 0.81595  0.43688  0.18842  Biso   1.000  H
  H345     1.0000 0.74436  0.64239  0.09824  Biso   1.000  H
  H346     1.0000 0.77964  0.68953  0.14485  Biso   1.000  H
  C274     1.0000 0.78194  0.66532  0.04861  Biso   1.000  C
  C275     1.0000 0.79189  0.29643  0.14490  Biso   1.000  C
  C276     1.0000 0.81427  0.70971  0.05524  Biso   1.000  C
  C277     1.0000 0.75912  0.63663  0.98399  Biso   1.000  C
  C278     1.0000 0.82596  0.27638  0.19192  Biso   1.000  C
  C279     1.0000 0.77455  0.24450  0.09049  Biso   1.000  C
  C280     1.0000 0.84061  0.73447  0.12507  Biso   1.000  C
  C281     1.0000 0.82297  0.72822  0.99622  Biso   1.000  C
  C282     1.0000 0.76771  0.65710  0.92531  Biso   1.000  C
  C283     1.0000 0.72621  0.58120  0.97777  Biso   1.000  C
  C284     1.0000 0.84328  0.20397  0.18282  Biso   1.000  C
  H347     1.0000 0.83725  0.31059  0.22917  Biso   1.000  H
  H348     1.0000 0.75102  0.25719  0.06012  Biso   1.000  H
  C285     1.0000 0.79223  0.17399  0.08149  Biso   1.000  C
  H349     1.0000 0.83503  0.70370  0.16001  Biso   1.000  H
  H350     1.0000 0.86573  0.72350  0.12748  Biso   1.000  H
  H351     1.0000 0.83782  0.79192  0.13206  Biso   1.000  H
  C286     1.0000 0.85923  0.77028  0.00308  Biso   1.000  C
  C287     1.0000 0.79968  0.70290  0.93066  Biso   1.000  C
  C288     1.0000 0.74236  0.62890  0.85574  Biso   1.000  C
  H352     1.0000 0.73183  0.54712  0.01788  Biso   1.000  H
  H353     1.0000 0.72123  0.54742  0.93769  Biso   1.000  H
  H354     1.0000 0.70476  0.61419  0.97402  Biso   1.000  H
  C289     1.0000 0.82691  0.15303  0.12723  Biso   1.000  C
  H355     1.0000 0.86619  0.18975  0.21463  Biso   1.000  H
  H356     1.0000 0.78079  0.14009  0.04424  Biso   1.000  H
  N44      1.0000 0.88772  0.70676  0.00874  Biso   1.000  N
  H357     1.0000 0.86673  0.80486  0.04368  Biso   1.000  H
  H358     1.0000 0.85632  0.80455  0.96328  Biso   1.000  H
  C290     1.0000 0.81030  0.72209  0.86802  Biso   1.000  C
  N45      1.0000 0.75326  0.54705  0.83827  Biso   1.000  N
  H359     1.0000 0.74330  0.66808  0.82105  Biso   1.000  H
  H360     1.0000 0.71696  0.62675  0.85584  Biso   1.000  H
  C291     1.0000 0.84389  0.07149  0.11772  Biso   1.000  C
  C292     1.0000 0.92386  0.72491  0.02991  Biso   1.000  C
  H361     1.0000 0.80287  0.77708  0.85307  Biso   1.000  H
  H362     1.0000 0.83673  0.71688  0.87937  Biso   1.000  H
  H363     1.0000 0.79799  0.68445  0.83179  Biso   1.000  H
  C293     1.0000 0.72794  0.49402  0.80066  Biso   1.000  C
  N46      1.0000 0.88220  0.07651  0.11469  Biso   1.000  N
  H364     1.0000 0.82791  0.04647  0.07553  Biso   1.000  H
  H365     1.0000 0.84424  0.03556  0.15533  Biso   1.000  H
  O39      1.0000 0.93620  0.79566  0.04475  Biso   1.000  O
  C294     1.0000 0.95019  0.65349  0.04028  Biso   1.000  C
  O40      1.0000 0.69394  0.50812  0.77800  Biso   1.000  O
  C295     1.0000 0.74233  0.41040  0.78925  Biso   1.000  C
  H366     1.0000 0.89775  0.09270  0.15533  Biso   1.000  H
  H367     1.0000 0.88279  0.11373  0.08355  Biso   1.000  H
  C296     1.0000 0.89454  0.99608  0.09650  Biso   1.000  C
  H368     1.0000 0.95907  0.63773  0.08838  Biso   1.000  H
  H369     1.0000 0.97148  0.66906  0.02739  Biso   1.000  H
  O41      1.0000 0.93131  0.58635  0.99915  Biso   1.000  O
  O42      1.0000 0.78019  0.41726  0.79505  Biso   1.000  O
  H370     1.0000 0.72795  0.39010  0.74393  Biso   1.000  H
  H371     1.0000 0.73969  0.37183  0.82311  Biso   1.000  H
  C297     1.0000 0.93419  0.99767  0.09814  Biso   1.000  C
  H372     1.0000 0.89198  0.95482  0.12846  Biso   1.000  H
  H373     1.0000 0.87855  0.98050  0.05082  Biso   1.000  H
  C298     1.0000 0.94702  0.50923  0.01243  Biso   1.000  C
  C299     1.0000 0.80108  0.34688  0.80215  Biso   1.000  C
  N47      1.0000 0.93960  0.04849  0.04270  Biso   1.000  N
  H374     1.0000 0.94981  0.01894  0.14223  Biso   1.000  H
  H375     1.0000 0.94216  0.94206  0.09398  Biso   1.000  H
  C300     1.0000 0.98043  0.49169  0.06258  Biso   1.000  C
  C301     1.0000 0.92634  0.44718  0.97099  Biso   1.000  C
  C302     1.0000 0.78788  0.26792  0.80379  Biso   1.000  C
  C303     1.0000 0.83775  0.36000  0.80790  Biso   1.000  C
  C304     1.0000 0.97904  0.07038  0.06022  Biso   1.000  C
  C305     1.0000 0.92756  0.00049  0.97860  Biso   1.000  C
  H376     1.0000 0.99461  0.53326  0.08987  Biso   1.000  H
  C306     1.0000 0.99267  0.41021  0.07168  Biso   1.000  C
  C307     1.0000 0.93890  0.36711  0.98045  Biso   1.000  C
  H377     1.0000 0.90398  0.45957  0.93672  Biso   1.000  H
  C308     1.0000 0.81228  0.20201  0.81309  Biso   1.000  C
  H378     1.0000 0.76304  0.25915  0.79870  Biso   1.000  H
  H379     1.0000 0.84630  0.41285  0.80549  Biso   1.000  H
  C309     1.0000 0.86176  0.29379  0.81720  Biso   1.000  C
  H380     1.0000 0.99394  0.02152  0.07610  Biso   1.000  H
  H381     1.0000 0.98332  0.08908  0.01896  Biso   1.000  H
  C310     1.0000 0.99210  0.13610  0.11479  Biso   1.000  C
  H382     1.0000 0.94664  0.96058  0.98009  Biso   1.000  H
  H383     1.0000 0.90508  0.97076  0.97572  Biso   1.000  H
  C311     1.0000 0.92019  0.05260  0.91488  Biso   1.000  C
  C312     1.0000 0.97238  0.34799  0.03104  Biso   1.000  C
  H384     1.0000 0.01500  0.39777  0.10595  Biso   1.000  H
  H385     1.0000 0.92479  0.32567  0.95290  Biso   1.000  H
  C313     1.0000 0.84946  0.21421  0.82100  Biso   1.000  C
  H386     1.0000 0.80348  0.14898  0.81396  Biso   1.000  H
  H387     1.0000 0.88642  0.30268  0.82095  Biso   1.000  H
  N48      1.0000 0.97473  0.21783  0.09429  Biso   1.000  N
  H388     1.0000 0.98699  0.11808  0.15549  Biso   1.000  H
  H389     1.0000 0.01884  0.14181  0.12712  Biso   1.000  H
  N49      1.0000 0.88627  0.10496  0.90116  Biso   1.000  N
  H390     1.0000 0.91712  0.01723  0.87568  Biso   1.000  H
  H391     1.0000 0.94154  0.08761  0.92017  Biso   1.000  H
  C314     1.0000 0.98557  0.26001  0.04162  Biso   1.000  C
  C315     1.0000 0.87615  0.14352  0.83092  Biso   1.000  C
  H392     1.0000 0.98058  0.24959  0.13144  Biso   1.000  H
  H393     1.0000 0.95014  0.21176  0.07903  Biso   1.000  H
  H394     1.0000 0.86741  0.07443  0.90352  Biso   1.000  H
  H395     1.0000 0.89056  0.14401  0.93292  Biso   1.000  H
  H396     1.0000 0.97541  0.23052  0.99858  Biso   1.000  H
  H397     1.0000 0.01246  0.25903  0.05457  Biso   1.000  H
  H398     1.0000 0.86509  0.10214  0.79639  Biso   1.000  H
  H399     1.0000 0.89866  0.16277  0.82388  Biso   1.000  H
  O43      1.0000 0.26567  0.48875  0.85111  Biso   1.000  O
  C316     1.0000 0.23180  0.49182  0.84166  Biso   1.000  C
  N50      1.0000 0.21222  0.43216  0.85718  Biso   1.000  N
  C317     1.0000 0.20918  0.56772  0.81052  Biso   1.000  C
  C318     1.0000 0.22877  0.35430  0.88852  Biso   1.000  C
  O44      1.0000 0.22841  0.63436  0.85271  Biso   1.000  O
  H400     1.0000 0.20812  0.57526  0.76335  Biso   1.000  H
  H401     1.0000 0.18403  0.56312  0.81155  Biso   1.000  H
  H402     1.0000 0.25561  0.35761  0.90173  Biso   1.000  H
  H403     1.0000 0.22033  0.31047  0.85512  Biso   1.000  H
  C319     1.0000 0.21803  0.33468  0.95136  Biso   1.000  C
  C320     1.0000 0.20810  0.70357  0.85512  Biso   1.000  C
  C321     1.0000 0.18573  0.29029  0.94473  Biso   1.000  C
  C322     1.0000 0.24089  0.36337  0.01603  Biso   1.000  C
  C323     1.0000 0.17404  0.72362  0.80805  Biso   1.000  C
  C324     1.0000 0.22546  0.75550  0.90954  Biso   1.000  C
  C325     1.0000 0.15940  0.26553  0.87496  Biso   1.000  C
  C326     1.0000 0.17703  0.27178  0.00385  Biso   1.000  C
  C327     1.0000 0.23230  0.34290  0.07471  Biso   1.000  C
  C328     1.0000 0.27379  0.41880  0.02220  Biso   1.000  C
  C329     1.0000 0.15670  0.79603  0.81720  Biso   1.000  C
  H404     1.0000 0.16273  0.68941  0.77085  Biso   1.000  H
  H405     1.0000 0.24898  0.74281  0.93985  Biso   1.000  H
  C330     1.0000 0.20775  0.82601  0.91853  Biso   1.000  C
  H406     1.0000 0.16497  0.29630  0.83996  Biso   1.000  H
  H407     1.0000 0.13425  0.27650  0.87254  Biso   1.000  H
  H408     1.0000 0.16216  0.20808  0.86792  Biso   1.000  H
  C331     1.0000 0.14077  0.22972  0.99689  Biso   1.000  C
  C332     1.0000 0.20029  0.29710  0.06926  Biso   1.000  C
  C333     1.0000 0.25765  0.37110  0.14428  Biso   1.000  C
  H409     1.0000 0.26815  0.45288  0.98209  Biso   1.000  H
  H410     1.0000 0.27878  0.45258  0.06228  Biso   1.000  H
  H411     1.0000 0.29523  0.38581  0.02600  Biso   1.000  H
  C334     1.0000 0.17308  0.84697  0.87280  Biso   1.000  C
  H412     1.0000 0.13382  0.81025  0.78534  Biso   1.000  H
  H413     1.0000 0.21923  0.85991  0.95578  Biso   1.000  H
  N51      1.0000 0.11226  0.29324  0.99124  Biso   1.000  N
  H414     1.0000 0.13325  0.19514  0.95630  Biso   1.000  H
  H415     1.0000 0.14367  0.19545  0.03674  Biso   1.000  H
  C335     1.0000 0.18970  0.27791  0.13206  Biso   1.000  C
  N52      1.0000 0.24672  0.45295  0.16175  Biso   1.000  N
  H416     1.0000 0.25670  0.33192  0.17892  Biso   1.000  H
  H417     1.0000 0.28302  0.37325  0.14418  Biso   1.000  H
  C336     1.0000 0.15609  0.92851  0.88230  Biso   1.000  C
  C337     1.0000 0.07612  0.27509  0.97007  Biso   1.000  C
  H418     1.0000 0.19711  0.22292  0.14691  Biso   1.000  H
  H419     1.0000 0.16326  0.28312  0.12065  Biso   1.000  H
  H420     1.0000 0.20202  0.31555  0.16823  Biso   1.000  H
  C338     1.0000 0.27204  0.50598  0.19937  Biso   1.000  C
  N53      1.0000 0.11780  0.92349  0.88528  Biso   1.000  N
  H421     1.0000 0.17207  0.95353  0.92444  Biso   1.000  H
  H422     1.0000 0.15574  0.96444  0.84469  Biso   1.000  H
  O45      1.0000 0.06378  0.20434  0.95522  Biso   1.000  O
  C339     1.0000 0.04981  0.34651  0.95969  Biso   1.000  C
  O46      1.0000 0.30603  0.49188  0.22192  Biso   1.000  O
  C340     1.0000 0.25768  0.58960  0.21077  Biso   1.000  C
  H423     1.0000 0.10224  0.90730  0.84469  Biso   1.000  H
  H424     1.0000 0.11719  0.88627  0.91642  Biso   1.000  H
  C341     1.0000 0.10543  0.00392  0.90347  Biso   1.000  C
  H425     1.0000 0.04094  0.36227  0.91164  Biso   1.000  H
  H426     1.0000 0.02852  0.33094  0.97258  Biso   1.000  H
  O47      1.0000 0.06866  0.41365  0.00082  Biso   1.000  O
  O48      1.0000 0.21978  0.58274  0.20492  Biso   1.000  O
  H427     1.0000 0.27204  0.60990  0.25609  Biso   1.000  H
  H428     1.0000 0.26028  0.62817  0.17686  Biso   1.000  H
  C342     1.0000 0.06579  0.00233  0.90188  Biso   1.000  C
  H429     1.0000 0.10800  0.04518  0.87156  Biso   1.000  H
  H430     1.0000 0.12143  0.01950  0.94920  Biso   1.000  H
  C343     1.0000 0.05295  0.49077  0.98754  Biso   1.000  C
  C344     1.0000 0.19890  0.65312  0.19783  Biso   1.000  C
  N54      1.0000 0.06039  0.95151  0.95732  Biso   1.000  N
  H431     1.0000 0.05017  0.98106  0.85779  Biso   1.000  H
  H432     1.0000 0.05782  0.05794  0.90604  Biso   1.000  H
  C345     1.0000 0.01958  0.50831  0.93744  Biso   1.000  C
  C346     1.0000 0.07367  0.55282  0.02898  Biso   1.000  C
  C347     1.0000 0.21211  0.73208  0.19628  Biso   1.000  C
  C348     1.0000 0.16227  0.64000  0.19217  Biso   1.000  C
  C349     1.0000 0.02098  0.92962  0.93980  Biso   1.000  C
  C350     1.0000 0.07242  0.99951  0.02138  Biso   1.000  C
  H433     1.0000 0.00537  0.46674  0.91010  Biso   1.000  H
  C351     1.0000 0.00733  0.58979  0.92829  Biso   1.000  C
  C352     1.0000 0.06110  0.63289  0.01953  Biso   1.000  C
  H434     1.0000 0.09603  0.54043  0.06330  Biso   1.000  H
  C353     1.0000 0.18774  0.79799  0.18698  Biso   1.000  C
  H435     1.0000 0.23696  0.74085  0.20127  Biso   1.000  H
  H436     1.0000 0.15370  0.58715  0.19449  Biso   1.000  H
  C354     1.0000 0.13821  0.70621  0.18277  Biso   1.000  C
  H437     1.0000 0.00604  0.97848  0.92392  Biso   1.000  H
  H438     1.0000 0.01666  0.91092  0.98101  Biso   1.000  H
  C355     1.0000 0.00787  0.86390  0.88518  Biso   1.000  C
  C356     1.0000 0.07983  0.94740  0.08519  Biso   1.000  C
  H439     1.0000 0.05334  0.03942  0.01989  Biso   1.000  H
  H440     1.0000 0.09491  0.02924  0.02430  Biso   1.000  H
  C357     1.0000 0.02760  0.65201  0.96894  Biso   1.000  C
  H441     1.0000 0.98499  0.60223  0.89407  Biso   1.000  H
  H442     1.0000 0.07519  0.67433  0.04707  Biso   1.000  H
  C358     1.0000 0.15055  0.78579  0.17897  Biso   1.000  C
  H443     1.0000 0.19650  0.85102  0.18606  Biso   1.000  H
  H444     1.0000 0.11356  0.69732  0.17902  Biso   1.000  H
  N55      1.0000 0.02524  0.78217  0.90568  Biso   1.000  N
  H445     1.0000 0.01300  0.88192  0.84454  Biso   1.000  H
  H446     1.0000 0.98115  0.85819  0.87290  Biso   1.000  H
  N56      1.0000 0.11371  0.89504  0.09881  Biso   1.000  N
  H447     1.0000 0.08289  0.98277  0.12435  Biso   1.000  H
  H448     1.0000 0.05846  0.91239  0.07980  Biso   1.000  H
  C359     1.0000 0.01442  0.73999  0.95840  Biso   1.000  C
  C360     1.0000 0.12385  0.85648  0.16915  Biso   1.000  C
  H449     1.0000 0.01939  0.75041  0.86853  Biso   1.000  H
  H450     1.0000 0.04984  0.78824  0.92100  Biso   1.000  H
  H451     1.0000 0.13258  0.92557  0.09640  Biso   1.000  H
  H452     1.0000 0.10942  0.85599  0.06706  Biso   1.000  H
  H453     1.0000 0.98754  0.74097  0.94540  Biso   1.000  H
  H454     1.0000 0.02458  0.76948  0.00144  Biso   1.000  H
  H455     1.0000 0.13491  0.89786  0.20358  Biso   1.000  H
  H456     1.0000 0.10133  0.83723  0.17614  Biso   1.000  H
  Ne1      1.0000 0.64995  0.89774  0.49919  Biso   1.000  Ne
  He1      1.0000 0.65599  0.04171  0.62335  Biso   1.000  He
  He2      1.0000 0.73564  0.89284  0.53270  Biso   1.000  He
  He3      1.0000 0.61299  0.93199  0.37374  Biso   1.000  He
  Ar1      1.0000 0.66674  0.88585  0.49391  Biso   1.000  Ar
  Ne2      1.0000 0.35004  0.10226  0.50080  Biso   1.000  Ne
  He4      1.0000 0.36773  0.01475  0.59297  Biso   1.000  He
  He5      1.0000 0.23753  0.12332  0.45713  Biso   1.000  He
  He6      1.0000 0.33905  0.96606  0.39318  Biso   1.000  He
  Ar2      1.0000 0.32478  0.07131  0.50305  Biso   1.000  Ar
  Ne3      1.0000 0.64995  0.10226  0.99920  Biso   1.000  Ne
  He7      1.0000 0.66121  0.96695  0.09184  Biso   1.000  He
  He8      1.0000 0.73477  0.10664  0.03241  Biso   1.000  He
  He9      1.0000 0.65405  0.04725  0.94678  Biso   1.000  He
  Ar3      1.0000 0.66674  0.11415  0.99392  Biso   1.000  Ar
  Ne4      1.0000 0.35004  0.89774  0.00080  Biso   1.000  Ne
  He10     1.0000 0.35848  0.97186  0.07576  Biso   1.000  He
  He11     1.0000 0.24936  0.88390  0.96188  Biso   1.000  He
  He12     1.0000 0.34853  0.04905  0.86890  Biso   1.000  He
  Ar4      1.0000 0.32515  0.92944  0.00420  Biso   1.000  Ar
  Ne5      1.0000 0.85004  0.60226  0.50080  Biso   1.000  Ne
  He13     1.0000 0.86987  0.51111  0.59820  Biso   1.000  He
  He14     1.0000 0.74174  0.62071  0.45888  Biso   1.000  He
  He15     1.0000 0.84440  0.45766  0.37594  Biso   1.000  He
  Ar5      1.0000 0.83242  0.61337  0.50449  Biso   1.000  Ar
  Ne6      1.0000 0.14995  0.39774  0.49919  Biso   1.000  Ne
  He16     1.0000 0.15598  0.54168  0.62334  Biso   1.000  He
  He17     1.0000 0.23563  0.39285  0.53269  Biso   1.000  He
  He18     1.0000 0.11295  0.43191  0.37369  Biso   1.000  He
  Ar6      1.0000 0.16752  0.38630  0.49548  Biso   1.000  Ar
  Ne7      1.0000 0.85004  0.39774  0.00080  Biso   1.000  Ne
  He19     1.0000 0.86846  0.48640  0.09472  Biso   1.000  He
  He20     1.0000 0.74937  0.38391  0.96190  Biso   1.000  He
  He21     1.0000 0.84854  0.54902  0.86890  Biso   1.000  He
  Ar7      1.0000 0.82482  0.42888  0.00306  Biso   1.000  Ar
  Ne8      1.0000 0.14995  0.60226  0.99920  Biso   1.000  Ne
  He22     1.0000 0.16121  0.46696  0.09185  Biso   1.000  He
  He23     1.0000 0.23478  0.60663  0.03240  Biso   1.000  He
  He24     1.0000 0.15407  0.54722  0.94682  Biso   1.000  He
  Ar8      1.0000 0.16753  0.61372  0.99549  Biso   1.000  Ar
