data_image0
_cell_length_a       13.701
_cell_length_b       13.701
_cell_length_c       84.866
_cell_angle_alpha    90
_cell_angle_beta     90
_cell_angle_gamma    120

_symmetry_space_group_name_H-M    "P 1"
_symmetry_int_tables_number       1

loop_
  _symmetry_equiv_pos_as_xyz
  'x, y, z'

loop_
  _atom_site_label
  _atom_site_occupancy
  _atom_site_fract_x
  _atom_site_fract_y
  _atom_site_fract_z
  _atom_site_thermal_displace_type
  _atom_site_B_iso_or_equiv
  _atom_site_type_symbol
  C1       1.0000 0.57672  0.45072  0.47701  Biso   1.000  C
  C2       1.0000 0.52141  0.48578  0.46432  Biso   1.000  C
  H1       1.0000 0.59938  0.50348  0.48590  Biso   1.000  H
  H2       1.0000 0.64314  0.45131  0.47260  Biso   1.000  H
  H3       1.0000 0.52283  0.37462  0.48070  Biso   1.000  H
  C3       1.0000 0.45208  0.39982  0.45220  Biso   1.000  C
  N1       1.0000 0.53095  0.58135  0.46334  Biso   1.000  N
  C4       1.0000 0.44200  0.43833  0.43690  Biso   1.000  C
  C5       1.0000 0.40140  0.28503  0.45407  Biso   1.000  C
  C6       1.0000 0.60207  0.67339  0.47381  Biso   1.000  C
  C7       1.0000 0.37888  0.36450  0.42554  Biso   1.000  C
  H4       1.0000 0.48018  0.51688  0.43470  Biso   1.000  H
  C8       1.0000 0.33450  0.20859  0.44286  Biso   1.000  C
  H5       1.0000 0.41350  0.25697  0.46370  Biso   1.000  H
  H6       1.0000 0.62972  0.64431  0.48250  Biso   1.000  H
  C9       1.0000 0.53731  0.72589  0.48076  Biso   1.000  C
  C10      1.0000 0.70126  0.75994  0.46456  Biso   1.000  C
  C11      1.0000 0.38211  0.40993  0.40897  Biso   1.000  C
  C12      1.0000 0.32802  0.25300  0.42811  Biso   1.000  C
  C13      1.0000 0.28427  0.08639  0.44570  Biso   1.000  C
  H7       1.0000 0.50156  0.74519  0.47210  Biso   1.000  H
  H8       1.0000 0.47620  0.66951  0.48750  Biso   1.000  H
  C14      1.0000 0.60791  0.82913  0.49024  Biso   1.000  C
  N2       1.0000 0.76944  0.71165  0.45972  Biso   1.000  N
  C15      1.0000 0.77888  0.86512  0.47505  Biso   1.000  C
  H9       1.0000 0.67461  0.78371  0.45511  Biso   1.000  H
  N3       1.0000 0.29609  0.35439  0.40067  Biso   1.000  N
  C16      1.0000 0.48579  0.51511  0.40474  Biso   1.000  C
  H10      1.0000 0.28659  0.20269  0.41980  Biso   1.000  H
  N4       1.0000 0.28838  0.05782  0.45972  Biso   1.000  N
  C17      1.0000 0.25698  0.01298  0.43110  Biso   1.000  C
  C18      1.0000 0.19400  0.99803  0.43350  Biso   1.000  C
  H11      1.0000 0.63745  0.80924  0.49960  Biso   1.000  H
  H12      1.0000 0.56110  0.86091  0.49390  Biso   1.000  H
  C19      1.0000 0.70428  0.91560  0.48073  Biso   1.000  C
  C20      1.0000 0.80212  0.71569  0.44570  Biso   1.000  C
  H13      1.0000 0.80764  0.84220  0.48420  Biso   1.000  H
  H14      1.0000 0.84398  0.92159  0.46890  Biso   1.000  H
  C21      1.0000 0.28448  0.39889  0.38553  Biso   1.000  C
  H15      1.0000 0.54800  0.52421  0.41150  Biso   1.000  H
  H16      1.0000 0.47389  0.57933  0.40630  Biso   1.000  H
  H17      1.0000 0.50443  0.51182  0.39370  Biso   1.000  H
  C22      1.0000 0.24016  0.94131  0.46456  Biso   1.000  C
  H18      1.0000 0.21811  0.02486  0.42270  Biso   1.000  H
  H19      1.0000 0.30714  0.05680  0.42250  Biso   1.000  H
  H20      1.0000 0.18941  0.92462  0.43490  Biso   1.000  H
  H21      1.0000 0.17833  0.98581  0.42800  Biso   1.000  H
  H22      1.0000 0.26642  0.94813  0.43340  Biso   1.000  H
  H23      1.0000 0.12028  0.99044  0.43550  Biso   1.000  H
  H24      1.0000 0.75022  0.98370  0.48720  Biso   1.000  H
  H25      1.0000 0.67543  0.93760  0.47150  Biso   1.000  H
  C23      1.0000 0.87412  0.66555  0.44286  Biso   1.000  C
  C24      1.0000 0.80401  0.80604  0.43350  Biso   1.000  C
  C25      1.0000 0.75600  0.74300  0.43110  Biso   1.000  C
  C26      1.0000 0.29619  0.33357  0.37213  Biso   1.000  C
  C27      1.0000 0.16754  0.38954  0.38482  Biso   1.000  C
  H26      1.0000 0.34431  0.47988  0.38459  Biso   1.000  H
  C28      1.0000 0.32665  0.92875  0.47381  Biso   1.000  C
  C29      1.0000 0.13490  0.91383  0.47505  Biso   1.000  C
  H27      1.0000 0.21635  0.89091  0.45511  Biso   1.000  H
  C30      1.0000 0.92503  0.67204  0.42811  Biso   1.000  C
  C31      1.0000 0.88365  0.59863  0.45407  Biso   1.000  C
  H28      1.0000 0.73536  0.81076  0.43490  Biso   1.000  H
  H29      1.0000 0.80685  0.78194  0.42270  Biso   1.000  H
  H30      1.0000 0.87011  0.87970  0.43550  Biso   1.000  H
  H31      1.0000 0.80754  0.82172  0.42800  Biso   1.000  H
  H32      1.0000 0.68176  0.73364  0.43340  Biso   1.000  H
  H33      1.0000 0.74972  0.69294  0.42250  Biso   1.000  H
  C32      1.0000 0.27982  0.37732  0.35591  Biso   1.000  C
  N5       1.0000 0.41180  0.35153  0.37246  Biso   1.000  N
  H34      1.0000 0.24016  0.25157  0.37329  Biso   1.000  H
  C33      1.0000 0.15262  0.43530  0.36924  Biso   1.000  C
  H35      1.0000 0.10803  0.30964  0.38600  Biso   1.000  H
  H36      1.0000 0.15988  0.43260  0.39360  Biso   1.000  H
  N6       1.0000 0.41870  0.94965  0.46334  Biso   1.000  N
  H37      1.0000 0.35570  0.98538  0.48250  Biso   1.000  H
  C34      1.0000 0.27412  0.81143  0.48076  Biso   1.000  C
  C35      1.0000 0.08429  0.78868  0.48073  Biso   1.000  C
  H38      1.0000 0.15777  0.96541  0.48420  Biso   1.000  H
  H39      1.0000 0.07840  0.92243  0.46890  Biso   1.000  H
  C36      1.0000 0.98563  0.62113  0.42554  Biso   1.000  C
  H40      1.0000 0.91616  0.71342  0.41980  Biso   1.000  H
  C37      1.0000 0.94769  0.54789  0.45220  Biso   1.000  C
  H41      1.0000 0.84350  0.58649  0.46370  Biso   1.000  H
  C38      1.0000 0.16509  0.36872  0.35521  Biso   1.000  C
  H42      1.0000 0.33948  0.45679  0.35441  Biso   1.000  H
  H43      1.0000 0.28621  0.33214  0.34730  Biso   1.000  H
  C39      1.0000 0.43227  0.27348  0.37596  Biso   1.000  C
  H44      1.0000 0.21004  0.51612  0.36830  Biso   1.000  H
  H45      1.0000 0.07720  0.42839  0.36890  Biso   1.000  H
  C40      1.0000 0.51417  0.03557  0.46432  Biso   1.000  C
  H46      1.0000 0.25485  0.75640  0.47210  Biso   1.000  H
  H47      1.0000 0.33052  0.80671  0.48750  Biso   1.000  H
  C41      1.0000 0.17096  0.77882  0.49024  Biso   1.000  C
  H48      1.0000 0.01628  0.76651  0.48720  Biso   1.000  H
  H49      1.0000 0.06234  0.73777  0.47150  Biso   1.000  H
  C42      1.0000 0.02782  0.61793  0.40897  Biso   1.000  C
  C43      1.0000 0.99632  0.55801  0.43690  Biso   1.000  C
  C44      1.0000 0.96444  0.47862  0.46432  Biso   1.000  C
  H50      1.0000 0.10509  0.28857  0.35580  Biso   1.000  H
  H51      1.0000 0.15690  0.40007  0.34510  Biso   1.000  H
  C45      1.0000 0.55462  0.30332  0.37576  Biso   1.000  C
  C46      1.0000 0.34492  0.15339  0.38104  Biso   1.000  C
  C47      1.0000 0.60021  0.05234  0.45220  Biso   1.000  C
  C48      1.0000 0.54931  0.12600  0.47701  Biso   1.000  C
  H52      1.0000 0.19083  0.82821  0.49960  Biso   1.000  H
  H53      1.0000 0.13909  0.70019  0.49390  Biso   1.000  H
  N7       1.0000 0.05832  0.70389  0.40067  Biso   1.000  N
  C49      1.0000 0.02930  0.51418  0.40474  Biso   1.000  C
  H54      1.0000 0.03672  0.51983  0.43470  Biso   1.000  H
  C50      1.0000 0.87403  0.42333  0.47701  Biso   1.000  C
  N8       1.0000 0.05040  0.46909  0.46334  Biso   1.000  N
  C51      1.0000 0.63743  0.41608  0.37572  Biso   1.000  C
  C52      1.0000 0.58391  0.22132  0.37572  Biso   1.000  C
  H55      1.0000 0.28513  0.15541  0.38710  Biso   1.000  H
  H56      1.0000 0.38151  0.12204  0.38760  Biso   1.000  H
  H57      1.0000 0.31242  0.10619  0.37170  Biso   1.000  H
  C53      1.0000 0.56174  0.00371  0.43690  Biso   1.000  C
  C54      1.0000 0.71501  0.11639  0.45407  Biso   1.000  C
  H58      1.0000 0.49653  0.09591  0.48590  Biso   1.000  H
  H59      1.0000 0.54872  0.19182  0.47260  Biso   1.000  H
  H60      1.0000 0.62543  0.14816  0.48070  Biso   1.000  H
  C55      1.0000 0.11442  0.71552  0.38553  Biso   1.000  C
  H61      1.0000 0.97623  0.45199  0.41150  Biso   1.000  H
  H62      1.0000 0.10542  0.52615  0.40630  Biso   1.000  H
  H63      1.0000 0.00740  0.49564  0.39370  Biso   1.000  H
  H64      1.0000 0.90411  0.40058  0.48590  Biso   1.000  H
  H65      1.0000 0.80819  0.35692  0.47260  Biso   1.000  H
  H66      1.0000 0.85183  0.47719  0.48070  Biso   1.000  H
  C56      1.0000 0.07128  0.39788  0.47381  Biso   1.000  C
  H67      1.0000 0.61693  0.47289  0.37570  Biso   1.000  H
  C57      1.0000 0.74873  0.44541  0.37576  Biso   1.000  C
  H68      1.0000 0.52709  0.14403  0.37570  Biso   1.000  H
  C58      1.0000 0.69671  0.25132  0.37576  Biso   1.000  C
  C59      1.0000 0.63555  0.01441  0.42554  Biso   1.000  C
  H69      1.0000 0.48304  0.96330  0.43470  Biso   1.000  H
  C60      1.0000 0.79144  0.12591  0.44286  Biso   1.000  C
  H70      1.0000 0.74302  0.15651  0.46370  Biso   1.000  H
  C61      1.0000 0.03740  0.70381  0.37213  Biso   1.000  C
  H71      1.0000 0.13559  0.65569  0.38459  Biso   1.000  H
  C62      1.0000 0.22203  0.83250  0.38482  Biso   1.000  C
  C63      1.0000 0.05866  0.29877  0.46456  Biso   1.000  C
  H72      1.0000 0.01459  0.37032  0.48250  Biso   1.000  H
  C64      1.0000 0.18857  0.46269  0.48076  Biso   1.000  C
  C65      1.0000 0.77868  0.36257  0.37572  Biso   1.000  C
  C66      1.0000 0.84118  0.56770  0.37596  Biso   1.000  C
  C67      1.0000 0.72650  0.15878  0.37596  Biso   1.000  C
  C68      1.0000 0.59013  0.97224  0.40897  Biso   1.000  C
  C69      1.0000 0.74701  0.07501  0.42811  Biso   1.000  C
  C70      1.0000 0.91363  0.19789  0.44570  Biso   1.000  C
  N9       1.0000 0.93974  0.58818  0.37246  Biso   1.000  N
  C71      1.0000 0.09751  0.72024  0.35591  Biso   1.000  C
  H73      1.0000 0.01141  0.75986  0.37329  Biso   1.000  H
  H74      1.0000 0.20157  0.89200  0.38600  Biso   1.000  H
  H75      1.0000 0.27268  0.84009  0.39360  Biso   1.000  H
  C72      1.0000 0.28270  0.84742  0.36924  Biso   1.000  C
  N10      1.0000 0.94224  0.23059  0.45972  Biso   1.000  N
  C73      1.0000 0.08620  0.22115  0.47505  Biso   1.000  C
  H76      1.0000 0.10913  0.32540  0.45511  Biso   1.000  H
  H77      1.0000 0.24359  0.49842  0.47210  Biso   1.000  H
  H78      1.0000 0.19329  0.52379  0.48750  Biso   1.000  H
  C74      1.0000 0.22125  0.39215  0.49024  Biso   1.000  C
  H79      1.0000 0.85604  0.38313  0.37570  Biso   1.000  H
  C75      1.0000 0.80854  0.65510  0.38104  Biso   1.000  C
  N11      1.0000 0.64852  0.06034  0.37246  Biso   1.000  N
  C76      1.0000 0.84663  0.19148  0.38104  Biso   1.000  C
  N12      1.0000 0.64567  0.94173  0.40067  Biso   1.000  N
  C77      1.0000 0.48500  0.97072  0.40474  Biso   1.000  C
  H80      1.0000 0.79732  0.08394  0.41980  Biso   1.000  H
  C78      1.0000 0.98704  0.24399  0.43110  Biso   1.000  C
  C79      1.0000 0.00204  0.19603  0.43350  Biso   1.000  C
  C80      1.0000 0.20362  0.83495  0.35521  Biso   1.000  C
  H81      1.0000 0.11727  0.66049  0.35441  Biso   1.000  H
  H82      1.0000 0.04592  0.71384  0.34730  Biso   1.000  H
  H83      1.0000 0.30611  0.79003  0.36830  Biso   1.000  H
  H84      1.0000 0.35121  0.92285  0.36890  Biso   1.000  H
  C81      1.0000 0.21129  0.29573  0.48073  Biso   1.000  C
  H85      1.0000 0.03460  0.19241  0.48420  Biso   1.000  H
  H86      1.0000 0.07763  0.15600  0.46890  Biso   1.000  H
  H87      1.0000 0.17179  0.36257  0.49960  Biso   1.000  H
  H88      1.0000 0.29982  0.43892  0.49390  Biso   1.000  H
  H89      1.0000 0.87035  0.71494  0.38710  Biso   1.000  H
  H90      1.0000 0.74054  0.61852  0.38760  Biso   1.000  H
  H91      1.0000 0.79385  0.68763  0.37170  Biso   1.000  H
  C82      1.0000 0.66641  0.96263  0.37213  Biso   1.000  C
  H92      1.0000 0.84465  0.12970  0.38710  Biso   1.000  H
  H93      1.0000 0.87801  0.25949  0.38760  Biso   1.000  H
  H94      1.0000 0.89386  0.20623  0.37170  Biso   1.000  H
  C83      1.0000 0.60111  0.88560  0.38553  Biso   1.000  C
  H95      1.0000 0.47579  0.02377  0.41150  Biso   1.000  H
  H96      1.0000 0.42074  0.89462  0.40630  Biso   1.000  H
  H97      1.0000 0.48821  0.99263  0.39370  Biso   1.000  H
  H98      1.0000 0.97513  0.19317  0.42270  Biso   1.000  H
  H99      1.0000 0.94320  0.25031  0.42250  Biso   1.000  H
  H100     1.0000 0.07543  0.26472  0.43490  Biso   1.000  H
  H101     1.0000 0.01421  0.19249  0.42800  Biso   1.000  H
  H102     1.0000 0.05194  0.31832  0.43340  Biso   1.000  H
  H103     1.0000 0.00961  0.12987  0.43550  Biso   1.000  H
  H104     1.0000 0.18355  0.89495  0.35580  Biso   1.000  H
  H105     1.0000 0.24318  0.84312  0.34510  Biso   1.000  H
  H106     1.0000 0.23351  0.24980  0.48720  Biso   1.000  H
  H107     1.0000 0.26224  0.32464  0.47150  Biso   1.000  H
  C84      1.0000 0.62279  0.90254  0.35591  Biso   1.000  C
  H108     1.0000 0.74844  0.98859  0.37329  Biso   1.000  H
  H109     1.0000 0.52010  0.86445  0.38459  Biso   1.000  H
  C85      1.0000 0.61058  0.77798  0.38482  Biso   1.000  C
  C86      1.0000 0.63126  0.79643  0.35521  Biso   1.000  C
  H110     1.0000 0.54318  0.88273  0.35441  Biso   1.000  H
  H111     1.0000 0.66792  0.95412  0.34730  Biso   1.000  H
  H112     1.0000 0.69045  0.79846  0.38600  Biso   1.000  H
  H113     1.0000 0.56752  0.72732  0.39360  Biso   1.000  H
  C87      1.0000 0.56469  0.71729  0.36924  Biso   1.000  C
  H114     1.0000 0.71143  0.81649  0.35580  Biso   1.000  H
  H115     1.0000 0.59993  0.75682  0.34510  Biso   1.000  H
  H116     1.0000 0.48390  0.69395  0.36830  Biso   1.000  H
  H117     1.0000 0.57167  0.64878  0.36890  Biso   1.000  H
  C88      1.0000 0.45068  0.57672  0.52299  Biso   1.000  C
  C89      1.0000 0.48581  0.52143  0.53568  Biso   1.000  C
  H118     1.0000 0.50348  0.59939  0.51410  Biso   1.000  H
  H119     1.0000 0.45134  0.64313  0.52740  Biso   1.000  H
  H120     1.0000 0.37459  0.52278  0.51930  Biso   1.000  H
  N13      1.0000 0.58132  0.53087  0.53666  Biso   1.000  N
  C90      1.0000 0.39982  0.45207  0.54780  Biso   1.000  C
  C91      1.0000 0.67342  0.60209  0.52619  Biso   1.000  C
  C92      1.0000 0.43830  0.44204  0.56310  Biso   1.000  C
  C93      1.0000 0.28501  0.40142  0.54593  Biso   1.000  C
  C94      1.0000 0.72590  0.53728  0.51924  Biso   1.000  C
  H121     1.0000 0.64433  0.62973  0.51750  Biso   1.000  H
  C95      1.0000 0.75991  0.70120  0.53544  Biso   1.000  C
  C96      1.0000 0.36448  0.37892  0.57446  Biso   1.000  C
  H122     1.0000 0.51695  0.48022  0.56530  Biso   1.000  H
  C97      1.0000 0.20863  0.33450  0.55714  Biso   1.000  C
  H123     1.0000 0.25695  0.41347  0.53630  Biso   1.000  H
  C98      1.0000 0.82909  0.60790  0.50976  Biso   1.000  C
  H124     1.0000 0.74523  0.50163  0.52790  Biso   1.000  H
  H125     1.0000 0.66952  0.47617  0.51250  Biso   1.000  H
  C99      1.0000 0.86511  0.77890  0.52495  Biso   1.000  C
  N14      1.0000 0.71160  0.76938  0.54028  Biso   1.000  N
  H126     1.0000 0.78372  0.67465  0.54489  Biso   1.000  H
  C100     1.0000 0.25298  0.32801  0.57189  Biso   1.000  C
  C101     1.0000 0.40995  0.38212  0.59103  Biso   1.000  C
  C102     1.0000 0.08637  0.28427  0.55430  Biso   1.000  C
  H127     1.0000 0.80917  0.63740  0.50040  Biso   1.000  H
  H128     1.0000 0.86096  0.56113  0.50610  Biso   1.000  H
  C103     1.0000 0.91562  0.70432  0.51927  Biso   1.000  C
  H129     1.0000 0.84226  0.80764  0.51580  Biso   1.000  H
  H130     1.0000 0.92162  0.84405  0.53110  Biso   1.000  H
  C104     1.0000 0.71569  0.80208  0.55430  Biso   1.000  C
  H131     1.0000 0.20273  0.28663  0.58020  Biso   1.000  H
  N15      1.0000 0.35437  0.29607  0.59933  Biso   1.000  N
  C105     1.0000 0.51506  0.48578  0.59526  Biso   1.000  C
  N16      1.0000 0.05778  0.28840  0.54028  Biso   1.000  N
  C106     1.0000 0.01294  0.25697  0.56890  Biso   1.000  C
  C107     1.0000 0.99803  0.19401  0.56650  Biso   1.000  C
  H132     1.0000 0.98377  0.75025  0.51280  Biso   1.000  H
  H133     1.0000 0.93759  0.67541  0.52850  Biso   1.000  H
  C108     1.0000 0.66552  0.87414  0.55714  Biso   1.000  C
  C109     1.0000 0.80599  0.80402  0.56650  Biso   1.000  C
  C110     1.0000 0.74300  0.75598  0.56890  Biso   1.000  C
  C111     1.0000 0.39889  0.28452  0.61447  Biso   1.000  C
  H134     1.0000 0.52419  0.54798  0.58850  Biso   1.000  H
  H135     1.0000 0.57933  0.47390  0.59370  Biso   1.000  H
  H136     1.0000 0.51182  0.50441  0.60630  Biso   1.000  H
  C112     1.0000 0.94131  0.24011  0.53544  Biso   1.000  C
  H137     1.0000 0.02490  0.21811  0.57730  Biso   1.000  H
  H138     1.0000 0.05677  0.30711  0.57750  Biso   1.000  H
  H139     1.0000 0.92458  0.18929  0.56510  Biso   1.000  H
  H140     1.0000 0.98582  0.17833  0.57200  Biso   1.000  H
  H141     1.0000 0.94811  0.26640  0.56660  Biso   1.000  H
  H142     1.0000 0.99043  0.12027  0.56450  Biso   1.000  H
  C113     1.0000 0.67199  0.92504  0.57189  Biso   1.000  C
  C114     1.0000 0.59861  0.88366  0.54593  Biso   1.000  C
  H143     1.0000 0.81070  0.73533  0.56510  Biso   1.000  H
  H144     1.0000 0.78191  0.80680  0.57730  Biso   1.000  H
  H145     1.0000 0.87968  0.87009  0.56450  Biso   1.000  H
  H146     1.0000 0.82170  0.80756  0.57200  Biso   1.000  H
  H147     1.0000 0.73361  0.68173  0.56660  Biso   1.000  H
  H148     1.0000 0.69295  0.74974  0.57750  Biso   1.000  H
  H149     1.0000 0.47993  0.34428  0.61541  Biso   1.000  H
  C115     1.0000 0.38952  0.16755  0.61518  Biso   1.000  C
  C116     1.0000 0.33365  0.29624  0.62787  Biso   1.000  C
  C117     1.0000 0.92871  0.32658  0.52619  Biso   1.000  C
  C118     1.0000 0.91383  0.13493  0.52495  Biso   1.000  C
  H150     1.0000 0.89096  0.21634  0.54489  Biso   1.000  H
  H151     1.0000 0.71344  0.91611  0.58020  Biso   1.000  H
  C119     1.0000 0.62113  0.98564  0.57446  Biso   1.000  C
  C120     1.0000 0.54794  0.94771  0.54780  Biso   1.000  C
  H152     1.0000 0.58650  0.84354  0.53630  Biso   1.000  H
  H153     1.0000 0.30958  0.10796  0.61400  Biso   1.000  H
  H154     1.0000 0.43261  0.15988  0.60640  Biso   1.000  H
  C121     1.0000 0.43534  0.15263  0.63076  Biso   1.000  C
  N17      1.0000 0.35150  0.41179  0.62754  Biso   1.000  N
  C122     1.0000 0.37733  0.27980  0.64409  Biso   1.000  C
  H155     1.0000 0.25162  0.24019  0.62671  Biso   1.000  H
  N18      1.0000 0.94959  0.41870  0.53666  Biso   1.000  N
  H156     1.0000 0.98540  0.35574  0.51750  Biso   1.000  H
  C123     1.0000 0.81137  0.27407  0.51924  Biso   1.000  C
  C124     1.0000 0.78870  0.08436  0.51927  Biso   1.000  C
  H157     1.0000 0.96539  0.15777  0.51580  Biso   1.000  H
  H158     1.0000 0.92241  0.07838  0.53110  Biso   1.000  H
  C125     1.0000 0.55802  0.99634  0.56310  Biso   1.000  C
  C126     1.0000 0.61795  0.02781  0.59103  Biso   1.000  C
  C127     1.0000 0.47862  0.96440  0.53568  Biso   1.000  C
  H159     1.0000 0.51615  0.21002  0.63170  Biso   1.000  H
  H160     1.0000 0.42843  0.07720  0.63110  Biso   1.000  H
  C128     1.0000 0.36873  0.16510  0.64479  Biso   1.000  C
  C129     1.0000 0.27354  0.43235  0.62404  Biso   1.000  C
  H161     1.0000 0.45680  0.33947  0.64559  Biso   1.000  H
  H162     1.0000 0.33214  0.28621  0.65270  Biso   1.000  H
  C130     1.0000 0.03558  0.51418  0.53568  Biso   1.000  C
  H163     1.0000 0.75639  0.25477  0.52790  Biso   1.000  H
  H164     1.0000 0.80676  0.33054  0.51250  Biso   1.000  H
  C131     1.0000 0.77884  0.17092  0.50976  Biso   1.000  C
  H165     1.0000 0.76647  0.01627  0.51280  Biso   1.000  H
  H166     1.0000 0.73777  0.06237  0.52850  Biso   1.000  H
  H167     1.0000 0.51990  0.03666  0.56530  Biso   1.000  H
  N19      1.0000 0.70386  0.05832  0.59933  Biso   1.000  N
  C132     1.0000 0.51426  0.02933  0.59526  Biso   1.000  C
  C133     1.0000 0.42330  0.87405  0.52299  Biso   1.000  C
  N20      1.0000 0.46918  0.05040  0.53666  Biso   1.000  N
  H168     1.0000 0.28859  0.10510  0.64420  Biso   1.000  H
  H169     1.0000 0.40012  0.15693  0.65490  Biso   1.000  H
  C134     1.0000 0.30330  0.55464  0.62424  Biso   1.000  C
  C135     1.0000 0.15338  0.34487  0.61896  Biso   1.000  C
  C136     1.0000 0.05232  0.60023  0.54780  Biso   1.000  C
  C137     1.0000 0.12599  0.54933  0.52299  Biso   1.000  C
  H170     1.0000 0.82820  0.19081  0.50040  Biso   1.000  H
  H171     1.0000 0.70026  0.13914  0.50610  Biso   1.000  H
  C138     1.0000 0.71560  0.11437  0.61447  Biso   1.000  C
  H172     1.0000 0.45197  0.97620  0.58850  Biso   1.000  H
  H173     1.0000 0.52611  0.10543  0.59370  Biso   1.000  H
  H174     1.0000 0.49564  0.00742  0.60630  Biso   1.000  H
  H175     1.0000 0.40061  0.90414  0.51410  Biso   1.000  H
  H176     1.0000 0.35689  0.80823  0.52740  Biso   1.000  H
  H177     1.0000 0.47721  0.85180  0.51930  Biso   1.000  H
  C139     1.0000 0.39796  0.07130  0.52619  Biso   1.000  C
  C140     1.0000 0.22129  0.58388  0.62428  Biso   1.000  C
  C141     1.0000 0.41614  0.63740  0.62428  Biso   1.000  C
  H178     1.0000 0.15540  0.28511  0.61290  Biso   1.000  H
  H179     1.0000 0.12201  0.38153  0.61240  Biso   1.000  H
  H180     1.0000 0.10621  0.31242  0.62830  Biso   1.000  H
  C142     1.0000 0.00373  0.56172  0.56310  Biso   1.000  C
  C143     1.0000 0.11643  0.71502  0.54593  Biso   1.000  C
  H181     1.0000 0.09592  0.49648  0.51410  Biso   1.000  H
  H182     1.0000 0.19182  0.54874  0.52740  Biso   1.000  H
  H183     1.0000 0.14820  0.62543  0.51930  Biso   1.000  H
  H184     1.0000 0.65564  0.13560  0.61541  Biso   1.000  H
  C144     1.0000 0.83248  0.22199  0.61518  Biso   1.000  C
  C145     1.0000 0.70392  0.03742  0.62787  Biso   1.000  C
  H185     1.0000 0.37033  0.01458  0.51750  Biso   1.000  H
  C146     1.0000 0.46282  0.18862  0.51924  Biso   1.000  C
  C147     1.0000 0.29884  0.05874  0.53544  Biso   1.000  C
  H186     1.0000 0.14399  0.52708  0.62430  Biso   1.000  H
  C148     1.0000 0.25129  0.69673  0.62424  Biso   1.000  C
  C149     1.0000 0.44538  0.74873  0.62424  Biso   1.000  C
  H187     1.0000 0.47290  0.61692  0.62430  Biso   1.000  H
  C150     1.0000 0.01444  0.63554  0.57446  Biso   1.000  C
  H188     1.0000 0.96331  0.48308  0.56530  Biso   1.000  H
  C151     1.0000 0.12585  0.79138  0.55714  Biso   1.000  C
  H189     1.0000 0.15648  0.74300  0.53630  Biso   1.000  H
  H190     1.0000 0.89205  0.20159  0.61400  Biso   1.000  H
  H191     1.0000 0.84018  0.27273  0.60640  Biso   1.000  H
  C152     1.0000 0.84741  0.28267  0.63076  Biso   1.000  C
  N21      1.0000 0.58824  0.93971  0.62754  Biso   1.000  N
  C153     1.0000 0.72024  0.09751  0.64409  Biso   1.000  C
  H192     1.0000 0.75979  0.01138  0.62671  Biso   1.000  H
  H193     1.0000 0.49847  0.24357  0.52790  Biso   1.000  H
  H194     1.0000 0.52386  0.19334  0.51250  Biso   1.000  H
  C154     1.0000 0.39205  0.22123  0.50976  Biso   1.000  C
  N22      1.0000 0.23062  0.94223  0.54028  Biso   1.000  N
  C155     1.0000 0.22112  0.08622  0.52495  Biso   1.000  C
  H195     1.0000 0.32550  0.10914  0.54489  Biso   1.000  H
  C156     1.0000 0.36258  0.77873  0.62428  Biso   1.000  C
  C157     1.0000 0.15880  0.72648  0.62404  Biso   1.000  C
  C158     1.0000 0.56766  0.84118  0.62404  Biso   1.000  C
  C159     1.0000 0.07500  0.74705  0.57189  Biso   1.000  C
  C160     1.0000 0.97224  0.59012  0.59103  Biso   1.000  C
  C161     1.0000 0.19790  0.91358  0.55430  Biso   1.000  C
  H196     1.0000 0.79008  0.30610  0.63170  Biso   1.000  H
  H197     1.0000 0.92291  0.35119  0.63110  Biso   1.000  H
  C162     1.0000 0.83489  0.20362  0.64479  Biso   1.000  C
  H198     1.0000 0.66051  0.11732  0.64559  Biso   1.000  H
  H199     1.0000 0.71379  0.04593  0.65270  Biso   1.000  H
  H200     1.0000 0.36269  0.17184  0.50040  Biso   1.000  H
  H201     1.0000 0.43899  0.29978  0.50610  Biso   1.000  H
  C163     1.0000 0.29570  0.21129  0.51927  Biso   1.000  C
  H202     1.0000 0.19234  0.03464  0.51580  Biso   1.000  H
  H203     1.0000 0.15596  0.07762  0.53110  Biso   1.000  H
  H204     1.0000 0.38312  0.85602  0.62430  Biso   1.000  H
  N23      1.0000 0.06034  0.64852  0.62754  Biso   1.000  N
  C164     1.0000 0.19148  0.84658  0.61896  Biso   1.000  C
  C165     1.0000 0.65510  0.80848  0.61896  Biso   1.000  C
  H205     1.0000 0.08396  0.79736  0.58020  Biso   1.000  H
  N24      1.0000 0.94172  0.64557  0.59933  Biso   1.000  N
  C166     1.0000 0.97074  0.48494  0.59526  Biso   1.000  C
  C167     1.0000 0.24402  0.98699  0.56890  Biso   1.000  C
  C168     1.0000 0.19603  0.00202  0.56650  Biso   1.000  C
  H206     1.0000 0.89496  0.18347  0.64420  Biso   1.000  H
  H207     1.0000 0.84309  0.24323  0.65490  Biso   1.000  H
  H208     1.0000 0.24982  0.23354  0.51280  Biso   1.000  H
  H209     1.0000 0.32458  0.26219  0.52850  Biso   1.000  H
  C169     1.0000 0.96264  0.66639  0.62787  Biso   1.000  C
  H210     1.0000 0.12971  0.84464  0.61290  Biso   1.000  H
  H211     1.0000 0.25953  0.87801  0.61240  Biso   1.000  H
  H212     1.0000 0.20622  0.89386  0.62830  Biso   1.000  H
  H213     1.0000 0.71493  0.87034  0.61290  Biso   1.000  H
  H214     1.0000 0.61851  0.74056  0.61240  Biso   1.000  H
  H215     1.0000 0.68762  0.79382  0.62830  Biso   1.000  H
  C170     1.0000 0.88560  0.60107  0.61447  Biso   1.000  C
  H216     1.0000 0.02385  0.47584  0.58850  Biso   1.000  H
  H217     1.0000 0.89462  0.42072  0.59370  Biso   1.000  H
  H218     1.0000 0.99260  0.48823  0.60630  Biso   1.000  H
  H219     1.0000 0.19319  0.97510  0.57730  Biso   1.000  H
  H220     1.0000 0.25033  0.94325  0.57750  Biso   1.000  H
  H221     1.0000 0.26471  0.07543  0.56510  Biso   1.000  H
  H222     1.0000 0.19239  0.01416  0.57200  Biso   1.000  H
  H223     1.0000 0.31827  0.05192  0.56660  Biso   1.000  H
  H224     1.0000 0.12990  0.00961  0.56450  Biso   1.000  H
  C171     1.0000 0.90256  0.62273  0.64409  Biso   1.000  C
  H225     1.0000 0.98860  0.74839  0.62671  Biso   1.000  H
  H226     1.0000 0.86438  0.52008  0.61541  Biso   1.000  H
  C172     1.0000 0.77800  0.61051  0.61518  Biso   1.000  C
  C173     1.0000 0.79643  0.63133  0.64479  Biso   1.000  C
  H227     1.0000 0.88271  0.54318  0.64559  Biso   1.000  H
  H228     1.0000 0.95413  0.66791  0.65270  Biso   1.000  H
  H229     1.0000 0.79838  0.69041  0.61400  Biso   1.000  H
  H230     1.0000 0.72734  0.56745  0.60640  Biso   1.000  H
  C174     1.0000 0.71731  0.56475  0.63076  Biso   1.000  C
  H231     1.0000 0.81654  0.71140  0.64420  Biso   1.000  H
  H232     1.0000 0.75678  0.59989  0.65490  Biso   1.000  H
  H233     1.0000 0.69390  0.48393  0.63170  Biso   1.000  H
  H234     1.0000 0.64883  0.57158  0.63110  Biso   1.000  H
  C175     1.0000 0.28935  0.23581  0.68924  Biso   1.000  C
  C176     1.0000 0.29797  0.12970  0.68854  Biso   1.000  C
  H235     1.0000 0.20982  0.21601  0.68773  Biso   1.000  H
  H236     1.0000 0.33460  0.28747  0.68064  Biso   1.000  H
  C177     1.0000 0.33305  0.29590  0.70547  Biso   1.000  C
  C178     1.0000 0.23137  0.05065  0.70258  Biso   1.000  C
  H237     1.0000 0.37811  0.14985  0.68913  Biso   1.000  H
  H238     1.0000 0.26656  0.09009  0.67843  Biso   1.000  H
  C179     1.0000 0.26779  0.21896  0.71885  Biso   1.000  C
  N25      1.0000 0.31522  0.39367  0.70580  Biso   1.000  N
  H239     1.0000 0.41511  0.32194  0.70663  Biso   1.000  H
  C180     1.0000 0.27718  0.11133  0.71816  Biso   1.000  C
  H240     1.0000 0.15054  0.02722  0.70164  Biso   1.000  H
  H241     1.0000 0.23819  0.98218  0.70224  Biso   1.000  H
  N26      1.0000 0.31223  0.27500  0.73400  Biso   1.000  N
  H242     1.0000 0.18674  0.19772  0.71793  Biso   1.000  H
  C181     1.0000 0.39312  0.49210  0.70929  Biso   1.000  C
  H243     1.0000 0.35708  0.13173  0.71933  Biso   1.000  H
  H244     1.0000 0.23408  0.06060  0.72693  Biso   1.000  H
  C182     1.0000 0.25676  0.30551  0.74230  Biso   1.000  C
  C183     1.0000 0.36334  0.58464  0.70909  Biso   1.000  C
  C184     1.0000 0.51330  0.52489  0.71437  Biso   1.000  C
  C185     1.0000 0.30218  0.34773  0.75888  Biso   1.000  C
  C186     1.0000 0.15160  0.30408  0.73807  Biso   1.000  C
  C187     1.0000 0.44542  0.69597  0.70906  Biso   1.000  C
  C188     1.0000 0.25053  0.55464  0.70906  Biso   1.000  C
  H245     1.0000 0.51127  0.46303  0.72043  Biso   1.000  H
  H246     1.0000 0.54464  0.59282  0.72094  Biso   1.000  H
  H247     1.0000 0.56048  0.53955  0.70503  Biso   1.000  H
  C189     1.0000 0.41364  0.40833  0.76145  Biso   1.000  C
  C190     1.0000 0.22836  0.33703  0.77024  Biso   1.000  C
  H248     1.0000 0.14246  0.35717  0.74483  Biso   1.000  H
  H249     1.0000 0.08742  0.22797  0.73964  Biso   1.000  H
  H250     1.0000 0.15485  0.32591  0.72703  Biso   1.000  H
  H251     1.0000 0.52267  0.71645  0.70904  Biso   1.000  H
  C191     1.0000 0.41535  0.77873  0.70909  Biso   1.000  C
  H252     1.0000 0.19379  0.47735  0.70904  Biso   1.000  H
  C192     1.0000 0.22125  0.63664  0.70909  Biso   1.000  C
  C193     1.0000 0.45807  0.45923  0.77619  Biso   1.000  C
  H253     1.0000 0.46401  0.41726  0.75313  Biso   1.000  H
  H254     1.0000 0.14979  0.29666  0.76803  Biso   1.000  H
  C194     1.0000 0.26691  0.38566  0.78552  Biso   1.000  C
  C195     1.0000 0.30409  0.74949  0.70906  Biso   1.000  C
  C196     1.0000 0.50788  0.90102  0.70929  Biso   1.000  C
  C197     1.0000 0.09897  0.60681  0.70929  Biso   1.000  C
  C198     1.0000 0.38163  0.44971  0.78741  Biso   1.000  C
  C199     1.0000 0.58025  0.53121  0.77903  Biso   1.000  C
  C200     1.0000 0.18091  0.36897  0.79766  Biso   1.000  C
  H255     1.0000 0.28359  0.80629  0.70904  Biso   1.000  H
  N27      1.0000 0.60640  0.92159  0.70580  Biso   1.000  N
  C201     1.0000 0.47516  0.98842  0.71437  Biso   1.000  C
  N28      1.0000 0.07850  0.68485  0.70580  Biso   1.000  N
  C202     1.0000 0.01155  0.48671  0.71437  Biso   1.000  C
  H256     1.0000 0.40965  0.48983  0.79703  Biso   1.000  H
  N29      1.0000 0.60886  0.56391  0.79305  Biso   1.000  N
  C203     1.0000 0.66866  0.52935  0.76683  Biso   1.000  C
  C204     1.0000 0.65366  0.57731  0.76443  Biso   1.000  C
  N30      1.0000 0.08533  0.28292  0.79667  Biso   1.000  N
  C205     1.0000 0.21594  0.45932  0.81035  Biso   1.000  C
  C206     1.0000 0.70415  0.03717  0.70547  Biso   1.000  C
  H257     1.0000 0.40717  0.95184  0.72094  Biso   1.000  H
  H258     1.0000 0.53691  0.04821  0.72043  Biso   1.000  H
  H259     1.0000 0.46049  0.02090  0.70503  Biso   1.000  H
  C207     1.0000 0.96293  0.66698  0.70547  Biso   1.000  C
  H260     1.0000 0.04820  0.45536  0.72094  Biso   1.000  H
  H261     1.0000 0.95176  0.48873  0.72043  Biso   1.000  H
  H262     1.0000 0.97904  0.43951  0.70503  Biso   1.000  H
  C208     1.0000 0.72540  0.63217  0.79789  Biso   1.000  C
  H263     1.0000 0.74205  0.59804  0.76823  Biso   1.000  H
  H264     1.0000 0.64180  0.52657  0.75604  Biso   1.000  H
  H265     1.0000 0.67628  0.46328  0.76884  Biso   1.000  H
  H266     1.0000 0.68083  0.52581  0.76133  Biso   1.000  H
  H267     1.0000 0.71857  0.65164  0.76674  Biso   1.000  H
  H268     1.0000 0.60989  0.58363  0.75584  Biso   1.000  H
  C209     1.0000 0.99328  0.26202  0.80714  Biso   1.000  C
  H269     1.0000 0.16316  0.42923  0.81923  Biso   1.000  H
  H270     1.0000 0.21535  0.52514  0.80593  Biso   1.000  H
  H271     1.0000 0.29209  0.48157  0.81404  Biso   1.000  H
  C210     1.0000 0.78113  0.04880  0.71885  Biso   1.000  C
  C211     1.0000 0.76415  0.05352  0.68924  Biso   1.000  C
  H272     1.0000 0.67812  0.09313  0.70663  Biso   1.000  H
  C212     1.0000 0.95117  0.73221  0.71885  Biso   1.000  C
  C213     1.0000 0.94652  0.71064  0.68924  Biso   1.000  C
  H273     1.0000 0.90690  0.58498  0.70663  Biso   1.000  H
  C214     1.0000 0.73802  0.73129  0.80714  Biso   1.000  C
  C215     1.0000 0.75289  0.55447  0.80839  Biso   1.000  C
  H274     1.0000 0.77575  0.65872  0.78843  Biso   1.000  H
  H275     1.0000 0.02237  0.31874  0.81584  Biso   1.000  H
  C216     1.0000 0.94076  0.14471  0.81410  Biso   1.000  C
  C217     1.0000 0.90676  0.27466  0.79789  Biso   1.000  C
  H276     1.0000 0.80233  0.98909  0.71793  Biso   1.000  H
  N31      1.0000 0.72507  0.03725  0.73400  Biso   1.000  N
  C218     1.0000 0.88871  0.16586  0.71816  Biso   1.000  C
  H277     1.0000 0.78401  0.99390  0.68773  Biso   1.000  H
  C219     1.0000 0.87033  0.16822  0.68854  Biso   1.000  C
  H278     1.0000 0.71263  0.04711  0.68064  Biso   1.000  H
  H279     1.0000 0.01098  0.81329  0.71793  Biso   1.000  H
  N32      1.0000 0.96279  0.68771  0.73400  Biso   1.000  N
  C220     1.0000 0.83417  0.72286  0.71816  Biso   1.000  C
  H280     1.0000 0.00618  0.79011  0.68773  Biso   1.000  H
  C221     1.0000 0.83179  0.70204  0.68854  Biso   1.000  C
  H281     1.0000 0.95291  0.66546  0.68064  Biso   1.000  H
  N33      1.0000 0.71710  0.80242  0.79667  Biso   1.000  N
  H282     1.0000 0.68129  0.70364  0.81584  Biso   1.000  H
  C222     1.0000 0.85527  0.79601  0.81410  Biso   1.000  C
  C223     1.0000 0.87799  0.62906  0.81406  Biso   1.000  C
  H283     1.0000 0.70130  0.52573  0.81754  Biso   1.000  H
  H284     1.0000 0.74426  0.48932  0.80223  Biso   1.000  H
  H285     1.0000 0.92153  0.08976  0.80543  Biso   1.000  H
  H286     1.0000 0.99719  0.14007  0.82084  Biso   1.000  H
  C224     1.0000 0.83764  0.11217  0.82357  Biso   1.000  C
  N34      1.0000 0.95508  0.39114  0.79305  Biso   1.000  N
  C225     1.0000 0.80153  0.24710  0.80839  Biso   1.000  C
  H287     1.0000 0.88303  0.22427  0.78843  Biso   1.000  H
  C226     1.0000 0.69452  0.95125  0.74230  Biso   1.000  C
  H288     1.0000 0.86825  0.22536  0.71933  Biso   1.000  H
  H289     1.0000 0.93943  0.17345  0.72693  Biso   1.000  H
  C227     1.0000 0.94930  0.18078  0.70258  Biso   1.000  C
  H290     1.0000 0.85026  0.22823  0.68913  Biso   1.000  H
  H291     1.0000 0.90993  0.17648  0.67843  Biso   1.000  H
  C228     1.0000 0.04880  0.74325  0.74230  Biso   1.000  C
  H292     1.0000 0.77466  0.64296  0.71933  Biso   1.000  H
  H293     1.0000 0.82658  0.76592  0.72693  Biso   1.000  H
  C229     1.0000 0.81924  0.76862  0.70258  Biso   1.000  C
  H294     1.0000 0.77183  0.62198  0.68913  Biso   1.000  H
  H295     1.0000 0.82357  0.73348  0.67843  Biso   1.000  H
  C230     1.0000 0.63106  0.81194  0.79766  Biso   1.000  C
  H296     1.0000 0.91029  0.83175  0.80543  Biso   1.000  H
  H297     1.0000 0.85998  0.85711  0.82084  Biso   1.000  H
  C231     1.0000 0.88788  0.72547  0.82357  Biso   1.000  C
  H298     1.0000 0.90020  0.58312  0.82053  Biso   1.000  H
  H299     1.0000 0.92886  0.65796  0.80483  Biso   1.000  H
  H300     1.0000 0.85751  0.16156  0.83294  Biso   1.000  H
  H301     1.0000 0.80576  0.03354  0.82723  Biso   1.000  H
  C232     1.0000 0.75111  0.12204  0.81406  Biso   1.000  C
  C233     1.0000 0.95097  0.41971  0.77903  Biso   1.000  C
  H302     1.0000 0.82452  0.29877  0.81754  Biso   1.000  H
  H303     1.0000 0.74503  0.25570  0.80223  Biso   1.000  H
  C234     1.0000 0.65225  0.95445  0.75888  Biso   1.000  C
  C235     1.0000 0.69596  0.84759  0.73807  Biso   1.000  C
  H304     1.0000 0.97282  0.12330  0.70164  Biso   1.000  H
  H305     1.0000 0.01785  0.25612  0.70224  Biso   1.000  H
  C236     1.0000 0.04558  0.69783  0.75888  Biso   1.000  C
  C237     1.0000 0.15248  0.84843  0.73807  Biso   1.000  C
  H306     1.0000 0.87666  0.84944  0.70164  Biso   1.000  H
  H307     1.0000 0.74389  0.76171  0.70224  Biso   1.000  H
  C238     1.0000 0.61439  0.88122  0.78552  Biso   1.000  C
  C239     1.0000 0.54065  0.75665  0.81035  Biso   1.000  C
  H308     1.0000 0.83846  0.69597  0.83294  Biso   1.000  H
  H309     1.0000 0.96652  0.77224  0.82723  Biso   1.000  H
  H310     1.0000 0.68303  0.09987  0.82053  Biso   1.000  H
  H311     1.0000 0.72909  0.07113  0.80483  Biso   1.000  H
  C240     1.0000 0.00112  0.54191  0.77619  Biso   1.000  C
  C241     1.0000 0.86064  0.33130  0.76683  Biso   1.000  C
  C242     1.0000 0.92368  0.34630  0.76443  Biso   1.000  C
  C243     1.0000 0.66295  0.89133  0.77024  Biso   1.000  C
  C244     1.0000 0.59174  0.00531  0.76145  Biso   1.000  C
  H312     1.0000 0.64290  0.78539  0.74483  Biso   1.000  H
  H313     1.0000 0.77212  0.85947  0.73964  Biso   1.000  H
  H314     1.0000 0.67410  0.82896  0.72703  Biso   1.000  H
  C245     1.0000 0.10869  0.77165  0.77024  Biso   1.000  C
  C246     1.0000 0.99464  0.58633  0.76145  Biso   1.000  C
  H315     1.0000 0.21470  0.85753  0.74483  Biso   1.000  H
  H316     1.0000 0.14058  0.91265  0.73964  Biso   1.000  H
  H317     1.0000 0.17106  0.84515  0.72703  Biso   1.000  H
  C247     1.0000 0.55028  0.93195  0.78741  Biso   1.000  C
  H318     1.0000 0.57077  0.73398  0.81923  Biso   1.000  H
  H319     1.0000 0.47489  0.69024  0.80593  Biso   1.000  H
  H320     1.0000 0.51850  0.81059  0.81404  Biso   1.000  H
  C248     1.0000 0.06810  0.61835  0.78741  Biso   1.000  C
  H321     1.0000 0.85602  0.25798  0.76823  Biso   1.000  H
  H322     1.0000 0.88478  0.35827  0.75604  Biso   1.000  H
  H323     1.0000 0.78699  0.32371  0.76884  Biso   1.000  H
  H324     1.0000 0.84501  0.31916  0.76133  Biso   1.000  H
  H325     1.0000 0.93305  0.28141  0.76674  Biso   1.000  H
  H326     1.0000 0.97377  0.39013  0.75584  Biso   1.000  H
  H327     1.0000 0.70342  0.85315  0.76803  Biso   1.000  H
  C249     1.0000 0.54082  0.99887  0.77619  Biso   1.000  C
  H328     1.0000 0.58284  0.04677  0.75313  Biso   1.000  H
  H329     1.0000 0.14692  0.85029  0.76803  Biso   1.000  H
  C250     1.0000 0.11878  0.73314  0.78552  Biso   1.000  C
  H330     1.0000 0.95328  0.53601  0.75313  Biso   1.000  H
  H331     1.0000 0.51012  0.91982  0.79703  Biso   1.000  H
  H332     1.0000 0.08016  0.59037  0.79703  Biso   1.000  H
  C251     1.0000 0.46880  0.04905  0.77903  Biso   1.000  C
  C252     1.0000 0.18808  0.81919  0.79766  Biso   1.000  C
  N35      1.0000 0.43608  0.04492  0.79305  Biso   1.000  N
  C253     1.0000 0.47058  0.13931  0.76683  Biso   1.000  C
  C254     1.0000 0.42260  0.07636  0.76443  Biso   1.000  C
  N36      1.0000 0.19758  0.91468  0.79667  Biso   1.000  N
  C255     1.0000 0.24335  0.78404  0.81035  Biso   1.000  C
  C256     1.0000 0.36782  0.09321  0.79789  Biso   1.000  C
  H333     1.0000 0.40199  0.14403  0.76823  Biso   1.000  H
  H334     1.0000 0.47341  0.11521  0.75604  Biso   1.000  H
  H335     1.0000 0.53672  0.21306  0.76884  Biso   1.000  H
  H336     1.0000 0.47422  0.15507  0.76133  Biso   1.000  H
  H337     1.0000 0.34847  0.06692  0.76674  Biso   1.000  H
  H338     1.0000 0.41636  0.02621  0.75584  Biso   1.000  H
  C257     1.0000 0.26868  0.00674  0.80714  Biso   1.000  C
  H339     1.0000 0.26612  0.83689  0.81923  Biso   1.000  H
  H340     1.0000 0.30977  0.78463  0.80593  Biso   1.000  H
  H341     1.0000 0.18946  0.70794  0.81404  Biso   1.000  H
  C258     1.0000 0.44556  0.19848  0.80839  Biso   1.000  C
  H342     1.0000 0.34121  0.11706  0.78843  Biso   1.000  H
  H343     1.0000 0.29635  0.97763  0.81584  Biso   1.000  H
  C259     1.0000 0.20399  0.05925  0.81410  Biso   1.000  C
  C260     1.0000 0.37088  0.24896  0.81406  Biso   1.000  C
  H344     1.0000 0.47439  0.17555  0.81754  Biso   1.000  H
  H345     1.0000 0.51058  0.25494  0.80223  Biso   1.000  H
  H346     1.0000 0.16824  0.07855  0.80543  Biso   1.000  H
  H347     1.0000 0.14288  0.00287  0.82084  Biso   1.000  H
  C261     1.0000 0.27447  0.16240  0.82357  Biso   1.000  C
  H348     1.0000 0.41690  0.31706  0.82053  Biso   1.000  H
  H349     1.0000 0.34211  0.27096  0.80483  Biso   1.000  H
  H350     1.0000 0.30416  0.14252  0.83294  Biso   1.000  H
  H351     1.0000 0.22771  0.19426  0.82723  Biso   1.000  H
  C262     1.0000 0.23587  0.28941  0.31076  Biso   1.000  C
  C263     1.0000 0.29594  0.33307  0.29453  Biso   1.000  C
  C264     1.0000 0.12974  0.29801  0.31146  Biso   1.000  C
  H352     1.0000 0.21601  0.20985  0.31227  Biso   1.000  H
  H353     1.0000 0.28743  0.33459  0.31936  Biso   1.000  H
  C265     1.0000 0.21891  0.26775  0.28115  Biso   1.000  C
  N37      1.0000 0.39364  0.31520  0.29420  Biso   1.000  N
  H354     1.0000 0.32191  0.41507  0.29337  Biso   1.000  H
  C266     1.0000 0.05064  0.23134  0.29742  Biso   1.000  C
  H355     1.0000 0.14984  0.37807  0.31087  Biso   1.000  H
  H356     1.0000 0.09015  0.26657  0.32157  Biso   1.000  H
  N38      1.0000 0.27502  0.31225  0.26600  Biso   1.000  N
  H357     1.0000 0.19775  0.18676  0.28207  Biso   1.000  H
  C267     1.0000 0.11137  0.27719  0.28184  Biso   1.000  C
  C268     1.0000 0.49211  0.39316  0.29071  Biso   1.000  C
  H358     1.0000 0.02728  0.15061  0.29836  Biso   1.000  H
  H359     1.0000 0.98213  0.23826  0.29776  Biso   1.000  H
  C269     1.0000 0.30554  0.25680  0.25770  Biso   1.000  C
  H360     1.0000 0.13176  0.35709  0.28067  Biso   1.000  H
  H361     1.0000 0.06060  0.23404  0.27307  Biso   1.000  H
  C270     1.0000 0.58467  0.36341  0.29091  Biso   1.000  C
  C271     1.0000 0.52486  0.51326  0.28563  Biso   1.000  C
  C272     1.0000 0.34770  0.30214  0.24112  Biso   1.000  C
  C273     1.0000 0.30400  0.15153  0.26193  Biso   1.000  C
  C274     1.0000 0.55466  0.25056  0.29094  Biso   1.000  C
  C275     1.0000 0.69596  0.44541  0.29094  Biso   1.000  C
  H362     1.0000 0.46309  0.51132  0.27957  Biso   1.000  H
  H363     1.0000 0.59283  0.54469  0.27906  Biso   1.000  H
  H364     1.0000 0.53955  0.56045  0.29497  Biso   1.000  H
  C276     1.0000 0.40834  0.41364  0.23855  Biso   1.000  C
  C277     1.0000 0.33703  0.22839  0.22976  Biso   1.000  C
  H365     1.0000 0.35711  0.14243  0.25517  Biso   1.000  H
  H366     1.0000 0.22792  0.08740  0.26036  Biso   1.000  H
  H367     1.0000 0.32597  0.15490  0.27297  Biso   1.000  H
  H368     1.0000 0.47736  0.19376  0.29096  Biso   1.000  H
  C278     1.0000 0.63664  0.22123  0.29091  Biso   1.000  C
  H369     1.0000 0.71642  0.52270  0.29096  Biso   1.000  H
  C279     1.0000 0.77876  0.41541  0.29091  Biso   1.000  C
  C280     1.0000 0.45923  0.45805  0.22381  Biso   1.000  C
  H370     1.0000 0.41722  0.46395  0.24687  Biso   1.000  H
  H371     1.0000 0.29662  0.14976  0.23197  Biso   1.000  H
  C281     1.0000 0.38563  0.26691  0.21448  Biso   1.000  C
  C282     1.0000 0.74944  0.30408  0.29094  Biso   1.000  C
  C283     1.0000 0.60680  0.09894  0.29071  Biso   1.000  C
  C284     1.0000 0.90104  0.50786  0.29071  Biso   1.000  C
  C285     1.0000 0.44974  0.38170  0.21259  Biso   1.000  C
  C286     1.0000 0.53121  0.58026  0.22097  Biso   1.000  C
  C287     1.0000 0.36895  0.18086  0.20234  Biso   1.000  C
  H372     1.0000 0.80628  0.28360  0.29096  Biso   1.000  H
  N39      1.0000 0.68488  0.07846  0.29420  Biso   1.000  N
  C288     1.0000 0.48676  0.01155  0.28563  Biso   1.000  C
  N40      1.0000 0.92154  0.60638  0.29420  Biso   1.000  N
  C289     1.0000 0.98848  0.47516  0.28563  Biso   1.000  C
  H373     1.0000 0.48985  0.40968  0.20297  Biso   1.000  H
  N41      1.0000 0.56393  0.60891  0.20695  Biso   1.000  N
  C290     1.0000 0.52936  0.66867  0.23317  Biso   1.000  C
  C291     1.0000 0.57732  0.65366  0.23557  Biso   1.000  C
  N42      1.0000 0.28296  0.08537  0.20333  Biso   1.000  N
  C292     1.0000 0.45936  0.21601  0.18965  Biso   1.000  C
  C293     1.0000 0.66698  0.96288  0.29453  Biso   1.000  C
  H374     1.0000 0.45539  0.04821  0.27906  Biso   1.000  H
  H375     1.0000 0.48880  0.95176  0.27957  Biso   1.000  H
  H376     1.0000 0.43954  0.97906  0.29497  Biso   1.000  H
  C294     1.0000 0.03709  0.70406  0.29453  Biso   1.000  C
  H377     1.0000 0.95184  0.40715  0.27906  Biso   1.000  H
  H378     1.0000 0.04819  0.53694  0.27957  Biso   1.000  H
  H379     1.0000 0.02092  0.46050  0.29497  Biso   1.000  H
  C295     1.0000 0.63216  0.72539  0.20211  Biso   1.000  C
  H380     1.0000 0.59803  0.74207  0.23177  Biso   1.000  H
  H381     1.0000 0.52657  0.64178  0.24396  Biso   1.000  H
  H382     1.0000 0.46323  0.67625  0.23116  Biso   1.000  H
  H383     1.0000 0.52583  0.68089  0.23867  Biso   1.000  H
  H384     1.0000 0.65167  0.71856  0.23326  Biso   1.000  H
  H385     1.0000 0.58366  0.60984  0.24416  Biso   1.000  H
  C296     1.0000 0.26200  0.99331  0.19286  Biso   1.000  C
  H386     1.0000 0.42922  0.16316  0.18077  Biso   1.000  H
  H387     1.0000 0.52515  0.21533  0.19407  Biso   1.000  H
  H388     1.0000 0.48158  0.29211  0.18596  Biso   1.000  H
  C297     1.0000 0.73221  0.95117  0.28115  Biso   1.000  C
  C298     1.0000 0.71073  0.94645  0.31076  Biso   1.000  C
  H389     1.0000 0.58491  0.90692  0.29337  Biso   1.000  H
  C299     1.0000 0.04882  0.78109  0.28115  Biso   1.000  C
  C300     1.0000 0.05349  0.76415  0.31076  Biso   1.000  C
  H390     1.0000 0.09316  0.67811  0.29337  Biso   1.000  H
  C301     1.0000 0.73121  0.73794  0.19286  Biso   1.000  C
  C302     1.0000 0.55445  0.75286  0.19161  Biso   1.000  C
  H391     1.0000 0.65875  0.77578  0.21157  Biso   1.000  H
  H392     1.0000 0.31874  0.02233  0.18416  Biso   1.000  H
  C303     1.0000 0.14480  0.94080  0.18590  Biso   1.000  C
  C304     1.0000 0.27463  0.90675  0.20211  Biso   1.000  C
  H393     1.0000 0.81323  0.01096  0.28207  Biso   1.000  H
  N43      1.0000 0.68781  0.96280  0.26600  Biso   1.000  N
  C305     1.0000 0.72284  0.83419  0.28184  Biso   1.000  C
  H394     1.0000 0.79017  0.00615  0.31227  Biso   1.000  H
  C306     1.0000 0.70206  0.83175  0.31146  Biso   1.000  C
  H395     1.0000 0.66554  0.95285  0.31936  Biso   1.000  H
  H396     1.0000 0.98904  0.80225  0.28207  Biso   1.000  H
  N44      1.0000 0.03725  0.72496  0.26600  Biso   1.000  N
  C307     1.0000 0.16584  0.88872  0.28184  Biso   1.000  C
  H397     1.0000 0.99383  0.78396  0.31227  Biso   1.000  H
  C308     1.0000 0.16822  0.87026  0.31146  Biso   1.000  C
  H398     1.0000 0.04711  0.71258  0.31936  Biso   1.000  H
  N45      1.0000 0.80243  0.71704  0.20333  Biso   1.000  N
  H399     1.0000 0.70369  0.68131  0.18416  Biso   1.000  H
  C309     1.0000 0.79607  0.85526  0.18590  Biso   1.000  C
  C310     1.0000 0.62907  0.87801  0.18594  Biso   1.000  C
  H400     1.0000 0.52574  0.70128  0.18246  Biso   1.000  H
  H401     1.0000 0.48935  0.74426  0.19777  Biso   1.000  H
  H402     1.0000 0.08976  0.92150  0.19457  Biso   1.000  H
  H403     1.0000 0.14008  0.99718  0.17916  Biso   1.000  H
  C311     1.0000 0.11201  0.83756  0.17643  Biso   1.000  C
  N46      1.0000 0.39122  0.95513  0.20695  Biso   1.000  N
  C312     1.0000 0.24708  0.80157  0.19161  Biso   1.000  C
  H404     1.0000 0.22414  0.88299  0.21157  Biso   1.000  H
  C313     1.0000 0.74325  0.04880  0.25770  Biso   1.000  C
  H405     1.0000 0.64295  0.77469  0.28067  Biso   1.000  H
  H406     1.0000 0.76598  0.82660  0.27307  Biso   1.000  H
  C314     1.0000 0.76866  0.81927  0.29742  Biso   1.000  C
  H407     1.0000 0.62203  0.77182  0.31087  Biso   1.000  H
  H408     1.0000 0.73344  0.82357  0.32157  Biso   1.000  H
  C315     1.0000 0.95127  0.69446  0.25770  Biso   1.000  C
  H409     1.0000 0.22534  0.86832  0.28067  Biso   1.000  H
  H410     1.0000 0.17343  0.93937  0.27307  Biso   1.000  H
  C316     1.0000 0.18078  0.94940  0.29742  Biso   1.000  C
  H411     1.0000 0.22825  0.85020  0.31087  Biso   1.000  H
  H412     1.0000 0.17642  0.90987  0.32157  Biso   1.000  H
  C317     1.0000 0.81193  0.63108  0.20234  Biso   1.000  C
  H413     1.0000 0.83176  0.91029  0.19457  Biso   1.000  H
  H414     1.0000 0.85718  0.85998  0.17916  Biso   1.000  H
  C318     1.0000 0.72545  0.88787  0.17643  Biso   1.000  C
  H415     1.0000 0.58315  0.90018  0.17947  Biso   1.000  H
  H416     1.0000 0.65795  0.92892  0.19517  Biso   1.000  H
  H417     1.0000 0.16152  0.85745  0.16706  Biso   1.000  H
  H418     1.0000 0.03358  0.80579  0.17277  Biso   1.000  H
  C319     1.0000 0.12199  0.75109  0.18594  Biso   1.000  C
  C320     1.0000 0.41981  0.95100  0.22097  Biso   1.000  C
  H419     1.0000 0.29868  0.82450  0.18246  Biso   1.000  H
  H420     1.0000 0.25570  0.74511  0.19777  Biso   1.000  H
  C321     1.0000 0.69786  0.04559  0.24112  Biso   1.000  C
  C322     1.0000 0.84844  0.15246  0.26193  Biso   1.000  C
  H421     1.0000 0.84940  0.87667  0.29836  Biso   1.000  H
  H422     1.0000 0.76175  0.74384  0.29776  Biso   1.000  H
  C323     1.0000 0.95451  0.65232  0.24112  Biso   1.000  C
  C324     1.0000 0.84751  0.69597  0.26193  Biso   1.000  C
  H423     1.0000 0.12337  0.97283  0.29836  Biso   1.000  H
  H424     1.0000 0.25621  0.01787  0.29776  Biso   1.000  H
  C325     1.0000 0.88124  0.61439  0.21448  Biso   1.000  C
  C326     1.0000 0.75664  0.54065  0.18965  Biso   1.000  C
  H425     1.0000 0.69594  0.83849  0.16706  Biso   1.000  H
  H426     1.0000 0.77228  0.96651  0.17277  Biso   1.000  H
  H427     1.0000 0.09984  0.68299  0.17947  Biso   1.000  H
  H428     1.0000 0.07114  0.72909  0.19517  Biso   1.000  H
  C327     1.0000 0.54194  0.00118  0.22381  Biso   1.000  C
  C328     1.0000 0.33136  0.86065  0.23317  Biso   1.000  C
  C329     1.0000 0.34631  0.92369  0.23557  Biso   1.000  C
  C330     1.0000 0.58623  0.99466  0.23855  Biso   1.000  C
  C331     1.0000 0.77164  0.10864  0.22976  Biso   1.000  C
  H429     1.0000 0.85757  0.21466  0.25517  Biso   1.000  H
  H430     1.0000 0.91264  0.14058  0.26036  Biso   1.000  H
  H431     1.0000 0.84520  0.17109  0.27297  Biso   1.000  H
  C332     1.0000 0.89140  0.66302  0.22976  Biso   1.000  C
  C333     1.0000 0.00537  0.59172  0.23855  Biso   1.000  C
  H432     1.0000 0.78535  0.64288  0.25517  Biso   1.000  H
  H433     1.0000 0.85943  0.77208  0.26036  Biso   1.000  H
  H434     1.0000 0.82896  0.67406  0.27297  Biso   1.000  H
  C334     1.0000 0.93194  0.55025  0.21259  Biso   1.000  C
  H435     1.0000 0.73399  0.57082  0.18077  Biso   1.000  H
  H436     1.0000 0.69027  0.47491  0.19407  Biso   1.000  H
  H437     1.0000 0.81059  0.51848  0.18596  Biso   1.000  H
  C335     1.0000 0.61839  0.06810  0.21259  Biso   1.000  C
  H438     1.0000 0.25795  0.85602  0.23177  Biso   1.000  H
  H439     1.0000 0.35815  0.88476  0.24396  Biso   1.000  H
  H440     1.0000 0.32365  0.78699  0.23116  Biso   1.000  H
  H441     1.0000 0.31914  0.84498  0.23867  Biso   1.000  H
  H442     1.0000 0.28143  0.93305  0.23326  Biso   1.000  H
  H443     1.0000 0.39010  0.97375  0.24416  Biso   1.000  H
  H444     1.0000 0.53605  0.95327  0.24687  Biso   1.000  H
  C336     1.0000 0.73312  0.11875  0.21448  Biso   1.000  C
  H445     1.0000 0.85025  0.14690  0.23197  Biso   1.000  H
  H446     1.0000 0.85319  0.70339  0.23197  Biso   1.000  H
  C337     1.0000 0.99889  0.54082  0.22381  Biso   1.000  C
  H447     1.0000 0.04674  0.58279  0.24687  Biso   1.000  H
  H448     1.0000 0.91984  0.51014  0.20297  Biso   1.000  H
  H449     1.0000 0.59033  0.08015  0.20297  Biso   1.000  H
  C338     1.0000 0.81918  0.18811  0.20234  Biso   1.000  C
  C339     1.0000 0.04899  0.46876  0.22097  Biso   1.000  C
  N47      1.0000 0.91463  0.19755  0.20333  Biso   1.000  N
  C340     1.0000 0.78406  0.24340  0.18965  Biso   1.000  C
  N48      1.0000 0.04490  0.43606  0.20695  Biso   1.000  N
  C341     1.0000 0.13937  0.47070  0.23317  Biso   1.000  C
  C342     1.0000 0.07630  0.42266  0.23557  Biso   1.000  C
  C343     1.0000 0.00673  0.26876  0.19286  Biso   1.000  C
  H450     1.0000 0.83685  0.26607  0.18077  Biso   1.000  H
  H451     1.0000 0.78464  0.30981  0.19407  Biso   1.000  H
  H452     1.0000 0.70797  0.18946  0.18596  Biso   1.000  H
  C344     1.0000 0.09321  0.36788  0.20211  Biso   1.000  C
  H453     1.0000 0.14407  0.40201  0.23177  Biso   1.000  H
  H454     1.0000 0.11521  0.47348  0.24396  Biso   1.000  H
  H455     1.0000 0.21306  0.53677  0.23116  Biso   1.000  H
  H456     1.0000 0.15504  0.47415  0.23867  Biso   1.000  H
  H457     1.0000 0.06699  0.34841  0.23326  Biso   1.000  H
  H458     1.0000 0.02621  0.41634  0.24416  Biso   1.000  H
  H459     1.0000 0.97771  0.29641  0.18416  Biso   1.000  H
  C345     1.0000 0.05921  0.20395  0.18590  Biso   1.000  C
  C346     1.0000 0.19841  0.44558  0.19161  Biso   1.000  C
  H460     1.0000 0.11705  0.34124  0.21157  Biso   1.000  H
  H461     1.0000 0.07853  0.16830  0.19457  Biso   1.000  H
  H462     1.0000 0.00282  0.14285  0.17916  Biso   1.000  H
  C347     1.0000 0.16247  0.27458  0.17643  Biso   1.000  C
  C348     1.0000 0.24892  0.37099  0.18594  Biso   1.000  C
  H463     1.0000 0.17552  0.47424  0.18246  Biso   1.000  H
  H464     1.0000 0.25496  0.51064  0.19777  Biso   1.000  H
  H465     1.0000 0.14255  0.30408  0.16706  Biso   1.000  H
  H466     1.0000 0.19426  0.22780  0.17277  Biso   1.000  H
  H467     1.0000 0.31703  0.41684  0.17947  Biso   1.000  H
  H468     1.0000 0.27096  0.34209  0.19517  Biso   1.000  H
  C349     1.0000 0.55452  0.05874  0.15691  Biso   1.000  C
  C350     1.0000 0.52195  0.12937  0.14743  Biso   1.000  C
  H469     1.0000 0.50510  0.02924  0.16626  Biso   1.000  H
  H470     1.0000 0.63320  0.10560  0.16057  Biso   1.000  H
  C351     1.0000 0.54469  0.96238  0.14740  Biso   1.000  C
  C352     1.0000 0.40466  0.06456  0.14048  Biso   1.000  C
  H471     1.0000 0.57697  0.16510  0.13877  Biso   1.000  H
  H472     1.0000 0.52666  0.19047  0.15417  Biso   1.000  H
  C353     1.0000 0.41944  0.88779  0.14173  Biso   1.000  C
  H473     1.0000 0.56683  0.91645  0.15387  Biso   1.000  H
  H474     1.0000 0.59563  0.99128  0.13817  Biso   1.000  H
  N49      1.0000 0.38378  0.13577  0.13000  Biso   1.000  N
  H475     1.0000 0.34796  0.03700  0.14916  Biso   1.000  H
  C354     1.0000 0.39202  0.96550  0.13123  Biso   1.000  C
  H476     1.0000 0.36792  0.85905  0.15086  Biso   1.000  H
  H477     1.0000 0.41096  0.82264  0.13557  Biso   1.000  H
  C355     1.0000 0.29774  0.14530  0.13098  Biso   1.000  C
  N50      1.0000 0.27553  0.89731  0.12639  Biso   1.000  N
  H478     1.0000 0.44249  0.99213  0.12177  Biso   1.000  H
  C356     1.0000 0.20733  0.09001  0.14367  Biso   1.000  C
  C357     1.0000 0.28107  0.21457  0.11886  Biso   1.000  C
  C358     1.0000 0.24692  0.86461  0.11237  Biso   1.000  C
  H479     1.0000 0.23741  0.06725  0.15257  Biso   1.000  H
  H480     1.0000 0.14157  0.02360  0.13927  Biso   1.000  H
  H481     1.0000 0.18514  0.14386  0.14736  Biso   1.000  H
  C359     1.0000 0.32963  0.22469  0.10356  Biso   1.000  C
  C360     1.0000 0.21695  0.26531  0.12073  Biso   1.000  C
  C361     1.0000 0.12476  0.79256  0.10953  Biso   1.000  C
  C362     1.0000 0.33529  0.86268  0.10017  Biso   1.000  C
  C363     1.0000 0.32026  0.91071  0.09777  Biso   1.000  C
  C364     1.0000 0.31893  0.28781  0.09220  Biso   1.000  C
  H482     1.0000 0.37010  0.18651  0.10137  Biso   1.000  H
  C365     1.0000 0.20745  0.33214  0.10953  Biso   1.000  C
  H483     1.0000 0.17680  0.25317  0.13037  Biso   1.000  H
  C366     1.0000 0.08034  0.74165  0.09477  Biso   1.000  C
  C367     1.0000 0.04830  0.78312  0.12073  Biso   1.000  C
  H484     1.0000 0.40875  0.93136  0.10157  Biso   1.000  H
  H485     1.0000 0.30850  0.85989  0.08936  Biso   1.000  H
  H486     1.0000 0.34298  0.79660  0.10216  Biso   1.000  H
  H487     1.0000 0.34750  0.85922  0.09467  Biso   1.000  H
  H488     1.0000 0.38519  0.98496  0.10006  Biso   1.000  H
  H489     1.0000 0.27644  0.91695  0.08916  Biso   1.000  H
  C368     1.0000 0.25833  0.33872  0.09477  Biso   1.000  C
  C369     1.0000 0.36119  0.28461  0.07564  Biso   1.000  C
  C370     1.0000 0.13542  0.38237  0.11237  Biso   1.000  C
  C371     1.0000 0.96888  0.68106  0.09220  Biso   1.000  C
  H490     1.0000 0.13064  0.75058  0.08647  Biso   1.000  H
  C372     1.0000 0.93354  0.71898  0.11886  Biso   1.000  C
  H491     1.0000 0.07627  0.82315  0.13037  Biso   1.000  H
  H492     1.0000 0.24946  0.38010  0.08647  Biso   1.000  H
  N51      1.0000 0.39162  0.37057  0.06734  Biso   1.000  N
  C373     1.0000 0.36260  0.18086  0.07141  Biso   1.000  C
  N52      1.0000 0.10270  0.37824  0.12639  Biso   1.000  N
  C374     1.0000 0.13739  0.47272  0.10017  Biso   1.000  C
  C375     1.0000 0.08930  0.40968  0.09777  Biso   1.000  C
  C376     1.0000 0.89513  0.67035  0.10356  Biso   1.000  C
  C377     1.0000 0.92343  0.63892  0.07564  Biso   1.000  C
  C378     1.0000 0.84746  0.70229  0.13098  Biso   1.000  C
  C379     1.0000 0.44773  0.38220  0.05219  Biso   1.000  C
  H493     1.0000 0.30953  0.11866  0.07817  Biso   1.000  H
  H494     1.0000 0.43876  0.19275  0.07296  Biso   1.000  H
  H495     1.0000 0.34073  0.16224  0.06037  Biso   1.000  H
  C380     1.0000 0.03456  0.42662  0.13123  Biso   1.000  C
  H496     1.0000 0.06862  0.47735  0.10157  Biso   1.000  H
  H497     1.0000 0.14015  0.44861  0.08936  Biso   1.000  H
  H498     1.0000 0.20341  0.54638  0.10216  Biso   1.000  H
  H499     1.0000 0.14085  0.48839  0.09467  Biso   1.000  H
  H500     1.0000 0.01502  0.40024  0.10006  Biso   1.000  H
  H501     1.0000 0.08303  0.35962  0.08916  Biso   1.000  H
  H502     1.0000 0.81649  0.62998  0.10137  Biso   1.000  H
  N53      1.0000 0.97890  0.60841  0.06734  Biso   1.000  N
  C381     1.0000 0.81830  0.63740  0.07141  Biso   1.000  C
  N54      1.0000 0.75210  0.61624  0.13000  Biso   1.000  N
  C382     1.0000 0.88268  0.79272  0.14367  Biso   1.000  C
  H503     1.0000 0.46897  0.32237  0.05127  Biso   1.000  H
  C383     1.0000 0.55534  0.49918  0.05148  Biso   1.000  C
  C384     1.0000 0.37078  0.37049  0.03880  Biso   1.000  C
  C385     1.0000 0.11226  0.53180  0.14173  Biso   1.000  C
  H504     1.0000 0.00791  0.45038  0.12177  Biso   1.000  H
  C386     1.0000 0.93545  0.34006  0.14048  Biso   1.000  C
  C387     1.0000 0.93456  0.55228  0.05219  Biso   1.000  C
  H505     1.0000 0.80923  0.69049  0.07817  Biso   1.000  H
  H506     1.0000 0.75412  0.56130  0.07296  Biso   1.000  H
  H507     1.0000 0.82152  0.65931  0.06037  Biso   1.000  H
  C388     1.0000 0.65991  0.59534  0.14048  Biso   1.000  C
  H508     1.0000 0.82986  0.76255  0.15257  Biso   1.000  H
  H509     1.0000 0.88204  0.85846  0.13927  Biso   1.000  H
  H510     1.0000 0.95886  0.81489  0.14736  Biso   1.000  H
  H511     1.0000 0.53494  0.55868  0.05267  Biso   1.000  H
  H512     1.0000 0.60606  0.50677  0.06027  Biso   1.000  H
  C389     1.0000 0.61607  0.51410  0.03590  Biso   1.000  C
  N55      1.0000 0.27304  0.25486  0.03913  Biso   1.000  N
  C390     1.0000 0.43085  0.38684  0.02258  Biso   1.000  C
  H513     1.0000 0.34475  0.42645  0.03997  Biso   1.000  H
  C391     1.0000 0.03766  0.58228  0.14740  Biso   1.000  C
  H514     1.0000 0.14094  0.50887  0.15086  Biso   1.000  H
  H515     1.0000 0.17735  0.58826  0.13557  Biso   1.000  H
  N56      1.0000 0.86421  0.24795  0.13000  Biso   1.000  N
  H516     1.0000 0.96303  0.31099  0.14916  Biso   1.000  H
  C392     1.0000 0.87062  0.39257  0.14743  Biso   1.000  C
  H517     1.0000 0.85336  0.53104  0.05127  Biso   1.000  H
  C393     1.0000 0.94381  0.44465  0.05148  Biso   1.000  C
  C394     1.0000 0.99986  0.62931  0.03880  Biso   1.000  C
  H518     1.0000 0.68900  0.65206  0.14916  Biso   1.000  H
  C395     1.0000 0.60750  0.47811  0.14743  Biso   1.000  C
  C396     1.0000 0.57339  0.60799  0.13123  Biso   1.000  C
  H519     1.0000 0.63949  0.45671  0.03496  Biso   1.000  H
  H520     1.0000 0.68455  0.58944  0.03556  Biso   1.000  H
  C397     1.0000 0.53695  0.50154  0.02188  Biso   1.000  C
  C398     1.0000 0.17456  0.23438  0.04263  Biso   1.000  C
  H521     1.0000 0.45064  0.32717  0.02107  Biso   1.000  H
  H522     1.0000 0.37925  0.38043  0.01396  Biso   1.000  H
  H523     1.0000 0.08353  0.65038  0.15387  Biso   1.000  H
  H524     1.0000 0.00873  0.60428  0.13817  Biso   1.000  H
  C399     1.0000 0.94129  0.49581  0.15691  Biso   1.000  C
  C400     1.0000 0.85471  0.15246  0.13098  Biso   1.000  C
  H525     1.0000 0.83494  0.41187  0.13877  Biso   1.000  H
  H526     1.0000 0.80958  0.33619  0.15417  Biso   1.000  H
  H527     1.0000 0.90075  0.39400  0.06027  Biso   1.000  H
  C401     1.0000 0.89807  0.38397  0.03590  Biso   1.000  C
  H528     1.0000 0.02378  0.46505  0.05267  Biso   1.000  H
  N57      1.0000 0.98177  0.72699  0.03913  Biso   1.000  N
  C402     1.0000 0.95602  0.56922  0.02258  Biso   1.000  C
  H529     1.0000 0.08174  0.65527  0.03997  Biso   1.000  H
  H530     1.0000 0.58823  0.42308  0.13877  Biso   1.000  H
  H531     1.0000 0.66382  0.47339  0.15417  Biso   1.000  H
  C403     1.0000 0.50419  0.44550  0.15691  Biso   1.000  C
  N58      1.0000 0.62170  0.72446  0.12639  Biso   1.000  N
  C404     1.0000 0.46820  0.58051  0.14173  Biso   1.000  C
  H532     1.0000 0.54965  0.55759  0.12177  Biso   1.000  H
  H533     1.0000 0.51682  0.56155  0.02247  Biso   1.000  H
  H534     1.0000 0.57656  0.50980  0.01177  Biso   1.000  H
  C405     1.0000 0.08203  0.11209  0.04243  Biso   1.000  C
  C406     1.0000 0.14184  0.32178  0.04771  Biso   1.000  C
  H535     1.0000 0.97071  0.47584  0.16626  Biso   1.000  H
  H536     1.0000 0.89448  0.52758  0.16057  Biso   1.000  H
  C407     1.0000 0.78546  0.06650  0.11886  Biso   1.000  C
  C408     1.0000 0.91010  0.11740  0.14367  Biso   1.000  C
  H537     1.0000 0.81731  0.36054  0.03496  Biso   1.000  H
  H538     1.0000 0.90505  0.31545  0.03556  Biso   1.000  H
  C409     1.0000 0.96457  0.46311  0.02188  Biso   1.000  C
  C410     1.0000 0.05986  0.82551  0.04263  Biso   1.000  C
  H539     1.0000 0.87649  0.54941  0.02107  Biso   1.000  H
  H540     1.0000 0.00130  0.62080  0.01396  Biso   1.000  H
  H541     1.0000 0.52414  0.49488  0.16626  Biso   1.000  H
  H542     1.0000 0.47254  0.36686  0.16057  Biso   1.000  H
  C411     1.0000 0.41774  0.45536  0.14740  Biso   1.000  C
  C412     1.0000 0.61771  0.75311  0.11237  Biso   1.000  C
  H543     1.0000 0.49107  0.63209  0.15086  Biso   1.000  H
  H544     1.0000 0.41170  0.58911  0.13557  Biso   1.000  H
  C413     1.0000 0.11206  0.02924  0.04238  Biso   1.000  C
  C414     1.0000 0.97073  0.08276  0.04238  Biso   1.000  C
  H545     1.0000 0.20365  0.38161  0.05377  Biso   1.000  H
  H546     1.0000 0.07385  0.28520  0.05426  Biso   1.000  H
  H547     1.0000 0.12716  0.35431  0.03837  Biso   1.000  H
  C415     1.0000 0.73465  0.95167  0.12073  Biso   1.000  C
  C416     1.0000 0.77537  0.10501  0.10356  Biso   1.000  C
  H548     1.0000 0.93275  0.17016  0.15257  Biso   1.000  H
  H549     1.0000 0.97645  0.11799  0.13927  Biso   1.000  H
  H550     1.0000 0.85613  0.04130  0.14736  Biso   1.000  H
  H551     1.0000 0.93323  0.42350  0.01177  Biso   1.000  H
  H552     1.0000 0.04481  0.48317  0.02247  Biso   1.000  H
  C417     1.0000 0.03011  0.91796  0.04243  Biso   1.000  C
  C418     1.0000 0.18000  0.85821  0.04771  Biso   1.000  C
  H553     1.0000 0.34972  0.43319  0.15387  Biso   1.000  H
  H554     1.0000 0.39572  0.40445  0.13817  Biso   1.000  H
  C419     1.0000 0.66786  0.87532  0.10953  Biso   1.000  C
  C420     1.0000 0.52745  0.66470  0.10017  Biso   1.000  C
  C421     1.0000 0.59042  0.67971  0.09777  Biso   1.000  C
  H555     1.0000 0.18934  0.04981  0.04236  Biso   1.000  H
  C422     1.0000 0.88802  0.96996  0.04243  Biso   1.000  C
  H556     1.0000 0.95023  0.13957  0.04236  Biso   1.000  H
  H557     1.0000 0.74679  0.92369  0.13037  Biso   1.000  H
  C423     1.0000 0.71226  0.03118  0.09220  Biso   1.000  C
  H558     1.0000 0.81355  0.18356  0.10137  Biso   1.000  H
  C424     1.0000 0.91723  0.88796  0.04238  Biso   1.000  C
  H559     1.0000 0.17790  0.79635  0.05377  Biso   1.000  H
  H560     1.0000 0.21130  0.92622  0.05426  Biso   1.000  H
  H561     1.0000 0.22704  0.87287  0.03837  Biso   1.000  H
  C425     1.0000 0.66127  0.91965  0.09477  Biso   1.000  C
  H562     1.0000 0.52264  0.59130  0.10157  Biso   1.000  H
  H563     1.0000 0.55155  0.69159  0.08936  Biso   1.000  H
  H564     1.0000 0.45366  0.65712  0.10216  Biso   1.000  H
  H565     1.0000 0.51156  0.65248  0.09467  Biso   1.000  H
  H566     1.0000 0.59972  0.61481  0.10006  Biso   1.000  H
  H567     1.0000 0.64054  0.72345  0.08916  Biso   1.000  H
  C426     1.0000 0.76570  0.94021  0.04263  Biso   1.000  C
  C427     1.0000 0.71548  0.07661  0.07564  Biso   1.000  C
  H568     1.0000 0.86034  0.81068  0.04236  Biso   1.000  H
  H569     1.0000 0.61995  0.86942  0.08647  Biso   1.000  H
  C428     1.0000 0.67829  0.82011  0.04771  Biso   1.000  C
  N59      1.0000 0.74518  0.01820  0.03913  Biso   1.000  N
  N60      1.0000 0.62947  0.02107  0.06734  Biso   1.000  N
  C429     1.0000 0.81916  0.18179  0.07141  Biso   1.000  C
  H570     1.0000 0.61846  0.82205  0.05377  Biso   1.000  H
  H571     1.0000 0.71490  0.78868  0.05426  Biso   1.000  H
  H572     1.0000 0.64586  0.77292  0.03837  Biso   1.000  H
  C430     1.0000 0.62957  0.00025  0.03880  Biso   1.000  C
  C431     1.0000 0.61785  0.06557  0.05219  Biso   1.000  C
  H573     1.0000 0.88137  0.19089  0.07817  Biso   1.000  H
  H574     1.0000 0.80726  0.24601  0.07296  Biso   1.000  H
  H575     1.0000 0.83774  0.17850  0.06037  Biso   1.000  H
  H576     1.0000 0.57352  0.91830  0.03997  Biso   1.000  H
  C432     1.0000 0.61319  0.04399  0.02258  Biso   1.000  C
  H577     1.0000 0.67762  0.14656  0.05127  Biso   1.000  H
  C433     1.0000 0.50080  0.05613  0.05148  Biso   1.000  C
  H578     1.0000 0.61946  0.99879  0.01396  Biso   1.000  H
  C434     1.0000 0.49847  0.03540  0.02188  Biso   1.000  C
  H579     1.0000 0.67286  0.12347  0.02107  Biso   1.000  H
  H580     1.0000 0.44136  0.97628  0.05267  Biso   1.000  H
  H581     1.0000 0.49326  0.09928  0.06027  Biso   1.000  H
  C435     1.0000 0.48592  0.10198  0.03590  Biso   1.000  C
  H582     1.0000 0.43845  0.95530  0.02247  Biso   1.000  H
  H583     1.0000 0.49020  0.06675  0.01177  Biso   1.000  H
  H584     1.0000 0.54334  0.18280  0.03496  Biso   1.000  H
  H585     1.0000 0.41057  0.09507  0.03556  Biso   1.000  H
  C436     1.0000 0.05875  0.55455  0.84309  Biso   1.000  C
  C437     1.0000 0.12937  0.52194  0.85257  Biso   1.000  C
  H586     1.0000 0.02924  0.50517  0.83374  Biso   1.000  H
  H587     1.0000 0.10559  0.63318  0.83943  Biso   1.000  H
  C438     1.0000 0.96240  0.54461  0.85260  Biso   1.000  C
  C439     1.0000 0.06458  0.40462  0.85952  Biso   1.000  C
  H588     1.0000 0.16506  0.57697  0.86123  Biso   1.000  H
  H589     1.0000 0.19049  0.52666  0.84583  Biso   1.000  H
  H590     1.0000 0.91652  0.56686  0.84613  Biso   1.000  H
  H591     1.0000 0.99128  0.59551  0.86183  Biso   1.000  H
  C440     1.0000 0.88775  0.41954  0.85827  Biso   1.000  C
  N61      1.0000 0.13573  0.38372  0.87000  Biso   1.000  N
  H592     1.0000 0.03695  0.34790  0.85084  Biso   1.000  H
  C441     1.0000 0.96546  0.39206  0.86877  Biso   1.000  C
  H593     1.0000 0.85911  0.36796  0.84914  Biso   1.000  H
  H594     1.0000 0.82265  0.41094  0.86443  Biso   1.000  H
  C442     1.0000 0.14530  0.29776  0.86902  Biso   1.000  C
  N62      1.0000 0.89726  0.27551  0.87361  Biso   1.000  N
  H595     1.0000 0.99212  0.44246  0.87823  Biso   1.000  H
  C443     1.0000 0.21462  0.28107  0.88114  Biso   1.000  C
  C444     1.0000 0.08994  0.20733  0.85633  Biso   1.000  C
  C445     1.0000 0.86458  0.24694  0.88763  Biso   1.000  C
  C446     1.0000 0.22466  0.32961  0.89644  Biso   1.000  C
  C447     1.0000 0.26524  0.21693  0.87927  Biso   1.000  C
  H596     1.0000 0.06725  0.23741  0.84743  Biso   1.000  H
  H597     1.0000 0.02353  0.14150  0.86073  Biso   1.000  H
  H598     1.0000 0.14389  0.18516  0.85264  Biso   1.000  H
  C448     1.0000 0.79260  0.12473  0.89047  Biso   1.000  C
  C449     1.0000 0.86266  0.33534  0.89983  Biso   1.000  C
  C450     1.0000 0.91070  0.32034  0.90223  Biso   1.000  C
  C451     1.0000 0.28777  0.31891  0.90780  Biso   1.000  C
  H599     1.0000 0.18649  0.37007  0.89863  Biso   1.000  H
  C452     1.0000 0.33216  0.20741  0.89047  Biso   1.000  C
  H600     1.0000 0.25314  0.17682  0.86963  Biso   1.000  H
  C453     1.0000 0.74164  0.08032  0.90523  Biso   1.000  C
  C454     1.0000 0.78311  0.04838  0.87927  Biso   1.000  C
  H601     1.0000 0.93140  0.40875  0.89843  Biso   1.000  H
  H602     1.0000 0.85987  0.30846  0.91064  Biso   1.000  H
  H603     1.0000 0.79660  0.34293  0.89784  Biso   1.000  H
  H604     1.0000 0.85921  0.34756  0.90533  Biso   1.000  H
  H605     1.0000 0.98497  0.38524  0.89994  Biso   1.000  H
  H606     1.0000 0.91696  0.27652  0.91084  Biso   1.000  H
  C455     1.0000 0.33863  0.25831  0.90523  Biso   1.000  C
  C456     1.0000 0.28457  0.36113  0.92436  Biso   1.000  C
  C457     1.0000 0.38237  0.13544  0.88763  Biso   1.000  C
  C458     1.0000 0.68099  0.96887  0.90780  Biso   1.000  C
  H607     1.0000 0.75059  0.13063  0.91353  Biso   1.000  H
  C459     1.0000 0.71895  0.93355  0.88114  Biso   1.000  C
  H608     1.0000 0.82323  0.07636  0.86963  Biso   1.000  H
  H609     1.0000 0.38012  0.24946  0.91353  Biso   1.000  H
  N63      1.0000 0.37055  0.39164  0.93266  Biso   1.000  N
  C460     1.0000 0.18089  0.36265  0.92859  Biso   1.000  C
  N64      1.0000 0.37828  0.10274  0.87361  Biso   1.000  N
  C461     1.0000 0.47267  0.13737  0.89983  Biso   1.000  C
  C462     1.0000 0.40968  0.08934  0.90223  Biso   1.000  C
  C463     1.0000 0.67035  0.89504  0.89644  Biso   1.000  C
  C464     1.0000 0.63886  0.92344  0.92436  Biso   1.000  C
  C465     1.0000 0.70239  0.84759  0.86902  Biso   1.000  C
  C466     1.0000 0.38220  0.44777  0.94781  Biso   1.000  C
  H610     1.0000 0.11865  0.30956  0.92183  Biso   1.000  H
  H611     1.0000 0.19281  0.43875  0.92704  Biso   1.000  H
  H612     1.0000 0.16227  0.34074  0.93963  Biso   1.000  H
  C467     1.0000 0.42659  0.03455  0.86877  Biso   1.000  C
  H613     1.0000 0.47733  0.06860  0.89843  Biso   1.000  H
  H614     1.0000 0.44859  0.14016  0.91064  Biso   1.000  H
  H615     1.0000 0.54636  0.20345  0.89784  Biso   1.000  H
  H616     1.0000 0.48834  0.14083  0.90533  Biso   1.000  H
  H617     1.0000 0.40025  0.01500  0.89994  Biso   1.000  H
  H618     1.0000 0.35959  0.08301  0.91084  Biso   1.000  H
  H619     1.0000 0.62998  0.81649  0.89863  Biso   1.000  H
  N65      1.0000 0.60846  0.97898  0.93266  Biso   1.000  N
  C468     1.0000 0.63729  0.81826  0.92859  Biso   1.000  C
  N66      1.0000 0.61636  0.75202  0.87000  Biso   1.000  N
  C469     1.0000 0.79269  0.88265  0.85633  Biso   1.000  C
  H620     1.0000 0.32234  0.46893  0.94873  Biso   1.000  H
  C470     1.0000 0.49917  0.55531  0.94852  Biso   1.000  C
  C471     1.0000 0.37047  0.37074  0.96120  Biso   1.000  C
  C472     1.0000 0.53179  0.11226  0.85827  Biso   1.000  C
  H621     1.0000 0.45035  0.00792  0.87823  Biso   1.000  H
  C473     1.0000 0.34002  0.93549  0.85952  Biso   1.000  C
  C474     1.0000 0.55220  0.93448  0.94781  Biso   1.000  C
  H622     1.0000 0.69047  0.80916  0.92183  Biso   1.000  H
  H623     1.0000 0.56117  0.75404  0.92704  Biso   1.000  H
  H624     1.0000 0.65930  0.82155  0.93963  Biso   1.000  H
  C475     1.0000 0.59537  0.65999  0.85952  Biso   1.000  C
  H625     1.0000 0.76258  0.82989  0.84743  Biso   1.000  H
  H626     1.0000 0.85852  0.88206  0.86073  Biso   1.000  H
  H627     1.0000 0.81490  0.95875  0.85264  Biso   1.000  H
  H628     1.0000 0.55868  0.53492  0.94733  Biso   1.000  H
  H629     1.0000 0.50680  0.60605  0.93973  Biso   1.000  H
  C476     1.0000 0.51408  0.61608  0.96410  Biso   1.000  C
  N67      1.0000 0.25492  0.27306  0.96087  Biso   1.000  N
  C477     1.0000 0.38686  0.43083  0.97742  Biso   1.000  C
  H630     1.0000 0.42649  0.34470  0.96003  Biso   1.000  H
  C478     1.0000 0.58230  0.03767  0.85260  Biso   1.000  C
  H631     1.0000 0.50889  0.14091  0.84914  Biso   1.000  H
  H632     1.0000 0.58826  0.17732  0.86443  Biso   1.000  H
  N68      1.0000 0.24792  0.86428  0.87000  Biso   1.000  N
  H633     1.0000 0.31095  0.96305  0.85084  Biso   1.000  H
  C479     1.0000 0.39250  0.87068  0.85257  Biso   1.000  C
  H634     1.0000 0.53119  0.85349  0.94873  Biso   1.000  H
  C480     1.0000 0.44477  0.94384  0.94852  Biso   1.000  C
  C481     1.0000 0.62938  0.99980  0.96120  Biso   1.000  C
  H635     1.0000 0.65210  0.68906  0.85084  Biso   1.000  H
  C482     1.0000 0.47811  0.60748  0.85257  Biso   1.000  C
  C483     1.0000 0.60801  0.57343  0.86877  Biso   1.000  C
  H636     1.0000 0.45664  0.63942  0.96504  Biso   1.000  H
  H637     1.0000 0.58946  0.68451  0.96444  Biso   1.000  H
  C484     1.0000 0.50159  0.53694  0.97812  Biso   1.000  C
  C485     1.0000 0.23434  0.17454  0.95737  Biso   1.000  C
  H638     1.0000 0.32714  0.45064  0.97893  Biso   1.000  H
  H639     1.0000 0.38049  0.37925  0.98604  Biso   1.000  H
  H640     1.0000 0.65040  0.08352  0.84613  Biso   1.000  H
  H641     1.0000 0.60427  0.00876  0.86183  Biso   1.000  H
  C486     1.0000 0.49587  0.94122  0.84309  Biso   1.000  C
  C487     1.0000 0.15251  0.85475  0.86902  Biso   1.000  C
  H642     1.0000 0.41193  0.83495  0.86123  Biso   1.000  H
  H643     1.0000 0.33611  0.80958  0.84583  Biso   1.000  H
  H644     1.0000 0.39404  0.90077  0.93973  Biso   1.000  H
  C488     1.0000 0.38400  0.89807  0.96410  Biso   1.000  C
  H645     1.0000 0.46506  0.02377  0.94733  Biso   1.000  H
  N69      1.0000 0.72704  0.98185  0.96087  Biso   1.000  N
  C489     1.0000 0.56919  0.95606  0.97742  Biso   1.000  C
  H646     1.0000 0.65528  0.08175  0.96003  Biso   1.000  H
  H647     1.0000 0.42306  0.58818  0.86123  Biso   1.000  H
  H648     1.0000 0.47338  0.66386  0.84583  Biso   1.000  H
  C490     1.0000 0.44539  0.50424  0.84309  Biso   1.000  C
  N70      1.0000 0.72448  0.62172  0.87361  Biso   1.000  N
  C491     1.0000 0.58038  0.46825  0.85827  Biso   1.000  C
  H649     1.0000 0.55759  0.54966  0.87823  Biso   1.000  H
  H650     1.0000 0.56163  0.51688  0.97753  Biso   1.000  H
  H651     1.0000 0.50979  0.57655  0.98823  Biso   1.000  H
  C492     1.0000 0.11202  0.08200  0.95757  Biso   1.000  C
  C493     1.0000 0.32178  0.14184  0.95229  Biso   1.000  C
  H652     1.0000 0.47594  0.97072  0.83374  Biso   1.000  H
  H653     1.0000 0.52766  0.89445  0.83943  Biso   1.000  H
  C494     1.0000 0.06656  0.78548  0.88114  Biso   1.000  C
  C495     1.0000 0.11738  0.91004  0.85633  Biso   1.000  C
  H654     1.0000 0.36060  0.81725  0.96504  Biso   1.000  H
  H655     1.0000 0.31557  0.90498  0.96444  Biso   1.000  H
  C496     1.0000 0.46306  0.96465  0.97812  Biso   1.000  C
  C497     1.0000 0.82548  0.05984  0.95737  Biso   1.000  C
  H656     1.0000 0.54930  0.87658  0.97893  Biso   1.000  H
  H657     1.0000 0.62081  0.00126  0.98604  Biso   1.000  H
  H658     1.0000 0.49497  0.52413  0.83374  Biso   1.000  H
  H659     1.0000 0.36681  0.47247  0.83943  Biso   1.000  H
  C498     1.0000 0.45529  0.41777  0.85260  Biso   1.000  C
  C499     1.0000 0.75319  0.61768  0.88763  Biso   1.000  C
  H660     1.0000 0.63213  0.49118  0.84914  Biso   1.000  H
  H661     1.0000 0.58903  0.41170  0.86443  Biso   1.000  H
  C500     1.0000 0.02922  0.11201  0.95762  Biso   1.000  C
  C501     1.0000 0.08283  0.97072  0.95762  Biso   1.000  C
  H662     1.0000 0.38157  0.20362  0.94623  Biso   1.000  H
  H663     1.0000 0.28514  0.07383  0.94574  Biso   1.000  H
  H664     1.0000 0.35430  0.12718  0.96163  Biso   1.000  H
  C502     1.0000 0.95163  0.73474  0.87927  Biso   1.000  C
  C503     1.0000 0.10507  0.77536  0.89644  Biso   1.000  C
  H665     1.0000 0.17021  0.93280  0.84743  Biso   1.000  H
  H666     1.0000 0.11796  0.97645  0.86073  Biso   1.000  H
  H667     1.0000 0.04119  0.85619  0.85264  Biso   1.000  H
  H668     1.0000 0.42355  0.93322  0.98823  Biso   1.000  H
  H669     1.0000 0.48322  0.04475  0.97753  Biso   1.000  H
  C504     1.0000 0.91800  0.03000  0.95757  Biso   1.000  C
  C505     1.0000 0.85816  0.17993  0.95229  Biso   1.000  C
  H670     1.0000 0.43314  0.34967  0.84613  Biso   1.000  H
  H671     1.0000 0.40459  0.39577  0.86183  Biso   1.000  H
  C506     1.0000 0.87526  0.66782  0.89047  Biso   1.000  C
  C507     1.0000 0.66459  0.52733  0.89983  Biso   1.000  C
  C508     1.0000 0.67961  0.59037  0.90223  Biso   1.000  C
  H672     1.0000 0.04980  0.18937  0.95764  Biso   1.000  H
  C509     1.0000 0.97000  0.88796  0.95757  Biso   1.000  C
  H673     1.0000 0.13952  0.95024  0.95764  Biso   1.000  H
  H674     1.0000 0.92369  0.74688  0.86963  Biso   1.000  H
  C510     1.0000 0.03118  0.71224  0.90780  Biso   1.000  C
  H675     1.0000 0.18358  0.81354  0.89863  Biso   1.000  H
  C511     1.0000 0.88803  0.91729  0.95762  Biso   1.000  C
  H676     1.0000 0.79635  0.17791  0.94623  Biso   1.000  H
  H677     1.0000 0.92621  0.21137  0.94574  Biso   1.000  H
  H678     1.0000 0.87285  0.22713  0.96163  Biso   1.000  H
  C512     1.0000 0.91975  0.66133  0.90523  Biso   1.000  C
  H679     1.0000 0.59135  0.52261  0.89843  Biso   1.000  H
  H680     1.0000 0.69153  0.55143  0.91064  Biso   1.000  H
  H681     1.0000 0.65710  0.45367  0.89784  Biso   1.000  H
  H682     1.0000 0.65259  0.51166  0.90533  Biso   1.000  H
  H683     1.0000 0.61488  0.59973  0.89994  Biso   1.000  H
  H684     1.0000 0.72354  0.64043  0.91084  Biso   1.000  H
  C513     1.0000 0.94009  0.76567  0.95737  Biso   1.000  C
  C514     1.0000 0.07650  0.71544  0.92436  Biso   1.000  C
  H685     1.0000 0.81080  0.86048  0.95764  Biso   1.000  H
  H686     1.0000 0.86950  0.61995  0.91353  Biso   1.000  H
  C515     1.0000 0.82005  0.67827  0.95229  Biso   1.000  C
  N71      1.0000 0.01810  0.74519  0.96087  Biso   1.000  N
  N72      1.0000 0.02111  0.62948  0.93266  Biso   1.000  N
  C516     1.0000 0.18180  0.81919  0.92859  Biso   1.000  C
  H687     1.0000 0.82203  0.61844  0.94623  Biso   1.000  H
  H688     1.0000 0.78863  0.71485  0.94574  Biso   1.000  H
  H689     1.0000 0.77298  0.64574  0.96163  Biso   1.000  H
  C517     1.0000 0.00028  0.62956  0.96120  Biso   1.000  C
  C518     1.0000 0.06566  0.61785  0.94781  Biso   1.000  C
  H690     1.0000 0.19086  0.88139  0.92183  Biso   1.000  H
  H691     1.0000 0.24603  0.80722  0.92704  Biso   1.000  H
  H692     1.0000 0.17852  0.83773  0.93963  Biso   1.000  H
  H693     1.0000 0.91832  0.57352  0.96003  Biso   1.000  H
  C519     1.0000 0.04395  0.61313  0.97742  Biso   1.000  C
  H694     1.0000 0.14652  0.67768  0.94873  Biso   1.000  H
  C520     1.0000 0.05621  0.50087  0.94852  Biso   1.000  C
  H695     1.0000 0.99877  0.61953  0.98604  Biso   1.000  H
  C521     1.0000 0.03536  0.49842  0.97812  Biso   1.000  C
  H696     1.0000 0.12354  0.67288  0.97893  Biso   1.000  H
  H697     1.0000 0.97625  0.44137  0.94733  Biso   1.000  H
  H698     1.0000 0.09928  0.49328  0.93973  Biso   1.000  H
  C522     1.0000 0.10189  0.48595  0.96410  Biso   1.000  C
  H699     1.0000 0.95536  0.43842  0.97753  Biso   1.000  H
  H700     1.0000 0.06682  0.49025  0.98823  Biso   1.000  H
  H701     1.0000 0.18285  0.54334  0.96504  Biso   1.000  H
  H702     1.0000 0.09498  0.41052  0.96444  Biso   1.000  H
  Ne1      1.0000 0.66668  0.33334  0.42418  Biso   1.000  Ne
  He1      1.0000 0.66667  0.33334  0.47365  Biso   1.000  He
  He2      1.0000 0.36222  0.04392  0.40466  Biso   1.000  He
  He3      1.0000 0.69486  0.58789  0.40753  Biso   1.000  He
  He4      1.0000 0.94812  0.31798  0.40506  Biso   1.000  He
  Ar1      1.0000 0.66667  0.33335  0.42233  Biso   1.000  Ar
  Ne2      1.0000 0.33335  0.66667  0.57582  Biso   1.000  Ne
  He5      1.0000 0.31715  0.93814  0.59444  Biso   1.000  He
  He6      1.0000 0.11211  0.41588  0.59224  Biso   1.000  He
  He7      1.0000 0.62495  0.68225  0.59466  Biso   1.000  He
  He8      1.0000 0.33336  0.66670  0.52634  Biso   1.000  He
  Ar2      1.0000 0.33336  0.66672  0.57582  Biso   1.000  Ar
  Ne3      1.0000 0.33334  0.66667  0.75751  Biso   1.000  Ne
  He9      1.0000 0.33335  0.66666  0.80698  Biso   1.000  He
  He10     1.0000 0.34917  0.95524  0.73884  Biso   1.000  He
  He11     1.0000 0.08086  0.44318  0.74100  Biso   1.000  He
  He12     1.0000 0.55154  0.63633  0.74123  Biso   1.000  He
  Ar3      1.0000 0.33333  0.66665  0.75751  Biso   1.000  Ar
  Ne4      1.0000 0.66667  0.33334  0.24249  Biso   1.000  Ne
  He13     1.0000 0.65050  0.60474  0.26110  Biso   1.000  He
  He14     1.0000 0.44537  0.08249  0.25891  Biso   1.000  He
  He15     1.0000 0.95824  0.34889  0.26132  Biso   1.000  He
  He16     1.0000 0.66666  0.33336  0.19302  Biso   1.000  He
  Ar4      1.0000 0.66669  0.33335  0.24249  Biso   1.000  Ar
  Ne5      1.0000 0.00001  0.00002  0.09085  Biso   1.000  Ne
  He17     1.0000 0.00002  0.00001  0.14032  Biso   1.000  He
  He18     1.0000 0.69558  0.71062  0.07132  Biso   1.000  He
  He19     1.0000 0.02823  0.25455  0.07420  Biso   1.000  He
  He20     1.0000 0.28139  0.98466  0.07173  Biso   1.000  He
  Ar5      1.0000 0.00002  0.99999  0.08897  Biso   1.000  Ar
  Ne6      1.0000 0.00001  0.00001  0.90915  Biso   1.000  Ne
  He21     1.0000 0.98383  0.27144  0.92778  Biso   1.000  He
  He22     1.0000 0.77876  0.74923  0.92558  Biso   1.000  He
  He23     1.0000 0.29163  0.01562  0.92800  Biso   1.000  He
  He24     1.0000 0.00002  0.00002  0.85968  Biso   1.000  He
  Ar6      1.0000 0.99999  0.99996  0.90916  Biso   1.000  Ar
