data_image0
_cell_length_a       26.57
_cell_length_b       26.57
_cell_length_c       22.553
_cell_angle_alpha    90
_cell_angle_beta     90
_cell_angle_gamma    120

_symmetry_space_group_name_H-M    "P 1"
_symmetry_int_tables_number       1

loop_
  _symmetry_equiv_pos_as_xyz
  'x, y, z'

loop_
  _atom_site_label
  _atom_site_occupancy
  _atom_site_fract_x
  _atom_site_fract_y
  _atom_site_fract_z
  _atom_site_thermal_displace_type
  _atom_site_B_iso_or_equiv
  _atom_site_type_symbol
  C1       1.0000 0.46430  0.41260  0.54600  Biso   1.000  C
  C2       1.0000 0.46773  0.46862  0.52281  Biso   1.000  C
  H1       1.0000 0.46552  0.38952  0.51222  Biso   1.000  H
  H2       1.0000 0.42709  0.38900  0.56720  Biso   1.000  H
  C3       1.0000 0.51541  0.42690  0.58852  Biso   1.000  C
  C4       1.0000 0.52340  0.50530  0.49182  Biso   1.000  C
  H3       1.0000 0.43511  0.45862  0.49519  Biso   1.000  H
  H4       1.0000 0.46412  0.49061  0.55642  Biso   1.000  H
  N1       1.0000 0.51122  0.37201  0.60520  Biso   1.000  N
  C5       1.0000 0.57252  0.46631  0.55722  Biso   1.000  C
  H5       1.0000 0.51200  0.44689  0.62462  Biso   1.000  H
  C6       1.0000 0.57332  0.52111  0.53580  Biso   1.000  C
  H6       1.0000 0.52501  0.54111  0.47679  Biso   1.000  H
  H7       1.0000 0.52702  0.48391  0.45759  Biso   1.000  H
  C7       1.0000 0.50953  0.35771  0.65903  Biso   1.000  C
  N2       1.0000 0.62112  0.48409  0.59921  Biso   1.000  N
  H8       1.0000 0.57740  0.44550  0.52281  Biso   1.000  H
  H9       1.0000 0.61092  0.54710  0.51629  Biso   1.000  H
  H10      1.0000 0.56920  0.54202  0.57012  Biso   1.000  H
  C8       1.0000 0.51659  0.39539  0.71179  Biso   1.000  C
  C9       1.0000 0.50271  0.29921  0.67162  Biso   1.000  C
  C10      1.0000 0.65442  0.46271  0.59633  Biso   1.000  C
  H11      1.0000 0.54482  0.43589  0.70239  Biso   1.000  H
  H12      1.0000 0.53049  0.38270  0.74580  Biso   1.000  H
  H13      1.0000 0.47910  0.39200  0.72159  Biso   1.000  H
  C11      1.0000 0.47961  0.27070  0.72523  Biso   1.000  C
  C12      1.0000 0.51972  0.27240  0.62932  Biso   1.000  C
  C13      1.0000 0.70401  0.48539  0.64009  Biso   1.000  C
  C14      1.0000 0.65030  0.41712  0.55390  Biso   1.000  C
  H14      1.0000 0.46791  0.28870  0.75422  Biso   1.000  H
  C15      1.0000 0.47333  0.21621  0.73711  Biso   1.000  C
  C16      1.0000 0.51461  0.21860  0.64009  Biso   1.000  C
  H15      1.0000 0.53511  0.29130  0.59252  Biso   1.000  H
  C17      1.0000 0.69973  0.50942  0.69401  Biso   1.000  C
  C18      1.0000 0.75272  0.48031  0.62932  Biso   1.000  C
  H16      1.0000 0.61243  0.39882  0.53399  Biso   1.000  H
  H17      1.0000 0.65443  0.38752  0.57580  Biso   1.000  H
  H18      1.0000 0.68131  0.43511  0.52432  Biso   1.000  H
  C19      1.0000 0.49060  0.19031  0.69401  Biso   1.000  C
  C20      1.0000 0.45243  0.18961  0.79741  Biso   1.000  C
  C21      1.0000 0.53732  0.19170  0.59633  Biso   1.000  C
  C22      1.0000 0.74292  0.52672  0.73711  Biso   1.000  C
  H19      1.0000 0.66692  0.51390  0.70133  Biso   1.000  H
  C23      1.0000 0.79652  0.49730  0.67162  Biso   1.000  C
  H20      1.0000 0.75621  0.46492  0.59252  Biso   1.000  H
  H21      1.0000 0.48611  0.15302  0.70133  Biso   1.000  H
  N3       1.0000 0.43051  0.21299  0.83040  Biso   1.000  N
  C24      1.0000 0.46842  0.14541  0.81843  Biso   1.000  C
  C25      1.0000 0.44042  0.13029  0.80220  Biso   1.000  C
  N4       1.0000 0.51591  0.13698  0.59921  Biso   1.000  N
  C26      1.0000 0.58292  0.23320  0.55390  Biso   1.000  C
  C27      1.0000 0.79111  0.52042  0.72523  Biso   1.000  C
  C28      1.0000 0.73723  0.54762  0.79741  Biso   1.000  C
  C29      1.0000 0.84823  0.49052  0.65903  Biso   1.000  C
  C30      1.0000 0.41303  0.19422  0.89092  Biso   1.000  C
  H22      1.0000 0.46590  0.14272  0.86170  Biso   1.000  H
  H23      1.0000 0.50822  0.15749  0.80592  Biso   1.000  H
  H24      1.0000 0.44161  0.10739  0.80109  Biso   1.000  H
  H25      1.0000 0.42279  0.11438  0.84091  Biso   1.000  H
  H26      1.0000 0.47672  0.12951  0.79821  Biso   1.000  H
  H27      1.0000 0.41352  0.10682  0.77063  Biso   1.000  H
  C31      1.0000 0.53372  0.10621  0.55722  Biso   1.000  C
  H28      1.0000 0.60119  0.21360  0.53399  Biso   1.000  H
  H29      1.0000 0.61254  0.26692  0.57580  Biso   1.000  H
  H30      1.0000 0.56491  0.24619  0.52432  Biso   1.000  H
  H31      1.0000 0.82082  0.53211  0.75422  Biso   1.000  H
  N5       1.0000 0.78251  0.56953  0.83040  Biso   1.000  N
  C32      1.0000 0.67701  0.53159  0.81843  Biso   1.000  C
  C33      1.0000 0.68993  0.55962  0.80220  Biso   1.000  C
  N6       1.0000 0.86082  0.48882  0.60520  Biso   1.000  N
  C34      1.0000 0.87881  0.48339  0.71179  Biso   1.000  C
  H32      1.0000 0.41969  0.16141  0.90090  Biso   1.000  H
  C35      1.0000 0.34860  0.17518  0.89731  Biso   1.000  C
  C36      1.0000 0.44971  0.24689  0.93189  Biso   1.000  C
  H33      1.0000 0.55451  0.13190  0.52281  Biso   1.000  H
  C37      1.0000 0.47890  0.05219  0.53580  Biso   1.000  C
  C38      1.0000 0.57311  0.08848  0.58852  Biso   1.000  C
  C39      1.0000 0.78119  0.58700  0.89092  Biso   1.000  C
  H34      1.0000 0.67680  0.53411  0.86170  Biso   1.000  H
  H35      1.0000 0.64930  0.49182  0.80592  Biso   1.000  H
  H36      1.0000 0.66580  0.55840  0.80109  Biso   1.000  H
  H37      1.0000 0.69162  0.57722  0.84091  Biso   1.000  H
  H38      1.0000 0.65280  0.52329  0.79821  Biso   1.000  H
  H39      1.0000 0.69330  0.58652  0.77063  Biso   1.000  H
  C40      1.0000 0.91152  0.48461  0.58852  Biso   1.000  C
  H40      1.0000 0.89109  0.45519  0.70239  Biso   1.000  H
  H41      1.0000 0.85221  0.46949  0.74580  Biso   1.000  H
  H42      1.0000 0.91291  0.52090  0.72159  Biso   1.000  H
  H43      1.0000 0.32528  0.14059  0.87230  Biso   1.000  H
  H44      1.0000 0.34221  0.20682  0.88281  Biso   1.000  H
  C41      1.0000 0.32800  0.16101  0.96173  Biso   1.000  C
  N7       1.0000 0.51062  0.26249  0.92733  Biso   1.000  N
  C42      1.0000 0.43009  0.23120  0.99663  Biso   1.000  C
  H45      1.0000 0.44531  0.28061  0.91930  Biso   1.000  H
  H46      1.0000 0.45290  0.06380  0.51629  Biso   1.000  H
  H47      1.0000 0.45801  0.02721  0.57012  Biso   1.000  H
  C43      1.0000 0.49470  0.01808  0.49182  Biso   1.000  C
  N8       1.0000 0.62801  0.13920  0.60520  Biso   1.000  N
  C44      1.0000 0.58743  0.05172  0.54600  Biso   1.000  C
  H48      1.0000 0.55310  0.06510  0.62462  Biso   1.000  H
  H49      1.0000 0.74171  0.58031  0.90090  Biso   1.000  H
  C45      1.0000 0.82661  0.65140  0.89731  Biso   1.000  C
  C46      1.0000 0.79721  0.55032  0.93189  Biso   1.000  C
  C47      1.0000 0.89380  0.42750  0.55722  Biso   1.000  C
  C48      1.0000 0.94833  0.53572  0.54600  Biso   1.000  C
  H50      1.0000 0.93489  0.48800  0.62462  Biso   1.000  H
  H51      1.0000 0.28700  0.15150  0.96453  Biso   1.000  H
  H52      1.0000 0.33022  0.12660  0.97490  Biso   1.000  H
  C49      1.0000 0.36550  0.21230  0.00231  Biso   1.000  C
  C50      1.0000 0.54781  0.31090  0.90600  Biso   1.000  C
  H53      1.0000 0.45351  0.26540  0.02230  Biso   1.000  H
  H54      1.0000 0.43650  0.19930  0.00971  Biso   1.000  H
  H55      1.0000 0.51610  0.04311  0.45759  Biso   1.000  H
  H56      1.0000 0.45891  0.98391  0.47679  Biso   1.000  H
  C51      1.0000 0.53140  0.99912  0.52281  Biso   1.000  C
  C52      1.0000 0.64229  0.15180  0.65903  Biso   1.000  C
  H57      1.0000 0.61053  0.07601  0.51222  Biso   1.000  H
  H58      1.0000 0.61100  0.03811  0.56720  Biso   1.000  H
  H59      1.0000 0.81529  0.67470  0.87230  Biso   1.000  H
  H60      1.0000 0.86461  0.65779  0.88281  Biso   1.000  H
  C53      1.0000 0.83299  0.67200  0.96173  Biso   1.000  C
  N9       1.0000 0.75188  0.48939  0.92733  Biso   1.000  N
  C54      1.0000 0.80111  0.56992  0.99663  Biso   1.000  C
  H61      1.0000 0.83531  0.55471  0.91930  Biso   1.000  H
  N10      1.0000 0.86300  0.37892  0.59921  Biso   1.000  N
  H62      1.0000 0.86809  0.42259  0.52281  Biso   1.000  H
  C55      1.0000 0.94784  0.42672  0.53580  Biso   1.000  C
  H63      1.0000 0.92401  0.53450  0.51222  Biso   1.000  H
  H64      1.0000 0.96192  0.57292  0.56720  Biso   1.000  H
  C56      1.0000 0.00090  0.53233  0.52281  Biso   1.000  C
  H65      1.0000 0.35989  0.24541  0.99202  Biso   1.000  H
  H66      1.0000 0.35312  0.20130  0.04390  Biso   1.000  H
  C57      1.0000 0.60962  0.32372  0.90392  Biso   1.000  C
  C58      1.0000 0.53711  0.35793  0.88112  Biso   1.000  C
  H67      1.0000 0.54140  0.97652  0.49519  Biso   1.000  H
  H68      1.0000 0.50942  0.97352  0.55642  Biso   1.000  H
  C59      1.0000 0.60460  0.12121  0.71179  Biso   1.000  C
  C60      1.0000 0.70082  0.20352  0.67162  Biso   1.000  C
  H69      1.0000 0.86453  0.71303  0.96453  Biso   1.000  H
  H70      1.0000 0.79641  0.66983  0.97490  Biso   1.000  H
  C61      1.0000 0.84679  0.63450  0.00231  Biso   1.000  C
  C62      1.0000 0.76309  0.45219  0.90600  Biso   1.000  C
  H71      1.0000 0.81190  0.54649  0.02230  Biso   1.000  H
  H72      1.0000 0.76281  0.56349  0.00971  Biso   1.000  H
  C63      1.0000 0.80828  0.34558  0.59633  Biso   1.000  C
  H73      1.0000 0.93621  0.38909  0.51629  Biso   1.000  H
  H74      1.0000 0.97280  0.43081  0.57012  Biso   1.000  H
  C64      1.0000 0.98193  0.47661  0.49182  Biso   1.000  C
  H75      1.0000 0.02352  0.56492  0.49519  Biso   1.000  H
  H76      1.0000 0.02651  0.53589  0.55642  Biso   1.000  H
  C65      1.0000 0.65639  0.37970  0.90400  Biso   1.000  C
  C66      1.0000 0.62032  0.27670  0.90400  Biso   1.000  C
  H77      1.0000 0.50061  0.33972  0.85860  Biso   1.000  H
  H78      1.0000 0.56930  0.38339  0.85492  Biso   1.000  H
  H79      1.0000 0.53430  0.38061  0.91380  Biso   1.000  H
  H80      1.0000 0.56413  0.10891  0.70239  Biso   1.000  H
  H81      1.0000 0.61730  0.14780  0.74580  Biso   1.000  H
  H82      1.0000 0.60802  0.08709  0.72159  Biso   1.000  H
  C67      1.0000 0.72933  0.20891  0.72523  Biso   1.000  C
  C68      1.0000 0.72761  0.24732  0.62932  Biso   1.000  C
  H83      1.0000 0.88550  0.64010  0.99202  Biso   1.000  H
  H84      1.0000 0.84823  0.64693  0.04390  Biso   1.000  H
  C69      1.0000 0.71409  0.39039  0.90392  Biso   1.000  C
  C70      1.0000 0.82081  0.46292  0.88112  Biso   1.000  C
  C71      1.0000 0.78142  0.29600  0.64009  Biso   1.000  C
  C72      1.0000 0.76680  0.34971  0.55390  Biso   1.000  C
  H85      1.0000 0.95690  0.47301  0.45759  Biso   1.000  H
  H86      1.0000 0.01609  0.47500  0.47679  Biso   1.000  H
  H87      1.0000 0.64972  0.41160  0.90409  Biso   1.000  H
  H88      1.0000 0.58842  0.23811  0.90409  Biso   1.000  H
  C73      1.0000 0.67630  0.28592  0.90392  Biso   1.000  C
  H89      1.0000 0.71133  0.17922  0.75422  Biso   1.000  H
  C74      1.0000 0.78380  0.25710  0.73711  Biso   1.000  C
  H90      1.0000 0.70873  0.24380  0.59252  Biso   1.000  H
  C75      1.0000 0.72332  0.34359  0.90400  Biso   1.000  C
  H91      1.0000 0.83914  0.49943  0.85860  Biso   1.000  H
  H92      1.0000 0.81412  0.43072  0.85492  Biso   1.000  H
  H93      1.0000 0.84633  0.46570  0.91380  Biso   1.000  H
  C76      1.0000 0.80973  0.30030  0.69401  Biso   1.000  C
  H94      1.0000 0.78643  0.38761  0.53399  Biso   1.000  H
  H95      1.0000 0.73309  0.34558  0.57580  Biso   1.000  H
  H96      1.0000 0.75381  0.31868  0.52432  Biso   1.000  H
  C77      1.0000 0.68909  0.23689  0.90600  Biso   1.000  C
  C78      1.0000 0.81040  0.26280  0.79741  Biso   1.000  C
  H97      1.0000 0.76191  0.35032  0.90409  Biso   1.000  H
  H98      1.0000 0.84702  0.33311  0.70133  Biso   1.000  H
  N11      1.0000 0.73751  0.24815  0.92733  Biso   1.000  N
  C79      1.0000 0.64211  0.17922  0.88112  Biso   1.000  C
  N12      1.0000 0.78700  0.21751  0.83040  Biso   1.000  N
  C80      1.0000 0.85461  0.32299  0.81843  Biso   1.000  C
  C81      1.0000 0.86974  0.31012  0.80220  Biso   1.000  C
  C82      1.0000 0.75312  0.20282  0.93189  Biso   1.000  C
  H99      1.0000 0.66031  0.16088  0.85860  Biso   1.000  H
  H100     1.0000 0.61663  0.18592  0.85492  Biso   1.000  H
  H101     1.0000 0.61942  0.15371  0.91380  Biso   1.000  H
  C83      1.0000 0.80583  0.21882  0.89092  Biso   1.000  C
  H102     1.0000 0.85731  0.32320  0.86170  Biso   1.000  H
  H103     1.0000 0.84250  0.35071  0.80592  Biso   1.000  H
  H104     1.0000 0.89262  0.33420  0.80109  Biso   1.000  H
  H105     1.0000 0.88562  0.30838  0.84091  Biso   1.000  H
  H106     1.0000 0.87051  0.34719  0.79821  Biso   1.000  H
  H107     1.0000 0.89320  0.30669  0.77063  Biso   1.000  H
  C84      1.0000 0.76882  0.19891  0.99663  Biso   1.000  C
  H108     1.0000 0.71943  0.16471  0.91930  Biso   1.000  H
  H109     1.0000 0.83861  0.25832  0.90090  Biso   1.000  H
  C85      1.0000 0.82483  0.17340  0.89731  Biso   1.000  C
  C86      1.0000 0.78770  0.15319  0.00231  Biso   1.000  C
  H110     1.0000 0.73462  0.18809  0.02230  Biso   1.000  H
  H111     1.0000 0.80072  0.23720  0.00971  Biso   1.000  H
  H112     1.0000 0.85942  0.18470  0.87230  Biso   1.000  H
  H113     1.0000 0.79323  0.13542  0.88281  Biso   1.000  H
  C87      1.0000 0.83902  0.16701  0.96173  Biso   1.000  C
  H114     1.0000 0.75462  0.11451  0.99202  Biso   1.000  H
  H115     1.0000 0.79871  0.15180  0.04390  Biso   1.000  H
  H116     1.0000 0.84852  0.13550  0.96453  Biso   1.000  H
  H117     1.0000 0.87342  0.20360  0.97490  Biso   1.000  H
  C88      1.0000 0.28340  0.39300  0.37840  Biso   1.000  C
  C89      1.0000 0.23151  0.33550  0.35862  Biso   1.000  C
  H118     1.0000 0.30273  0.41742  0.34319  Biso   1.000  H
  H119     1.0000 0.31189  0.38539  0.39893  Biso   1.000  H
  C90      1.0000 0.26450  0.42581  0.42012  Biso   1.000  C
  C91      1.0000 0.18641  0.34519  0.32931  Biso   1.000  C
  H120     1.0000 0.24478  0.31599  0.33042  Biso   1.000  H
  H121     1.0000 0.21422  0.30982  0.39338  Biso   1.000  H
  C92      1.0000 0.21980  0.43741  0.38899  Biso   1.000  C
  N13      1.0000 0.31566  0.48122  0.43560  Biso   1.000  N
  H122     1.0000 0.24691  0.40230  0.45679  Biso   1.000  H
  C93      1.0000 0.16820  0.37922  0.36940  Biso   1.000  C
  H123     1.0000 0.15191  0.30721  0.31960  Biso   1.000  H
  H124     1.0000 0.20220  0.36692  0.29180  Biso   1.000  H
  N14      1.0000 0.19981  0.46570  0.43001  Biso   1.000  N
  H125     1.0000 0.23798  0.46279  0.35370  Biso   1.000  H
  C94      1.0000 0.32961  0.49513  0.48982  Biso   1.000  C
  H126     1.0000 0.14861  0.35562  0.40500  Biso   1.000  H
  H127     1.0000 0.13982  0.38652  0.34820  Biso   1.000  H
  C95      1.0000 0.21492  0.51912  0.42469  Biso   1.000  C
  C96      1.0000 0.29291  0.46132  0.54219  Biso   1.000  C
  C97      1.0000 0.38410  0.55180  0.50193  Biso   1.000  C
  C98      1.0000 0.19098  0.54289  0.46969  Biso   1.000  C
  C99      1.0000 0.25529  0.56162  0.37880  Biso   1.000  C
  H128     1.0000 0.25190  0.44050  0.53062  Biso   1.000  H
  H129     1.0000 0.29861  0.48822  0.57460  Biso   1.000  H
  H130     1.0000 0.30440  0.43341  0.55531  Biso   1.000  H
  C100     1.0000 0.40641  0.59543  0.45861  Biso   1.000  C
  C101     1.0000 0.41253  0.56123  0.55602  Biso   1.000  C
  C102     1.0000 0.18901  0.59360  0.45861  Biso   1.000  C
  C103     1.0000 0.17193  0.51473  0.52490  Biso   1.000  C
  H131     1.0000 0.28621  0.59612  0.39871  Biso   1.000  H
  H132     1.0000 0.23329  0.57309  0.35272  Biso   1.000  H
  H133     1.0000 0.27261  0.54310  0.35530  Biso   1.000  H
  H134     1.0000 0.38700  0.58913  0.42158  Biso   1.000  H
  C104     1.0000 0.45710  0.64810  0.46969  Biso   1.000  C
  C105     1.0000 0.46351  0.61412  0.56839  Biso   1.000  C
  H135     1.0000 0.39732  0.53133  0.58511  Biso   1.000  H
  C106     1.0000 0.16772  0.61590  0.50193  Biso   1.000  C
  H136     1.0000 0.20211  0.61303  0.42158  Biso   1.000  H
  H137     1.0000 0.17358  0.48039  0.53261  Biso   1.000  H
  C107     1.0000 0.15060  0.53650  0.56839  Biso   1.000  C
  C108     1.0000 0.48533  0.65723  0.52490  Biso   1.000  C
  C109     1.0000 0.48092  0.69582  0.42469  Biso   1.000  C
  C110     1.0000 0.49101  0.62311  0.62821  Biso   1.000  C
  C111     1.0000 0.16550  0.67040  0.48982  Biso   1.000  C
  C112     1.0000 0.14871  0.58752  0.55602  Biso   1.000  C
  C113     1.0000 0.13210  0.50899  0.62821  Biso   1.000  C
  H138     1.0000 0.51962  0.69321  0.53261  Biso   1.000  H
  N15      1.0000 0.53431  0.73411  0.43001  Biso   1.000  N
  C114     1.0000 0.43841  0.69369  0.37880  Biso   1.000  C
  N16      1.0000 0.47531  0.57839  0.65929  Biso   1.000  N
  C115     1.0000 0.53159  0.68569  0.64790  Biso   1.000  C
  N17      1.0000 0.16558  0.68435  0.43560  Biso   1.000  N
  C116     1.0000 0.16839  0.70712  0.54219  Biso   1.000  C
  H139     1.0000 0.13400  0.60273  0.58511  Biso   1.000  H
  N18      1.0000 0.10312  0.52472  0.65929  Biso   1.000  N
  C117     1.0000 0.15411  0.46840  0.64790  Biso   1.000  C
  C118     1.0000 0.56261  0.78243  0.38899  Biso   1.000  C
  H140     1.0000 0.40393  0.69013  0.39871  Biso   1.000  H
  H141     1.0000 0.42691  0.66023  0.35272  Biso   1.000  H
  H142     1.0000 0.45688  0.72950  0.35530  Biso   1.000  H
  C119     1.0000 0.49660  0.58139  0.71959  Biso   1.000  C
  H143     1.0000 0.52902  0.68852  0.69099  Biso   1.000  H
  H144     1.0000 0.52011  0.71142  0.62839  Biso   1.000  H
  H145     1.0000 0.57161  0.69730  0.63690  Biso   1.000  H
  C120     1.0000 0.16131  0.73550  0.42012  Biso   1.000  C
  H146     1.0000 0.18862  0.74810  0.53062  Biso   1.000  H
  H147     1.0000 0.18963  0.70143  0.57460  Biso   1.000  H
  H148     1.0000 0.12898  0.69560  0.55531  Biso   1.000  H
  C121     1.0000 0.08480  0.50343  0.71959  Biso   1.000  C
  H149     1.0000 0.15952  0.47101  0.69099  Biso   1.000  H
  H150     1.0000 0.19129  0.47992  0.62839  Biso   1.000  H
  H151     1.0000 0.12573  0.42842  0.63690  Biso   1.000  H
  H152     1.0000 0.53721  0.77522  0.35370  Biso   1.000  H
  C122     1.0000 0.62081  0.78899  0.36940  Biso   1.000  C
  C123     1.0000 0.57419  0.83871  0.42012  Biso   1.000  C
  H153     1.0000 0.52522  0.62250  0.73019  Biso   1.000  H
  C124     1.0000 0.52533  0.54363  0.72363  Biso   1.000  C
  C125     1.0000 0.44408  0.55749  0.76110  Biso   1.000  C
  C126     1.0000 0.21762  0.78022  0.38899  Biso   1.000  C
  C127     1.0000 0.10959  0.71659  0.37840  Biso   1.000  C
  H154     1.0000 0.15540  0.75310  0.45679  Biso   1.000  H
  H155     1.0000 0.09727  0.47479  0.73019  Biso   1.000  H
  C128     1.0000 0.01831  0.47470  0.72363  Biso   1.000  C
  C129     1.0000 0.11342  0.55593  0.76110  Biso   1.000  C
  H156     1.0000 0.64441  0.79299  0.40500  Biso   1.000  H
  H157     1.0000 0.61350  0.75331  0.34820  Biso   1.000  H
  C130     1.0000 0.65483  0.84123  0.32931  Biso   1.000  C
  N19      1.0000 0.51877  0.83445  0.43560  Biso   1.000  N
  C131     1.0000 0.60701  0.89043  0.37840  Biso   1.000  C
  H158     1.0000 0.59770  0.84462  0.45679  Biso   1.000  H
  H159     1.0000 0.49791  0.50399  0.70891  Biso   1.000  H
  H160     1.0000 0.56022  0.56040  0.69809  Biso   1.000  H
  C132     1.0000 0.54231  0.54002  0.78690  Biso   1.000  C
  N20      1.0000 0.41982  0.59643  0.75799  Biso   1.000  N
  C133     1.0000 0.46121  0.55449  0.82450  Biso   1.000  C
  H161     1.0000 0.41411  0.51772  0.74762  Biso   1.000  H
  N21      1.0000 0.26589  0.80021  0.43001  Biso   1.000  N
  H162     1.0000 0.22481  0.76201  0.35370  Biso   1.000  H
  C134     1.0000 0.21101  0.83180  0.36940  Biso   1.000  C
  C135     1.0000 0.10402  0.76853  0.35862  Biso   1.000  C
  H163     1.0000 0.11470  0.69730  0.34319  Biso   1.000  H
  H164     1.0000 0.07350  0.68813  0.39893  Biso   1.000  H
  H165     1.0000 0.00612  0.50212  0.70891  Biso   1.000  H
  H166     1.0000 0.00018  0.43980  0.69809  Biso   1.000  H
  C136     1.0000 0.99773  0.45771  0.78690  Biso   1.000  C
  N22      1.0000 0.17660  0.58022  0.75799  Biso   1.000  N
  C137     1.0000 0.09330  0.53880  0.82450  Biso   1.000  C
  H167     1.0000 0.10361  0.58591  0.74762  Biso   1.000  H
  H168     1.0000 0.69281  0.84471  0.31960  Biso   1.000  H
  H169     1.0000 0.63313  0.83532  0.29180  Biso   1.000  H
  C138     1.0000 0.66450  0.89603  0.35862  Biso   1.000  C
  C139     1.0000 0.50490  0.83450  0.48982  Biso   1.000  C
  H170     1.0000 0.58262  0.88530  0.34319  Biso   1.000  H
  H171     1.0000 0.61459  0.92650  0.39893  Biso   1.000  H
  H172     1.0000 0.57230  0.57922  0.80029  Biso   1.000  H
  H173     1.0000 0.55940  0.51429  0.78841  Biso   1.000  H
  C140     1.0000 0.49043  0.51673  0.82809  Biso   1.000  C
  C141     1.0000 0.36820  0.57909  0.74283  Biso   1.000  C
  H174     1.0000 0.42621  0.53763  0.85013  Biso   1.000  H
  H175     1.0000 0.48853  0.59421  0.83900  Biso   1.000  H
  C142     1.0000 0.30423  0.78513  0.42469  Biso   1.000  C
  H176     1.0000 0.20700  0.85140  0.40500  Biso   1.000  H
  H177     1.0000 0.24671  0.86022  0.34820  Biso   1.000  H
  C143     1.0000 0.15881  0.81359  0.32931  Biso   1.000  C
  H178     1.0000 0.07122  0.75523  0.33042  Biso   1.000  H
  H179     1.0000 0.09562  0.78582  0.39338  Biso   1.000  H
  H180     1.0000 0.00690  0.42772  0.80029  Biso   1.000  H
  C144     1.0000 0.02631  0.50960  0.82809  Biso   1.000  C
  H181     1.0000 0.95492  0.44059  0.78841  Biso   1.000  H
  C145     1.0000 0.21090  0.63180  0.74283  Biso   1.000  C
  H182     1.0000 0.11142  0.57383  0.85013  Biso   1.000  H
  H183     1.0000 0.10570  0.51151  0.83900  Biso   1.000  H
  H184     1.0000 0.68401  0.92880  0.33042  Biso   1.000  H
  H185     1.0000 0.69022  0.90442  0.39338  Biso   1.000  H
  C146     1.0000 0.53873  0.83163  0.54219  Biso   1.000  C
  C147     1.0000 0.44823  0.83232  0.50193  Biso   1.000  C
  H186     1.0000 0.50320  0.51659  0.86933  Biso   1.000  H
  H187     1.0000 0.46198  0.47609  0.81701  Biso   1.000  H
  C148     1.0000 0.34962  0.62381  0.74163  Biso   1.000  C
  C149     1.0000 0.32450  0.52029  0.71330  Biso   1.000  C
  C150     1.0000 0.32381  0.51673  0.74243  Biso   1.000  C
  C151     1.0000 0.35190  0.80903  0.46969  Biso   1.000  C
  C152     1.0000 0.30630  0.74471  0.37880  Biso   1.000  C
  H188     1.0000 0.15529  0.84810  0.31960  Biso   1.000  H
  H189     1.0000 0.16470  0.79782  0.29180  Biso   1.000  H
  H190     1.0000 0.01341  0.49682  0.86933  Biso   1.000  H
  H191     1.0000 0.01410  0.53802  0.81701  Biso   1.000  H
  C153     1.0000 0.27420  0.65040  0.74163  Biso   1.000  C
  C154     1.0000 0.19580  0.67552  0.71330  Biso   1.000  C
  C155     1.0000 0.19291  0.67622  0.74243  Biso   1.000  C
  H192     1.0000 0.55953  0.81142  0.53062  Biso   1.000  H
  H193     1.0000 0.51180  0.81042  0.57460  Biso   1.000  H
  H194     1.0000 0.56659  0.87100  0.55531  Biso   1.000  H
  C156     1.0000 0.40461  0.81103  0.45861  Biso   1.000  C
  C157     1.0000 0.43879  0.85131  0.55602  Biso   1.000  C
  C158     1.0000 0.29100  0.60781  0.74172  Biso   1.000  C
  C159     1.0000 0.39219  0.68322  0.74172  Biso   1.000  C
  H195     1.0000 0.31662  0.52733  0.67250  Biso   1.000  H
  H196     1.0000 0.28810  0.50191  0.73591  Biso   1.000  H
  H197     1.0000 0.34110  0.49469  0.71272  Biso   1.000  H
  H198     1.0000 0.31963  0.50143  0.70212  Biso   1.000  H
  H199     1.0000 0.33591  0.49560  0.76912  Biso   1.000  H
  H200     1.0000 0.28659  0.51190  0.75582  Biso   1.000  H
  C160     1.0000 0.34281  0.82811  0.52490  Biso   1.000  C
  H201     1.0000 0.30990  0.71381  0.39871  Biso   1.000  H
  H202     1.0000 0.33980  0.76670  0.35272  Biso   1.000  H
  H203     1.0000 0.27052  0.72741  0.35530  Biso   1.000  H
  C161     1.0000 0.31680  0.70903  0.74172  Biso   1.000  C
  H204     1.0000 0.21068  0.68339  0.67250  Biso   1.000  H
  H205     1.0000 0.21380  0.71190  0.73591  Biso   1.000  H
  H206     1.0000 0.15362  0.65892  0.71272  Biso   1.000  H
  H207     1.0000 0.18178  0.68039  0.70212  Biso   1.000  H
  H208     1.0000 0.15971  0.66409  0.76912  Biso   1.000  H
  H209     1.0000 0.22532  0.71342  0.75582  Biso   1.000  H
  H210     1.0000 0.41092  0.79790  0.42158  Biso   1.000  H
  C162     1.0000 0.38590  0.84940  0.56839  Biso   1.000  C
  H211     1.0000 0.46872  0.86600  0.58511  Biso   1.000  H
  H212     1.0000 0.26210  0.56779  0.74190  Biso   1.000  H
  H213     1.0000 0.43221  0.69430  0.74190  Biso   1.000  H
  C163     1.0000 0.37619  0.72581  0.74163  Biso   1.000  C
  H214     1.0000 0.30681  0.82641  0.53261  Biso   1.000  H
  H215     1.0000 0.30570  0.73793  0.74190  Biso   1.000  H
  C164     1.0000 0.37690  0.86792  0.62821  Biso   1.000  C
  C165     1.0000 0.42091  0.78913  0.74283  Biso   1.000  C
  N23      1.0000 0.42162  0.89690  0.65929  Biso   1.000  N
  C166     1.0000 0.31431  0.84593  0.64790  Biso   1.000  C
  N24      1.0000 0.40362  0.82341  0.75799  Biso   1.000  N
  C167     1.0000 0.47971  0.80421  0.71330  Biso   1.000  C
  C168     1.0000 0.48331  0.80712  0.74243  Biso   1.000  C
  C169     1.0000 0.41861  0.91520  0.71959  Biso   1.000  C
  H216     1.0000 0.31148  0.84049  0.69099  Biso   1.000  H
  H217     1.0000 0.28859  0.80872  0.62839  Biso   1.000  H
  H218     1.0000 0.30271  0.87430  0.63690  Biso   1.000  H
  C170     1.0000 0.44251  0.88660  0.76110  Biso   1.000  C
  H219     1.0000 0.47271  0.78930  0.67250  Biso   1.000  H
  H220     1.0000 0.49811  0.78621  0.73591  Biso   1.000  H
  H221     1.0000 0.50529  0.84640  0.71272  Biso   1.000  H
  H222     1.0000 0.49860  0.81820  0.70212  Biso   1.000  H
  H223     1.0000 0.50443  0.84032  0.76912  Biso   1.000  H
  H224     1.0000 0.48810  0.77470  0.75582  Biso   1.000  H
  H225     1.0000 0.37752  0.90273  0.73019  Biso   1.000  H
  C171     1.0000 0.45643  0.98173  0.72363  Biso   1.000  C
  C172     1.0000 0.44550  0.90672  0.82450  Biso   1.000  C
  H226     1.0000 0.48231  0.89642  0.74762  Biso   1.000  H
  H227     1.0000 0.49601  0.99390  0.70891  Biso   1.000  H
  H228     1.0000 0.43961  0.99981  0.69809  Biso   1.000  H
  C173     1.0000 0.46002  0.00230  0.78690  Biso   1.000  C
  C174     1.0000 0.48331  0.97369  0.82809  Biso   1.000  C
  H229     1.0000 0.46240  0.88860  0.85013  Biso   1.000  H
  H230     1.0000 0.40579  0.89430  0.83900  Biso   1.000  H
  H231     1.0000 0.42080  0.99312  0.80029  Biso   1.000  H
  H232     1.0000 0.48571  0.04511  0.78841  Biso   1.000  H
  H233     1.0000 0.48340  0.98660  0.86933  Biso   1.000  H
  H234     1.0000 0.52389  0.98591  0.81701  Biso   1.000  H
  C175     1.0000 0.45436  0.48652  0.33565  Biso   1.000  C
  C176     1.0000 0.50568  0.50034  0.29504  Biso   1.000  C
  H235     1.0000 0.46537  0.48513  0.37724  Biso   1.000  H
  H236     1.0000 0.42129  0.44784  0.32532  Biso   1.000  H
  C177     1.0000 0.43548  0.53224  0.32993  Biso   1.000  C
  C178     1.0000 0.49145  0.50673  0.23066  Biso   1.000  C
  H237     1.0000 0.51518  0.46883  0.29783  Biso   1.000  H
  H238     1.0000 0.54009  0.53693  0.30825  Biso   1.000  H
  H239     1.0000 0.40127  0.52146  0.35565  Biso   1.000  H
  H240     1.0000 0.46735  0.57053  0.34306  Biso   1.000  H
  C179     1.0000 0.41979  0.53615  0.26524  Biso   1.000  C
  C180     1.0000 0.47246  0.55214  0.22423  Biso   1.000  C
  H241     1.0000 0.52608  0.51803  0.20565  Biso   1.000  H
  H242     1.0000 0.45989  0.46875  0.21616  Biso   1.000  H
  N25      1.0000 0.40418  0.58148  0.26067  Biso   1.000  N
  H243     1.0000 0.38605  0.49804  0.25265  Biso   1.000  H
  N26      1.0000 0.45367  0.55084  0.16375  Biso   1.000  N
  H244     1.0000 0.50527  0.59165  0.23425  Biso   1.000  H
  C181     1.0000 0.35576  0.57022  0.23935  Biso   1.000  C
  C182     1.0000 0.47706  0.59612  0.13071  Biso   1.000  C
  C183     1.0000 0.34297  0.61924  0.23722  Biso   1.000  C
  C184     1.0000 0.30878  0.51255  0.21443  Biso   1.000  C
  C185     1.0000 0.45047  0.59043  0.07046  Biso   1.000  C
  C186     1.0000 0.52129  0.65636  0.15173  Biso   1.000  C
  C187     1.0000 0.53637  0.64345  0.13555  Biso   1.000  C
  C188     1.0000 0.38997  0.67696  0.23735  Biso   1.000  C
  C189     1.0000 0.28695  0.61003  0.23735  Biso   1.000  C
  H245     1.0000 0.32699  0.49426  0.19195  Biso   1.000  H
  H246     1.0000 0.28326  0.51925  0.18822  Biso   1.000  H
  H247     1.0000 0.28609  0.48704  0.24715  Biso   1.000  H
  C190     1.0000 0.39596  0.54224  0.05853  Biso   1.000  C
  C191     1.0000 0.47636  0.63363  0.02731  Biso   1.000  C
  H248     1.0000 0.52398  0.65653  0.19505  Biso   1.000  H
  H249     1.0000 0.50916  0.68404  0.13923  Biso   1.000  H
  H250     1.0000 0.55928  0.66753  0.13444  Biso   1.000  H
  H251     1.0000 0.55227  0.64176  0.17426  Biso   1.000  H
  H252     1.0000 0.53720  0.68056  0.13156  Biso   1.000  H
  H253     1.0000 0.55989  0.64006  0.10393  Biso   1.000  H
  H254     1.0000 0.42858  0.68365  0.23744  Biso   1.000  H
  C192     1.0000 0.38077  0.72376  0.23722  Biso   1.000  C
  H255     1.0000 0.25508  0.57144  0.23744  Biso   1.000  H
  C193     1.0000 0.27629  0.65705  0.23722  Biso   1.000  C
  C194     1.0000 0.36748  0.53685  0.00492  Biso   1.000  C
  H256     1.0000 0.37799  0.51255  0.08753  Biso   1.000  H
  H257     1.0000 0.51369  0.66644  0.03463  Biso   1.000  H
  C195     1.0000 0.44805  0.62933  0.97344  Biso   1.000  C
  C196     1.0000 0.32306  0.71303  0.23735  Biso   1.000  C
  C197     1.0000 0.42978  0.78556  0.23935  Biso   1.000  C
  C198     1.0000 0.21448  0.64423  0.23935  Biso   1.000  C
  C199     1.0000 0.30896  0.48513  0.99233  Biso   1.000  C
  C200     1.0000 0.39428  0.58065  0.96267  Biso   1.000  C
  C201     1.0000 0.47497  0.67896  0.92963  Biso   1.000  C
  H258     1.0000 0.31635  0.74493  0.23744  Biso   1.000  H
  N27      1.0000 0.41855  0.82272  0.26067  Biso   1.000  N
  C202     1.0000 0.48748  0.79625  0.21443  Biso   1.000  C
  N28      1.0000 0.17729  0.59582  0.26067  Biso   1.000  N
  C203     1.0000 0.20378  0.69126  0.21443  Biso   1.000  C
  C204     1.0000 0.27126  0.45454  0.04514  Biso   1.000  C
  N29      1.0000 0.29468  0.47253  0.93854  Biso   1.000  N
  H259     1.0000 0.37536  0.57713  0.92586  Biso   1.000  H
  N30      1.0000 0.52966  0.71225  0.93256  Biso   1.000  N
  C205     1.0000 0.43347  0.68304  0.88724  Biso   1.000  C
  C206     1.0000 0.46388  0.88365  0.26524  Biso   1.000  C
  H260     1.0000 0.50577  0.83276  0.19195  Biso   1.000  H
  H261     1.0000 0.48078  0.76405  0.18822  Biso   1.000  H
  H262     1.0000 0.51295  0.79903  0.24715  Biso   1.000  H
  C207     1.0000 0.11636  0.58026  0.26524  Biso   1.000  C
  H263     1.0000 0.16727  0.67305  0.19195  Biso   1.000  H
  H264     1.0000 0.23597  0.71672  0.18822  Biso   1.000  H
  H265     1.0000 0.20097  0.71394  0.24715  Biso   1.000  H
  H266     1.0000 0.23075  0.44224  0.03574  Biso   1.000  H
  H267     1.0000 0.28396  0.48113  0.07915  Biso   1.000  H
  H268     1.0000 0.27464  0.42042  0.05494  Biso   1.000  H
  C208     1.0000 0.23979  0.42185  0.92183  Biso   1.000  C
  C209     1.0000 0.56047  0.76083  0.89052  Biso   1.000  C
  H269     1.0000 0.45305  0.72094  0.86733  Biso   1.000  H
  H270     1.0000 0.39977  0.67896  0.90915  Biso   1.000  H
  H271     1.0000 0.42050  0.65206  0.85762  Biso   1.000  H
  C210     1.0000 0.44786  0.92033  0.22423  Biso   1.000  C
  C211     1.0000 0.46777  0.90325  0.32993  Biso   1.000  C
  H272     1.0000 0.50198  0.88804  0.25265  Biso   1.000  H
  C212     1.0000 0.07966  0.52755  0.22423  Biso   1.000  C
  C213     1.0000 0.09675  0.56453  0.32993  Biso   1.000  C
  H273     1.0000 0.11198  0.61394  0.25265  Biso   1.000  H
  C214     1.0000 0.20039  0.43954  0.89052  Biso   1.000  C
  C215     1.0000 0.25406  0.38505  0.87935  Biso   1.000  C
  H274     1.0000 0.21976  0.39843  0.95797  Biso   1.000  H
  H275     1.0000 0.53478  0.75597  0.85616  Biso   1.000  H
  C216     1.0000 0.61446  0.76005  0.86915  Biso   1.000  C
  C217     1.0000 0.57818  0.81794  0.92183  Biso   1.000  C
  N31      1.0000 0.44917  0.90286  0.16375  Biso   1.000  N
  H276     1.0000 0.40838  0.91363  0.23425  Biso   1.000  H
  C218     1.0000 0.49327  0.98473  0.23066  Biso   1.000  C
  C219     1.0000 0.51346  0.96783  0.33565  Biso   1.000  C
  H277     1.0000 0.47859  0.87987  0.35565  Biso   1.000  H
  H278     1.0000 0.42946  0.89686  0.34306  Biso   1.000  H
  N32      1.0000 0.09717  0.54632  0.16375  Biso   1.000  N
  H279     1.0000 0.08636  0.49474  0.23425  Biso   1.000  H
  C220     1.0000 0.01529  0.50855  0.23066  Biso   1.000  C
  C221     1.0000 0.03217  0.54563  0.33565  Biso   1.000  C
  H280     1.0000 0.12018  0.59873  0.35565  Biso   1.000  H
  H281     1.0000 0.10316  0.53263  0.34306  Biso   1.000  H
  N33      1.0000 0.18256  0.47035  0.93256  Biso   1.000  N
  H282     1.0000 0.22117  0.46523  0.85616  Biso   1.000  H
  C222     1.0000 0.14557  0.38552  0.86915  Biso   1.000  C
  C223     1.0000 0.19807  0.33246  0.85616  Biso   1.000  C
  H283     1.0000 0.27716  0.40934  0.84556  Biso   1.000  H
  H284     1.0000 0.27767  0.37144  0.90055  Biso   1.000  H
  H285     1.0000 0.60289  0.72246  0.84964  Biso   1.000  H
  H286     1.0000 0.63946  0.76414  0.90343  Biso   1.000  H
  C224     1.0000 0.64859  0.80994  0.82512  Biso   1.000  C
  N34      1.0000 0.52749  0.82215  0.93854  Biso   1.000  N
  C225     1.0000 0.61499  0.86905  0.87935  Biso   1.000  C
  H287     1.0000 0.60156  0.82133  0.95797  Biso   1.000  H
  C226     1.0000 0.40389  0.88095  0.13071  Biso   1.000  C
  H288     1.0000 0.53130  0.99117  0.21616  Biso   1.000  H
  H289     1.0000 0.48196  0.00804  0.20565  Biso   1.000  H
  C227     1.0000 0.49966  0.00535  0.29504  Biso   1.000  C
  H290     1.0000 0.51489  0.98026  0.37724  Biso   1.000  H
  H291     1.0000 0.55217  0.97343  0.32532  Biso   1.000  H
  C228     1.0000 0.11905  0.52294  0.13071  Biso   1.000  C
  H292     1.0000 0.00888  0.54015  0.21616  Biso   1.000  H
  H293     1.0000 0.99201  0.47396  0.20565  Biso   1.000  H
  C229     1.0000 0.99467  0.49434  0.29504  Biso   1.000  C
  H294     1.0000 0.01974  0.53463  0.37724  Biso   1.000  H
  H295     1.0000 0.02656  0.57874  0.32532  Biso   1.000  H
  C230     1.0000 0.20395  0.52503  0.92963  Biso   1.000  C
  H296     1.0000 0.11956  0.39713  0.84964  Biso   1.000  H
  H297     1.0000 0.12468  0.36053  0.90343  Biso   1.000  H
  C231     1.0000 0.16139  0.35145  0.82512  Biso   1.000  C
  H298     1.0000 0.20805  0.30982  0.82854  Biso   1.000  H
  H299     1.0000 0.17607  0.30682  0.88973  Biso   1.000  H
  H300     1.0000 0.68279  0.80833  0.81014  Biso   1.000  H
  H301     1.0000 0.62357  0.80633  0.79094  Biso   1.000  H
  C232     1.0000 0.66757  0.86566  0.85616  Biso   1.000  C
  C233     1.0000 0.51486  0.82385  0.99233  Biso   1.000  C
  H302     1.0000 0.59067  0.86783  0.84556  Biso   1.000  H
  H303     1.0000 0.62858  0.90625  0.90055  Biso   1.000  H
  C234     1.0000 0.40959  0.86005  0.07046  Biso   1.000  C
  C235     1.0000 0.34370  0.86496  0.15173  Biso   1.000  C
  C236     1.0000 0.35656  0.89295  0.13555  Biso   1.000  C
  H304     1.0000 0.53118  0.04633  0.29783  Biso   1.000  H
  H305     1.0000 0.46306  0.00313  0.30825  Biso   1.000  H
  C237     1.0000 0.13995  0.54954  0.07046  Biso   1.000  C
  C238     1.0000 0.13508  0.47874  0.15173  Biso   1.000  C
  C239     1.0000 0.10707  0.46366  0.13555  Biso   1.000  C
  H306     1.0000 0.95367  0.48483  0.29783  Biso   1.000  H
  H307     1.0000 0.99688  0.45992  0.30825  Biso   1.000  H
  C240     1.0000 0.18127  0.55193  0.97344  Biso   1.000  C
  C241     1.0000 0.24958  0.56653  0.88724  Biso   1.000  C
  H308     1.0000 0.12558  0.31725  0.81014  Biso   1.000  H
  H309     1.0000 0.18276  0.37644  0.79094  Biso   1.000  H
  H310     1.0000 0.69019  0.89825  0.82854  Biso   1.000  H
  H311     1.0000 0.69319  0.86926  0.88973  Biso   1.000  H
  C242     1.0000 0.54549  0.81676  0.04514  Biso   1.000  C
  C243     1.0000 0.46315  0.83063  0.00492  Biso   1.000  C
  C244     1.0000 0.45777  0.85375  0.05853  Biso   1.000  C
  C245     1.0000 0.36639  0.84275  0.02731  Biso   1.000  C
  H312     1.0000 0.34347  0.86744  0.19505  Biso   1.000  H
  H313     1.0000 0.31596  0.82515  0.13923  Biso   1.000  H
  H314     1.0000 0.33247  0.89173  0.13444  Biso   1.000  H
  H315     1.0000 0.35829  0.91055  0.17426  Biso   1.000  H
  H316     1.0000 0.31949  0.85666  0.13156  Biso   1.000  H
  H317     1.0000 0.35996  0.91985  0.10393  Biso   1.000  H
  C246     1.0000 0.14628  0.60403  0.05853  Biso   1.000  C
  C247     1.0000 0.15726  0.52364  0.02731  Biso   1.000  C
  H318     1.0000 0.13257  0.47605  0.19505  Biso   1.000  H
  H319     1.0000 0.17484  0.49082  0.13923  Biso   1.000  H
  H320     1.0000 0.10826  0.44076  0.13444  Biso   1.000  H
  H321     1.0000 0.08948  0.44776  0.17426  Biso   1.000  H
  H322     1.0000 0.14335  0.46284  0.13156  Biso   1.000  H
  H323     1.0000 0.08018  0.44015  0.10393  Biso   1.000  H
  C248     1.0000 0.18638  0.60573  0.96267  Biso   1.000  C
  H324     1.0000 0.26786  0.54693  0.86733  Biso   1.000  H
  H325     1.0000 0.27916  0.60025  0.90915  Biso   1.000  H
  H326     1.0000 0.23158  0.57952  0.85762  Biso   1.000  H
  H327     1.0000 0.55777  0.78856  0.03574  Biso   1.000  H
  H328     1.0000 0.51889  0.80286  0.07915  Biso   1.000  H
  H329     1.0000 0.57958  0.85423  0.05494  Biso   1.000  H
  C249     1.0000 0.41935  0.81364  0.96267  Biso   1.000  C
  H330     1.0000 0.48748  0.86544  0.08753  Biso   1.000  H
  H331     1.0000 0.33355  0.84723  0.03463  Biso   1.000  H
  C250     1.0000 0.37069  0.81876  0.97344  Biso   1.000  C
  C251     1.0000 0.16938  0.63254  0.00492  Biso   1.000  C
  H332     1.0000 0.13457  0.62203  0.08753  Biso   1.000  H
  H333     1.0000 0.15277  0.48635  0.03463  Biso   1.000  H
  H334     1.0000 0.20178  0.62463  0.92586  Biso   1.000  H
  H335     1.0000 0.42287  0.79825  0.92586  Biso   1.000  H
  C252     1.0000 0.32105  0.79603  0.92963  Biso   1.000  C
  C253     1.0000 0.17616  0.69104  0.99233  Biso   1.000  C
  N35      1.0000 0.28777  0.81746  0.93256  Biso   1.000  N
  C254     1.0000 0.31696  0.75045  0.88724  Biso   1.000  C
  C255     1.0000 0.18327  0.72876  0.04514  Biso   1.000  C
  N36      1.0000 0.17785  0.70534  0.93854  Biso   1.000  N
  C256     1.0000 0.23915  0.79964  0.89052  Biso   1.000  C
  H336     1.0000 0.27906  0.73215  0.86733  Biso   1.000  H
  H337     1.0000 0.32106  0.72085  0.90915  Biso   1.000  H
  H338     1.0000 0.34798  0.76844  0.85762  Biso   1.000  H
  H339     1.0000 0.21147  0.76926  0.03574  Biso   1.000  H
  H340     1.0000 0.19716  0.71603  0.07915  Biso   1.000  H
  H341     1.0000 0.14576  0.72533  0.05494  Biso   1.000  H
  C257     1.0000 0.18207  0.76022  0.92183  Biso   1.000  C
  H342     1.0000 0.24406  0.77883  0.85616  Biso   1.000  H
  C258     1.0000 0.23998  0.85444  0.86915  Biso   1.000  C
  C259     1.0000 0.13096  0.74593  0.87935  Biso   1.000  C
  H343     1.0000 0.17869  0.78026  0.95797  Biso   1.000  H
  H344     1.0000 0.27755  0.88043  0.84964  Biso   1.000  H
  H345     1.0000 0.23587  0.87535  0.90343  Biso   1.000  H
  C260     1.0000 0.19007  0.83862  0.82512  Biso   1.000  C
  C261     1.0000 0.13436  0.80195  0.85616  Biso   1.000  C
  H346     1.0000 0.13218  0.72285  0.84556  Biso   1.000  H
  H347     1.0000 0.09376  0.72233  0.90055  Biso   1.000  H
  H348     1.0000 0.19168  0.87443  0.81014  Biso   1.000  H
  H349     1.0000 0.19368  0.81724  0.79094  Biso   1.000  H
  H350     1.0000 0.10177  0.79195  0.82854  Biso   1.000  H
  H351     1.0000 0.13075  0.82394  0.88973  Biso   1.000  H
  C262     1.0000 0.35964  0.17627  0.49479  Biso   1.000  C
  C263     1.0000 0.33103  0.12438  0.45355  Biso   1.000  C
  C264     1.0000 0.42664  0.20547  0.49115  Biso   1.000  C
  H352     1.0000 0.34672  0.16345  0.53598  Biso   1.000  H
  H353     1.0000 0.34743  0.20469  0.48366  Biso   1.000  H
  C265     1.0000 0.35164  0.14137  0.39028  Biso   1.000  C
  H354     1.0000 0.34021  0.09435  0.46699  Biso   1.000  H
  H355     1.0000 0.28822  0.10726  0.45506  Biso   1.000  H
  C266     1.0000 0.44673  0.22255  0.42779  Biso   1.000  C
  H356     1.0000 0.44473  0.24046  0.51678  Biso   1.000  H
  H357     1.0000 0.43903  0.17818  0.50565  Biso   1.000  H
  C267     1.0000 0.41815  0.17005  0.38629  Biso   1.000  C
  H358     1.0000 0.33944  0.16875  0.37556  Biso   1.000  H
  H359     1.0000 0.33355  0.10647  0.36479  Biso   1.000  H
  N37      1.0000 0.50993  0.24689  0.42469  Biso   1.000  N
  H360     1.0000 0.43694  0.25258  0.41427  Biso   1.000  H
  N38      1.0000 0.43643  0.19135  0.32599  Biso   1.000  N
  H361     1.0000 0.43065  0.14146  0.39689  Biso   1.000  H
  C268     1.0000 0.54423  0.29848  0.40948  Biso   1.000  C
  C269     1.0000 0.46544  0.17566  0.29486  Biso   1.000  C
  C270     1.0000 0.60754  0.31708  0.40828  Biso   1.000  C
  C271     1.0000 0.52915  0.34215  0.37999  Biso   1.000  C
  C272     1.0000 0.52624  0.34289  0.40908  Biso   1.000  C
  C273     1.0000 0.48393  0.20317  0.23509  Biso   1.000  C
  C274     1.0000 0.48744  0.13507  0.31459  Biso   1.000  C
  C275     1.0000 0.62433  0.27449  0.40837  Biso   1.000  C
  C276     1.0000 0.65012  0.37566  0.40837  Biso   1.000  C
  H362     1.0000 0.54402  0.35006  0.33916  Biso   1.000  H
  H363     1.0000 0.54713  0.37857  0.40256  Biso   1.000  H
  H364     1.0000 0.48694  0.32555  0.37937  Biso   1.000  H
  H365     1.0000 0.51512  0.34706  0.36878  Biso   1.000  H
  H366     1.0000 0.49305  0.33076  0.43577  Biso   1.000  H
  H367     1.0000 0.55866  0.38009  0.42247  Biso   1.000  H
  C277     1.0000 0.50524  0.18135  0.19155  Biso   1.000  C
  C278     1.0000 0.48204  0.25419  0.22268  Biso   1.000  C
  H368     1.0000 0.49285  0.13768  0.35769  Biso   1.000  H
  H369     1.0000 0.52467  0.14659  0.29508  Biso   1.000  H
  H370     1.0000 0.45906  0.09509  0.30355  Biso   1.000  H
  H371     1.0000 0.59544  0.23446  0.40859  Biso   1.000  H
  C279     1.0000 0.68295  0.29048  0.40828  Biso   1.000  C
  H372     1.0000 0.63905  0.40456  0.40859  Biso   1.000  H
  C280     1.0000 0.70956  0.39248  0.40828  Biso   1.000  C
  C281     1.0000 0.52435  0.20956  0.13639  Biso   1.000  C
  H373     1.0000 0.50695  0.14706  0.19926  Biso   1.000  H
  C282     1.0000 0.50105  0.28257  0.16858  Biso   1.000  C
  H374     1.0000 0.46735  0.26936  0.25176  Biso   1.000  H
  C283     1.0000 0.72556  0.34989  0.40837  Biso   1.000  C
  C284     1.0000 0.70154  0.24576  0.40948  Biso   1.000  C
  C285     1.0000 0.75422  0.45575  0.40948  Biso   1.000  C
  C286     1.0000 0.52235  0.26027  0.12526  Biso   1.000  C
  C287     1.0000 0.54826  0.18579  0.09138  Biso   1.000  C
  C288     1.0000 0.49883  0.33707  0.15648  Biso   1.000  C
  H375     1.0000 0.76554  0.36097  0.40859  Biso   1.000  H
  N39      1.0000 0.75313  0.26306  0.42469  Biso   1.000  N
  C289     1.0000 0.65784  0.18696  0.37999  Biso   1.000  C
  C290     1.0000 0.65713  0.18335  0.40908  Biso   1.000  C
  N40      1.0000 0.73695  0.49008  0.42469  Biso   1.000  N
  C291     1.0000 0.81304  0.47088  0.37999  Biso   1.000  C
  C292     1.0000 0.81665  0.47379  0.40908  Biso   1.000  C
  H376     1.0000 0.53543  0.27966  0.08828  Biso   1.000  H
  N41      1.0000 0.53314  0.13238  0.09666  Biso   1.000  N
  C293     1.0000 0.58866  0.22829  0.04545  Biso   1.000  C
  N42      1.0000 0.49892  0.35102  0.10225  Biso   1.000  N
  C294     1.0000 0.50176  0.37379  0.20889  Biso   1.000  C
  C295     1.0000 0.77745  0.22416  0.42779  Biso   1.000  C
  H377     1.0000 0.64993  0.19396  0.33916  Biso   1.000  H
  H378     1.0000 0.62144  0.16858  0.40256  Biso   1.000  H
  H379     1.0000 0.67443  0.16136  0.37937  Biso   1.000  H
  H380     1.0000 0.65294  0.16806  0.36878  Biso   1.000  H
  H381     1.0000 0.66924  0.16228  0.43577  Biso   1.000  H
  H382     1.0000 0.61996  0.17857  0.42247  Biso   1.000  H
  C296     1.0000 0.77585  0.55327  0.42779  Biso   1.000  C
  H383     1.0000 0.80604  0.45597  0.33916  Biso   1.000  H
  H384     1.0000 0.83145  0.45288  0.40256  Biso   1.000  H
  H385     1.0000 0.83866  0.51307  0.37937  Biso   1.000  H
  H386     1.0000 0.83193  0.48487  0.36878  Biso   1.000  H
  H387     1.0000 0.83776  0.50699  0.43577  Biso   1.000  H
  H388     1.0000 0.82144  0.44137  0.42247  Biso   1.000  H
  C297     1.0000 0.55313  0.10408  0.05565  Biso   1.000  C
  H389     1.0000 0.61952  0.26275  0.06536  Biso   1.000  H
  H390     1.0000 0.56663  0.23976  0.01938  Biso   1.000  H
  H391     1.0000 0.60594  0.20978  0.02195  Biso   1.000  H
  C298     1.0000 0.49465  0.40217  0.08677  Biso   1.000  C
  H392     1.0000 0.52195  0.41477  0.19727  Biso   1.000  H
  H393     1.0000 0.52294  0.36805  0.24125  Biso   1.000  H
  H394     1.0000 0.46236  0.36227  0.22197  Biso   1.000  H
  C299     1.0000 0.82994  0.24806  0.38629  Biso   1.000  C
  C300     1.0000 0.79455  0.22116  0.49115  Biso   1.000  C
  H395     1.0000 0.74743  0.18435  0.41427  Biso   1.000  H
  C301     1.0000 0.75194  0.58187  0.38629  Biso   1.000  C
  C302     1.0000 0.77887  0.57340  0.49115  Biso   1.000  C
  H396     1.0000 0.81565  0.56310  0.41427  Biso   1.000  H
  H397     1.0000 0.57136  0.12946  0.02035  Biso   1.000  H
  C303     1.0000 0.50155  0.04585  0.03605  Biso   1.000  C
  C304     1.0000 0.59784  0.09248  0.08677  Biso   1.000  C
  C305     1.0000 0.55096  0.44689  0.05565  Biso   1.000  C
  C306     1.0000 0.44293  0.38326  0.04505  Biso   1.000  C
  H398     1.0000 0.48873  0.41977  0.12349  Biso   1.000  H
  N43      1.0000 0.80864  0.24506  0.32599  Biso   1.000  N
  H399     1.0000 0.85855  0.28917  0.39689  Biso   1.000  H
  C307     1.0000 0.85865  0.21025  0.39028  Biso   1.000  C
  C308     1.0000 0.82374  0.18335  0.49479  Biso   1.000  C
  H400     1.0000 0.75952  0.20426  0.51678  Biso   1.000  H
  H401     1.0000 0.82186  0.26088  0.50565  Biso   1.000  H
  N44      1.0000 0.75495  0.56357  0.32599  Biso   1.000  N
  H402     1.0000 0.71083  0.56935  0.39689  Biso   1.000  H
  C309     1.0000 0.78974  0.64836  0.39028  Biso   1.000  C
  C310     1.0000 0.81664  0.64037  0.49479  Biso   1.000  C
  H403     1.0000 0.79574  0.55527  0.51678  Biso   1.000  H
  H404     1.0000 0.73916  0.56097  0.50565  Biso   1.000  H
  H405     1.0000 0.48192  0.02225  0.07165  Biso   1.000  H
  H406     1.0000 0.47313  0.05315  0.01485  Biso   1.000  H
  C311     1.0000 0.51974  0.01186  0.99597  Biso   1.000  C
  N45      1.0000 0.64899  0.14789  0.10225  Biso   1.000  N
  C312     1.0000 0.61674  0.05967  0.04505  Biso   1.000  C
  H407     1.0000 0.58025  0.06897  0.12349  Biso   1.000  H
  N46      1.0000 0.59923  0.46688  0.09666  Biso   1.000  N
  H408     1.0000 0.55815  0.42868  0.02035  Biso   1.000  H
  C313     1.0000 0.54434  0.49847  0.03605  Biso   1.000  C
  C314     1.0000 0.43734  0.43515  0.02527  Biso   1.000  C
  H409     1.0000 0.44804  0.36397  0.00989  Biso   1.000  H
  H410     1.0000 0.40685  0.35475  0.06558  Biso   1.000  H
  C315     1.0000 0.82434  0.28978  0.29486  Biso   1.000  C
  H411     1.0000 0.83125  0.17066  0.37556  Biso   1.000  H
  H412     1.0000 0.89355  0.22707  0.36479  Biso   1.000  H
  C316     1.0000 0.87564  0.20669  0.45355  Biso   1.000  C
  H413     1.0000 0.83653  0.18327  0.53598  Biso   1.000  H
  H414     1.0000 0.79536  0.14276  0.48366  Biso   1.000  H
  C317     1.0000 0.71024  0.53459  0.29486  Biso   1.000  C
  H415     1.0000 0.82935  0.66057  0.37556  Biso   1.000  H
  H416     1.0000 0.77295  0.66648  0.36479  Biso   1.000  H
  C318     1.0000 0.79334  0.66896  0.45355  Biso   1.000  C
  H417     1.0000 0.81674  0.65327  0.53598  Biso   1.000  H
  H418     1.0000 0.85726  0.65258  0.48366  Biso   1.000  H
  C319     1.0000 0.56484  0.00217  0.02527  Biso   1.000  C
  H419     1.0000 0.48524  0.97387  0.98630  Biso   1.000  H
  H420     1.0000 0.53552  0.03355  0.95850  Biso   1.000  H
  C320     1.0000 0.66292  0.16175  0.15648  Biso   1.000  C
  H421     1.0000 0.63604  0.08405  0.00989  Biso   1.000  H
  H422     1.0000 0.64523  0.05206  0.06558  Biso   1.000  H
  C321     1.0000 0.63754  0.45175  0.09138  Biso   1.000  C
  H423     1.0000 0.54033  0.51807  0.07165  Biso   1.000  H
  H424     1.0000 0.58004  0.52689  0.01485  Biso   1.000  H
  C322     1.0000 0.49215  0.48026  0.99597  Biso   1.000  C
  H425     1.0000 0.42896  0.45249  0.06008  Biso   1.000  H
  H426     1.0000 0.40453  0.42185  0.99707  Biso   1.000  H
  C323     1.0000 0.79685  0.28079  0.23509  Biso   1.000  C
  C324     1.0000 0.86493  0.35236  0.31459  Biso   1.000  C
  H427     1.0000 0.90567  0.24589  0.46699  Biso   1.000  H
  H428     1.0000 0.89274  0.18096  0.45506  Biso   1.000  H
  C325     1.0000 0.71923  0.51607  0.23509  Biso   1.000  C
  C326     1.0000 0.64762  0.51255  0.31459  Biso   1.000  C
  H429     1.0000 0.75413  0.65979  0.46699  Biso   1.000  H
  H430     1.0000 0.81904  0.71177  0.45506  Biso   1.000  H
  H431     1.0000 0.57813  0.98269  0.99707  Biso   1.000  H
  H432     1.0000 0.54755  0.97648  0.06008  Biso   1.000  H
  C327     1.0000 0.62624  0.12799  0.20889  Biso   1.000  C
  C328     1.0000 0.71744  0.21847  0.16858  Biso   1.000  C
  C329     1.0000 0.68525  0.47566  0.13639  Biso   1.000  C
  C330     1.0000 0.63964  0.41138  0.04545  Biso   1.000  C
  H433     1.0000 0.48862  0.51477  0.98630  Biso   1.000  H
  H434     1.0000 0.49803  0.46449  0.95850  Biso   1.000  H
  C331     1.0000 0.74584  0.22785  0.22268  Biso   1.000  C
  C332     1.0000 0.81865  0.32386  0.19155  Biso   1.000  C
  H435     1.0000 0.86235  0.35519  0.35769  Biso   1.000  H
  H436     1.0000 0.85344  0.37809  0.29508  Biso   1.000  H
  H437     1.0000 0.90494  0.36397  0.30355  Biso   1.000  H
  C333     1.0000 0.67614  0.49478  0.19155  Biso   1.000  C
  C334     1.0000 0.77217  0.51799  0.22268  Biso   1.000  C
  H438     1.0000 0.64485  0.50716  0.35769  Biso   1.000  H
  H439     1.0000 0.62194  0.47535  0.29508  Biso   1.000  H
  H440     1.0000 0.63605  0.54098  0.30355  Biso   1.000  H
  H441     1.0000 0.58524  0.10717  0.19727  Biso   1.000  H
  H442     1.0000 0.63194  0.15489  0.24125  Biso   1.000  H
  H443     1.0000 0.63774  0.10009  0.22197  Biso   1.000  H
  C335     1.0000 0.73972  0.26206  0.12526  Biso   1.000  C
  C336     1.0000 0.73792  0.47766  0.12526  Biso   1.000  C
  H444     1.0000 0.64323  0.38048  0.06536  Biso   1.000  H
  H445     1.0000 0.67314  0.43337  0.01938  Biso   1.000  H
  H446     1.0000 0.60385  0.39408  0.02195  Biso   1.000  H
  H447     1.0000 0.73063  0.19795  0.25176  Biso   1.000  H
  C337     1.0000 0.79043  0.31477  0.13639  Biso   1.000  C
  H448     1.0000 0.85296  0.35988  0.19926  Biso   1.000  H
  H449     1.0000 0.64014  0.49308  0.19926  Biso   1.000  H
  C338     1.0000 0.78156  0.49899  0.16858  Biso   1.000  C
  H450     1.0000 0.80205  0.53267  0.25176  Biso   1.000  H
  H451     1.0000 0.72035  0.25576  0.08828  Biso   1.000  H
  H452     1.0000 0.74426  0.46457  0.08828  Biso   1.000  H
  C339     1.0000 0.81425  0.36249  0.09138  Biso   1.000  C
  C340     1.0000 0.83824  0.50117  0.15648  Biso   1.000  C
  N47      1.0000 0.86764  0.40078  0.09666  Biso   1.000  N
  C341     1.0000 0.77175  0.36036  0.04545  Biso   1.000  C
  N48      1.0000 0.85212  0.50108  0.10225  Biso   1.000  N
  C342     1.0000 0.87205  0.49826  0.20889  Biso   1.000  C
  C343     1.0000 0.89593  0.44906  0.05565  Biso   1.000  C
  H453     1.0000 0.73724  0.35675  0.06536  Biso   1.000  H
  H454     1.0000 0.76023  0.32685  0.01938  Biso   1.000  H
  H455     1.0000 0.79026  0.39617  0.02195  Biso   1.000  H
  C344     1.0000 0.90757  0.50538  0.08677  Biso   1.000  C
  H456     1.0000 0.89287  0.47809  0.19727  Biso   1.000  H
  H457     1.0000 0.84517  0.47709  0.24125  Biso   1.000  H
  H458     1.0000 0.89996  0.53767  0.22197  Biso   1.000  H
  H459     1.0000 0.87055  0.44189  0.02035  Biso   1.000  H
  C345     1.0000 0.95414  0.45567  0.03605  Biso   1.000  C
  C346     1.0000 0.94033  0.55706  0.04505  Biso   1.000  C
  H460     1.0000 0.93107  0.51129  0.12349  Biso   1.000  H
  H461     1.0000 0.97774  0.45966  0.07165  Biso   1.000  H
  H462     1.0000 0.94684  0.41999  0.01485  Biso   1.000  H
  C347     1.0000 0.98814  0.50786  0.99597  Biso   1.000  C
  C348     1.0000 0.99785  0.56266  0.02527  Biso   1.000  C
  H463     1.0000 0.91596  0.55197  0.00989  Biso   1.000  H
  H464     1.0000 0.94796  0.59317  0.06558  Biso   1.000  H
  H465     1.0000 0.96646  0.50199  0.95850  Biso   1.000  H
  H466     1.0000 0.02615  0.51138  0.98630  Biso   1.000  H
  H467     1.0000 0.01734  0.59547  0.99707  Biso   1.000  H
  H468     1.0000 0.02356  0.57109  0.06008  Biso   1.000  H
  C349     1.0000 0.15994  0.31808  0.56396  Biso   1.000  C
  C350     1.0000 0.11453  0.25367  0.55758  Biso   1.000  C
  H469     1.0000 0.14863  0.34137  0.53895  Biso   1.000  H
  H470     1.0000 0.19795  0.32446  0.54946  Biso   1.000  H
  C351     1.0000 0.16633  0.33867  0.62839  Biso   1.000  C
  N49      1.0000 0.11582  0.23616  0.49705  Biso   1.000  N
  H471     1.0000 0.07505  0.24698  0.56760  Biso   1.000  H
  C352     1.0000 0.13055  0.21699  0.59859  Biso   1.000  C
  H472     1.0000 0.19784  0.37966  0.63118  Biso   1.000  H
  H473     1.0000 0.12973  0.33646  0.64156  Biso   1.000  H
  C353     1.0000 0.18013  0.30117  0.66896  Biso   1.000  C
  C354     1.0000 0.07054  0.21425  0.46406  Biso   1.000  C
  N50      1.0000 0.08522  0.15606  0.59402  Biso   1.000  N
  C355     1.0000 0.13444  0.23659  0.66328  Biso   1.000  C
  H474     1.0000 0.16865  0.22138  0.58595  Biso   1.000  H
  H475     1.0000 0.18154  0.31356  0.71059  Biso   1.000  H
  H476     1.0000 0.21884  0.30678  0.65867  Biso   1.000  H
  C356     1.0000 0.07624  0.19335  0.40376  Biso   1.000  C
  C357     1.0000 0.01035  0.19826  0.48508  Biso   1.000  C
  C358     1.0000 0.02323  0.22629  0.46885  Biso   1.000  C
  C359     1.0000 0.09643  0.11886  0.57270  Biso   1.000  C
  H477     1.0000 0.14524  0.21317  0.68895  Biso   1.000  H
  H478     1.0000 0.09611  0.23016  0.67636  Biso   1.000  H
  C360     1.0000 0.12444  0.18709  0.39188  Biso   1.000  C
  C361     1.0000 0.03304  0.17605  0.36066  Biso   1.000  C
  H479     1.0000 0.01014  0.20078  0.52836  Biso   1.000  H
  H480     1.0000 0.02496  0.24389  0.50756  Biso   1.000  H
  H481     1.0000 0.98265  0.15845  0.47258  Biso   1.000  H
  H482     1.0000 0.99914  0.22507  0.46779  Biso   1.000  H
  H483     1.0000 0.98613  0.18996  0.46486  Biso   1.000  H
  H484     1.0000 0.02663  0.25319  0.43728  Biso   1.000  H
  C362     1.0000 0.04742  0.05706  0.57057  Biso   1.000  C
  C363     1.0000 0.15412  0.12955  0.54778  Biso   1.000  C
  C364     1.0000 0.12982  0.16397  0.33827  Biso   1.000  C
  H485     1.0000 0.15415  0.19878  0.42088  Biso   1.000  H
  C365     1.0000 0.03734  0.15206  0.30679  Biso   1.000  C
  H486     1.0000 0.00022  0.18057  0.36798  Biso   1.000  H
  C366     1.0000 0.05661  0.01026  0.57066  Biso   1.000  C
  C367     1.0000 0.98976  0.04637  0.57066  Biso   1.000  C
  H487     1.0000 0.17241  0.16606  0.52525  Biso   1.000  H
  H488     1.0000 0.14743  0.09735  0.52157  Biso   1.000  H
  H489     1.0000 0.17962  0.13238  0.58045  Biso   1.000  H
  C368     1.0000 0.18153  0.15719  0.32568  Biso   1.000  C
  C369     1.0000 0.08602  0.14698  0.29597  Biso   1.000  C
  C370     1.0000 0.98776  0.12938  0.26298  Biso   1.000  C
  C371     1.0000 0.00963  0.95257  0.57057  Biso   1.000  C
  H490     1.0000 0.09523  0.01695  0.57079  Biso   1.000  H
  C372     1.0000 0.94295  0.99038  0.57057  Biso   1.000  C
  H491     1.0000 0.98306  0.07827  0.57079  Biso   1.000  H
  N51      1.0000 0.19414  0.15545  0.27185  Biso   1.000  N
  C373     1.0000 0.21214  0.15006  0.37849  Biso   1.000  C
  H492     1.0000 0.08952  0.13155  0.25917  Biso   1.000  H
  N52      1.0000 0.95445  0.15076  0.26586  Biso   1.000  N
  C374     1.0000 0.98367  0.08379  0.22059  Biso   1.000  C
  C375     1.0000 0.02244  0.90360  0.57270  Biso   1.000  C
  C376     1.0000 0.95365  0.94336  0.57066  Biso   1.000  C
  C377     1.0000 0.88114  0.97756  0.57270  Biso   1.000  C
  C378     1.0000 0.24485  0.15128  0.25518  Biso   1.000  C
  H493     1.0000 0.22442  0.12186  0.36909  Biso   1.000  H
  H494     1.0000 0.18554  0.13616  0.41245  Biso   1.000  H
  H495     1.0000 0.24625  0.18757  0.38829  Biso   1.000  H
  C379     1.0000 0.90586  0.13298  0.22387  Biso   1.000  C
  H496     1.0000 0.01465  0.10178  0.19097  Biso   1.000  H
  H497     1.0000 0.94575  0.06545  0.20068  Biso   1.000  H
  H498     1.0000 0.98774  0.05415  0.24245  Biso   1.000  H
  N53      1.0000 0.07084  0.91481  0.59402  Biso   1.000  N
  C380     1.0000 0.97544  0.84588  0.54778  Biso   1.000  C
  H499     1.0000 0.92175  0.90477  0.57079  Biso   1.000  H
  N54      1.0000 0.84395  0.92915  0.59402  Biso   1.000  N
  C381     1.0000 0.87043  0.02455  0.54778  Biso   1.000  C
  C382     1.0000 0.28166  0.20239  0.21265  Biso   1.000  C
  C383     1.0000 0.22714  0.09418  0.22387  Biso   1.000  C
  H500     1.0000 0.26823  0.15467  0.29127  Biso   1.000  H
  H501     1.0000 0.91073  0.11217  0.18946  Biso   1.000  H
  C384     1.0000 0.90665  0.18779  0.20246  Biso   1.000  C
  C385     1.0000 0.84874  0.09357  0.25518  Biso   1.000  C
  C386     1.0000 0.08645  0.86948  0.59859  Biso   1.000  C
  H502     1.0000 0.99366  0.82759  0.52525  Biso   1.000  H
  H503     1.0000 0.94996  0.85257  0.52157  Biso   1.000  H
  H504     1.0000 0.95275  0.82037  0.58045  Biso   1.000  H
  C387     1.0000 0.78307  0.91359  0.59859  Biso   1.000  C
  H505     1.0000 0.83394  0.00639  0.52525  Biso   1.000  H
  H506     1.0000 0.90264  0.05006  0.52157  Biso   1.000  H
  H507     1.0000 0.86764  0.04728  0.58045  Biso   1.000  H
  C388     1.0000 0.33422  0.19895  0.18946  Biso   1.000  C
  H508     1.0000 0.25734  0.20117  0.17887  Biso   1.000  H
  H509     1.0000 0.29526  0.23959  0.23385  Biso   1.000  H
  C389     1.0000 0.28111  0.09335  0.20246  Biso   1.000  C
  N55      1.0000 0.19634  0.04559  0.26586  Biso   1.000  N
  H510     1.0000 0.20143  0.08926  0.18946  Biso   1.000  H
  H511     1.0000 0.94426  0.21377  0.18299  Biso   1.000  H
  H512     1.0000 0.90254  0.20869  0.23678  Biso   1.000  H
  C390     1.0000 0.85674  0.17197  0.15847  Biso   1.000  C
  N56      1.0000 0.84456  0.03868  0.27185  Biso   1.000  N
  C391     1.0000 0.79763  0.07927  0.21265  Biso   1.000  C
  H513     1.0000 0.84534  0.11356  0.29127  Biso   1.000  H
  C392     1.0000 0.13912  0.88547  0.55758  Biso   1.000  C
  C393     1.0000 0.10211  0.86557  0.66328  Biso   1.000  C
  H514     1.0000 0.05272  0.83137  0.58595  Biso   1.000  H
  C394     1.0000 0.74636  0.86088  0.55758  Biso   1.000  C
  C395     1.0000 0.76342  0.89786  0.66328  Biso   1.000  C
  H515     1.0000 0.77864  0.94727  0.58595  Biso   1.000  H
  C396     1.0000 0.31526  0.14328  0.15847  Biso   1.000  C
  H516     1.0000 0.35684  0.23155  0.16189  Biso   1.000  H
  H517     1.0000 0.35984  0.20256  0.22307  Biso   1.000  H
  H518     1.0000 0.26954  0.05576  0.18299  Biso   1.000  H
  H519     1.0000 0.30613  0.09748  0.23678  Biso   1.000  H
  C397     1.0000 0.14162  0.01226  0.26298  Biso   1.000  C
  H520     1.0000 0.85835  0.20778  0.14348  Biso   1.000  H
  H521     1.0000 0.86035  0.15058  0.12429  Biso   1.000  H
  C398     1.0000 0.80106  0.13529  0.18946  Biso   1.000  C
  C399     1.0000 0.84286  0.02438  0.32568  Biso   1.000  C
  H522     1.0000 0.79883  0.05615  0.17887  Biso   1.000  H
  H523     1.0000 0.76043  0.05567  0.23385  Biso   1.000  H
  N57      1.0000 0.12033  0.88417  0.49705  Biso   1.000  N
  H524     1.0000 0.17194  0.92498  0.56760  Biso   1.000  H
  C400     1.0000 0.15812  0.84006  0.56396  Biso   1.000  C
  C401     1.0000 0.12105  0.81989  0.66896  Biso   1.000  C
  H525     1.0000 0.06793  0.85479  0.68895  Biso   1.000  H
  H526     1.0000 0.13403  0.90390  0.67636  Biso   1.000  H
  N58      1.0000 0.76386  0.87969  0.49705  Biso   1.000  N
  H527     1.0000 0.75302  0.82806  0.56760  Biso   1.000  H
  C402     1.0000 0.68195  0.84188  0.56396  Biso   1.000  C
  C403     1.0000 0.69885  0.87900  0.66896  Biso   1.000  C
  H528     1.0000 0.78684  0.93206  0.68895  Biso   1.000  H
  H529     1.0000 0.76983  0.86596  0.67636  Biso   1.000  H
  H530     1.0000 0.34946  0.14168  0.14348  Biso   1.000  H
  H531     1.0000 0.29024  0.13968  0.12429  Biso   1.000  H
  C404     1.0000 0.10014  0.01638  0.22059  Biso   1.000  C
  C405     1.0000 0.11473  0.96270  0.30679  Biso   1.000  C
  H532     1.0000 0.76842  0.12525  0.16189  Biso   1.000  H
  H533     1.0000 0.79746  0.15728  0.22307  Biso   1.000  H
  C406     1.0000 0.83604  0.96587  0.33827  Biso   1.000  C
  C407     1.0000 0.84996  0.06206  0.37849  Biso   1.000  C
  C408     1.0000 0.14375  0.92950  0.46406  Biso   1.000  C
  H534     1.0000 0.19271  0.85136  0.53895  Biso   1.000  H
  H535     1.0000 0.12652  0.80208  0.54946  Biso   1.000  H
  C409     1.0000 0.17235  0.83367  0.62839  Biso   1.000  C
  H536     1.0000 0.13204  0.81846  0.71059  Biso   1.000  H
  H537     1.0000 0.08791  0.78117  0.65867  Biso   1.000  H
  C410     1.0000 0.78576  0.85627  0.46406  Biso   1.000  C
  H538     1.0000 0.65863  0.80729  0.53895  Biso   1.000  H
  H539     1.0000 0.67554  0.87348  0.54946  Biso   1.000  H
  C411     1.0000 0.66133  0.82767  0.62839  Biso   1.000  C
  H540     1.0000 0.68644  0.86796  0.71059  Biso   1.000  H
  H541     1.0000 0.69322  0.91207  0.65867  Biso   1.000  H
  H542     1.0000 0.11973  0.05428  0.20068  Biso   1.000  H
  H543     1.0000 0.06642  0.01226  0.24245  Biso   1.000  H
  H544     1.0000 0.08712  0.98539  0.19097  Biso   1.000  H
  C412     1.0000 0.14304  0.96700  0.36066  Biso   1.000  C
  C413     1.0000 0.06094  0.91398  0.29597  Biso   1.000  C
  C414     1.0000 0.81294  0.93736  0.39188  Biso   1.000  C
  C415     1.0000 0.85307  0.93910  0.29597  Biso   1.000  C
  H545     1.0000 0.87815  0.10256  0.36909  Biso   1.000  H
  H546     1.0000 0.86386  0.04937  0.41245  Biso   1.000  H
  H547     1.0000 0.81244  0.05867  0.38829  Biso   1.000  H
  C416     1.0000 0.11713  0.92376  0.40376  Biso   1.000  C
  C417     1.0000 0.18796  0.98969  0.48508  Biso   1.000  C
  C418     1.0000 0.20303  0.97678  0.46885  Biso   1.000  C
  H548     1.0000 0.18181  0.80216  0.63118  Biso   1.000  H
  H549     1.0000 0.20672  0.87026  0.64156  Biso   1.000  H
  C419     1.0000 0.80666  0.88287  0.40376  Biso   1.000  C
  C420     1.0000 0.80175  0.81207  0.48508  Biso   1.000  C
  C421     1.0000 0.77377  0.79699  0.46885  Biso   1.000  C
  H550     1.0000 0.62035  0.81820  0.63118  Biso   1.000  H
  H551     1.0000 0.66357  0.79330  0.64156  Biso   1.000  H
  H552     1.0000 0.18031  0.99977  0.36798  Biso   1.000  H
  C422     1.0000 0.03415  0.87018  0.33827  Biso   1.000  C
  H553     1.0000 0.04202  0.91046  0.25917  Biso   1.000  H
  H554     1.0000 0.80126  0.95540  0.42088  Biso   1.000  H
  C423     1.0000 0.84796  0.88530  0.30679  Biso   1.000  C
  H555     1.0000 0.86844  0.95796  0.25917  Biso   1.000  H
  C424     1.0000 0.06262  0.87556  0.39188  Biso   1.000  C
  H556     1.0000 0.17584  0.01738  0.47258  Biso   1.000  H
  H557     1.0000 0.22595  0.00087  0.46779  Biso   1.000  H
  H558     1.0000 0.20385  0.01386  0.46486  Biso   1.000  H
  H559     1.0000 0.19064  0.98986  0.52836  Biso   1.000  H
  H560     1.0000 0.21893  0.97509  0.50756  Biso   1.000  H
  H561     1.0000 0.22655  0.97339  0.43728  Biso   1.000  H
  C425     1.0000 0.82393  0.85696  0.36066  Biso   1.000  C
  H562     1.0000 0.79923  0.80938  0.52836  Biso   1.000  H
  H563     1.0000 0.84157  0.82420  0.47258  Biso   1.000  H
  H564     1.0000 0.77496  0.77409  0.46779  Biso   1.000  H
  H565     1.0000 0.75614  0.78109  0.50756  Biso   1.000  H
  H566     1.0000 0.81005  0.79617  0.46486  Biso   1.000  H
  H567     1.0000 0.74685  0.77348  0.43728  Biso   1.000  H
  C426     1.0000 0.97562  0.81846  0.32568  Biso   1.000  C
  C427     1.0000 0.87067  0.85840  0.26298  Biso   1.000  C
  H568     1.0000 0.04462  0.84588  0.42088  Biso   1.000  H
  H569     1.0000 0.81944  0.81968  0.36798  Biso   1.000  H
  N59      1.0000 0.96136  0.80590  0.27185  Biso   1.000  N
  C428     1.0000 0.93793  0.78786  0.37849  Biso   1.000  C
  N60      1.0000 0.84926  0.80368  0.26586  Biso   1.000  N
  C429     1.0000 0.91627  0.89990  0.22059  Biso   1.000  C
  C430     1.0000 0.90646  0.75518  0.25518  Biso   1.000  C
  H570     1.0000 0.89746  0.77557  0.36909  Biso   1.000  H
  H571     1.0000 0.95063  0.81446  0.41245  Biso   1.000  H
  H572     1.0000 0.94137  0.75379  0.38829  Biso   1.000  H
  C431     1.0000 0.86705  0.77287  0.22387  Biso   1.000  C
  H573     1.0000 0.93454  0.88030  0.20068  Biso   1.000  H
  H574     1.0000 0.94587  0.93358  0.24245  Biso   1.000  H
  H575     1.0000 0.89826  0.91290  0.19097  Biso   1.000  H
  C432     1.0000 0.92076  0.71837  0.21265  Biso   1.000  C
  H576     1.0000 0.88643  0.73176  0.29127  Biso   1.000  H
  H577     1.0000 0.88786  0.79860  0.18946  Biso   1.000  H
  C433     1.0000 0.81225  0.71890  0.20246  Biso   1.000  C
  C434     1.0000 0.86473  0.66579  0.18946  Biso   1.000  C
  H578     1.0000 0.94386  0.74267  0.17887  Biso   1.000  H
  H579     1.0000 0.94433  0.70477  0.23385  Biso   1.000  H
  H580     1.0000 0.78625  0.73050  0.18299  Biso   1.000  H
  H581     1.0000 0.79134  0.69386  0.23678  Biso   1.000  H
  C435     1.0000 0.82805  0.68478  0.15847  Biso   1.000  C
  H582     1.0000 0.87474  0.64319  0.16189  Biso   1.000  H
  H583     1.0000 0.84275  0.64019  0.22307  Biso   1.000  H
  H584     1.0000 0.79224  0.65058  0.14348  Biso   1.000  H
  H585     1.0000 0.84943  0.70977  0.12429  Biso   1.000  H
  C436     1.0000 0.33115  0.22933  0.69193  Biso   1.000  C
  C437     1.0000 0.32148  0.17453  0.66266  Biso   1.000  C
  H586     1.0000 0.35068  0.26214  0.66373  Biso   1.000  H
  H587     1.0000 0.35687  0.23772  0.72673  Biso   1.000  H
  C438     1.0000 0.27366  0.22373  0.71175  Biso   1.000  C
  C439     1.0000 0.28748  0.12234  0.70274  Biso   1.000  C
  H588     1.0000 0.35948  0.17805  0.65295  Biso   1.000  H
  H589     1.0000 0.29978  0.16862  0.62515  Biso   1.000  H
  C440     1.0000 0.24086  0.17205  0.75343  Biso   1.000  C
  H590     1.0000 0.24929  0.21864  0.67654  Biso   1.000  H
  H591     1.0000 0.28126  0.25984  0.73223  Biso   1.000  H
  C441     1.0000 0.22926  0.11573  0.72234  Biso   1.000  C
  H592     1.0000 0.31108  0.12633  0.73835  Biso   1.000  H
  H593     1.0000 0.28015  0.08661  0.68155  Biso   1.000  H
  N61      1.0000 0.18542  0.16775  0.76894  Biso   1.000  N
  H594     1.0000 0.26435  0.17792  0.79014  Biso   1.000  H
  N62      1.0000 0.20098  0.06745  0.76336  Biso   1.000  N
  H595     1.0000 0.20386  0.10852  0.68705  Biso   1.000  H
  C442     1.0000 0.17157  0.16784  0.82313  Biso   1.000  C
  C443     1.0000 0.14757  0.02912  0.75804  Biso   1.000  C
  C444     1.0000 0.20538  0.16493  0.87554  Biso   1.000  C
  C445     1.0000 0.11488  0.16562  0.83523  Biso   1.000  C
  C446     1.0000 0.10509  0.02703  0.71214  Biso   1.000  C
  C447     1.0000 0.12376  0.98143  0.80304  Biso   1.000  C
  H596     1.0000 0.22618  0.14472  0.86396  Biso   1.000  H
  H597     1.0000 0.17845  0.14372  0.90795  Biso   1.000  H
  H598     1.0000 0.23326  0.20434  0.88866  Biso   1.000  H
  C448     1.0000 0.07126  0.14433  0.79196  Biso   1.000  C
  C449     1.0000 0.10546  0.18466  0.88933  Biso   1.000  C
  H599     1.0000 0.07058  0.02342  0.73205  Biso   1.000  H
  H600     1.0000 0.12355  0.06284  0.68864  Biso   1.000  H
  H601     1.0000 0.09358  0.99356  0.68603  Biso   1.000  H
  C450     1.0000 0.07307  0.92876  0.79196  Biso   1.000  C
  C451     1.0000 0.15196  0.99056  0.85825  Biso   1.000  C
  H602     1.0000 0.07759  0.13125  0.75493  Biso   1.000  H
  C452     1.0000 0.01855  0.14233  0.80304  Biso   1.000  C
  C453     1.0000 0.05257  0.18274  0.90174  Biso   1.000  C
  H603     1.0000 0.13539  0.19935  0.91846  Biso   1.000  H
  C454     1.0000 0.05077  0.88513  0.83523  Biso   1.000  C
  H604     1.0000 0.05366  0.92246  0.75493  Biso   1.000  H
  H605     1.0000 0.18629  0.02655  0.86596  Biso   1.000  H
  C455     1.0000 0.13018  0.94745  0.90174  Biso   1.000  C
  C456     1.0000 0.00948  0.16145  0.85825  Biso   1.000  C
  C457     1.0000 0.97088  0.11843  0.75804  Biso   1.000  C
  C458     1.0000 0.04357  0.20126  0.96156  Biso   1.000  C
  C459     1.0000 0.99628  0.82846  0.82313  Biso   1.000  C
  C460     1.0000 0.07916  0.89456  0.88933  Biso   1.000  C
  C461     1.0000 0.15767  0.95644  0.96156  Biso   1.000  C
  H606     1.0000 0.97348  0.15975  0.86596  Biso   1.000  H
  N63      1.0000 0.93260  0.13355  0.76336  Biso   1.000  N
  C462     1.0000 0.97297  0.07805  0.71214  Biso   1.000  C
  N64      1.0000 0.08829  0.23024  0.99264  Biso   1.000  N
  C463     1.0000 0.98099  0.17922  0.98124  Biso   1.000  C
  N65      1.0000 0.98234  0.81459  0.76894  Biso   1.000  N
  C464     1.0000 0.95957  0.79464  0.87554  Biso   1.000  C
  H607     1.0000 0.06398  0.86466  0.91846  Biso   1.000  H
  C465     1.0000 0.19826  0.01903  0.98124  Biso   1.000  C
  N66      1.0000 0.14200  0.91177  0.99264  Biso   1.000  N
  C466     1.0000 0.88427  0.11351  0.72234  Biso   1.000  C
  H608     1.0000 0.00648  0.10004  0.68603  Biso   1.000  H
  H609     1.0000 0.97661  0.04715  0.73205  Biso   1.000  H
  H610     1.0000 0.93719  0.06076  0.68864  Biso   1.000  H
  C467     1.0000 0.08528  0.24854  0.05294  Biso   1.000  C
  H611     1.0000 0.95528  0.14202  0.96173  Biso   1.000  H
  H612     1.0000 0.96939  0.20765  0.97025  Biso   1.000  H
  H613     1.0000 0.97819  0.17384  0.02434  Biso   1.000  H
  C468     1.0000 0.93117  0.75914  0.75343  Biso   1.000  C
  H614     1.0000 0.91857  0.77383  0.86396  Biso   1.000  H
  H615     1.0000 0.96527  0.82155  0.90795  Biso   1.000  H
  H616     1.0000 0.97106  0.76674  0.88866  Biso   1.000  H
  H617     1.0000 0.18676  0.04472  0.96173  Biso   1.000  H
  H618     1.0000 0.23828  0.03064  0.97025  Biso   1.000  H
  H619     1.0000 0.19567  0.02182  0.02434  Biso   1.000  H
  C469     1.0000 0.16329  0.91476  0.05294  Biso   1.000  C
  H620     1.0000 0.89148  0.09535  0.68705  Biso   1.000  H
  C470     1.0000 0.87768  0.16514  0.70274  Biso   1.000  C
  C471     1.0000 0.82798  0.06884  0.75343  Biso   1.000  C
  H621     1.0000 0.04417  0.23602  0.06354  Biso   1.000  H
  C472     1.0000 0.12308  0.31503  0.05693  Biso   1.000  C
  C473     1.0000 0.10918  0.21995  0.09444  Biso   1.000  C
  C474     1.0000 0.88646  0.77074  0.72234  Biso   1.000  C
  C475     1.0000 0.95007  0.72633  0.71175  Biso   1.000  C
  H622     1.0000 0.91358  0.73563  0.79014  Biso   1.000  H
  H623     1.0000 0.19188  0.95583  0.06354  Biso   1.000  H
  C476     1.0000 0.19196  0.87696  0.05693  Biso   1.000  C
  C477     1.0000 0.11077  0.89086  0.09444  Biso   1.000  C
  H624     1.0000 0.87367  0.18474  0.73835  Biso   1.000  H
  H625     1.0000 0.91336  0.19352  0.68155  Biso   1.000  H
  C478     1.0000 0.82548  0.14693  0.66266  Biso   1.000  C
  N67      1.0000 0.83225  0.01769  0.76894  Biso   1.000  N
  C479     1.0000 0.77627  0.04993  0.71175  Biso   1.000  C
  H626     1.0000 0.82207  0.08644  0.79014  Biso   1.000  H
  H627     1.0000 0.16268  0.32724  0.04226  Biso   1.000  H
  H628     1.0000 0.10628  0.33316  0.03144  Biso   1.000  H
  C480     1.0000 0.12668  0.33563  0.12025  Biso   1.000  C
  N68      1.0000 0.07029  0.15676  0.09134  Biso   1.000  N
  C481     1.0000 0.11215  0.24002  0.15785  Biso   1.000  C
  H629     1.0000 0.14896  0.22972  0.08092  Biso   1.000  H
  N69      1.0000 0.86647  0.79903  0.76336  Biso   1.000  N
  H630     1.0000 0.90471  0.79617  0.68705  Biso   1.000  H
  C482     1.0000 0.83490  0.71255  0.70274  Biso   1.000  C
  C483     1.0000 0.89817  0.66883  0.69193  Biso   1.000  C
  H631     1.0000 0.96939  0.75075  0.67654  Biso   1.000  H
  H632     1.0000 0.97858  0.71877  0.73223  Biso   1.000  H
  H633     1.0000 0.16456  0.83736  0.04226  Biso   1.000  H
  H634     1.0000 0.22688  0.89373  0.03144  Biso   1.000  H
  C484     1.0000 0.20897  0.87335  0.12025  Biso   1.000  C
  N70      1.0000 0.08648  0.92976  0.09134  Biso   1.000  N
  C485     1.0000 0.12786  0.88786  0.15785  Biso   1.000  C
  H635     1.0000 0.08078  0.85105  0.08092  Biso   1.000  H
  H636     1.0000 0.82200  0.18144  0.65295  Biso   1.000  H
  H637     1.0000 0.83138  0.13112  0.62515  Biso   1.000  H
  C486     1.0000 0.77067  0.10182  0.69193  Biso   1.000  C
  C487     1.0000 0.83217  0.00374  0.82313  Biso   1.000  C
  H638     1.0000 0.78137  0.03064  0.67654  Biso   1.000  H
  H639     1.0000 0.74018  0.02143  0.73223  Biso   1.000  H
  H640     1.0000 0.08745  0.32642  0.13364  Biso   1.000  H
  H641     1.0000 0.15237  0.37844  0.12171  Biso   1.000  H
  C488     1.0000 0.14998  0.30704  0.16144  Biso   1.000  C
  C489     1.0000 0.08756  0.12242  0.07613  Biso   1.000  C
  H642     1.0000 0.12908  0.22194  0.18343  Biso   1.000  H
  H643     1.0000 0.07246  0.22764  0.17235  Biso   1.000  H
  C490     1.0000 0.88159  0.85244  0.75804  Biso   1.000  C
  H644     1.0000 0.81527  0.68895  0.73835  Biso   1.000  H
  H645     1.0000 0.80648  0.71985  0.68155  Biso   1.000  H
  C491     1.0000 0.85307  0.67852  0.66266  Biso   1.000  C
  H646     1.0000 0.91151  0.64936  0.66373  Biso   1.000  H
  H647     1.0000 0.88089  0.64315  0.72673  Biso   1.000  H
  H648     1.0000 0.23896  0.91255  0.13364  Biso   1.000  H
  H649     1.0000 0.22609  0.84766  0.12171  Biso   1.000  H
  C492     1.0000 0.15706  0.85005  0.16144  Biso   1.000  C
  C493     1.0000 0.03489  0.91246  0.07613  Biso   1.000  C
  H650     1.0000 0.09287  0.87096  0.18343  Biso   1.000  H
  H651     1.0000 0.15515  0.92754  0.17235  Biso   1.000  H
  H652     1.0000 0.73786  0.08853  0.66373  Biso   1.000  H
  H653     1.0000 0.76227  0.11912  0.72673  Biso   1.000  H
  C494     1.0000 0.83438  0.94923  0.83523  Biso   1.000  C
  C495     1.0000 0.83507  0.04042  0.87554  Biso   1.000  C
  H654     1.0000 0.15007  0.31994  0.20263  Biso   1.000  H
  H655     1.0000 0.19056  0.31925  0.15036  Biso   1.000  H
  C496     1.0000 0.04286  0.05915  0.07493  Biso   1.000  C
  C497     1.0000 0.14638  0.13755  0.04665  Biso   1.000  C
  C498     1.0000 0.14996  0.14042  0.07573  Biso   1.000  C
  C499     1.0000 0.85770  0.87626  0.80304  Biso   1.000  C
  C500     1.0000 0.92199  0.89495  0.71214  Biso   1.000  C
  H656     1.0000 0.81858  0.64054  0.65295  Biso   1.000  H
  H657     1.0000 0.86887  0.70025  0.62515  Biso   1.000  H
  H658     1.0000 0.16988  0.84997  0.20263  Biso   1.000  H
  H659     1.0000 0.12867  0.80946  0.15036  Biso   1.000  H
  C501     1.0000 0.99119  0.85366  0.04665  Biso   1.000  C
  C502     1.0000 0.99048  0.85005  0.07573  Biso   1.000  C
  C503     1.0000 0.01628  0.95714  0.07493  Biso   1.000  C
  C504     1.0000 0.85568  0.92693  0.79196  Biso   1.000  C
  C505     1.0000 0.81537  0.92085  0.88933  Biso   1.000  C
  H660     1.0000 0.85529  0.08144  0.86396  Biso   1.000  H
  H661     1.0000 0.85628  0.03472  0.90795  Biso   1.000  H
  H662     1.0000 0.79569  0.02894  0.88866  Biso   1.000  H
  C506     1.0000 0.05884  0.01651  0.07502  Biso   1.000  C
  C507     1.0000 0.98349  0.04233  0.07502  Biso   1.000  C
  H663     1.0000 0.13938  0.12264  0.00585  Biso   1.000  H
  H664     1.0000 0.16478  0.11956  0.06921  Biso   1.000  H
  H665     1.0000 0.17196  0.17975  0.04602  Biso   1.000  H
  H666     1.0000 0.16527  0.15154  0.03543  Biso   1.000  H
  H667     1.0000 0.17108  0.17362  0.10243  Biso   1.000  H
  H668     1.0000 0.15477  0.10804  0.08912  Biso   1.000  H
  C508     1.0000 0.83859  0.84806  0.85825  Biso   1.000  C
  H669     1.0000 0.95287  0.92945  0.73205  Biso   1.000  H
  H670     1.0000 0.89998  0.90646  0.68603  Biso   1.000  H
  H671     1.0000 0.93927  0.87643  0.68864  Biso   1.000  H
  H672     1.0000 0.98328  0.86066  0.00585  Biso   1.000  H
  H673     1.0000 0.95476  0.83523  0.06921  Biso   1.000  H
  H674     1.0000 0.98629  0.83476  0.03543  Biso   1.000  H
  H675     1.0000 0.00778  0.82806  0.04602  Biso   1.000  H
  H676     1.0000 0.95329  0.84523  0.08912  Biso   1.000  H
  H677     1.0000 0.00257  0.82893  0.10243  Biso   1.000  H
  C509     1.0000 0.95766  0.94114  0.07502  Biso   1.000  C
  H678     1.0000 0.86878  0.94636  0.75493  Biso   1.000  H
  C510     1.0000 0.81726  0.86983  0.90174  Biso   1.000  C
  H679     1.0000 0.80070  0.93606  0.91846  Biso   1.000  H
  H680     1.0000 0.09888  0.02764  0.07524  Biso   1.000  H
  C511     1.0000 0.94087  0.98373  0.07493  Biso   1.000  C
  H681     1.0000 0.97239  0.07123  0.07524  Biso   1.000  H
  H682     1.0000 0.84030  0.81377  0.86596  Biso   1.000  H
  H683     1.0000 0.92879  0.90116  0.07524  Biso   1.000  H
  C512     1.0000 0.79879  0.84236  0.96156  Biso   1.000  C
  C513     1.0000 0.87756  0.96513  0.07613  Biso   1.000  C
  N71      1.0000 0.76979  0.85805  0.99264  Biso   1.000  N
  C514     1.0000 0.82077  0.80173  0.98124  Biso   1.000  C
  N72      1.0000 0.84326  0.91355  0.09134  Biso   1.000  N
  C515     1.0000 0.86248  0.00882  0.04665  Biso   1.000  C
  C516     1.0000 0.85956  0.00952  0.07573  Biso   1.000  C
  C517     1.0000 0.75150  0.83676  0.05294  Biso   1.000  C
  H684     1.0000 0.85800  0.81324  0.96173  Biso   1.000  H
  H685     1.0000 0.79239  0.76175  0.97025  Biso   1.000  H
  H686     1.0000 0.82618  0.80434  0.02434  Biso   1.000  H
  C518     1.0000 0.78008  0.88925  0.09444  Biso   1.000  C
  H687     1.0000 0.82029  0.99225  0.04602  Biso   1.000  H
  H688     1.0000 0.87739  0.01673  0.00585  Biso   1.000  H
  H689     1.0000 0.88047  0.04524  0.06921  Biso   1.000  H
  H690     1.0000 0.84849  0.01373  0.03543  Biso   1.000  H
  H691     1.0000 0.82640  0.99747  0.10243  Biso   1.000  H
  H692     1.0000 0.89197  0.04672  0.08912  Biso   1.000  H
  H693     1.0000 0.76400  0.80816  0.06354  Biso   1.000  H
  C519     1.0000 0.68497  0.80803  0.05693  Biso   1.000  C
  C520     1.0000 0.75996  0.87213  0.15785  Biso   1.000  C
  H694     1.0000 0.77027  0.91924  0.08092  Biso   1.000  H
  H695     1.0000 0.67279  0.83545  0.04226  Biso   1.000  H
  H696     1.0000 0.66688  0.77313  0.03144  Biso   1.000  H
  C521     1.0000 0.66436  0.79104  0.12025  Biso   1.000  C
  C522     1.0000 0.69297  0.84293  0.16144  Biso   1.000  C
  H697     1.0000 0.77808  0.90716  0.18343  Biso   1.000  H
  H698     1.0000 0.77236  0.84484  0.17235  Biso   1.000  H
  H699     1.0000 0.67356  0.76105  0.13364  Biso   1.000  H
  H700     1.0000 0.62157  0.77396  0.12171  Biso   1.000  H
  H701     1.0000 0.68007  0.83015  0.20263  Biso   1.000  H
  H702     1.0000 0.68076  0.87135  0.15036  Biso   1.000  H
  Ne1      1.0000 0.66668  0.33334  0.74327  Biso   1.000  Ne
  He1      1.0000 0.83515  0.41050  0.79090  Biso   1.000  He
  He2      1.0000 0.56858  0.14862  0.79714  Biso   1.000  He
  He3      1.0000 0.60502  0.48096  0.74385  Biso   1.000  He
  He4      1.0000 0.66668  0.33335  0.57249  Biso   1.000  He
  Ar1      1.0000 0.66664  0.33329  0.73221  Biso   1.000  Ar
  Ne2      1.0000 0.33334  0.66668  0.57776  Biso   1.000  Ne
  He5      1.0000 0.50064  0.76158  0.62609  Biso   1.000  He
  He6      1.0000 0.23263  0.50483  0.70754  Biso   1.000  He
  He7      1.0000 0.27511  0.76109  0.69563  Biso   1.000  He
  He8      1.0000 0.37662  0.73040  0.40863  Biso   1.000  He
  Ar2      1.0000 0.33332  0.66669  0.56898  Biso   1.000  Ar
  Ne3      1.0000 0.66668  0.33334  0.24442  Biso   1.000  Ne
  He9      1.0000 0.83400  0.42827  0.29276  Biso   1.000  He
  He10     1.0000 0.56596  0.17150  0.37424  Biso   1.000  He
  He11     1.0000 0.60847  0.42772  0.36233  Biso   1.000  He
  He12     1.0000 0.70996  0.39706  0.07530  Biso   1.000  He
  Ar3      1.0000 0.66672  0.33335  0.23526  Biso   1.000  Ar
  Ne4      1.0000 0.00001  0.00001  0.40993  Biso   1.000  Ne
  He13     1.0000 0.16848  0.07716  0.45754  Biso   1.000  He
  He14     1.0000 0.90192  0.81532  0.46377  Biso   1.000  He
  He15     1.0000 0.93835  0.14763  0.41052  Biso   1.000  He
  He16     1.0000 0.00001  0.00000  0.23914  Biso   1.000  He
  Ar4      1.0000 0.00003  0.00003  0.39898  Biso   1.000  Ar
  Ne5      1.0000 0.33334  0.66668  0.07660  Biso   1.000  Ne
  He17     1.0000 0.50182  0.74383  0.12420  Biso   1.000  He
  He18     1.0000 0.23520  0.48195  0.13044  Biso   1.000  He
  He19     1.0000 0.27167  0.81434  0.07721  Biso   1.000  He
  He20     1.0000 0.33334  0.66669  0.90584  Biso   1.000  He
  Ar5      1.0000 0.33335  0.66669  0.06568  Biso   1.000  Ar
  Ne6      1.0000 0.00001  0.00001  0.91109  Biso   1.000  Ne
  He21     1.0000 0.16728  0.09488  0.95945  Biso   1.000  He
  He22     1.0000 0.89928  0.83818  0.04091  Biso   1.000  He
  He23     1.0000 0.94180  0.09439  0.02898  Biso   1.000  He
  He24     1.0000 0.04329  0.06373  0.74199  Biso   1.000  He
  Ar6      1.0000 0.99998  0.00002  0.90193  Biso   1.000  Ar
