data_image0
_cell_length_a       30.095
_cell_length_b       30.095
_cell_length_c       30.095
_cell_angle_alpha    90
_cell_angle_beta     90
_cell_angle_gamma    90

_symmetry_space_group_name_H-M    "P 1"
_symmetry_int_tables_number       1

loop_
  _symmetry_equiv_pos_as_xyz
  'x, y, z'

loop_
  _atom_site_label
  _atom_site_occupancy
  _atom_site_fract_x
  _atom_site_fract_y
  _atom_site_fract_z
  _atom_site_thermal_displace_type
  _atom_site_B_iso_or_equiv
  _atom_site_type_symbol
  C1       1.0000 0.53607  0.38757  0.50437  Biso   1.000  C
  C2       1.0000 0.54471  0.36807  0.46360  Biso   1.000  C
  C3       1.0000 0.50168  0.37215  0.53142  Biso   1.000  C
  H1       1.0000 0.55381  0.41180  0.51411  Biso   1.000  H
  C4       1.0000 0.58285  0.38089  0.43559  Biso   1.000  C
  C5       1.0000 0.51693  0.33454  0.44881  Biso   1.000  C
  C6       1.0000 0.47370  0.33856  0.51570  Biso   1.000  C
  C7       1.0000 0.49480  0.39226  0.57561  Biso   1.000  C
  N1       1.0000 0.61299  0.40738  0.44742  Biso   1.000  N
  H2       1.0000 0.58481  0.36830  0.40671  Biso   1.000  H
  C8       1.0000 0.48064  0.31975  0.47430  Biso   1.000  C
  H3       1.0000 0.52251  0.32122  0.42080  Biso   1.000  H
  H4       1.0000 0.44971  0.32849  0.53361  Biso   1.000  H
  N2       1.0000 0.46878  0.37584  0.60342  Biso   1.000  N
  H5       1.0000 0.51072  0.41851  0.58309  Biso   1.000  H
  C9       1.0000 0.64904  0.41592  0.41632  Biso   1.000  C
  C10      1.0000 0.45044  0.28859  0.45635  Biso   1.000  C
  C11      1.0000 0.46370  0.39960  0.64589  Biso   1.000  C
  C12      1.0000 0.64589  0.46370  0.39960  Biso   1.000  C
  C13      1.0000 0.69397  0.40781  0.43901  Biso   1.000  C
  H6       1.0000 0.64609  0.39522  0.39040  Biso   1.000  H
  C14      1.0000 0.42276  0.26589  0.43761  Biso   1.000  C
  C15      1.0000 0.41592  0.41632  0.64904  Biso   1.000  C
  H7       1.0000 0.48480  0.42519  0.64718  Biso   1.000  H
  C16      1.0000 0.47290  0.36770  0.68440  Biso   1.000  C
  N3       1.0000 0.60342  0.46878  0.37584  Biso   1.000  N
  H8       1.0000 0.64718  0.48480  0.42519  Biso   1.000  H
  C17      1.0000 0.68440  0.47290  0.36770  Biso   1.000  C
  C18      1.0000 0.73291  0.41871  0.40821  Biso   1.000  C
  H9       1.0000 0.69600  0.42652  0.46599  Biso   1.000  H
  H10      1.0000 0.69590  0.37641  0.44831  Biso   1.000  H
  C19      1.0000 0.38884  0.24203  0.41425  Biso   1.000  C
  N4       1.0000 0.40738  0.44742  0.61299  Biso   1.000  N
  C20      1.0000 0.40781  0.43901  0.69397  Biso   1.000  C
  H11      1.0000 0.39522  0.39040  0.64609  Biso   1.000  H
  H12      1.0000 0.45310  0.34158  0.68191  Biso   1.000  H
  H13      1.0000 0.50400  0.35710  0.68261  Biso   1.000  H
  C21      1.0000 0.46539  0.39050  0.72909  Biso   1.000  C
  C22      1.0000 0.57561  0.49480  0.39226  Biso   1.000  C
  H14      1.0000 0.68191  0.45310  0.34158  Biso   1.000  H
  H15      1.0000 0.68261  0.50400  0.35710  Biso   1.000  H
  C23      1.0000 0.72909  0.46539  0.39050  Biso   1.000  C
  H16      1.0000 0.76119  0.41538  0.42469  Biso   1.000  H
  H17      1.0000 0.73331  0.39741  0.38309  Biso   1.000  H
  C24      1.0000 0.39654  0.22306  0.37318  Biso   1.000  C
  C25      1.0000 0.34594  0.24034  0.43210  Biso   1.000  C
  C26      1.0000 0.38089  0.43559  0.58285  Biso   1.000  C
  C27      1.0000 0.41871  0.40821  0.73291  Biso   1.000  C
  H18      1.0000 0.42652  0.46599  0.69600  Biso   1.000  H
  H19      1.0000 0.37641  0.44831  0.69590  Biso   1.000  H
  H20      1.0000 0.47091  0.36900  0.75341  Biso   1.000  H
  H21      1.0000 0.48669  0.41528  0.73241  Biso   1.000  H
  C28      1.0000 0.53142  0.50168  0.37215  Biso   1.000  C
  H22      1.0000 0.58309  0.51072  0.41851  Biso   1.000  H
  H23      1.0000 0.75341  0.47091  0.36900  Biso   1.000  H
  H24      1.0000 0.73241  0.48669  0.41528  Biso   1.000  H
  C29      1.0000 0.36285  0.20169  0.34983  Biso   1.000  C
  H25      1.0000 0.42549  0.22459  0.36059  Biso   1.000  H
  C30      1.0000 0.31168  0.21997  0.40907  Biso   1.000  C
  H26      1.0000 0.34019  0.25330  0.46031  Biso   1.000  H
  C31      1.0000 0.36807  0.46360  0.54471  Biso   1.000  C
  H27      1.0000 0.36830  0.40671  0.58481  Biso   1.000  H
  H28      1.0000 0.41538  0.42469  0.76119  Biso   1.000  H
  H29      1.0000 0.39741  0.38309  0.73331  Biso   1.000  H
  C32      1.0000 0.51570  0.47370  0.33856  Biso   1.000  C
  C33      1.0000 0.50437  0.53607  0.38757  Biso   1.000  C
  C34      1.0000 0.36960  0.18216  0.30593  Biso   1.000  C
  C35      1.0000 0.32009  0.20073  0.36780  Biso   1.000  C
  C36      1.0000 0.26699  0.22133  0.42878  Biso   1.000  C
  C37      1.0000 0.33454  0.44881  0.51693  Biso   1.000  C
  C38      1.0000 0.38757  0.50437  0.53607  Biso   1.000  C
  C39      1.0000 0.47430  0.48064  0.31975  Biso   1.000  C
  H30      1.0000 0.53361  0.44971  0.32849  Biso   1.000  H
  C40      1.0000 0.46360  0.54471  0.36807  Biso   1.000  C
  H31      1.0000 0.51411  0.55381  0.41180  Biso   1.000  H
  N5       1.0000 0.40738  0.17880  0.28732  Biso   1.000  N
  H32      1.0000 0.34431  0.17129  0.29041  Biso   1.000  H
  H33      1.0000 0.29659  0.18691  0.35179  Biso   1.000  H
  N6       1.0000 0.23226  0.20841  0.40871  Biso   1.000  N
  H34      1.0000 0.26400  0.23250  0.45822  Biso   1.000  H
  C41      1.0000 0.31975  0.47430  0.48064  Biso   1.000  C
  H35      1.0000 0.32122  0.42080  0.52251  Biso   1.000  H
  C42      1.0000 0.37215  0.53142  0.50168  Biso   1.000  C
  H36      1.0000 0.41180  0.51411  0.55381  Biso   1.000  H
  C43      1.0000 0.45635  0.45044  0.28859  Biso   1.000  C
  C44      1.0000 0.44881  0.51693  0.33454  Biso   1.000  C
  C45      1.0000 0.43559  0.58285  0.38089  Biso   1.000  C
  C46      1.0000 0.40907  0.15866  0.24286  Biso   1.000  C
  C47      1.0000 0.19060  0.21203  0.43313  Biso   1.000  C
  C48      1.0000 0.28859  0.45635  0.45044  Biso   1.000  C
  C49      1.0000 0.33856  0.51570  0.47370  Biso   1.000  C
  C50      1.0000 0.39226  0.57561  0.49480  Biso   1.000  C
  C51      1.0000 0.43761  0.42276  0.26589  Biso   1.000  C
  H37      1.0000 0.42080  0.52251  0.32122  Biso   1.000  H
  H38      1.0000 0.40671  0.58481  0.36830  Biso   1.000  H
  N7       1.0000 0.44742  0.61299  0.40738  Biso   1.000  N
  C52      1.0000 0.43313  0.19060  0.21203  Biso   1.000  C
  H39      1.0000 0.37820  0.15351  0.23170  Biso   1.000  H
  C53      1.0000 0.43389  0.11414  0.24559  Biso   1.000  C
  C54      1.0000 0.15866  0.24286  0.40907  Biso   1.000  C
  C55      1.0000 0.16993  0.16551  0.43781  Biso   1.000  C
  H40      1.0000 0.19681  0.22419  0.46340  Biso   1.000  H
  C56      1.0000 0.26589  0.43761  0.42276  Biso   1.000  C
  H41      1.0000 0.32849  0.53361  0.44971  Biso   1.000  H
  N8       1.0000 0.37584  0.60342  0.46878  Biso   1.000  N
  H42      1.0000 0.41851  0.58309  0.51072  Biso   1.000  H
  C57      1.0000 0.41425  0.38884  0.24203  Biso   1.000  C
  C58      1.0000 0.41632  0.64904  0.41592  Biso   1.000  C
  N9       1.0000 0.40871  0.23226  0.20841  Biso   1.000  N
  C59      1.0000 0.43781  0.16993  0.16551  Biso   1.000  C
  H43      1.0000 0.46340  0.19681  0.22419  Biso   1.000  H
  H44      1.0000 0.46360  0.11889  0.25891  Biso   1.000  H
  H45      1.0000 0.41731  0.09340  0.26499  Biso   1.000  H
  C60      1.0000 0.43901  0.09380  0.19980  Biso   1.000  C
  N10      1.0000 0.17880  0.28732  0.40738  Biso   1.000  N
  H46      1.0000 0.15351  0.23170  0.37820  Biso   1.000  H
  C61      1.0000 0.11414  0.24559  0.43389  Biso   1.000  C
  C62      1.0000 0.12550  0.16830  0.46151  Biso   1.000  C
  H47      1.0000 0.16571  0.15228  0.40791  Biso   1.000  H
  H48      1.0000 0.19030  0.14600  0.45479  Biso   1.000  H
  C63      1.0000 0.24203  0.41425  0.38884  Biso   1.000  C
  C64      1.0000 0.39960  0.64589  0.46370  Biso   1.000  C
  C65      1.0000 0.37318  0.39654  0.22306  Biso   1.000  C
  C66      1.0000 0.43210  0.34594  0.24034  Biso   1.000  C
  C67      1.0000 0.43901  0.69397  0.40781  Biso   1.000  C
  H49      1.0000 0.39040  0.64609  0.39522  Biso   1.000  H
  C68      1.0000 0.42878  0.26699  0.22133  Biso   1.000  C
  C69      1.0000 0.46151  0.12550  0.16830  Biso   1.000  C
  H50      1.0000 0.40791  0.16571  0.15228  Biso   1.000  H
  H51      1.0000 0.45479  0.19030  0.14600  Biso   1.000  H
  H52      1.0000 0.45679  0.06619  0.20199  Biso   1.000  H
  H53      1.0000 0.40940  0.08589  0.18800  Biso   1.000  H
  C70      1.0000 0.18216  0.30593  0.36960  Biso   1.000  C
  H54      1.0000 0.11889  0.25891  0.46360  Biso   1.000  H
  H55      1.0000 0.09340  0.26499  0.41731  Biso   1.000  H
  C71      1.0000 0.09380  0.19980  0.43901  Biso   1.000  C
  H56      1.0000 0.11201  0.13830  0.46260  Biso   1.000  H
  H57      1.0000 0.13049  0.17820  0.49241  Biso   1.000  H
  C72      1.0000 0.24034  0.43210  0.34594  Biso   1.000  C
  C73      1.0000 0.22306  0.37318  0.39654  Biso   1.000  C
  H58      1.0000 0.42519  0.64718  0.48480  Biso   1.000  H
  C74      1.0000 0.36770  0.68440  0.47290  Biso   1.000  C
  C75      1.0000 0.34983  0.36285  0.20169  Biso   1.000  C
  H59      1.0000 0.36059  0.42549  0.22459  Biso   1.000  H
  C76      1.0000 0.40907  0.31168  0.21997  Biso   1.000  C
  H60      1.0000 0.46031  0.34019  0.25330  Biso   1.000  H
  C77      1.0000 0.40821  0.73291  0.41871  Biso   1.000  C
  H61      1.0000 0.46599  0.69600  0.42652  Biso   1.000  H
  H62      1.0000 0.44831  0.69590  0.37641  Biso   1.000  H
  H63      1.0000 0.45822  0.26400  0.23250  Biso   1.000  H
  H64      1.0000 0.46260  0.11201  0.13830  Biso   1.000  H
  H65      1.0000 0.49241  0.13049  0.17820  Biso   1.000  H
  C78      1.0000 0.20169  0.34983  0.36285  Biso   1.000  C
  H66      1.0000 0.17129  0.29041  0.34431  Biso   1.000  H
  H67      1.0000 0.06619  0.20199  0.45679  Biso   1.000  H
  H68      1.0000 0.08589  0.18800  0.40940  Biso   1.000  H
  C79      1.0000 0.21997  0.40907  0.31168  Biso   1.000  C
  H69      1.0000 0.25330  0.46031  0.34019  Biso   1.000  H
  H70      1.0000 0.22459  0.36059  0.42549  Biso   1.000  H
  H71      1.0000 0.34158  0.68191  0.45310  Biso   1.000  H
  H72      1.0000 0.35710  0.68261  0.50400  Biso   1.000  H
  C80      1.0000 0.39050  0.72909  0.46539  Biso   1.000  C
  C81      1.0000 0.36780  0.32009  0.20073  Biso   1.000  C
  C82      1.0000 0.30593  0.36960  0.18216  Biso   1.000  C
  H73      1.0000 0.42469  0.76119  0.41538  Biso   1.000  H
  H74      1.0000 0.38309  0.73331  0.39741  Biso   1.000  H
  C83      1.0000 0.20073  0.36780  0.32009  Biso   1.000  C
  C84      1.0000 0.22133  0.42878  0.26699  Biso   1.000  C
  H75      1.0000 0.36900  0.75341  0.47091  Biso   1.000  H
  H76      1.0000 0.41528  0.73241  0.48669  Biso   1.000  H
  H77      1.0000 0.35179  0.29659  0.18691  Biso   1.000  H
  N11      1.0000 0.28732  0.40738  0.17880  Biso   1.000  N
  H78      1.0000 0.29041  0.34431  0.17129  Biso   1.000  H
  H79      1.0000 0.18691  0.35179  0.29659  Biso   1.000  H
  N12      1.0000 0.20841  0.40871  0.23226  Biso   1.000  N
  H80      1.0000 0.23250  0.45822  0.26400  Biso   1.000  H
  C85      1.0000 0.24286  0.40907  0.15866  Biso   1.000  C
  C86      1.0000 0.21203  0.43313  0.19060  Biso   1.000  C
  H81      1.0000 0.23170  0.37820  0.15351  Biso   1.000  H
  C87      1.0000 0.24559  0.43389  0.11414  Biso   1.000  C
  C88      1.0000 0.16551  0.43781  0.16993  Biso   1.000  C
  H82      1.0000 0.22419  0.46340  0.19681  Biso   1.000  H
  H83      1.0000 0.25891  0.46360  0.11889  Biso   1.000  H
  H84      1.0000 0.26499  0.41731  0.09340  Biso   1.000  H
  C89      1.0000 0.19980  0.43901  0.09380  Biso   1.000  C
  C90      1.0000 0.16830  0.46151  0.12550  Biso   1.000  C
  H85      1.0000 0.15228  0.40791  0.16571  Biso   1.000  H
  H86      1.0000 0.14600  0.45479  0.19030  Biso   1.000  H
  H87      1.0000 0.20199  0.45679  0.06619  Biso   1.000  H
  H88      1.0000 0.18800  0.40940  0.08589  Biso   1.000  H
  H89      1.0000 0.13830  0.46260  0.11201  Biso   1.000  H
  H90      1.0000 0.17820  0.49241  0.13049  Biso   1.000  H
  C91      1.0000 0.62549  0.33172  0.53849  Biso   1.000  C
  C92      1.0000 0.59379  0.30022  0.56099  Biso   1.000  C
  H91      1.0000 0.61200  0.36169  0.53740  Biso   1.000  H
  H92      1.0000 0.63050  0.32181  0.50759  Biso   1.000  H
  C93      1.0000 0.66995  0.33451  0.56219  Biso   1.000  C
  C94      1.0000 0.61412  0.25439  0.56611  Biso   1.000  C
  H93      1.0000 0.56621  0.29799  0.54321  Biso   1.000  H
  H94      1.0000 0.58591  0.31201  0.59060  Biso   1.000  H
  C95      1.0000 0.69061  0.28795  0.56687  Biso   1.000  C
  H95      1.0000 0.66569  0.34770  0.59209  Biso   1.000  H
  H96      1.0000 0.69031  0.35401  0.54521  Biso   1.000  H
  C96      1.0000 0.65865  0.25715  0.59093  Biso   1.000  C
  H97      1.0000 0.61891  0.24110  0.53640  Biso   1.000  H
  H98      1.0000 0.59339  0.23499  0.58269  Biso   1.000  H
  N13      1.0000 0.73228  0.29158  0.59129  Biso   1.000  N
  H99      1.0000 0.69679  0.27579  0.53660  Biso   1.000  H
  N14      1.0000 0.67882  0.21266  0.59262  Biso   1.000  N
  H100     1.0000 0.65350  0.26828  0.62180  Biso   1.000  H
  C97      1.0000 0.76700  0.27865  0.57122  Biso   1.000  C
  C98      1.0000 0.68214  0.19405  0.63040  Biso   1.000  C
  C99      1.0000 0.81166  0.28001  0.59093  Biso   1.000  C
  H101     1.0000 0.76401  0.26749  0.54178  Biso   1.000  H
  C100     1.0000 0.70171  0.15016  0.63715  Biso   1.000  C
  H102     1.0000 0.67131  0.20960  0.65569  Biso   1.000  H
  C101     1.0000 0.82010  0.29925  0.63220  Biso   1.000  C
  C102     1.0000 0.84592  0.25964  0.56790  Biso   1.000  C
  C103     1.0000 0.72308  0.12680  0.60346  Biso   1.000  C
  C104     1.0000 0.70075  0.13221  0.67991  Biso   1.000  C
  C105     1.0000 0.86283  0.29829  0.65017  Biso   1.000  C
  H103     1.0000 0.79661  0.31311  0.64821  Biso   1.000  H
  C106     1.0000 0.88882  0.25798  0.58575  Biso   1.000  C
  H104     1.0000 0.84021  0.24669  0.53969  Biso   1.000  H
  C107     1.0000 0.74202  0.08573  0.61116  Biso   1.000  C
  H105     1.0000 0.72461  0.13939  0.57451  Biso   1.000  H
  H106     1.0000 0.68689  0.14820  0.70341  Biso   1.000  H
  C108     1.0000 0.71999  0.09095  0.68832  Biso   1.000  C
  C109     1.0000 0.89653  0.27692  0.62682  Biso   1.000  C
  C110     1.0000 0.86958  0.31786  0.69407  Biso   1.000  C
  C111     1.0000 0.92274  0.23409  0.56239  Biso   1.000  C
  C112     1.0000 0.76591  0.06240  0.57724  Biso   1.000  C
  C113     1.0000 0.74036  0.06789  0.65406  Biso   1.000  C
  C114     1.0000 0.72135  0.07121  0.73301  Biso   1.000  C
  H107     1.0000 0.92550  0.27539  0.63941  Biso   1.000  H
  N15      1.0000 0.90736  0.32118  0.71268  Biso   1.000  N
  H108     1.0000 0.84429  0.32869  0.70959  Biso   1.000  H
  C115     1.0000 0.95042  0.21140  0.54365  Biso   1.000  C
  C116     1.0000 0.78860  0.04363  0.54956  Biso   1.000  C
  H109     1.0000 0.75331  0.03971  0.65981  Biso   1.000  H
  H110     1.0000 0.73251  0.04180  0.73600  Biso   1.000  H
  N16      1.0000 0.70842  0.09128  0.76774  Biso   1.000  N
  C117     1.0000 0.90909  0.34135  0.75714  Biso   1.000  C
  C118     1.0000 0.98066  0.18023  0.52570  Biso   1.000  C
  C119     1.0000 0.81977  0.02569  0.51936  Biso   1.000  C
  C120     1.0000 0.71205  0.06685  0.80940  Biso   1.000  C
  H111     1.0000 0.87819  0.34650  0.76830  Biso   1.000  H
  C121     1.0000 0.93391  0.38588  0.75441  Biso   1.000  C
  C122     1.0000 0.93315  0.30939  0.78797  Biso   1.000  C
  C123     1.0000 0.97372  0.16146  0.48430  Biso   1.000  C
  C124     1.0000 0.01691  0.16548  0.55119  Biso   1.000  C
  C125     1.0000 0.83452  0.05120  0.48307  Biso   1.000  C
  C126     1.0000 0.83854  0.98432  0.52630  Biso   1.000  C
  C127     1.0000 0.74285  0.09091  0.84134  Biso   1.000  C
  C128     1.0000 0.66549  0.06220  0.83007  Biso   1.000  C
  H112     1.0000 0.72421  0.03658  0.80319  Biso   1.000  H
  H113     1.0000 0.96362  0.38109  0.74109  Biso   1.000  H
  H114     1.0000 0.91730  0.40661  0.73501  Biso   1.000  H
  C129     1.0000 0.93899  0.40621  0.80020  Biso   1.000  C
  N17      1.0000 0.90872  0.26772  0.79159  Biso   1.000  N
  C130     1.0000 0.93780  0.33005  0.83449  Biso   1.000  C
  H115     1.0000 0.96342  0.30321  0.77581  Biso   1.000  H
  H116     1.0000 0.94969  0.17149  0.46639  Biso   1.000  H
  C131     1.0000 0.00166  0.12786  0.46858  Biso   1.000  C
  C132     1.0000 0.04473  0.13192  0.53640  Biso   1.000  C
  H117     1.0000 0.02250  0.17880  0.57920  Biso   1.000  H
  C133     1.0000 0.86808  0.03638  0.45529  Biso   1.000  C
  H118     1.0000 0.82120  0.07922  0.47749  Biso   1.000  H
  H119     1.0000 0.82851  0.96641  0.55029  Biso   1.000  H
  C134     1.0000 0.87214  0.96857  0.49832  Biso   1.000  C
  N18      1.0000 0.78734  0.09264  0.82120  Biso   1.000  N
  H120     1.0000 0.73172  0.12181  0.84649  Biso   1.000  H
  C135     1.0000 0.74561  0.06609  0.88586  Biso   1.000  C
  C136     1.0000 0.66828  0.03851  0.87450  Biso   1.000  C
  H121     1.0000 0.65230  0.09211  0.83429  Biso   1.000  H
  H122     1.0000 0.64599  0.04519  0.80970  Biso   1.000  H
  H123     1.0000 0.95680  0.43379  0.79801  Biso   1.000  H
  H124     1.0000 0.90939  0.41409  0.81200  Biso   1.000  H
  C137     1.0000 0.96149  0.37451  0.83170  Biso   1.000  C
  C138     1.0000 0.92879  0.23300  0.77867  Biso   1.000  C
  H125     1.0000 0.90789  0.33431  0.84772  Biso   1.000  H
  H126     1.0000 0.95481  0.30969  0.85400  Biso   1.000  H
  C139     1.0000 0.99482  0.10776  0.42439  Biso   1.000  C
  C140     1.0000 0.03609  0.11244  0.49563  Biso   1.000  C
  C141     1.0000 0.08287  0.11912  0.56441  Biso   1.000  C
  C142     1.0000 0.88088  0.06440  0.41715  Biso   1.000  C
  C143     1.0000 0.88756  0.99561  0.46393  Biso   1.000  C
  C144     1.0000 0.89224  0.92441  0.50520  Biso   1.000  C
  C145     1.0000 0.80595  0.13042  0.81784  Biso   1.000  C
  H127     1.0000 0.75890  0.03638  0.88111  Biso   1.000  H
  H128     1.0000 0.76501  0.08270  0.90660  Biso   1.000  H
  C146     1.0000 0.69978  0.06101  0.90620  Biso   1.000  C
  H129     1.0000 0.63831  0.03741  0.88799  Biso   1.000  H
  H130     1.0000 0.67819  0.00761  0.86951  Biso   1.000  H
  H131     1.0000 0.96259  0.38800  0.86170  Biso   1.000  H
  H132     1.0000 0.99239  0.36950  0.82180  Biso   1.000  H
  C147     1.0000 0.90905  0.18834  0.78003  Biso   1.000  C
  H133     1.0000 0.95820  0.23599  0.76750  Biso   1.000  H
  N19      1.0000 0.96877  0.12417  0.39658  Biso   1.000  N
  H134     1.0000 0.01070  0.08151  0.41691  Biso   1.000  H
  H135     1.0000 0.05380  0.08819  0.48589  Biso   1.000  H
  H136     1.0000 0.08480  0.13172  0.59329  Biso   1.000  H
  N20      1.0000 0.11301  0.09261  0.55258  Biso   1.000  N
  H137     1.0000 0.86828  0.09330  0.41519  Biso   1.000  H
  N21      1.0000 0.90739  0.05260  0.38701  Biso   1.000  N
  H138     1.0000 0.91181  0.98591  0.44619  Biso   1.000  H
  N22      1.0000 0.87583  0.89656  0.53122  Biso   1.000  N
  H139     1.0000 0.91849  0.91690  0.48928  Biso   1.000  H
  C148     1.0000 0.84984  0.13717  0.79831  Biso   1.000  C
  H140     1.0000 0.79040  0.15571  0.82871  Biso   1.000  H
  H141     1.0000 0.70201  0.04320  0.93381  Biso   1.000  H
  H142     1.0000 0.68799  0.09061  0.91411  Biso   1.000  H
  C149     1.0000 0.86779  0.17990  0.79927  Biso   1.000  C
  C150     1.0000 0.93211  0.15408  0.75966  Biso   1.000  C
  C151     1.0000 0.96371  0.10042  0.35411  Biso   1.000  C
  C152     1.0000 0.14906  0.08410  0.58368  Biso   1.000  C
  C153     1.0000 0.91590  0.08370  0.35096  Biso   1.000  C
  C154     1.0000 0.89958  0.85410  0.53630  Biso   1.000  C
  C155     1.0000 0.87320  0.10347  0.77694  Biso   1.000  C
  H143     1.0000 0.85180  0.20339  0.81309  Biso   1.000  H
  C156     1.0000 0.91427  0.11118  0.75797  Biso   1.000  C
  H144     1.0000 0.96029  0.15979  0.74670  Biso   1.000  H
  H145     1.0000 0.98481  0.07480  0.35282  Biso   1.000  H
  C157     1.0000 0.97289  0.13231  0.31560  Biso   1.000  C
  C158     1.0000 0.14590  0.03629  0.60040  Biso   1.000  C
  C159     1.0000 0.19395  0.09221  0.56099  Biso   1.000  C
  H146     1.0000 0.14610  0.10480  0.60960  Biso   1.000  H
  C160     1.0000 0.90779  0.06101  0.30603  Biso   1.000  C
  H147     1.0000 0.89520  0.10959  0.35391  Biso   1.000  H
  H148     1.0000 0.92520  0.85280  0.51520  Biso   1.000  H
  C161     1.0000 0.86769  0.81558  0.52710  Biso   1.000  C
  C162     1.0000 0.91630  0.85094  0.58408  Biso   1.000  C
  H149     1.0000 0.86061  0.07450  0.77541  Biso   1.000  H
  C163     1.0000 0.93760  0.07726  0.73411  Biso   1.000  C
  H150     1.0000 0.95312  0.15840  0.31809  Biso   1.000  H
  C164     1.0000 0.96541  0.10949  0.27091  Biso   1.000  C
  H151     1.0000 0.00399  0.14291  0.31739  Biso   1.000  H
  N23      1.0000 0.10344  0.03123  0.62416  Biso   1.000  N
  H152     1.0000 0.14720  0.01519  0.57481  Biso   1.000  H
  C165     1.0000 0.18442  0.02711  0.63230  Biso   1.000  C
  C166     1.0000 0.23290  0.08131  0.59179  Biso   1.000  C
  H153     1.0000 0.19601  0.07350  0.53401  Biso   1.000  H
  H154     1.0000 0.19591  0.12361  0.55169  Biso   1.000  H
  C167     1.0000 0.91869  0.09181  0.26709  Biso   1.000  C
  H155     1.0000 0.92650  0.03399  0.30400  Biso   1.000  H
  H156     1.0000 0.87639  0.05170  0.30410  Biso   1.000  H
  H157     1.0000 0.84160  0.81811  0.54690  Biso   1.000  H
  H158     1.0000 0.85709  0.81741  0.49600  Biso   1.000  H
  C168     1.0000 0.89051  0.77089  0.53461  Biso   1.000  C
  N24      1.0000 0.94740  0.88699  0.59262  Biso   1.000  N
  C169     1.0000 0.93899  0.80605  0.59219  Biso   1.000  C
  H159     1.0000 0.89041  0.85390  0.60478  Biso   1.000  H
  C170     1.0000 0.95637  0.04958  0.71141  Biso   1.000  C
  H160     1.0000 0.97089  0.13099  0.24659  Biso   1.000  H
  H161     1.0000 0.98671  0.08470  0.26759  Biso   1.000  H
  C171     1.0000 0.07559  0.00518  0.60774  Biso   1.000  C
  H162     1.0000 0.18259  0.99601  0.64290  Biso   1.000  H
  H163     1.0000 0.18189  0.04688  0.65842  Biso   1.000  H
  C172     1.0000 0.22911  0.03459  0.60950  Biso   1.000  C
  H164     1.0000 0.26121  0.08460  0.57531  Biso   1.000  H
  H165     1.0000 0.23329  0.10261  0.61691  Biso   1.000  H
  H166     1.0000 0.91540  0.07529  0.23881  Biso   1.000  H
  H167     1.0000 0.89739  0.11690  0.26669  Biso   1.000  H
  H168     1.0000 0.86901  0.74660  0.52909  Biso   1.000  H
  H169     1.0000 0.91530  0.76760  0.51331  Biso   1.000  H
  C173     1.0000 0.90819  0.76710  0.58129  Biso   1.000  C
  C174     1.0000 0.93560  0.91713  0.61911  Biso   1.000  C
  H170     1.0000 0.96601  0.80399  0.57348  Biso   1.000  H
  H171     1.0000 0.94830  0.80409  0.62359  Biso   1.000  H
  C175     1.0000 0.97431  0.01934  0.68025  Biso   1.000  C
  C176     1.0000 0.03143  0.99834  0.62785  Biso   1.000  C
  H172     1.0000 0.08310  0.98930  0.58149  Biso   1.000  H
  H173     1.0000 0.25340  0.02911  0.63100  Biso   1.000  H
  H174     1.0000 0.23240  0.01329  0.58472  Biso   1.000  H
  H175     1.0000 0.92471  0.73879  0.58462  Biso   1.000  H
  H176     1.0000 0.88310  0.76671  0.60259  Biso   1.000  H
  H177     1.0000 0.90670  0.91520  0.63170  Biso   1.000  H
  C177     1.0000 0.96362  0.95527  0.63193  Biso   1.000  C
  C178     1.0000 0.94880  0.98309  0.66546  Biso   1.000  C
  C179     1.0000 0.01568  0.02628  0.66144  Biso   1.000  C
  C180     1.0000 0.00439  0.96391  0.61243  Biso   1.000  C
  H178     1.0000 0.92078  0.97750  0.67878  Biso   1.000  H
  H179     1.0000 0.03359  0.05031  0.67151  Biso   1.000  H
  H180     1.0000 0.01409  0.94620  0.58820  Biso   1.000  H
  C181     1.0000 0.53849  0.62549  0.33172  Biso   1.000  C
  C182     1.0000 0.56099  0.59379  0.30022  Biso   1.000  C
  H181     1.0000 0.53740  0.61200  0.36169  Biso   1.000  H
  H182     1.0000 0.50759  0.63050  0.32181  Biso   1.000  H
  C183     1.0000 0.56219  0.66995  0.33451  Biso   1.000  C
  C184     1.0000 0.56611  0.61412  0.25439  Biso   1.000  C
  H183     1.0000 0.54321  0.56621  0.29799  Biso   1.000  H
  H184     1.0000 0.59060  0.58591  0.31201  Biso   1.000  H
  C185     1.0000 0.56687  0.69061  0.28795  Biso   1.000  C
  H185     1.0000 0.59209  0.66569  0.34770  Biso   1.000  H
  H186     1.0000 0.54521  0.69031  0.35401  Biso   1.000  H
  C186     1.0000 0.59093  0.65865  0.25715  Biso   1.000  C
  H187     1.0000 0.53640  0.61891  0.24110  Biso   1.000  H
  H188     1.0000 0.58269  0.59339  0.23499  Biso   1.000  H
  N25      1.0000 0.59129  0.73228  0.29158  Biso   1.000  N
  H189     1.0000 0.53660  0.69679  0.27579  Biso   1.000  H
  N26      1.0000 0.59262  0.67882  0.21266  Biso   1.000  N
  H190     1.0000 0.62180  0.65350  0.26828  Biso   1.000  H
  C187     1.0000 0.57122  0.76700  0.27865  Biso   1.000  C
  C188     1.0000 0.63040  0.68214  0.19405  Biso   1.000  C
  C189     1.0000 0.59093  0.81166  0.28001  Biso   1.000  C
  H191     1.0000 0.54178  0.76401  0.26749  Biso   1.000  H
  C190     1.0000 0.63715  0.70171  0.15016  Biso   1.000  C
  H192     1.0000 0.65569  0.67131  0.20960  Biso   1.000  H
  C191     1.0000 0.63220  0.82010  0.29925  Biso   1.000  C
  C192     1.0000 0.56790  0.84592  0.25964  Biso   1.000  C
  C193     1.0000 0.60346  0.72308  0.12680  Biso   1.000  C
  C194     1.0000 0.67991  0.70075  0.13221  Biso   1.000  C
  C195     1.0000 0.65017  0.86283  0.29829  Biso   1.000  C
  H193     1.0000 0.64821  0.79661  0.31311  Biso   1.000  H
  C196     1.0000 0.58575  0.88882  0.25798  Biso   1.000  C
  H194     1.0000 0.53969  0.84021  0.24669  Biso   1.000  H
  C197     1.0000 0.61116  0.74202  0.08573  Biso   1.000  C
  H195     1.0000 0.57451  0.72461  0.13939  Biso   1.000  H
  H196     1.0000 0.70341  0.68689  0.14820  Biso   1.000  H
  C198     1.0000 0.68832  0.71999  0.09095  Biso   1.000  C
  C199     1.0000 0.62682  0.89653  0.27692  Biso   1.000  C
  C200     1.0000 0.69407  0.86958  0.31786  Biso   1.000  C
  C201     1.0000 0.56239  0.92274  0.23409  Biso   1.000  C
  C202     1.0000 0.57724  0.76591  0.06240  Biso   1.000  C
  C203     1.0000 0.65406  0.74036  0.06789  Biso   1.000  C
  C204     1.0000 0.73301  0.72135  0.07121  Biso   1.000  C
  H197     1.0000 0.63941  0.92550  0.27539  Biso   1.000  H
  N27      1.0000 0.71268  0.90736  0.32118  Biso   1.000  N
  H198     1.0000 0.70959  0.84429  0.32869  Biso   1.000  H
  C205     1.0000 0.54365  0.95042  0.21140  Biso   1.000  C
  C206     1.0000 0.54956  0.78860  0.04363  Biso   1.000  C
  H199     1.0000 0.65981  0.75331  0.03971  Biso   1.000  H
  H200     1.0000 0.73600  0.73251  0.04180  Biso   1.000  H
  N28      1.0000 0.76774  0.70842  0.09128  Biso   1.000  N
  C207     1.0000 0.75714  0.90909  0.34135  Biso   1.000  C
  C208     1.0000 0.52570  0.98066  0.18023  Biso   1.000  C
  C209     1.0000 0.51936  0.81977  0.02569  Biso   1.000  C
  C210     1.0000 0.80940  0.71205  0.06685  Biso   1.000  C
  H201     1.0000 0.76830  0.87819  0.34650  Biso   1.000  H
  C211     1.0000 0.75441  0.93391  0.38588  Biso   1.000  C
  C212     1.0000 0.78797  0.93315  0.30939  Biso   1.000  C
  C213     1.0000 0.48430  0.97372  0.16146  Biso   1.000  C
  C214     1.0000 0.55119  0.01691  0.16548  Biso   1.000  C
  C215     1.0000 0.48307  0.83452  0.05120  Biso   1.000  C
  C216     1.0000 0.52630  0.83854  0.98432  Biso   1.000  C
  C217     1.0000 0.84134  0.74285  0.09091  Biso   1.000  C
  C218     1.0000 0.83007  0.66549  0.06220  Biso   1.000  C
  H202     1.0000 0.80319  0.72421  0.03658  Biso   1.000  H
  H203     1.0000 0.74109  0.96362  0.38109  Biso   1.000  H
  H204     1.0000 0.73501  0.91730  0.40661  Biso   1.000  H
  C219     1.0000 0.80020  0.93899  0.40621  Biso   1.000  C
  N29      1.0000 0.79159  0.90872  0.26772  Biso   1.000  N
  C220     1.0000 0.83449  0.93780  0.33005  Biso   1.000  C
  H205     1.0000 0.77581  0.96342  0.30321  Biso   1.000  H
  H206     1.0000 0.46639  0.94969  0.17149  Biso   1.000  H
  C221     1.0000 0.46858  0.00166  0.12786  Biso   1.000  C
  C222     1.0000 0.53640  0.04473  0.13192  Biso   1.000  C
  H207     1.0000 0.57920  0.02250  0.17880  Biso   1.000  H
  C223     1.0000 0.45529  0.86808  0.03638  Biso   1.000  C
  H208     1.0000 0.47749  0.82120  0.07922  Biso   1.000  H
  H209     1.0000 0.55029  0.82851  0.96641  Biso   1.000  H
  C224     1.0000 0.49832  0.87214  0.96857  Biso   1.000  C
  N30      1.0000 0.82120  0.78734  0.09264  Biso   1.000  N
  H210     1.0000 0.84649  0.73172  0.12181  Biso   1.000  H
  C225     1.0000 0.88586  0.74561  0.06609  Biso   1.000  C
  C226     1.0000 0.87450  0.66828  0.03851  Biso   1.000  C
  H211     1.0000 0.83429  0.65230  0.09211  Biso   1.000  H
  H212     1.0000 0.80970  0.64599  0.04519  Biso   1.000  H
  H213     1.0000 0.79801  0.95680  0.43379  Biso   1.000  H
  H214     1.0000 0.81200  0.90939  0.41409  Biso   1.000  H
  C227     1.0000 0.83170  0.96149  0.37451  Biso   1.000  C
  C228     1.0000 0.77867  0.92879  0.23300  Biso   1.000  C
  H215     1.0000 0.84772  0.90789  0.33431  Biso   1.000  H
  H216     1.0000 0.85400  0.95481  0.30969  Biso   1.000  H
  C229     1.0000 0.42439  0.99482  0.10776  Biso   1.000  C
  C230     1.0000 0.49563  0.03609  0.11244  Biso   1.000  C
  C231     1.0000 0.56441  0.08287  0.11912  Biso   1.000  C
  C232     1.0000 0.41715  0.88088  0.06440  Biso   1.000  C
  C233     1.0000 0.46393  0.88756  0.99561  Biso   1.000  C
  C234     1.0000 0.50520  0.89224  0.92441  Biso   1.000  C
  C235     1.0000 0.81784  0.80595  0.13042  Biso   1.000  C
  H217     1.0000 0.88111  0.75890  0.03638  Biso   1.000  H
  H218     1.0000 0.90660  0.76501  0.08270  Biso   1.000  H
  C236     1.0000 0.90620  0.69978  0.06101  Biso   1.000  C
  H219     1.0000 0.88799  0.63831  0.03741  Biso   1.000  H
  H220     1.0000 0.86951  0.67819  0.00761  Biso   1.000  H
  H221     1.0000 0.86170  0.96259  0.38800  Biso   1.000  H
  H222     1.0000 0.82180  0.99239  0.36950  Biso   1.000  H
  C237     1.0000 0.78003  0.90905  0.18834  Biso   1.000  C
  H223     1.0000 0.76750  0.95820  0.23599  Biso   1.000  H
  N31      1.0000 0.39658  0.96877  0.12417  Biso   1.000  N
  H224     1.0000 0.41691  0.01070  0.08151  Biso   1.000  H
  H225     1.0000 0.48589  0.05380  0.08819  Biso   1.000  H
  H226     1.0000 0.59329  0.08480  0.13172  Biso   1.000  H
  N32      1.0000 0.55258  0.11301  0.09261  Biso   1.000  N
  H227     1.0000 0.41519  0.86828  0.09330  Biso   1.000  H
  N33      1.0000 0.38701  0.90739  0.05260  Biso   1.000  N
  H228     1.0000 0.44619  0.91181  0.98591  Biso   1.000  H
  N34      1.0000 0.53122  0.87583  0.89656  Biso   1.000  N
  H229     1.0000 0.48928  0.91849  0.91690  Biso   1.000  H
  C238     1.0000 0.79831  0.84984  0.13717  Biso   1.000  C
  H230     1.0000 0.82871  0.79040  0.15571  Biso   1.000  H
  H231     1.0000 0.93381  0.70201  0.04320  Biso   1.000  H
  H232     1.0000 0.91411  0.68799  0.09061  Biso   1.000  H
  C239     1.0000 0.79927  0.86779  0.17990  Biso   1.000  C
  C240     1.0000 0.75966  0.93211  0.15408  Biso   1.000  C
  C241     1.0000 0.35411  0.96371  0.10042  Biso   1.000  C
  C242     1.0000 0.58368  0.14906  0.08410  Biso   1.000  C
  C243     1.0000 0.35096  0.91590  0.08370  Biso   1.000  C
  C244     1.0000 0.53630  0.89958  0.85410  Biso   1.000  C
  C245     1.0000 0.77694  0.87320  0.10347  Biso   1.000  C
  H233     1.0000 0.81309  0.85180  0.20339  Biso   1.000  H
  C246     1.0000 0.75797  0.91427  0.11118  Biso   1.000  C
  H234     1.0000 0.74670  0.96029  0.15979  Biso   1.000  H
  H235     1.0000 0.35282  0.98481  0.07480  Biso   1.000  H
  C247     1.0000 0.31560  0.97289  0.13231  Biso   1.000  C
  C248     1.0000 0.60040  0.14590  0.03629  Biso   1.000  C
  C249     1.0000 0.56099  0.19395  0.09221  Biso   1.000  C
  H236     1.0000 0.60960  0.14610  0.10480  Biso   1.000  H
  C250     1.0000 0.30603  0.90779  0.06101  Biso   1.000  C
  H237     1.0000 0.35391  0.89520  0.10959  Biso   1.000  H
  H238     1.0000 0.51520  0.92520  0.85280  Biso   1.000  H
  C251     1.0000 0.52710  0.86769  0.81558  Biso   1.000  C
  C252     1.0000 0.58408  0.91630  0.85094  Biso   1.000  C
  H239     1.0000 0.77541  0.86061  0.07450  Biso   1.000  H
  C253     1.0000 0.73411  0.93760  0.07726  Biso   1.000  C
  H240     1.0000 0.31809  0.95312  0.15840  Biso   1.000  H
  C254     1.0000 0.27091  0.96541  0.10949  Biso   1.000  C
  H241     1.0000 0.31739  0.00399  0.14291  Biso   1.000  H
  N35      1.0000 0.62416  0.10344  0.03123  Biso   1.000  N
  H242     1.0000 0.57481  0.14720  0.01519  Biso   1.000  H
  C255     1.0000 0.63230  0.18442  0.02711  Biso   1.000  C
  C256     1.0000 0.59179  0.23290  0.08131  Biso   1.000  C
  H243     1.0000 0.53401  0.19601  0.07350  Biso   1.000  H
  H244     1.0000 0.55169  0.19591  0.12361  Biso   1.000  H
  C257     1.0000 0.26709  0.91869  0.09181  Biso   1.000  C
  H245     1.0000 0.30400  0.92650  0.03399  Biso   1.000  H
  H246     1.0000 0.30410  0.87639  0.05170  Biso   1.000  H
  H247     1.0000 0.54690  0.84160  0.81811  Biso   1.000  H
  H248     1.0000 0.49600  0.85709  0.81741  Biso   1.000  H
  C258     1.0000 0.53461  0.89051  0.77089  Biso   1.000  C
  N36      1.0000 0.59262  0.94740  0.88699  Biso   1.000  N
  C259     1.0000 0.59219  0.93899  0.80605  Biso   1.000  C
  H249     1.0000 0.60478  0.89041  0.85390  Biso   1.000  H
  C260     1.0000 0.71141  0.95637  0.04958  Biso   1.000  C
  H250     1.0000 0.24659  0.97089  0.13099  Biso   1.000  H
  H251     1.0000 0.26759  0.98671  0.08470  Biso   1.000  H
  C261     1.0000 0.60774  0.07559  0.00518  Biso   1.000  C
  H252     1.0000 0.64290  0.18259  0.99601  Biso   1.000  H
  H253     1.0000 0.65842  0.18189  0.04688  Biso   1.000  H
  C262     1.0000 0.60950  0.22911  0.03459  Biso   1.000  C
  H254     1.0000 0.57531  0.26121  0.08460  Biso   1.000  H
  H255     1.0000 0.61691  0.23329  0.10261  Biso   1.000  H
  H256     1.0000 0.23881  0.91540  0.07529  Biso   1.000  H
  H257     1.0000 0.26669  0.89739  0.11690  Biso   1.000  H
  H258     1.0000 0.52909  0.86901  0.74660  Biso   1.000  H
  H259     1.0000 0.51331  0.91530  0.76760  Biso   1.000  H
  C263     1.0000 0.58129  0.90819  0.76710  Biso   1.000  C
  C264     1.0000 0.61911  0.93560  0.91713  Biso   1.000  C
  H260     1.0000 0.57348  0.96601  0.80399  Biso   1.000  H
  H261     1.0000 0.62359  0.94830  0.80409  Biso   1.000  H
  C265     1.0000 0.68025  0.97431  0.01934  Biso   1.000  C
  C266     1.0000 0.62785  0.03143  0.99834  Biso   1.000  C
  H262     1.0000 0.58149  0.08310  0.98930  Biso   1.000  H
  H263     1.0000 0.63100  0.25340  0.02911  Biso   1.000  H
  H264     1.0000 0.58472  0.23240  0.01329  Biso   1.000  H
  H265     1.0000 0.58462  0.92471  0.73879  Biso   1.000  H
  H266     1.0000 0.60259  0.88310  0.76671  Biso   1.000  H
  H267     1.0000 0.63170  0.90670  0.91520  Biso   1.000  H
  C267     1.0000 0.63193  0.96362  0.95527  Biso   1.000  C
  C268     1.0000 0.66546  0.94880  0.98309  Biso   1.000  C
  C269     1.0000 0.66144  0.01568  0.02628  Biso   1.000  C
  C270     1.0000 0.61243  0.00439  0.96391  Biso   1.000  C
  H268     1.0000 0.67878  0.92078  0.97750  Biso   1.000  H
  H269     1.0000 0.67151  0.03359  0.05031  Biso   1.000  H
  H270     1.0000 0.58820  0.01409  0.94620  Biso   1.000  H
  C271     1.0000 0.33172  0.53849  0.62549  Biso   1.000  C
  C272     1.0000 0.30022  0.56099  0.59379  Biso   1.000  C
  H271     1.0000 0.36169  0.53740  0.61200  Biso   1.000  H
  H272     1.0000 0.32181  0.50759  0.63050  Biso   1.000  H
  C273     1.0000 0.33451  0.56219  0.66995  Biso   1.000  C
  C274     1.0000 0.25439  0.56611  0.61412  Biso   1.000  C
  H273     1.0000 0.29799  0.54321  0.56621  Biso   1.000  H
  H274     1.0000 0.31201  0.59060  0.58591  Biso   1.000  H
  C275     1.0000 0.28795  0.56687  0.69061  Biso   1.000  C
  H275     1.0000 0.34770  0.59209  0.66569  Biso   1.000  H
  H276     1.0000 0.35401  0.54521  0.69031  Biso   1.000  H
  C276     1.0000 0.25715  0.59093  0.65865  Biso   1.000  C
  H277     1.0000 0.24110  0.53640  0.61891  Biso   1.000  H
  H278     1.0000 0.23499  0.58269  0.59339  Biso   1.000  H
  N37      1.0000 0.29158  0.59129  0.73228  Biso   1.000  N
  H279     1.0000 0.27579  0.53660  0.69679  Biso   1.000  H
  N38      1.0000 0.21266  0.59262  0.67882  Biso   1.000  N
  H280     1.0000 0.26828  0.62180  0.65350  Biso   1.000  H
  C277     1.0000 0.27865  0.57122  0.76700  Biso   1.000  C
  C278     1.0000 0.19405  0.63040  0.68214  Biso   1.000  C
  C279     1.0000 0.28001  0.59093  0.81166  Biso   1.000  C
  H281     1.0000 0.26749  0.54178  0.76401  Biso   1.000  H
  C280     1.0000 0.15016  0.63715  0.70171  Biso   1.000  C
  H282     1.0000 0.20960  0.65569  0.67131  Biso   1.000  H
  C281     1.0000 0.29925  0.63220  0.82010  Biso   1.000  C
  C282     1.0000 0.25964  0.56790  0.84592  Biso   1.000  C
  C283     1.0000 0.12680  0.60346  0.72308  Biso   1.000  C
  C284     1.0000 0.13221  0.67991  0.70075  Biso   1.000  C
  C285     1.0000 0.29829  0.65017  0.86283  Biso   1.000  C
  H283     1.0000 0.31311  0.64821  0.79661  Biso   1.000  H
  C286     1.0000 0.25798  0.58575  0.88882  Biso   1.000  C
  H284     1.0000 0.24669  0.53969  0.84021  Biso   1.000  H
  C287     1.0000 0.08573  0.61116  0.74202  Biso   1.000  C
  H285     1.0000 0.13939  0.57451  0.72461  Biso   1.000  H
  H286     1.0000 0.14820  0.70341  0.68689  Biso   1.000  H
  C288     1.0000 0.09095  0.68832  0.71999  Biso   1.000  C
  C289     1.0000 0.27692  0.62682  0.89653  Biso   1.000  C
  C290     1.0000 0.31786  0.69407  0.86958  Biso   1.000  C
  C291     1.0000 0.23409  0.56239  0.92274  Biso   1.000  C
  C292     1.0000 0.06240  0.57724  0.76591  Biso   1.000  C
  C293     1.0000 0.06789  0.65406  0.74036  Biso   1.000  C
  C294     1.0000 0.07121  0.73301  0.72135  Biso   1.000  C
  H287     1.0000 0.27539  0.63941  0.92550  Biso   1.000  H
  N39      1.0000 0.32118  0.71268  0.90736  Biso   1.000  N
  H288     1.0000 0.32869  0.70959  0.84429  Biso   1.000  H
  C295     1.0000 0.21140  0.54365  0.95042  Biso   1.000  C
  C296     1.0000 0.04363  0.54956  0.78860  Biso   1.000  C
  H289     1.0000 0.03971  0.65981  0.75331  Biso   1.000  H
  N40      1.0000 0.09128  0.76774  0.70842  Biso   1.000  N
  H290     1.0000 0.04180  0.73600  0.73251  Biso   1.000  H
  C297     1.0000 0.34135  0.75714  0.90909  Biso   1.000  C
  C298     1.0000 0.18023  0.52570  0.98066  Biso   1.000  C
  C299     1.0000 0.02569  0.51936  0.81977  Biso   1.000  C
  C300     1.0000 0.06685  0.80940  0.71205  Biso   1.000  C
  H291     1.0000 0.34650  0.76830  0.87819  Biso   1.000  H
  C301     1.0000 0.38588  0.75441  0.93391  Biso   1.000  C
  C302     1.0000 0.30939  0.78797  0.93315  Biso   1.000  C
  C303     1.0000 0.16146  0.48430  0.97372  Biso   1.000  C
  C304     1.0000 0.16548  0.55119  0.01691  Biso   1.000  C
  C305     1.0000 0.05120  0.48307  0.83452  Biso   1.000  C
  C306     1.0000 0.98432  0.52630  0.83854  Biso   1.000  C
  C307     1.0000 0.09091  0.84134  0.74285  Biso   1.000  C
  C308     1.0000 0.06220  0.83007  0.66549  Biso   1.000  C
  H292     1.0000 0.03658  0.80319  0.72421  Biso   1.000  H
  H293     1.0000 0.38109  0.74109  0.96362  Biso   1.000  H
  H294     1.0000 0.40661  0.73501  0.91730  Biso   1.000  H
  C309     1.0000 0.40621  0.80020  0.93899  Biso   1.000  C
  N41      1.0000 0.26772  0.79159  0.90872  Biso   1.000  N
  C310     1.0000 0.33005  0.83449  0.93780  Biso   1.000  C
  H295     1.0000 0.30321  0.77581  0.96342  Biso   1.000  H
  H296     1.0000 0.17149  0.46639  0.94969  Biso   1.000  H
  C311     1.0000 0.12786  0.46858  0.00166  Biso   1.000  C
  C312     1.0000 0.13192  0.53640  0.04473  Biso   1.000  C
  H297     1.0000 0.17880  0.57920  0.02250  Biso   1.000  H
  C313     1.0000 0.03638  0.45529  0.86808  Biso   1.000  C
  H298     1.0000 0.07922  0.47749  0.82120  Biso   1.000  H
  H299     1.0000 0.96641  0.55029  0.82851  Biso   1.000  H
  C314     1.0000 0.96857  0.49832  0.87214  Biso   1.000  C
  N42      1.0000 0.09264  0.82120  0.78734  Biso   1.000  N
  H300     1.0000 0.12181  0.84649  0.73172  Biso   1.000  H
  C315     1.0000 0.06609  0.88586  0.74561  Biso   1.000  C
  C316     1.0000 0.03851  0.87450  0.66828  Biso   1.000  C
  H301     1.0000 0.09211  0.83429  0.65230  Biso   1.000  H
  H302     1.0000 0.04519  0.80970  0.64599  Biso   1.000  H
  H303     1.0000 0.43379  0.79801  0.95680  Biso   1.000  H
  H304     1.0000 0.41409  0.81200  0.90939  Biso   1.000  H
  C317     1.0000 0.37451  0.83170  0.96149  Biso   1.000  C
  C318     1.0000 0.23300  0.77867  0.92879  Biso   1.000  C
  H305     1.0000 0.33431  0.84772  0.90789  Biso   1.000  H
  H306     1.0000 0.30969  0.85400  0.95481  Biso   1.000  H
  C319     1.0000 0.10776  0.42439  0.99482  Biso   1.000  C
  C320     1.0000 0.11244  0.49563  0.03609  Biso   1.000  C
  C321     1.0000 0.11912  0.56441  0.08287  Biso   1.000  C
  C322     1.0000 0.06440  0.41715  0.88088  Biso   1.000  C
  C323     1.0000 0.99561  0.46393  0.88756  Biso   1.000  C
  C324     1.0000 0.92441  0.50520  0.89224  Biso   1.000  C
  C325     1.0000 0.13042  0.81784  0.80595  Biso   1.000  C
  H307     1.0000 0.03638  0.88111  0.75890  Biso   1.000  H
  H308     1.0000 0.08270  0.90660  0.76501  Biso   1.000  H
  C326     1.0000 0.06101  0.90620  0.69978  Biso   1.000  C
  H309     1.0000 0.03741  0.88799  0.63831  Biso   1.000  H
  H310     1.0000 0.00761  0.86951  0.67819  Biso   1.000  H
  H311     1.0000 0.38800  0.86170  0.96259  Biso   1.000  H
  H312     1.0000 0.36950  0.82180  0.99239  Biso   1.000  H
  C327     1.0000 0.18834  0.78003  0.90905  Biso   1.000  C
  H313     1.0000 0.23599  0.76750  0.95820  Biso   1.000  H
  N43      1.0000 0.12417  0.39658  0.96877  Biso   1.000  N
  H314     1.0000 0.08151  0.41691  0.01070  Biso   1.000  H
  H315     1.0000 0.08819  0.48589  0.05380  Biso   1.000  H
  N44      1.0000 0.09261  0.55258  0.11301  Biso   1.000  N
  H316     1.0000 0.13172  0.59329  0.08480  Biso   1.000  H
  H317     1.0000 0.09330  0.41519  0.86828  Biso   1.000  H
  N45      1.0000 0.05260  0.38701  0.90739  Biso   1.000  N
  H318     1.0000 0.98591  0.44619  0.91181  Biso   1.000  H
  N46      1.0000 0.89656  0.53122  0.87583  Biso   1.000  N
  H319     1.0000 0.91690  0.48928  0.91849  Biso   1.000  H
  C328     1.0000 0.13717  0.79831  0.84984  Biso   1.000  C
  H320     1.0000 0.15571  0.82871  0.79040  Biso   1.000  H
  H321     1.0000 0.04320  0.93381  0.70201  Biso   1.000  H
  H322     1.0000 0.09061  0.91411  0.68799  Biso   1.000  H
  C329     1.0000 0.17990  0.79927  0.86779  Biso   1.000  C
  C330     1.0000 0.15408  0.75966  0.93211  Biso   1.000  C
  C331     1.0000 0.10042  0.35411  0.96371  Biso   1.000  C
  C332     1.0000 0.08410  0.58368  0.14906  Biso   1.000  C
  C333     1.0000 0.08370  0.35096  0.91590  Biso   1.000  C
  C334     1.0000 0.85410  0.53630  0.89958  Biso   1.000  C
  C335     1.0000 0.10347  0.77694  0.87320  Biso   1.000  C
  H323     1.0000 0.20339  0.81309  0.85180  Biso   1.000  H
  C336     1.0000 0.11118  0.75797  0.91427  Biso   1.000  C
  H324     1.0000 0.15979  0.74670  0.96029  Biso   1.000  H
  H325     1.0000 0.07480  0.35282  0.98481  Biso   1.000  H
  C337     1.0000 0.13231  0.31560  0.97289  Biso   1.000  C
  C338     1.0000 0.03629  0.60040  0.14590  Biso   1.000  C
  C339     1.0000 0.09221  0.56099  0.19395  Biso   1.000  C
  H326     1.0000 0.10480  0.60960  0.14610  Biso   1.000  H
  C340     1.0000 0.06101  0.30603  0.90779  Biso   1.000  C
  H327     1.0000 0.10959  0.35391  0.89520  Biso   1.000  H
  H328     1.0000 0.85280  0.51520  0.92520  Biso   1.000  H
  C341     1.0000 0.81558  0.52710  0.86769  Biso   1.000  C
  C342     1.0000 0.85094  0.58408  0.91630  Biso   1.000  C
  H329     1.0000 0.07450  0.77541  0.86061  Biso   1.000  H
  C343     1.0000 0.07726  0.73411  0.93760  Biso   1.000  C
  H330     1.0000 0.15840  0.31809  0.95312  Biso   1.000  H
  C344     1.0000 0.10949  0.27091  0.96541  Biso   1.000  C
  H331     1.0000 0.14291  0.31739  0.00399  Biso   1.000  H
  N47      1.0000 0.03123  0.62416  0.10344  Biso   1.000  N
  H332     1.0000 0.01519  0.57481  0.14720  Biso   1.000  H
  C345     1.0000 0.02711  0.63230  0.18442  Biso   1.000  C
  C346     1.0000 0.08131  0.59179  0.23290  Biso   1.000  C
  H333     1.0000 0.07350  0.53401  0.19601  Biso   1.000  H
  H334     1.0000 0.12361  0.55169  0.19591  Biso   1.000  H
  C347     1.0000 0.09181  0.26709  0.91869  Biso   1.000  C
  H335     1.0000 0.03399  0.30400  0.92650  Biso   1.000  H
  H336     1.0000 0.05170  0.30410  0.87639  Biso   1.000  H
  H337     1.0000 0.81811  0.54690  0.84160  Biso   1.000  H
  H338     1.0000 0.81741  0.49600  0.85709  Biso   1.000  H
  C348     1.0000 0.77089  0.53461  0.89051  Biso   1.000  C
  N48      1.0000 0.88699  0.59262  0.94740  Biso   1.000  N
  C349     1.0000 0.80605  0.59219  0.93899  Biso   1.000  C
  H339     1.0000 0.85390  0.60478  0.89041  Biso   1.000  H
  C350     1.0000 0.04958  0.71141  0.95637  Biso   1.000  C
  H340     1.0000 0.13099  0.24659  0.97089  Biso   1.000  H
  H341     1.0000 0.08470  0.26759  0.98671  Biso   1.000  H
  C351     1.0000 0.00518  0.60774  0.07559  Biso   1.000  C
  H342     1.0000 0.99601  0.64290  0.18259  Biso   1.000  H
  H343     1.0000 0.04688  0.65842  0.18189  Biso   1.000  H
  C352     1.0000 0.03459  0.60950  0.22911  Biso   1.000  C
  H344     1.0000 0.08460  0.57531  0.26121  Biso   1.000  H
  H345     1.0000 0.10261  0.61691  0.23329  Biso   1.000  H
  H346     1.0000 0.07529  0.23881  0.91540  Biso   1.000  H
  H347     1.0000 0.11690  0.26669  0.89739  Biso   1.000  H
  H348     1.0000 0.74660  0.52909  0.86901  Biso   1.000  H
  H349     1.0000 0.76760  0.51331  0.91530  Biso   1.000  H
  C353     1.0000 0.76710  0.58129  0.90819  Biso   1.000  C
  C354     1.0000 0.91713  0.61911  0.93560  Biso   1.000  C
  H350     1.0000 0.80399  0.57348  0.96601  Biso   1.000  H
  H351     1.0000 0.80409  0.62359  0.94830  Biso   1.000  H
  C355     1.0000 0.01934  0.68025  0.97431  Biso   1.000  C
  C356     1.0000 0.99834  0.62785  0.03143  Biso   1.000  C
  H352     1.0000 0.98930  0.58149  0.08310  Biso   1.000  H
  H353     1.0000 0.02911  0.63100  0.25340  Biso   1.000  H
  H354     1.0000 0.01329  0.58472  0.23240  Biso   1.000  H
  H355     1.0000 0.73879  0.58462  0.92471  Biso   1.000  H
  H356     1.0000 0.76671  0.60259  0.88310  Biso   1.000  H
  H357     1.0000 0.91520  0.63170  0.90670  Biso   1.000  H
  C357     1.0000 0.95527  0.63193  0.96362  Biso   1.000  C
  C358     1.0000 0.98309  0.66546  0.94880  Biso   1.000  C
  C359     1.0000 0.02628  0.66144  0.01568  Biso   1.000  C
  C360     1.0000 0.96391  0.61243  0.00439  Biso   1.000  C
  H358     1.0000 0.97750  0.67878  0.92078  Biso   1.000  H
  H359     1.0000 0.05031  0.67151  0.03359  Biso   1.000  H
  H360     1.0000 0.94620  0.58820  0.01409  Biso   1.000  H
  C361     1.0000 0.60346  0.27692  0.37318  Biso   1.000  C
  C362     1.0000 0.61116  0.25798  0.41425  Biso   1.000  C
  H361     1.0000 0.57451  0.27539  0.36059  Biso   1.000  H
  C363     1.0000 0.63715  0.29829  0.34983  Biso   1.000  C
  C364     1.0000 0.57724  0.23409  0.43761  Biso   1.000  C
  C365     1.0000 0.65406  0.25964  0.43210  Biso   1.000  C
  C366     1.0000 0.67991  0.29925  0.36780  Biso   1.000  C
  C367     1.0000 0.63040  0.31786  0.30593  Biso   1.000  C
  C368     1.0000 0.54956  0.21140  0.45635  Biso   1.000  C
  C369     1.0000 0.68832  0.28001  0.40907  Biso   1.000  C
  H362     1.0000 0.65981  0.24669  0.46031  Biso   1.000  H
  H363     1.0000 0.70341  0.31311  0.35179  Biso   1.000  H
  N49      1.0000 0.59262  0.32118  0.28732  Biso   1.000  N
  H364     1.0000 0.65569  0.32869  0.29041  Biso   1.000  H
  C370     1.0000 0.51936  0.18023  0.47430  Biso   1.000  C
  C371     1.0000 0.73301  0.27865  0.42878  Biso   1.000  C
  C372     1.0000 0.59093  0.34135  0.24286  Biso   1.000  C
  C373     1.0000 0.48307  0.16548  0.44881  Biso   1.000  C
  C374     1.0000 0.52630  0.16146  0.51570  Biso   1.000  C
  H365     1.0000 0.73600  0.26749  0.45822  Biso   1.000  H
  N50      1.0000 0.76774  0.29158  0.40871  Biso   1.000  N
  C375     1.0000 0.56687  0.30939  0.21203  Biso   1.000  C
  H366     1.0000 0.62180  0.34650  0.23170  Biso   1.000  H
  C376     1.0000 0.56611  0.38588  0.24559  Biso   1.000  C
  C377     1.0000 0.45529  0.13192  0.46360  Biso   1.000  C
  H367     1.0000 0.47749  0.17880  0.42080  Biso   1.000  H
  C378     1.0000 0.49832  0.12786  0.53142  Biso   1.000  C
  H368     1.0000 0.55029  0.17149  0.53361  Biso   1.000  H
  C379     1.0000 0.80940  0.28795  0.43313  Biso   1.000  C
  N51      1.0000 0.59129  0.26772  0.20841  Biso   1.000  N
  C380     1.0000 0.56219  0.33005  0.16551  Biso   1.000  C
  H369     1.0000 0.53660  0.30321  0.22419  Biso   1.000  H
  H370     1.0000 0.53640  0.38109  0.25891  Biso   1.000  H
  H371     1.0000 0.58269  0.40661  0.26499  Biso   1.000  H
  C381     1.0000 0.56099  0.40621  0.19980  Biso   1.000  C
  C382     1.0000 0.41715  0.11912  0.43559  Biso   1.000  C
  C383     1.0000 0.46393  0.11244  0.50437  Biso   1.000  C
  C384     1.0000 0.50520  0.10776  0.57561  Biso   1.000  C
  C385     1.0000 0.84134  0.25715  0.40907  Biso   1.000  C
  C386     1.0000 0.83007  0.33451  0.43781  Biso   1.000  C
  H372     1.0000 0.80319  0.27579  0.46340  Biso   1.000  H
  C387     1.0000 0.57122  0.23300  0.22133  Biso   1.000  C
  C388     1.0000 0.53849  0.37451  0.16830  Biso   1.000  C
  H373     1.0000 0.59209  0.33431  0.15228  Biso   1.000  H
  H374     1.0000 0.54521  0.30969  0.14600  Biso   1.000  H
  H375     1.0000 0.54321  0.43379  0.20199  Biso   1.000  H
  H376     1.0000 0.59060  0.41409  0.18800  Biso   1.000  H
  N52      1.0000 0.38701  0.09261  0.44742  Biso   1.000  N
  H377     1.0000 0.41519  0.13172  0.40671  Biso   1.000  H
  H378     1.0000 0.44619  0.08819  0.51411  Biso   1.000  H
  N53      1.0000 0.53122  0.12417  0.60342  Biso   1.000  N
  H379     1.0000 0.48928  0.08151  0.58309  Biso   1.000  H
  N54      1.0000 0.82120  0.21266  0.40738  Biso   1.000  N
  H380     1.0000 0.84649  0.26828  0.37820  Biso   1.000  H
  C389     1.0000 0.88586  0.25439  0.43389  Biso   1.000  C
  C390     1.0000 0.87450  0.33172  0.46151  Biso   1.000  C
  H381     1.0000 0.83429  0.34770  0.40791  Biso   1.000  H
  H382     1.0000 0.80970  0.35401  0.45479  Biso   1.000  H
  C391     1.0000 0.59093  0.18834  0.21997  Biso   1.000  C
  H383     1.0000 0.54178  0.23599  0.23250  Biso   1.000  H
  H384     1.0000 0.53740  0.38800  0.13830  Biso   1.000  H
  H385     1.0000 0.50759  0.36950  0.17820  Biso   1.000  H
  C392     1.0000 0.35096  0.08410  0.41632  Biso   1.000  C
  C393     1.0000 0.53630  0.10042  0.64589  Biso   1.000  C
  C394     1.0000 0.81784  0.19405  0.36960  Biso   1.000  C
  H386     1.0000 0.88111  0.24110  0.46360  Biso   1.000  H
  H387     1.0000 0.90660  0.23499  0.41731  Biso   1.000  H
  C395     1.0000 0.90620  0.30022  0.43901  Biso   1.000  C
  H388     1.0000 0.88799  0.36169  0.46260  Biso   1.000  H
  H389     1.0000 0.86951  0.32181  0.49241  Biso   1.000  H
  C396     1.0000 0.56790  0.15408  0.24034  Biso   1.000  C
  C397     1.0000 0.63220  0.17990  0.20073  Biso   1.000  C
  C398     1.0000 0.30603  0.09221  0.43901  Biso   1.000  C
  C399     1.0000 0.35411  0.03629  0.39960  Biso   1.000  C
  H390     1.0000 0.35391  0.10480  0.39040  Biso   1.000  H
  H391     1.0000 0.51520  0.07480  0.64718  Biso   1.000  H
  C400     1.0000 0.52710  0.13231  0.68440  Biso   1.000  C
  C401     1.0000 0.58408  0.08370  0.64904  Biso   1.000  C
  C402     1.0000 0.79831  0.15016  0.36285  Biso   1.000  C
  H392     1.0000 0.82871  0.20960  0.34431  Biso   1.000  H
  H393     1.0000 0.93381  0.29799  0.45679  Biso   1.000  H
  H394     1.0000 0.91411  0.31201  0.40940  Biso   1.000  H
  C403     1.0000 0.58575  0.11118  0.24203  Biso   1.000  C
  H395     1.0000 0.53969  0.15979  0.25330  Biso   1.000  H
  C404     1.0000 0.65017  0.13717  0.20169  Biso   1.000  C
  H396     1.0000 0.64821  0.20339  0.18691  Biso   1.000  H
  C405     1.0000 0.26709  0.08131  0.40821  Biso   1.000  C
  H397     1.0000 0.30400  0.07350  0.46599  Biso   1.000  H
  H398     1.0000 0.30410  0.12361  0.44831  Biso   1.000  H
  C406     1.0000 0.31560  0.02711  0.36770  Biso   1.000  C
  N55      1.0000 0.39658  0.03123  0.37584  Biso   1.000  N
  H399     1.0000 0.35282  0.01519  0.42519  Biso   1.000  H
  H400     1.0000 0.54690  0.15840  0.68191  Biso   1.000  H
  H401     1.0000 0.49600  0.14291  0.68261  Biso   1.000  H
  C407     1.0000 0.53461  0.10949  0.72909  Biso   1.000  C
  N56      1.0000 0.59262  0.05260  0.61299  Biso   1.000  N
  C408     1.0000 0.59219  0.06101  0.69397  Biso   1.000  C
  H402     1.0000 0.60478  0.10959  0.64609  Biso   1.000  H
  C409     1.0000 0.77694  0.12680  0.39654  Biso   1.000  C
  C410     1.0000 0.79927  0.13221  0.32009  Biso   1.000  C
  C411     1.0000 0.56239  0.07726  0.26589  Biso   1.000  C
  C412     1.0000 0.62682  0.10347  0.22306  Biso   1.000  C
  C413     1.0000 0.69407  0.13042  0.18216  Biso   1.000  C
  C414     1.0000 0.27091  0.03459  0.39050  Biso   1.000  C
  H403     1.0000 0.23881  0.08460  0.42469  Biso   1.000  H
  H404     1.0000 0.26669  0.10261  0.38309  Biso   1.000  H
  H405     1.0000 0.31809  0.04688  0.34158  Biso   1.000  H
  H406     1.0000 0.31739  0.99601  0.35710  Biso   1.000  H
  C415     1.0000 0.42439  0.00518  0.39226  Biso   1.000  C
  H407     1.0000 0.52909  0.13099  0.75341  Biso   1.000  H
  H408     1.0000 0.51331  0.08470  0.73241  Biso   1.000  H
  C416     1.0000 0.58129  0.09181  0.73291  Biso   1.000  C
  C417     1.0000 0.61911  0.06440  0.58285  Biso   1.000  C
  H409     1.0000 0.57348  0.03399  0.69600  Biso   1.000  H
  H410     1.0000 0.62359  0.05170  0.69590  Biso   1.000  H
  C418     1.0000 0.75797  0.08573  0.38884  Biso   1.000  C
  H411     1.0000 0.77541  0.13939  0.42549  Biso   1.000  H
  C419     1.0000 0.78003  0.09095  0.31168  Biso   1.000  C
  H412     1.0000 0.81309  0.14820  0.29659  Biso   1.000  H
  C420     1.0000 0.54365  0.04958  0.28859  Biso   1.000  C
  H413     1.0000 0.63941  0.07450  0.22459  Biso   1.000  H
  N57      1.0000 0.71268  0.09264  0.17880  Biso   1.000  N
  H414     1.0000 0.70959  0.15571  0.17129  Biso   1.000  H
  H415     1.0000 0.24659  0.02911  0.36900  Biso   1.000  H
  H416     1.0000 0.26759  0.01329  0.41528  Biso   1.000  H
  C421     1.0000 0.46858  0.99834  0.37215  Biso   1.000  C
  H417     1.0000 0.41691  0.98930  0.41851  Biso   1.000  H
  H418     1.0000 0.58462  0.07529  0.76119  Biso   1.000  H
  H419     1.0000 0.60259  0.11690  0.73331  Biso   1.000  H
  H420     1.0000 0.63170  0.09330  0.58481  Biso   1.000  H
  C422     1.0000 0.63193  0.03638  0.54471  Biso   1.000  C
  C423     1.0000 0.73411  0.06240  0.42276  Biso   1.000  C
  C424     1.0000 0.75966  0.06789  0.34594  Biso   1.000  C
  C425     1.0000 0.77867  0.07121  0.26699  Biso   1.000  C
  C426     1.0000 0.52570  0.01934  0.31975  Biso   1.000  C
  C427     1.0000 0.75714  0.09091  0.15866  Biso   1.000  C
  C428     1.0000 0.48430  0.02628  0.33856  Biso   1.000  C
  C429     1.0000 0.49563  0.96391  0.38757  Biso   1.000  C
  C430     1.0000 0.66546  0.05120  0.51693  Biso   1.000  C
  C431     1.0000 0.61243  0.99561  0.53607  Biso   1.000  C
  C432     1.0000 0.71141  0.04363  0.45044  Biso   1.000  C
  H421     1.0000 0.74670  0.03971  0.34019  Biso   1.000  H
  N58      1.0000 0.79159  0.09128  0.23226  Biso   1.000  N
  H422     1.0000 0.76750  0.04180  0.26400  Biso   1.000  H
  C433     1.0000 0.55119  0.98309  0.33454  Biso   1.000  C
  H423     1.0000 0.76830  0.12181  0.15351  Biso   1.000  H
  C434     1.0000 0.75441  0.06609  0.11414  Biso   1.000  C
  C435     1.0000 0.78797  0.06685  0.19060  Biso   1.000  C
  H424     1.0000 0.46639  0.05031  0.32849  Biso   1.000  H
  C436     1.0000 0.53640  0.95527  0.36807  Biso   1.000  C
  H425     1.0000 0.48589  0.94620  0.41180  Biso   1.000  H
  H426     1.0000 0.67878  0.07922  0.52251  Biso   1.000  H
  C437     1.0000 0.68025  0.02569  0.48064  Biso   1.000  C
  C438     1.0000 0.62785  0.96857  0.50168  Biso   1.000  C
  H427     1.0000 0.58820  0.98591  0.55381  Biso   1.000  H
  H428     1.0000 0.57920  0.97750  0.32122  Biso   1.000  H
  H429     1.0000 0.74109  0.03638  0.11889  Biso   1.000  H
  H430     1.0000 0.73501  0.08270  0.09340  Biso   1.000  H
  C439     1.0000 0.80020  0.06101  0.09380  Biso   1.000  C
  C440     1.0000 0.83449  0.06220  0.16993  Biso   1.000  C
  H431     1.0000 0.77581  0.03658  0.19681  Biso   1.000  H
  C441     1.0000 0.56441  0.91713  0.38089  Biso   1.000  C
  C442     1.0000 0.66144  0.98432  0.47370  Biso   1.000  C
  C443     1.0000 0.60774  0.92441  0.49480  Biso   1.000  C
  H432     1.0000 0.79801  0.04320  0.06619  Biso   1.000  H
  H433     1.0000 0.81200  0.09061  0.08589  Biso   1.000  H
  C444     1.0000 0.83170  0.03851  0.12550  Biso   1.000  C
  H434     1.0000 0.84772  0.09211  0.16571  Biso   1.000  H
  H435     1.0000 0.85400  0.04519  0.19030  Biso   1.000  H
  H436     1.0000 0.59329  0.91520  0.36830  Biso   1.000  H
  N59      1.0000 0.55258  0.88699  0.40738  Biso   1.000  N
  H437     1.0000 0.67151  0.96641  0.44971  Biso   1.000  H
  N60      1.0000 0.62416  0.89656  0.46878  Biso   1.000  N
  H438     1.0000 0.58149  0.91690  0.51072  Biso   1.000  H
  H439     1.0000 0.86170  0.03741  0.11201  Biso   1.000  H
  H440     1.0000 0.82180  0.00761  0.13049  Biso   1.000  H
  C445     1.0000 0.58368  0.85094  0.41592  Biso   1.000  C
  C446     1.0000 0.60040  0.85410  0.46370  Biso   1.000  C
  C447     1.0000 0.56099  0.80605  0.40781  Biso   1.000  C
  H441     1.0000 0.60960  0.85390  0.39522  Biso   1.000  H
  H442     1.0000 0.57481  0.85280  0.48480  Biso   1.000  H
  C448     1.0000 0.63230  0.81558  0.47290  Biso   1.000  C
  C449     1.0000 0.59179  0.76710  0.41871  Biso   1.000  C
  H443     1.0000 0.53401  0.80399  0.42652  Biso   1.000  H
  H444     1.0000 0.55169  0.80409  0.37641  Biso   1.000  H
  H445     1.0000 0.65842  0.81811  0.45310  Biso   1.000  H
  H446     1.0000 0.64290  0.81741  0.50400  Biso   1.000  H
  C450     1.0000 0.60950  0.77089  0.46539  Biso   1.000  C
  H447     1.0000 0.57531  0.73879  0.41538  Biso   1.000  H
  H448     1.0000 0.61691  0.76671  0.39741  Biso   1.000  H
  H449     1.0000 0.63100  0.74660  0.47091  Biso   1.000  H
  H450     1.0000 0.58472  0.76760  0.48669  Biso   1.000  H
  C451     1.0000 0.37318  0.60346  0.27692  Biso   1.000  C
  C452     1.0000 0.41425  0.61116  0.25798  Biso   1.000  C
  H451     1.0000 0.36059  0.57451  0.27539  Biso   1.000  H
  C453     1.0000 0.34983  0.63715  0.29829  Biso   1.000  C
  C454     1.0000 0.43761  0.57724  0.23409  Biso   1.000  C
  C455     1.0000 0.43210  0.65406  0.25964  Biso   1.000  C
  C456     1.0000 0.36780  0.67991  0.29925  Biso   1.000  C
  C457     1.0000 0.30593  0.63040  0.31786  Biso   1.000  C
  C458     1.0000 0.45635  0.54956  0.21140  Biso   1.000  C
  C459     1.0000 0.40907  0.68832  0.28001  Biso   1.000  C
  H452     1.0000 0.46031  0.65981  0.24669  Biso   1.000  H
  H453     1.0000 0.35179  0.70341  0.31311  Biso   1.000  H
  N61      1.0000 0.28732  0.59262  0.32118  Biso   1.000  N
  H454     1.0000 0.29041  0.65569  0.32869  Biso   1.000  H
  C460     1.0000 0.47430  0.51936  0.18023  Biso   1.000  C
  C461     1.0000 0.42878  0.73301  0.27865  Biso   1.000  C
  C462     1.0000 0.24286  0.59093  0.34135  Biso   1.000  C
  C463     1.0000 0.44881  0.48307  0.16548  Biso   1.000  C
  C464     1.0000 0.51570  0.52630  0.16146  Biso   1.000  C
  N62      1.0000 0.40871  0.76774  0.29158  Biso   1.000  N
  H455     1.0000 0.45822  0.73600  0.26749  Biso   1.000  H
  C465     1.0000 0.21203  0.56687  0.30939  Biso   1.000  C
  H456     1.0000 0.23170  0.62180  0.34650  Biso   1.000  H
  C466     1.0000 0.24559  0.56611  0.38588  Biso   1.000  C
  C467     1.0000 0.46360  0.45529  0.13192  Biso   1.000  C
  H457     1.0000 0.42080  0.47749  0.17880  Biso   1.000  H
  C468     1.0000 0.53142  0.49832  0.12786  Biso   1.000  C
  H458     1.0000 0.53361  0.55029  0.17149  Biso   1.000  H
  C469     1.0000 0.43313  0.80940  0.28795  Biso   1.000  C
  N63      1.0000 0.20841  0.59129  0.26772  Biso   1.000  N
  C470     1.0000 0.16551  0.56219  0.33005  Biso   1.000  C
  H459     1.0000 0.22419  0.53660  0.30321  Biso   1.000  H
  H460     1.0000 0.25891  0.53640  0.38109  Biso   1.000  H
  H461     1.0000 0.26499  0.58269  0.40661  Biso   1.000  H
  C471     1.0000 0.19980  0.56099  0.40621  Biso   1.000  C
  C472     1.0000 0.43559  0.41715  0.11912  Biso   1.000  C
  C473     1.0000 0.50437  0.46393  0.11244  Biso   1.000  C
  C474     1.0000 0.57561  0.50520  0.10776  Biso   1.000  C
  C475     1.0000 0.40907  0.84134  0.25715  Biso   1.000  C
  C476     1.0000 0.43781  0.83007  0.33451  Biso   1.000  C
  H462     1.0000 0.46340  0.80319  0.27579  Biso   1.000  H
  C477     1.0000 0.22133  0.57122  0.23300  Biso   1.000  C
  C478     1.0000 0.16830  0.53849  0.37451  Biso   1.000  C
  H463     1.0000 0.15228  0.59209  0.33431  Biso   1.000  H
  H464     1.0000 0.14600  0.54521  0.30969  Biso   1.000  H
  H465     1.0000 0.20199  0.54321  0.43379  Biso   1.000  H
  H466     1.0000 0.18800  0.59060  0.41409  Biso   1.000  H
  N64      1.0000 0.44742  0.38701  0.09261  Biso   1.000  N
  H467     1.0000 0.40671  0.41519  0.13172  Biso   1.000  H
  H468     1.0000 0.51411  0.44619  0.08819  Biso   1.000  H
  N65      1.0000 0.60342  0.53122  0.12417  Biso   1.000  N
  H469     1.0000 0.58309  0.48928  0.08151  Biso   1.000  H
  N66      1.0000 0.40738  0.82120  0.21266  Biso   1.000  N
  H470     1.0000 0.37820  0.84649  0.26828  Biso   1.000  H
  C479     1.0000 0.43389  0.88586  0.25439  Biso   1.000  C
  C480     1.0000 0.46151  0.87450  0.33172  Biso   1.000  C
  H471     1.0000 0.40791  0.83429  0.34770  Biso   1.000  H
  H472     1.0000 0.45479  0.80970  0.35401  Biso   1.000  H
  C481     1.0000 0.21997  0.59093  0.18834  Biso   1.000  C
  H473     1.0000 0.23250  0.54178  0.23599  Biso   1.000  H
  H474     1.0000 0.13830  0.53740  0.38800  Biso   1.000  H
  H475     1.0000 0.17820  0.50759  0.36950  Biso   1.000  H
  C482     1.0000 0.41632  0.35096  0.08410  Biso   1.000  C
  C483     1.0000 0.64589  0.53630  0.10042  Biso   1.000  C
  C484     1.0000 0.36960  0.81784  0.19405  Biso   1.000  C
  H476     1.0000 0.46360  0.88111  0.24110  Biso   1.000  H
  H477     1.0000 0.41731  0.90660  0.23499  Biso   1.000  H
  C485     1.0000 0.43901  0.90620  0.30022  Biso   1.000  C
  H478     1.0000 0.46260  0.88799  0.36169  Biso   1.000  H
  H479     1.0000 0.49241  0.86951  0.32181  Biso   1.000  H
  C486     1.0000 0.24034  0.56790  0.15408  Biso   1.000  C
  C487     1.0000 0.20073  0.63220  0.17990  Biso   1.000  C
  C488     1.0000 0.43901  0.30603  0.09221  Biso   1.000  C
  C489     1.0000 0.39960  0.35411  0.03629  Biso   1.000  C
  H480     1.0000 0.39040  0.35391  0.10480  Biso   1.000  H
  H481     1.0000 0.64718  0.51520  0.07480  Biso   1.000  H
  C490     1.0000 0.68440  0.52710  0.13231  Biso   1.000  C
  C491     1.0000 0.64904  0.58408  0.08370  Biso   1.000  C
  C492     1.0000 0.36285  0.79831  0.15016  Biso   1.000  C
  H482     1.0000 0.34431  0.82871  0.20960  Biso   1.000  H
  H483     1.0000 0.45679  0.93381  0.29799  Biso   1.000  H
  H484     1.0000 0.40940  0.91411  0.31201  Biso   1.000  H
  C493     1.0000 0.24203  0.58575  0.11118  Biso   1.000  C
  H485     1.0000 0.25330  0.53969  0.15979  Biso   1.000  H
  C494     1.0000 0.20169  0.65017  0.13717  Biso   1.000  C
  H486     1.0000 0.18691  0.64821  0.20339  Biso   1.000  H
  C495     1.0000 0.40821  0.26709  0.08131  Biso   1.000  C
  H487     1.0000 0.46599  0.30400  0.07350  Biso   1.000  H
  H488     1.0000 0.44831  0.30410  0.12361  Biso   1.000  H
  C496     1.0000 0.36770  0.31560  0.02711  Biso   1.000  C
  N67      1.0000 0.37584  0.39658  0.03123  Biso   1.000  N
  H489     1.0000 0.42519  0.35282  0.01519  Biso   1.000  H
  H490     1.0000 0.68191  0.54690  0.15840  Biso   1.000  H
  H491     1.0000 0.68261  0.49600  0.14291  Biso   1.000  H
  C497     1.0000 0.72909  0.53461  0.10949  Biso   1.000  C
  N68      1.0000 0.61299  0.59262  0.05260  Biso   1.000  N
  C498     1.0000 0.69397  0.59219  0.06101  Biso   1.000  C
  H492     1.0000 0.64609  0.60478  0.10959  Biso   1.000  H
  C499     1.0000 0.39654  0.77694  0.12680  Biso   1.000  C
  C500     1.0000 0.32009  0.79927  0.13221  Biso   1.000  C
  C501     1.0000 0.26589  0.56239  0.07726  Biso   1.000  C
  C502     1.0000 0.22306  0.62682  0.10347  Biso   1.000  C
  C503     1.0000 0.18216  0.69407  0.13042  Biso   1.000  C
  C504     1.0000 0.39050  0.27091  0.03459  Biso   1.000  C
  H493     1.0000 0.42469  0.23881  0.08460  Biso   1.000  H
  H494     1.0000 0.38309  0.26669  0.10261  Biso   1.000  H
  H495     1.0000 0.34158  0.31809  0.04688  Biso   1.000  H
  H496     1.0000 0.35710  0.31739  0.99601  Biso   1.000  H
  C505     1.0000 0.39226  0.42439  0.00518  Biso   1.000  C
  H497     1.0000 0.75341  0.52909  0.13099  Biso   1.000  H
  H498     1.0000 0.73241  0.51331  0.08470  Biso   1.000  H
  C506     1.0000 0.73291  0.58129  0.09181  Biso   1.000  C
  C507     1.0000 0.58285  0.61911  0.06440  Biso   1.000  C
  H499     1.0000 0.69600  0.57348  0.03399  Biso   1.000  H
  H500     1.0000 0.69590  0.62359  0.05170  Biso   1.000  H
  C508     1.0000 0.38884  0.75797  0.08573  Biso   1.000  C
  H501     1.0000 0.42549  0.77541  0.13939  Biso   1.000  H
  C509     1.0000 0.31168  0.78003  0.09095  Biso   1.000  C
  H502     1.0000 0.29659  0.81309  0.14820  Biso   1.000  H
  C510     1.0000 0.28859  0.54365  0.04958  Biso   1.000  C
  H503     1.0000 0.22459  0.63941  0.07450  Biso   1.000  H
  N69      1.0000 0.17880  0.71268  0.09264  Biso   1.000  N
  H504     1.0000 0.17129  0.70959  0.15571  Biso   1.000  H
  H505     1.0000 0.36900  0.24659  0.02911  Biso   1.000  H
  H506     1.0000 0.41528  0.26759  0.01329  Biso   1.000  H
  C511     1.0000 0.37215  0.46858  0.99834  Biso   1.000  C
  H507     1.0000 0.41851  0.41691  0.98930  Biso   1.000  H
  H508     1.0000 0.76119  0.58462  0.07529  Biso   1.000  H
  H509     1.0000 0.73331  0.60259  0.11690  Biso   1.000  H
  H510     1.0000 0.58481  0.63170  0.09330  Biso   1.000  H
  C512     1.0000 0.54471  0.63193  0.03638  Biso   1.000  C
  C513     1.0000 0.42276  0.73411  0.06240  Biso   1.000  C
  C514     1.0000 0.34594  0.75966  0.06789  Biso   1.000  C
  C515     1.0000 0.26699  0.77867  0.07121  Biso   1.000  C
  C516     1.0000 0.31975  0.52570  0.01934  Biso   1.000  C
  C517     1.0000 0.15866  0.75714  0.09091  Biso   1.000  C
  C518     1.0000 0.33856  0.48430  0.02628  Biso   1.000  C
  C519     1.0000 0.38757  0.49563  0.96391  Biso   1.000  C
  C520     1.0000 0.51693  0.66546  0.05120  Biso   1.000  C
  C521     1.0000 0.53607  0.61243  0.99561  Biso   1.000  C
  C522     1.0000 0.45044  0.71141  0.04363  Biso   1.000  C
  H511     1.0000 0.34019  0.74670  0.03971  Biso   1.000  H
  N70      1.0000 0.23226  0.79159  0.09128  Biso   1.000  N
  H512     1.0000 0.26400  0.76750  0.04180  Biso   1.000  H
  C523     1.0000 0.33454  0.55119  0.98309  Biso   1.000  C
  H513     1.0000 0.15351  0.76830  0.12181  Biso   1.000  H
  C524     1.0000 0.11414  0.75441  0.06609  Biso   1.000  C
  C525     1.0000 0.19060  0.78797  0.06685  Biso   1.000  C
  H514     1.0000 0.32849  0.46639  0.05031  Biso   1.000  H
  C526     1.0000 0.36807  0.53640  0.95527  Biso   1.000  C
  H515     1.0000 0.41180  0.48589  0.94620  Biso   1.000  H
  H516     1.0000 0.52251  0.67878  0.07922  Biso   1.000  H
  C527     1.0000 0.48064  0.68025  0.02569  Biso   1.000  C
  C528     1.0000 0.50168  0.62785  0.96857  Biso   1.000  C
  H517     1.0000 0.55381  0.58820  0.98591  Biso   1.000  H
  H518     1.0000 0.32122  0.57920  0.97750  Biso   1.000  H
  H519     1.0000 0.11889  0.74109  0.03638  Biso   1.000  H
  H520     1.0000 0.09340  0.73501  0.08270  Biso   1.000  H
  C529     1.0000 0.09380  0.80020  0.06101  Biso   1.000  C
  C530     1.0000 0.16993  0.83449  0.06220  Biso   1.000  C
  H521     1.0000 0.19681  0.77581  0.03658  Biso   1.000  H
  C531     1.0000 0.38089  0.56441  0.91713  Biso   1.000  C
  C532     1.0000 0.47370  0.66144  0.98432  Biso   1.000  C
  C533     1.0000 0.49480  0.60774  0.92441  Biso   1.000  C
  H522     1.0000 0.06619  0.79801  0.04320  Biso   1.000  H
  H523     1.0000 0.08589  0.81200  0.09061  Biso   1.000  H
  C534     1.0000 0.12550  0.83170  0.03851  Biso   1.000  C
  H524     1.0000 0.16571  0.84772  0.09211  Biso   1.000  H
  H525     1.0000 0.19030  0.85400  0.04519  Biso   1.000  H
  H526     1.0000 0.36830  0.59329  0.91520  Biso   1.000  H
  N71      1.0000 0.40738  0.55258  0.88699  Biso   1.000  N
  H527     1.0000 0.44971  0.67151  0.96641  Biso   1.000  H
  N72      1.0000 0.46878  0.62416  0.89656  Biso   1.000  N
  H528     1.0000 0.51072  0.58149  0.91690  Biso   1.000  H
  H529     1.0000 0.11201  0.86170  0.03741  Biso   1.000  H
  H530     1.0000 0.13049  0.82180  0.00761  Biso   1.000  H
  C535     1.0000 0.41592  0.58368  0.85094  Biso   1.000  C
  C536     1.0000 0.46370  0.60040  0.85410  Biso   1.000  C
  C537     1.0000 0.40781  0.56099  0.80605  Biso   1.000  C
  H531     1.0000 0.39522  0.60960  0.85390  Biso   1.000  H
  H532     1.0000 0.48480  0.57481  0.85280  Biso   1.000  H
  C538     1.0000 0.47290  0.63230  0.81558  Biso   1.000  C
  C539     1.0000 0.41871  0.59179  0.76710  Biso   1.000  C
  H533     1.0000 0.42652  0.53401  0.80399  Biso   1.000  H
  H534     1.0000 0.37641  0.55169  0.80409  Biso   1.000  H
  H535     1.0000 0.45310  0.65842  0.81811  Biso   1.000  H
  H536     1.0000 0.50400  0.64290  0.81741  Biso   1.000  H
  C540     1.0000 0.46539  0.60950  0.77089  Biso   1.000  C
  H537     1.0000 0.41538  0.57531  0.73879  Biso   1.000  H
  H538     1.0000 0.39741  0.61691  0.76671  Biso   1.000  H
  H539     1.0000 0.47091  0.63100  0.74660  Biso   1.000  H
  H540     1.0000 0.48669  0.58472  0.76760  Biso   1.000  H
  C541     1.0000 0.27692  0.37318  0.60346  Biso   1.000  C
  C542     1.0000 0.25798  0.41425  0.61116  Biso   1.000  C
  H541     1.0000 0.27539  0.36059  0.57451  Biso   1.000  H
  C543     1.0000 0.29829  0.34983  0.63715  Biso   1.000  C
  C544     1.0000 0.23409  0.43761  0.57724  Biso   1.000  C
  C545     1.0000 0.25964  0.43210  0.65406  Biso   1.000  C
  C546     1.0000 0.29925  0.36780  0.67991  Biso   1.000  C
  C547     1.0000 0.31786  0.30593  0.63040  Biso   1.000  C
  C548     1.0000 0.21140  0.45635  0.54956  Biso   1.000  C
  C549     1.0000 0.28001  0.40907  0.68832  Biso   1.000  C
  H542     1.0000 0.24669  0.46031  0.65981  Biso   1.000  H
  H543     1.0000 0.31311  0.35179  0.70341  Biso   1.000  H
  N73      1.0000 0.32118  0.28732  0.59262  Biso   1.000  N
  H544     1.0000 0.32869  0.29041  0.65569  Biso   1.000  H
  C550     1.0000 0.18023  0.47430  0.51936  Biso   1.000  C
  C551     1.0000 0.27865  0.42878  0.73301  Biso   1.000  C
  C552     1.0000 0.34135  0.24286  0.59093  Biso   1.000  C
  C553     1.0000 0.16548  0.44881  0.48307  Biso   1.000  C
  C554     1.0000 0.16146  0.51570  0.52630  Biso   1.000  C
  N74      1.0000 0.29158  0.40871  0.76774  Biso   1.000  N
  H545     1.0000 0.26749  0.45822  0.73600  Biso   1.000  H
  C555     1.0000 0.30939  0.21203  0.56687  Biso   1.000  C
  H546     1.0000 0.34650  0.23170  0.62180  Biso   1.000  H
  C556     1.0000 0.38588  0.24559  0.56611  Biso   1.000  C
  C557     1.0000 0.13192  0.46360  0.45529  Biso   1.000  C
  H547     1.0000 0.17880  0.42080  0.47749  Biso   1.000  H
  C558     1.0000 0.12786  0.53142  0.49832  Biso   1.000  C
  H548     1.0000 0.17149  0.53361  0.55029  Biso   1.000  H
  C559     1.0000 0.28795  0.43313  0.80940  Biso   1.000  C
  N75      1.0000 0.26772  0.20841  0.59129  Biso   1.000  N
  C560     1.0000 0.33005  0.16551  0.56219  Biso   1.000  C
  H549     1.0000 0.30321  0.22419  0.53660  Biso   1.000  H
  H550     1.0000 0.38109  0.25891  0.53640  Biso   1.000  H
  H551     1.0000 0.40661  0.26499  0.58269  Biso   1.000  H
  C561     1.0000 0.40621  0.19980  0.56099  Biso   1.000  C
  C562     1.0000 0.11912  0.43559  0.41715  Biso   1.000  C
  C563     1.0000 0.11244  0.50437  0.46393  Biso   1.000  C
  C564     1.0000 0.10776  0.57561  0.50520  Biso   1.000  C
  C565     1.0000 0.25715  0.40907  0.84134  Biso   1.000  C
  C566     1.0000 0.33451  0.43781  0.83007  Biso   1.000  C
  H552     1.0000 0.27579  0.46340  0.80319  Biso   1.000  H
  C567     1.0000 0.23300  0.22133  0.57122  Biso   1.000  C
  C568     1.0000 0.37451  0.16830  0.53849  Biso   1.000  C
  H553     1.0000 0.33431  0.15228  0.59209  Biso   1.000  H
  H554     1.0000 0.30969  0.14600  0.54521  Biso   1.000  H
  H555     1.0000 0.43379  0.20199  0.54321  Biso   1.000  H
  H556     1.0000 0.41409  0.18800  0.59060  Biso   1.000  H
  N76      1.0000 0.09261  0.44742  0.38701  Biso   1.000  N
  H557     1.0000 0.13172  0.40671  0.41519  Biso   1.000  H
  H558     1.0000 0.08819  0.51411  0.44619  Biso   1.000  H
  N77      1.0000 0.12417  0.60342  0.53122  Biso   1.000  N
  H559     1.0000 0.08151  0.58309  0.48928  Biso   1.000  H
  N78      1.0000 0.21266  0.40738  0.82120  Biso   1.000  N
  H560     1.0000 0.26828  0.37820  0.84649  Biso   1.000  H
  C569     1.0000 0.25439  0.43389  0.88586  Biso   1.000  C
  C570     1.0000 0.33172  0.46151  0.87450  Biso   1.000  C
  H561     1.0000 0.34770  0.40791  0.83429  Biso   1.000  H
  H562     1.0000 0.35401  0.45479  0.80970  Biso   1.000  H
  C571     1.0000 0.18834  0.21997  0.59093  Biso   1.000  C
  H563     1.0000 0.23599  0.23250  0.54178  Biso   1.000  H
  H564     1.0000 0.38800  0.13830  0.53740  Biso   1.000  H
  H565     1.0000 0.36950  0.17820  0.50759  Biso   1.000  H
  C572     1.0000 0.08410  0.41632  0.35096  Biso   1.000  C
  C573     1.0000 0.10042  0.64589  0.53630  Biso   1.000  C
  C574     1.0000 0.19405  0.36960  0.81784  Biso   1.000  C
  H566     1.0000 0.24110  0.46360  0.88111  Biso   1.000  H
  H567     1.0000 0.23499  0.41731  0.90660  Biso   1.000  H
  C575     1.0000 0.30022  0.43901  0.90620  Biso   1.000  C
  H568     1.0000 0.36169  0.46260  0.88799  Biso   1.000  H
  H569     1.0000 0.32181  0.49241  0.86951  Biso   1.000  H
  C576     1.0000 0.15408  0.24034  0.56790  Biso   1.000  C
  C577     1.0000 0.17990  0.20073  0.63220  Biso   1.000  C
  C578     1.0000 0.09221  0.43901  0.30603  Biso   1.000  C
  C579     1.0000 0.03629  0.39960  0.35411  Biso   1.000  C
  H570     1.0000 0.10480  0.39040  0.35391  Biso   1.000  H
  H571     1.0000 0.07480  0.64718  0.51520  Biso   1.000  H
  C580     1.0000 0.13231  0.68440  0.52710  Biso   1.000  C
  C581     1.0000 0.08370  0.64904  0.58408  Biso   1.000  C
  C582     1.0000 0.15016  0.36285  0.79831  Biso   1.000  C
  H572     1.0000 0.20960  0.34431  0.82871  Biso   1.000  H
  H573     1.0000 0.29799  0.45679  0.93381  Biso   1.000  H
  H574     1.0000 0.31201  0.40940  0.91411  Biso   1.000  H
  C583     1.0000 0.11118  0.24203  0.58575  Biso   1.000  C
  H575     1.0000 0.15979  0.25330  0.53969  Biso   1.000  H
  C584     1.0000 0.13717  0.20169  0.65017  Biso   1.000  C
  H576     1.0000 0.20339  0.18691  0.64821  Biso   1.000  H
  C585     1.0000 0.08131  0.40821  0.26709  Biso   1.000  C
  H577     1.0000 0.07350  0.46599  0.30400  Biso   1.000  H
  H578     1.0000 0.12361  0.44831  0.30410  Biso   1.000  H
  C586     1.0000 0.02711  0.36770  0.31560  Biso   1.000  C
  N79      1.0000 0.03123  0.37584  0.39658  Biso   1.000  N
  H579     1.0000 0.01519  0.42519  0.35282  Biso   1.000  H
  H580     1.0000 0.15840  0.68191  0.54690  Biso   1.000  H
  H581     1.0000 0.14291  0.68261  0.49600  Biso   1.000  H
  C587     1.0000 0.10949  0.72909  0.53461  Biso   1.000  C
  N80      1.0000 0.05260  0.61299  0.59262  Biso   1.000  N
  C588     1.0000 0.06101  0.69397  0.59219  Biso   1.000  C
  H582     1.0000 0.10959  0.64609  0.60478  Biso   1.000  H
  C589     1.0000 0.12680  0.39654  0.77694  Biso   1.000  C
  C590     1.0000 0.13221  0.32009  0.79927  Biso   1.000  C
  C591     1.0000 0.07726  0.26589  0.56239  Biso   1.000  C
  C592     1.0000 0.10347  0.22306  0.62682  Biso   1.000  C
  C593     1.0000 0.13042  0.18216  0.69407  Biso   1.000  C
  C594     1.0000 0.03459  0.39050  0.27091  Biso   1.000  C
  H583     1.0000 0.08460  0.42469  0.23881  Biso   1.000  H
  H584     1.0000 0.10261  0.38309  0.26669  Biso   1.000  H
  H585     1.0000 0.04688  0.34158  0.31809  Biso   1.000  H
  H586     1.0000 0.99601  0.35710  0.31739  Biso   1.000  H
  C595     1.0000 0.00518  0.39226  0.42439  Biso   1.000  C
  H587     1.0000 0.13099  0.75341  0.52909  Biso   1.000  H
  H588     1.0000 0.08470  0.73241  0.51331  Biso   1.000  H
  C596     1.0000 0.09181  0.73291  0.58129  Biso   1.000  C
  C597     1.0000 0.06440  0.58285  0.61911  Biso   1.000  C
  H589     1.0000 0.03399  0.69600  0.57348  Biso   1.000  H
  H590     1.0000 0.05170  0.69590  0.62359  Biso   1.000  H
  C598     1.0000 0.08573  0.38884  0.75797  Biso   1.000  C
  H591     1.0000 0.13939  0.42549  0.77541  Biso   1.000  H
  C599     1.0000 0.09095  0.31168  0.78003  Biso   1.000  C
  H592     1.0000 0.14820  0.29659  0.81309  Biso   1.000  H
  C600     1.0000 0.04958  0.28859  0.54365  Biso   1.000  C
  H593     1.0000 0.07450  0.22459  0.63941  Biso   1.000  H
  N81      1.0000 0.09264  0.17880  0.71268  Biso   1.000  N
  H594     1.0000 0.15571  0.17129  0.70959  Biso   1.000  H
  H595     1.0000 0.02911  0.36900  0.24659  Biso   1.000  H
  H596     1.0000 0.01329  0.41528  0.26759  Biso   1.000  H
  C601     1.0000 0.99834  0.37215  0.46858  Biso   1.000  C
  H597     1.0000 0.98930  0.41851  0.41691  Biso   1.000  H
  H598     1.0000 0.07529  0.76119  0.58462  Biso   1.000  H
  H599     1.0000 0.11690  0.73331  0.60259  Biso   1.000  H
  H600     1.0000 0.09330  0.58481  0.63170  Biso   1.000  H
  C602     1.0000 0.03638  0.54471  0.63193  Biso   1.000  C
  C603     1.0000 0.06240  0.42276  0.73411  Biso   1.000  C
  C604     1.0000 0.06789  0.34594  0.75966  Biso   1.000  C
  C605     1.0000 0.07121  0.26699  0.77867  Biso   1.000  C
  C606     1.0000 0.01934  0.31975  0.52570  Biso   1.000  C
  C607     1.0000 0.09091  0.15866  0.75714  Biso   1.000  C
  C608     1.0000 0.02628  0.33856  0.48430  Biso   1.000  C
  C609     1.0000 0.96391  0.38757  0.49563  Biso   1.000  C
  C610     1.0000 0.05120  0.51693  0.66546  Biso   1.000  C
  C611     1.0000 0.99561  0.53607  0.61243  Biso   1.000  C
  C612     1.0000 0.04363  0.45044  0.71141  Biso   1.000  C
  H601     1.0000 0.03971  0.34019  0.74670  Biso   1.000  H
  N82      1.0000 0.09128  0.23226  0.79159  Biso   1.000  N
  H602     1.0000 0.04180  0.26400  0.76750  Biso   1.000  H
  C613     1.0000 0.98309  0.33454  0.55119  Biso   1.000  C
  H603     1.0000 0.12181  0.15351  0.76830  Biso   1.000  H
  C614     1.0000 0.06609  0.11414  0.75441  Biso   1.000  C
  C615     1.0000 0.06685  0.19060  0.78797  Biso   1.000  C
  H604     1.0000 0.05031  0.32849  0.46639  Biso   1.000  H
  C616     1.0000 0.95527  0.36807  0.53640  Biso   1.000  C
  H605     1.0000 0.94620  0.41180  0.48589  Biso   1.000  H
  H606     1.0000 0.07922  0.52251  0.67878  Biso   1.000  H
  C617     1.0000 0.02569  0.48064  0.68025  Biso   1.000  C
  C618     1.0000 0.96857  0.50168  0.62785  Biso   1.000  C
  H607     1.0000 0.98591  0.55381  0.58820  Biso   1.000  H
  H608     1.0000 0.97750  0.32122  0.57920  Biso   1.000  H
  H609     1.0000 0.03638  0.11889  0.74109  Biso   1.000  H
  H610     1.0000 0.08270  0.09340  0.73501  Biso   1.000  H
  C619     1.0000 0.06101  0.09380  0.80020  Biso   1.000  C
  C620     1.0000 0.06220  0.16993  0.83449  Biso   1.000  C
  H611     1.0000 0.03658  0.19681  0.77581  Biso   1.000  H
  C621     1.0000 0.91713  0.38089  0.56441  Biso   1.000  C
  C622     1.0000 0.98432  0.47370  0.66144  Biso   1.000  C
  C623     1.0000 0.92441  0.49480  0.60774  Biso   1.000  C
  H612     1.0000 0.04320  0.06619  0.79801  Biso   1.000  H
  H613     1.0000 0.09061  0.08589  0.81200  Biso   1.000  H
  C624     1.0000 0.03851  0.12550  0.83170  Biso   1.000  C
  H614     1.0000 0.09211  0.16571  0.84772  Biso   1.000  H
  H615     1.0000 0.04519  0.19030  0.85400  Biso   1.000  H
  H616     1.0000 0.91520  0.36830  0.59329  Biso   1.000  H
  N83      1.0000 0.88699  0.40738  0.55258  Biso   1.000  N
  H617     1.0000 0.96641  0.44971  0.67151  Biso   1.000  H
  N84      1.0000 0.89656  0.46878  0.62416  Biso   1.000  N
  H618     1.0000 0.91690  0.51072  0.58149  Biso   1.000  H
  H619     1.0000 0.03741  0.11201  0.86170  Biso   1.000  H
  H620     1.0000 0.00761  0.13049  0.82180  Biso   1.000  H
  C625     1.0000 0.85094  0.41592  0.58368  Biso   1.000  C
  C626     1.0000 0.85410  0.46370  0.60040  Biso   1.000  C
  C627     1.0000 0.80605  0.40781  0.56099  Biso   1.000  C
  H621     1.0000 0.85390  0.39522  0.60960  Biso   1.000  H
  H622     1.0000 0.85280  0.48480  0.57481  Biso   1.000  H
  C628     1.0000 0.81558  0.47290  0.63230  Biso   1.000  C
  C629     1.0000 0.76710  0.41871  0.59179  Biso   1.000  C
  H623     1.0000 0.80399  0.42652  0.53401  Biso   1.000  H
  H624     1.0000 0.80409  0.37641  0.55169  Biso   1.000  H
  H625     1.0000 0.81811  0.45310  0.65842  Biso   1.000  H
  H626     1.0000 0.81741  0.50400  0.64290  Biso   1.000  H
  C630     1.0000 0.77089  0.46539  0.60950  Biso   1.000  C
  H627     1.0000 0.73879  0.41538  0.57531  Biso   1.000  H
  H628     1.0000 0.76671  0.39741  0.61691  Biso   1.000  H
  H629     1.0000 0.74660  0.47091  0.63100  Biso   1.000  H
  H630     1.0000 0.76760  0.48669  0.58472  Biso   1.000  H
  C631     1.0000 0.93899  0.59379  0.69978  Biso   1.000  C
  C632     1.0000 0.93391  0.61412  0.74561  Biso   1.000  C
  H631     1.0000 0.95680  0.56621  0.70201  Biso   1.000  H
  H632     1.0000 0.90939  0.58591  0.68799  Biso   1.000  H
  C633     1.0000 0.96149  0.62549  0.66828  Biso   1.000  C
  C634     1.0000 0.90909  0.65865  0.74285  Biso   1.000  C
  H633     1.0000 0.96362  0.61891  0.75890  Biso   1.000  H
  H634     1.0000 0.91730  0.59339  0.76501  Biso   1.000  H
  H635     1.0000 0.96259  0.61200  0.63831  Biso   1.000  H
  H636     1.0000 0.99239  0.63050  0.67819  Biso   1.000  H
  C635     1.0000 0.93780  0.66995  0.66549  Biso   1.000  C
  N85      1.0000 0.90736  0.67882  0.78734  Biso   1.000  N
  H637     1.0000 0.87819  0.65350  0.73172  Biso   1.000  H
  C636     1.0000 0.93315  0.69061  0.71205  Biso   1.000  C
  H638     1.0000 0.90789  0.66569  0.65230  Biso   1.000  H
  H639     1.0000 0.95481  0.69031  0.64599  Biso   1.000  H
  C637     1.0000 0.86958  0.68214  0.80595  Biso   1.000  C
  N86      1.0000 0.90872  0.73228  0.70842  Biso   1.000  N
  H640     1.0000 0.96342  0.69679  0.72421  Biso   1.000  H
  C638     1.0000 0.86283  0.70171  0.84984  Biso   1.000  C
  H641     1.0000 0.84429  0.67131  0.79040  Biso   1.000  H
  C639     1.0000 0.92879  0.76700  0.72135  Biso   1.000  C
  C640     1.0000 0.89653  0.72308  0.87320  Biso   1.000  C
  C641     1.0000 0.82010  0.70075  0.86779  Biso   1.000  C
  C642     1.0000 0.90905  0.81166  0.71999  Biso   1.000  C
  H642     1.0000 0.95820  0.76401  0.73251  Biso   1.000  H
  C643     1.0000 0.88882  0.74202  0.91427  Biso   1.000  C
  H643     1.0000 0.92550  0.72461  0.86061  Biso   1.000  H
  H644     1.0000 0.79661  0.68689  0.85180  Biso   1.000  H
  C644     1.0000 0.81166  0.71999  0.90905  Biso   1.000  C
  C645     1.0000 0.86779  0.82010  0.70075  Biso   1.000  C
  C646     1.0000 0.93211  0.84592  0.74036  Biso   1.000  C
  C647     1.0000 0.92274  0.76591  0.93760  Biso   1.000  C
  C648     1.0000 0.84592  0.74036  0.93211  Biso   1.000  C
  C649     1.0000 0.76700  0.72135  0.92879  Biso   1.000  C
  C650     1.0000 0.84984  0.86283  0.70171  Biso   1.000  C
  H645     1.0000 0.85180  0.79661  0.68689  Biso   1.000  H
  C651     1.0000 0.91427  0.88882  0.74202  Biso   1.000  C
  H646     1.0000 0.96029  0.84021  0.75331  Biso   1.000  H
  C652     1.0000 0.95042  0.78860  0.95637  Biso   1.000  C
  H647     1.0000 0.84021  0.75331  0.96029  Biso   1.000  H
  N87      1.0000 0.73228  0.70842  0.90872  Biso   1.000  N
  H648     1.0000 0.76401  0.73251  0.95820  Biso   1.000  H
  C653     1.0000 0.87320  0.89653  0.72308  Biso   1.000  C
  C654     1.0000 0.80595  0.86958  0.68214  Biso   1.000  C
  C655     1.0000 0.93760  0.92274  0.76591  Biso   1.000  C
  C656     1.0000 0.98066  0.81977  0.97431  Biso   1.000  C
  C657     1.0000 0.69061  0.71205  0.93315  Biso   1.000  C
  H649     1.0000 0.86061  0.92550  0.72461  Biso   1.000  H
  N88      1.0000 0.78734  0.90736  0.67882  Biso   1.000  N
  H650     1.0000 0.79040  0.84429  0.67131  Biso   1.000  H
  C658     1.0000 0.95637  0.95042  0.78860  Biso   1.000  C
  C659     1.0000 0.97372  0.83854  0.01568  Biso   1.000  C
  C660     1.0000 0.01691  0.83452  0.94880  Biso   1.000  C
  C661     1.0000 0.65865  0.74285  0.90909  Biso   1.000  C
  C662     1.0000 0.66995  0.66549  0.93780  Biso   1.000  C
  H651     1.0000 0.69679  0.72421  0.96342  Biso   1.000  H
  C663     1.0000 0.74285  0.90909  0.65865  Biso   1.000  C
  C664     1.0000 0.97431  0.98066  0.81977  Biso   1.000  C
  H652     1.0000 0.94969  0.82851  0.03359  Biso   1.000  H
  C665     1.0000 0.00166  0.87214  0.03143  Biso   1.000  C
  C666     1.0000 0.04473  0.86808  0.96362  Biso   1.000  C
  H653     1.0000 0.02250  0.82120  0.92078  Biso   1.000  H
  N89      1.0000 0.67882  0.78734  0.90736  Biso   1.000  N
  H654     1.0000 0.65350  0.73172  0.87819  Biso   1.000  H
  C667     1.0000 0.61412  0.74561  0.93391  Biso   1.000  C
  C668     1.0000 0.62549  0.66828  0.96149  Biso   1.000  C
  H655     1.0000 0.66569  0.65230  0.90789  Biso   1.000  H
  H656     1.0000 0.69031  0.64599  0.95481  Biso   1.000  H
  H657     1.0000 0.73172  0.87819  0.65350  Biso   1.000  H
  C669     1.0000 0.74561  0.93391  0.61412  Biso   1.000  C
  C670     1.0000 0.71205  0.93315  0.69061  Biso   1.000  C
  C671     1.0000 0.94880  0.01691  0.83452  Biso   1.000  C
  C672     1.0000 0.01568  0.97372  0.83854  Biso   1.000  C
  C673     1.0000 0.99482  0.89224  0.07559  Biso   1.000  C
  C674     1.0000 0.03609  0.88756  0.00439  Biso   1.000  C
  C675     1.0000 0.08287  0.88088  0.93560  Biso   1.000  C
  C676     1.0000 0.68214  0.80595  0.86958  Biso   1.000  C
  H658     1.0000 0.61891  0.75890  0.96362  Biso   1.000  H
  H659     1.0000 0.59339  0.76501  0.91730  Biso   1.000  H
  C677     1.0000 0.59379  0.69978  0.93899  Biso   1.000  C
  H660     1.0000 0.61200  0.63831  0.96259  Biso   1.000  H
  H661     1.0000 0.63050  0.67819  0.99239  Biso   1.000  H
  H662     1.0000 0.75890  0.96362  0.61891  Biso   1.000  H
  H663     1.0000 0.76501  0.91730  0.59339  Biso   1.000  H
  C678     1.0000 0.69978  0.93899  0.59379  Biso   1.000  C
  N90      1.0000 0.70842  0.90872  0.73228  Biso   1.000  N
  C679     1.0000 0.66549  0.93780  0.66995  Biso   1.000  C
  H664     1.0000 0.72421  0.96342  0.69679  Biso   1.000  H
  C680     1.0000 0.96362  0.04473  0.86808  Biso   1.000  C
  H665     1.0000 0.92078  0.02250  0.82120  Biso   1.000  H
  H666     1.0000 0.03359  0.94969  0.82851  Biso   1.000  H
  C681     1.0000 0.03143  0.00166  0.87214  Biso   1.000  C
  N91      1.0000 0.96877  0.87583  0.10344  Biso   1.000  N
  H667     1.0000 0.01070  0.91849  0.08310  Biso   1.000  H
  H668     1.0000 0.05380  0.91181  0.01409  Biso   1.000  H
  N92      1.0000 0.11301  0.90739  0.94740  Biso   1.000  N
  H669     1.0000 0.08480  0.86828  0.90670  Biso   1.000  H
  C682     1.0000 0.70171  0.84984  0.86283  Biso   1.000  C
  H670     1.0000 0.67131  0.79040  0.84429  Biso   1.000  H
  H671     1.0000 0.56621  0.70201  0.95680  Biso   1.000  H
  H672     1.0000 0.58591  0.68799  0.90939  Biso   1.000  H
  H673     1.0000 0.70201  0.95680  0.56621  Biso   1.000  H
  H674     1.0000 0.68799  0.90939  0.58591  Biso   1.000  H
  C683     1.0000 0.66828  0.96149  0.62549  Biso   1.000  C
  C684     1.0000 0.72135  0.92879  0.76700  Biso   1.000  C
  H675     1.0000 0.65230  0.90789  0.66569  Biso   1.000  H
  H676     1.0000 0.64599  0.95481  0.69031  Biso   1.000  H
  C685     1.0000 0.93560  0.08287  0.88088  Biso   1.000  C
  C686     1.0000 0.00439  0.03609  0.88756  Biso   1.000  C
  C687     1.0000 0.07559  0.99482  0.89224  Biso   1.000  C
  C688     1.0000 0.96371  0.89958  0.14590  Biso   1.000  C
  C689     1.0000 0.14906  0.91590  0.91630  Biso   1.000  C
  C690     1.0000 0.72308  0.87320  0.89653  Biso   1.000  C
  C691     1.0000 0.70075  0.86779  0.82010  Biso   1.000  C
  H677     1.0000 0.63831  0.96259  0.61200  Biso   1.000  H
  H678     1.0000 0.67819  0.99239  0.63050  Biso   1.000  H
  C692     1.0000 0.71999  0.90905  0.81166  Biso   1.000  C
  H679     1.0000 0.73251  0.95820  0.76401  Biso   1.000  H
  H680     1.0000 0.90670  0.08480  0.86828  Biso   1.000  H
  N93      1.0000 0.94740  0.11301  0.90739  Biso   1.000  N
  H681     1.0000 0.01409  0.05380  0.91181  Biso   1.000  H
  N94      1.0000 0.10344  0.96877  0.87583  Biso   1.000  N
  H682     1.0000 0.08310  0.01070  0.91849  Biso   1.000  H
  H683     1.0000 0.98481  0.92520  0.14720  Biso   1.000  H
  C693     1.0000 0.97289  0.86769  0.18442  Biso   1.000  C
  C694     1.0000 0.91590  0.91630  0.14906  Biso   1.000  C
  C695     1.0000 0.14590  0.96371  0.89958  Biso   1.000  C
  C696     1.0000 0.19395  0.90779  0.93899  Biso   1.000  C
  H684     1.0000 0.14610  0.89520  0.89041  Biso   1.000  H
  C697     1.0000 0.74202  0.91427  0.88882  Biso   1.000  C
  H685     1.0000 0.72461  0.86061  0.92550  Biso   1.000  H
  H686     1.0000 0.68689  0.85180  0.79661  Biso   1.000  H
  C698     1.0000 0.74036  0.93211  0.84592  Biso   1.000  C
  C699     1.0000 0.91630  0.14906  0.91590  Biso   1.000  C
  H687     1.0000 0.95312  0.84160  0.18189  Biso   1.000  H
  C700     1.0000 0.96541  0.89051  0.22911  Biso   1.000  C
  H688     1.0000 0.00399  0.85709  0.18259  Biso   1.000  H
  N95      1.0000 0.90739  0.94740  0.11301  Biso   1.000  N
  C701     1.0000 0.90779  0.93899  0.19395  Biso   1.000  C
  H689     1.0000 0.89520  0.89041  0.14610  Biso   1.000  H
  H690     1.0000 0.14720  0.98481  0.92520  Biso   1.000  H
  C702     1.0000 0.18442  0.97289  0.86769  Biso   1.000  C
  C703     1.0000 0.23290  0.91869  0.90819  Biso   1.000  C
  H691     1.0000 0.19601  0.92650  0.96601  Biso   1.000  H
  H692     1.0000 0.19591  0.87639  0.94830  Biso   1.000  H
  C704     1.0000 0.76591  0.93760  0.92274  Biso   1.000  C
  H693     1.0000 0.75331  0.96029  0.84021  Biso   1.000  H
  C705     1.0000 0.89958  0.14590  0.96371  Biso   1.000  C
  C706     1.0000 0.93899  0.19395  0.90779  Biso   1.000  C
  H694     1.0000 0.89041  0.14610  0.89520  Biso   1.000  H
  H695     1.0000 0.97089  0.86901  0.25340  Biso   1.000  H
  H696     1.0000 0.98671  0.91530  0.23240  Biso   1.000  H
  C707     1.0000 0.91869  0.90819  0.23290  Biso   1.000  C
  C708     1.0000 0.88088  0.93560  0.08287  Biso   1.000  C
  H697     1.0000 0.92650  0.96601  0.19601  Biso   1.000  H
  H698     1.0000 0.87639  0.94830  0.19591  Biso   1.000  H
  H699     1.0000 0.18189  0.95312  0.84160  Biso   1.000  H
  C709     1.0000 0.22911  0.96541  0.89051  Biso   1.000  C
  H700     1.0000 0.18259  0.00399  0.85709  Biso   1.000  H
  H701     1.0000 0.26121  0.91540  0.92471  Biso   1.000  H
  H702     1.0000 0.23329  0.89739  0.88310  Biso   1.000  H
  C710     1.0000 0.78860  0.95637  0.95042  Biso   1.000  C
  N96      1.0000 0.87583  0.10344  0.96877  Biso   1.000  N
  H703     1.0000 0.92520  0.14720  0.98481  Biso   1.000  H
  C711     1.0000 0.86769  0.18442  0.97289  Biso   1.000  C
  C712     1.0000 0.90819  0.23290  0.91869  Biso   1.000  C
  H704     1.0000 0.96601  0.19601  0.92650  Biso   1.000  H
  H705     1.0000 0.94830  0.19591  0.87639  Biso   1.000  H
  H706     1.0000 0.91540  0.92471  0.26121  Biso   1.000  H
  H707     1.0000 0.89739  0.88310  0.23329  Biso   1.000  H
  H708     1.0000 0.86828  0.90670  0.08480  Biso   1.000  H
  C713     1.0000 0.86808  0.96362  0.04473  Biso   1.000  C
  H709     1.0000 0.25340  0.97089  0.86901  Biso   1.000  H
  H710     1.0000 0.23240  0.98671  0.91530  Biso   1.000  H
  C714     1.0000 0.81977  0.97431  0.98066  Biso   1.000  C
  C715     1.0000 0.89224  0.07559  0.99482  Biso   1.000  C
  H711     1.0000 0.84160  0.18189  0.95312  Biso   1.000  H
  C716     1.0000 0.89051  0.22911  0.96541  Biso   1.000  C
  H712     1.0000 0.85709  0.18259  0.00399  Biso   1.000  H
  H713     1.0000 0.92471  0.26121  0.91540  Biso   1.000  H
  H714     1.0000 0.88310  0.23329  0.89739  Biso   1.000  H
  C717     1.0000 0.83452  0.94880  0.01691  Biso   1.000  C
  C718     1.0000 0.88756  0.00439  0.03609  Biso   1.000  C
  C719     1.0000 0.83854  0.01568  0.97372  Biso   1.000  C
  C720     1.0000 0.87214  0.03143  0.00166  Biso   1.000  C
  H715     1.0000 0.91849  0.08310  0.01070  Biso   1.000  H
  H716     1.0000 0.86901  0.25340  0.97089  Biso   1.000  H
  H717     1.0000 0.91530  0.23240  0.98671  Biso   1.000  H
  H718     1.0000 0.82120  0.92078  0.02250  Biso   1.000  H
  H719     1.0000 0.91181  0.01409  0.05380  Biso   1.000  H
  H720     1.0000 0.82851  0.03359  0.94969  Biso   1.000  H
