data_image0
_cell_length_a       24.469
_cell_length_b       24.469
_cell_length_c       28.928
_cell_angle_alpha    90
_cell_angle_beta     90
_cell_angle_gamma    120

_symmetry_space_group_name_H-M    "P 1"
_symmetry_int_tables_number       1

loop_
  _symmetry_equiv_pos_as_xyz
  'x, y, z'

loop_
  _atom_site_label
  _atom_site_occupancy
  _atom_site_fract_x
  _atom_site_fract_y
  _atom_site_fract_z
  _atom_site_thermal_displace_type
  _atom_site_B_iso_or_equiv
  _atom_site_type_symbol
  N1       1.0000 0.46671  0.57280  0.59074  Biso   1.000  N
  C1       1.0000 0.40940  0.55439  0.59911  Biso   1.000  C
  C2       1.0000 0.51109  0.60059  0.62908  Biso   1.000  C
  C3       1.0000 0.35801  0.52622  0.56485  Biso   1.000  C
  H1       1.0000 0.39860  0.55911  0.62981  Biso   1.000  H
  H2       1.0000 0.48859  0.60692  0.65559  Biso   1.000  H
  C4       1.0000 0.53611  0.55770  0.64491  Biso   1.000  C
  C5       1.0000 0.56519  0.66449  0.61466  Biso   1.000  C
  C6       1.0000 0.36962  0.52141  0.51791  Biso   1.000  C
  C7       1.0000 0.29728  0.50579  0.57889  Biso   1.000  C
  H3       1.0000 0.50037  0.51678  0.65532  Biso   1.000  H
  H4       1.0000 0.55681  0.54939  0.61860  Biso   1.000  H
  C8       1.0000 0.58291  0.58771  0.68408  Biso   1.000  C
  N2       1.0000 0.54080  0.70701  0.60405  Biso   1.000  N
  C9       1.0000 0.61520  0.69389  0.65158  Biso   1.000  C
  H5       1.0000 0.58489  0.65901  0.58611  Biso   1.000  H
  C10      1.0000 0.32029  0.49739  0.48635  Biso   1.000  C
  H6       1.0000 0.41129  0.53471  0.50771  Biso   1.000  H
  C11      1.0000 0.24678  0.48040  0.54826  Biso   1.000  C
  H7       1.0000 0.28950  0.50928  0.61058  Biso   1.000  H
  H8       1.0000 0.56157  0.59398  0.71090  Biso   1.000  H
  H9       1.0000 0.59849  0.55911  0.69358  Biso   1.000  H
  C12      1.0000 0.63811  0.65061  0.66939  Biso   1.000  C
  C13      1.0000 0.54331  0.72470  0.56271  Biso   1.000  C
  H10      1.0000 0.59801  0.70658  0.67789  Biso   1.000  H
  H11      1.0000 0.65159  0.73258  0.63900  Biso   1.000  H
  C14      1.0000 0.33088  0.49649  0.43736  Biso   1.000  C
  C15      1.0000 0.25908  0.47639  0.50142  Biso   1.000  C
  C16      1.0000 0.18140  0.45671  0.56271  Biso   1.000  C
  H12      1.0000 0.66221  0.64372  0.64481  Biso   1.000  H
  H13      1.0000 0.66671  0.67062  0.69600  Biso   1.000  H
  H14      1.0000 0.56129  0.71031  0.54000  Biso   1.000  H
  C17      1.0000 0.51963  0.76642  0.54826  Biso   1.000  C
  C18      1.0000 0.33579  0.49894  0.39598  Biso   1.000  C
  H15      1.0000 0.22531  0.45921  0.47981  Biso   1.000  H
  N3       1.0000 0.16622  0.45921  0.60405  Biso   1.000  N
  H16      1.0000 0.14901  0.43868  0.54000  Biso   1.000  H
  C19      1.0000 0.49419  0.79148  0.57889  Biso   1.000  C
  C20      1.0000 0.52360  0.78270  0.50142  Biso   1.000  C
  C21      1.0000 0.34634  0.51041  0.34700  Biso   1.000  C
  C22      1.0000 0.09930  0.43481  0.61466  Biso   1.000  C
  C23      1.0000 0.47380  0.83178  0.56485  Biso   1.000  C
  H17      1.0000 0.49072  0.78020  0.61058  Biso   1.000  H
  C24      1.0000 0.50259  0.82291  0.48635  Biso   1.000  C
  H18      1.0000 0.54079  0.76609  0.47981  Biso   1.000  H
  C25      1.0000 0.29708  0.48512  0.31544  Biso   1.000  C
  C26      1.0000 0.40756  0.55062  0.33193  Biso   1.000  C
  C27      1.0000 0.08952  0.48889  0.62908  Biso   1.000  C
  C28      1.0000 0.07870  0.38479  0.65158  Biso   1.000  C
  H19      1.0000 0.07411  0.41509  0.58611  Biso   1.000  H
  C29      1.0000 0.44560  0.85499  0.59911  Biso   1.000  C
  C30      1.0000 0.47862  0.84820  0.51791  Biso   1.000  C
  C31      1.0000 0.50352  0.83442  0.43736  Biso   1.000  C
  C32      1.0000 0.30868  0.50154  0.26849  Biso   1.000  C
  H20      1.0000 0.25539  0.45676  0.32564  Biso   1.000  H
  C33      1.0000 0.41989  0.56694  0.28509  Biso   1.000  C
  H21      1.0000 0.44136  0.56723  0.35353  Biso   1.000  H
  N4       1.0000 0.10608  0.53330  0.59074  Biso   1.000  N
  H22      1.0000 0.11830  0.51140  0.65559  Biso   1.000  H
  C34      1.0000 0.02159  0.46388  0.64491  Biso   1.000  C
  C35      1.0000 0.01249  0.36190  0.66939  Biso   1.000  C
  H23      1.0000 0.10860  0.40201  0.67789  Biso   1.000  H
  H24      1.0000 0.08098  0.34841  0.63900  Biso   1.000  H
  N5       1.0000 0.42722  0.89393  0.59074  Biso   1.000  N
  H25      1.0000 0.44093  0.83952  0.62981  Biso   1.000  H
  H26      1.0000 0.46532  0.87661  0.50771  Biso   1.000  H
  C36      1.0000 0.50105  0.83683  0.39598  Biso   1.000  C
  C37      1.0000 0.25727  0.47832  0.23424  Biso   1.000  C
  C38      1.0000 0.36937  0.54184  0.25446  Biso   1.000  C
  C39      1.0000 0.48527  0.60861  0.27064  Biso   1.000  C
  C40      1.0000 0.14498  0.59059  0.59911  Biso   1.000  C
  H27      1.0000 0.01640  0.49960  0.65532  Biso   1.000  H
  C41      1.0000 0.00479  0.41712  0.68408  Biso   1.000  C
  H28      1.0000 0.99262  0.44321  0.61860  Biso   1.000  H
  H29      1.0000 0.00392  0.33331  0.69600  Biso   1.000  H
  H30      1.0000 0.98151  0.33779  0.64481  Biso   1.000  H
  C42      1.0000 0.39938  0.91049  0.62908  Biso   1.000  C
  C43      1.0000 0.48957  0.83593  0.34700  Biso   1.000  C
  N6       1.0000 0.19998  0.43944  0.24257  Biso   1.000  N
  H31      1.0000 0.26809  0.49385  0.20354  Biso   1.000  H
  H32      1.0000 0.37718  0.55312  0.22273  Biso   1.000  H
  N7       1.0000 0.50045  0.62631  0.22926  Biso   1.000  N
  H33      1.0000 0.51767  0.62305  0.29335  Biso   1.000  H
  C44      1.0000 0.16818  0.64198  0.56485  Biso   1.000  C
  H34      1.0000 0.16048  0.60139  0.62981  Biso   1.000  H
  H35      1.0000 0.03239  0.43840  0.71090  Biso   1.000  H
  H36      1.0000 0.96061  0.40150  0.69358  Biso   1.000  H
  C45      1.0000 0.33552  0.90072  0.61466  Biso   1.000  C
  H37      1.0000 0.39312  0.88170  0.65559  Biso   1.000  H
  C46      1.0000 0.44228  0.97840  0.64491  Biso   1.000  C
  C47      1.0000 0.51487  0.81191  0.31544  Biso   1.000  C
  C48      1.0000 0.44935  0.85693  0.33193  Biso   1.000  C
  C49      1.0000 0.15555  0.42283  0.20427  Biso   1.000  C
  C50      1.0000 0.56736  0.66883  0.21868  Biso   1.000  C
  C51      1.0000 0.15182  0.63042  0.51791  Biso   1.000  C
  C52      1.0000 0.20852  0.70271  0.57889  Biso   1.000  C
  N8       1.0000 0.29299  0.83381  0.60405  Biso   1.000  N
  C53      1.0000 0.30609  0.92130  0.65158  Biso   1.000  C
  H38      1.0000 0.34101  0.92592  0.58611  Biso   1.000  H
  H39      1.0000 0.48321  0.98359  0.65532  Biso   1.000  H
  C54      1.0000 0.41231  0.99520  0.68408  Biso   1.000  C
  H40      1.0000 0.45058  0.00742  0.61860  Biso   1.000  H
  C55      1.0000 0.49847  0.80714  0.26849  Biso   1.000  C
  H41      1.0000 0.54326  0.79865  0.32564  Biso   1.000  H
  C56      1.0000 0.43304  0.85292  0.28509  Biso   1.000  C
  H42      1.0000 0.43279  0.87415  0.35353  Biso   1.000  H
  C57      1.0000 0.13054  0.35492  0.18843  Biso   1.000  C
  H43      1.0000 0.17807  0.45161  0.17772  Biso   1.000  H
  C58      1.0000 0.10148  0.43264  0.21868  Biso   1.000  C
  C59      1.0000 0.57716  0.73272  0.20427  Biso   1.000  C
  C60      1.0000 0.58797  0.63943  0.18173  Biso   1.000  C
  H44      1.0000 0.59256  0.67435  0.24723  Biso   1.000  H
  C61      1.0000 0.17710  0.67968  0.48635  Biso   1.000  C
  H45      1.0000 0.12340  0.58870  0.50771  Biso   1.000  H
  C62      1.0000 0.23361  0.75321  0.54826  Biso   1.000  C
  H46      1.0000 0.21981  0.71050  0.61058  Biso   1.000  H
  C63      1.0000 0.27530  0.81861  0.56271  Biso   1.000  C
  C64      1.0000 0.34941  0.98751  0.66939  Biso   1.000  C
  H47      1.0000 0.29337  0.89138  0.67789  Biso   1.000  H
  H48      1.0000 0.26741  0.91898  0.63900  Biso   1.000  H
  H49      1.0000 0.40598  0.96759  0.71090  Biso   1.000  H
  H50      1.0000 0.44087  0.03941  0.69358  Biso   1.000  H
  C65      1.0000 0.52167  0.77892  0.23424  Biso   1.000  C
  C66      1.0000 0.45815  0.82753  0.25446  Biso   1.000  C
  C67      1.0000 0.39137  0.87666  0.27064  Biso   1.000  C
  H51      1.0000 0.16628  0.34973  0.17803  Biso   1.000  H
  H52      1.0000 0.10988  0.32594  0.21474  Biso   1.000  H
  C68      1.0000 0.08377  0.33812  0.14927  Biso   1.000  C
  N9       1.0000 0.12584  0.49951  0.22926  Biso   1.000  N
  C69      1.0000 0.05145  0.41202  0.18173  Biso   1.000  C
  H53      1.0000 0.08177  0.40744  0.24723  Biso   1.000  H
  N10      1.0000 0.56059  0.76057  0.24257  Biso   1.000  N
  H54      1.0000 0.54836  0.72645  0.17772  Biso   1.000  H
  C70      1.0000 0.64507  0.77562  0.18843  Biso   1.000  C
  C71      1.0000 0.65418  0.68275  0.16392  Biso   1.000  C
  H55      1.0000 0.55809  0.62673  0.15542  Biso   1.000  H
  H56      1.0000 0.58567  0.60073  0.19434  Biso   1.000  H
  C72      1.0000 0.16561  0.66911  0.43736  Biso   1.000  C
  C73      1.0000 0.21731  0.74089  0.50142  Biso   1.000  C
  H57      1.0000 0.28969  0.85098  0.54000  Biso   1.000  H
  H58      1.0000 0.32938  0.99609  0.69600  Biso   1.000  H
  H59      1.0000 0.35624  0.01851  0.64481  Biso   1.000  H
  H60      1.0000 0.50617  0.77425  0.20354  Biso   1.000  H
  H61      1.0000 0.44688  0.82404  0.22273  Biso   1.000  H
  N11      1.0000 0.37369  0.87415  0.22926  Biso   1.000  N
  H62      1.0000 0.37698  0.89463  0.29335  Biso   1.000  H
  H63      1.0000 0.10505  0.36573  0.12244  Biso   1.000  H
  H64      1.0000 0.06818  0.29395  0.13973  Biso   1.000  H
  C74      1.0000 0.02856  0.34581  0.16392  Biso   1.000  C
  C75      1.0000 0.12337  0.51475  0.27064  Biso   1.000  C
  H65      1.0000 0.06865  0.44194  0.15542  Biso   1.000  H
  H66      1.0000 0.01509  0.41433  0.19434  Biso   1.000  H
  H67      1.0000 0.65025  0.81653  0.17803  Biso   1.000  H
  H68      1.0000 0.67408  0.78393  0.21474  Biso   1.000  H
  C76      1.0000 0.66189  0.74565  0.14927  Biso   1.000  C
  H69      1.0000 0.68517  0.68964  0.18854  Biso   1.000  H
  H70      1.0000 0.66277  0.66274  0.13734  Biso   1.000  H
  C77      1.0000 0.16318  0.66425  0.39598  Biso   1.000  C
  H71      1.0000 0.23388  0.77468  0.47981  Biso   1.000  H
  C78      1.0000 0.33117  0.89855  0.21868  Biso   1.000  C
  H72      1.0000 0.00446  0.31485  0.18854  Biso   1.000  H
  H73      1.0000 0.99995  0.33722  0.13734  Biso   1.000  H
  H74      1.0000 0.10536  0.48233  0.29335  Biso   1.000  H
  C79      1.0000 0.14706  0.58011  0.28509  Biso   1.000  C
  H75      1.0000 0.63425  0.73933  0.12244  Biso   1.000  H
  H76      1.0000 0.70606  0.77425  0.13973  Biso   1.000  H
  C80      1.0000 0.16408  0.65363  0.34700  Biso   1.000  C
  C81      1.0000 0.26728  0.84442  0.20427  Biso   1.000  C
  C82      1.0000 0.36057  0.94853  0.18173  Biso   1.000  C
  H77      1.0000 0.32568  0.91823  0.24723  Biso   1.000  H
  C83      1.0000 0.17249  0.63065  0.25446  Biso   1.000  C
  C84      1.0000 0.14308  0.59243  0.33193  Biso   1.000  C
  C85      1.0000 0.18808  0.70295  0.31544  Biso   1.000  C
  N12      1.0000 0.23944  0.80002  0.24257  Biso   1.000  N
  H78      1.0000 0.27356  0.82191  0.17772  Biso   1.000  H
  C86      1.0000 0.22437  0.86943  0.18843  Biso   1.000  C
  C87      1.0000 0.31725  0.97141  0.16392  Biso   1.000  C
  H79      1.0000 0.37327  0.93135  0.15542  Biso   1.000  H
  H80      1.0000 0.39926  0.98496  0.19434  Biso   1.000  H
  C88      1.0000 0.19286  0.69134  0.26849  Biso   1.000  C
  H81      1.0000 0.17597  0.62282  0.22273  Biso   1.000  H
  H82      1.0000 0.12586  0.55864  0.35353  Biso   1.000  H
  H83      1.0000 0.20136  0.74462  0.32564  Biso   1.000  H
  C89      1.0000 0.22105  0.74273  0.23424  Biso   1.000  C
  H84      1.0000 0.18346  0.83371  0.17803  Biso   1.000  H
  H85      1.0000 0.21609  0.89015  0.21474  Biso   1.000  H
  C90      1.0000 0.25436  0.91625  0.14927  Biso   1.000  C
  H86      1.0000 0.31038  0.99553  0.18854  Biso   1.000  H
  H87      1.0000 0.33727  0.00001  0.13734  Biso   1.000  H
  H88      1.0000 0.22574  0.73192  0.20354  Biso   1.000  H
  H89      1.0000 0.26065  0.89492  0.12244  Biso   1.000  H
  H90      1.0000 0.22577  0.93182  0.13973  Biso   1.000  H
  N13      1.0000 0.53332  0.42721  0.40926  Biso   1.000  N
  C91      1.0000 0.48889  0.39942  0.37092  Biso   1.000  C
  C92      1.0000 0.59062  0.44562  0.40089  Biso   1.000  C
  C93      1.0000 0.46391  0.44232  0.35509  Biso   1.000  C
  C94      1.0000 0.43479  0.33552  0.38534  Biso   1.000  C
  H91      1.0000 0.51140  0.39310  0.34441  Biso   1.000  H
  C95      1.0000 0.64198  0.47379  0.43515  Biso   1.000  C
  H92      1.0000 0.60138  0.44090  0.37019  Biso   1.000  H
  C96      1.0000 0.41711  0.41230  0.31592  Biso   1.000  C
  H93      1.0000 0.49959  0.48318  0.34468  Biso   1.000  H
  H94      1.0000 0.44322  0.45062  0.38140  Biso   1.000  H
  C97      1.0000 0.38480  0.30608  0.34842  Biso   1.000  C
  N14      1.0000 0.45918  0.29300  0.39595  Biso   1.000  N
  H95      1.0000 0.41509  0.34100  0.41389  Biso   1.000  H
  C98      1.0000 0.63041  0.47860  0.48209  Biso   1.000  C
  C99      1.0000 0.70269  0.49418  0.42111  Biso   1.000  C
  C100     1.0000 0.36192  0.34940  0.33061  Biso   1.000  C
  H96      1.0000 0.43839  0.40598  0.28910  Biso   1.000  H
  H97      1.0000 0.40150  0.44090  0.30642  Biso   1.000  H
  H98      1.0000 0.40199  0.29338  0.32211  Biso   1.000  H
  H99      1.0000 0.34837  0.26738  0.36100  Biso   1.000  H
  C101     1.0000 0.45671  0.27531  0.43729  Biso   1.000  C
  C102     1.0000 0.67971  0.50258  0.51365  Biso   1.000  C
  H100     1.0000 0.58869  0.46530  0.49229  Biso   1.000  H
  H101     1.0000 0.71050  0.49069  0.38942  Biso   1.000  H
  C103     1.0000 0.75321  0.51961  0.45174  Biso   1.000  C
  H102     1.0000 0.33777  0.35629  0.35519  Biso   1.000  H
  H103     1.0000 0.33327  0.32939  0.30400  Biso   1.000  H
  H104     1.0000 0.43869  0.28970  0.46000  Biso   1.000  H
  C104     1.0000 0.48040  0.23359  0.45174  Biso   1.000  C
  C105     1.0000 0.66910  0.50352  0.56264  Biso   1.000  C
  C106     1.0000 0.74088  0.52358  0.49858  Biso   1.000  C
  C107     1.0000 0.81859  0.54330  0.43729  Biso   1.000  C
  C108     1.0000 0.50581  0.20849  0.42111  Biso   1.000  C
  C109     1.0000 0.47639  0.21731  0.49858  Biso   1.000  C
  C110     1.0000 0.66424  0.50107  0.60402  Biso   1.000  C
  H105     1.0000 0.77471  0.54080  0.52019  Biso   1.000  H
  N15      1.0000 0.83381  0.54080  0.39595  Biso   1.000  N
  H106     1.0000 0.85100  0.56128  0.46000  Biso   1.000  H
  C111     1.0000 0.52620  0.16819  0.43515  Biso   1.000  C
  H107     1.0000 0.50931  0.21981  0.38942  Biso   1.000  H
  C112     1.0000 0.49740  0.17711  0.51365  Biso   1.000  C
  H108     1.0000 0.45923  0.23392  0.52019  Biso   1.000  H
  C113     1.0000 0.65362  0.48955  0.65300  Biso   1.000  C
  C114     1.0000 0.90069  0.56520  0.38534  Biso   1.000  C
  C115     1.0000 0.52141  0.15181  0.48209  Biso   1.000  C
  C116     1.0000 0.55442  0.14502  0.40089  Biso   1.000  C
  C117     1.0000 0.49650  0.16559  0.56264  Biso   1.000  C
  C118     1.0000 0.70293  0.51485  0.68456  Biso   1.000  C
  C119     1.0000 0.59240  0.44935  0.66807  Biso   1.000  C
  C120     1.0000 0.91051  0.51112  0.37092  Biso   1.000  C
  C121     1.0000 0.92133  0.61522  0.34842  Biso   1.000  C
  H109     1.0000 0.92589  0.58488  0.41389  Biso   1.000  H
  H110     1.0000 0.53471  0.12340  0.49229  Biso   1.000  H
  N16      1.0000 0.57280  0.10608  0.40926  Biso   1.000  N
  H111     1.0000 0.55910  0.16049  0.37019  Biso   1.000  H
  C122     1.0000 0.49894  0.16318  0.60402  Biso   1.000  C
  H112     1.0000 0.74463  0.54326  0.67436  Biso   1.000  H
  C123     1.0000 0.69135  0.49847  0.73151  Biso   1.000  C
  C124     1.0000 0.58014  0.43307  0.71491  Biso   1.000  C
  H113     1.0000 0.55866  0.43278  0.64647  Biso   1.000  H
  N17      1.0000 0.89391  0.46671  0.40926  Biso   1.000  N
  H114     1.0000 0.88172  0.48861  0.34441  Biso   1.000  H
  C125     1.0000 0.97841  0.53608  0.35509  Biso   1.000  C
  C126     1.0000 0.98749  0.63811  0.33061  Biso   1.000  C
  H115     1.0000 0.89138  0.59800  0.32211  Biso   1.000  H
  H116     1.0000 0.91900  0.65160  0.36100  Biso   1.000  H
  C127     1.0000 0.60061  0.08952  0.37092  Biso   1.000  C
  C128     1.0000 0.51046  0.16408  0.65300  Biso   1.000  C
  C129     1.0000 0.63065  0.45817  0.74554  Biso   1.000  C
  C130     1.0000 0.74276  0.52169  0.76576  Biso   1.000  C
  C131     1.0000 0.51473  0.39135  0.72936  Biso   1.000  C
  C132     1.0000 0.85500  0.40942  0.40089  Biso   1.000  C
  H117     1.0000 0.98362  0.50041  0.34468  Biso   1.000  H
  C133     1.0000 0.99520  0.58290  0.31592  Biso   1.000  C
  H118     1.0000 0.00740  0.55680  0.38140  Biso   1.000  H
  H119     1.0000 0.99611  0.66671  0.30400  Biso   1.000  H
  H120     1.0000 0.01851  0.66222  0.35519  Biso   1.000  H
  H121     1.0000 0.60691  0.11831  0.34441  Biso   1.000  H
  C134     1.0000 0.55770  0.02161  0.35509  Biso   1.000  C
  C135     1.0000 0.66450  0.09929  0.38534  Biso   1.000  C
  C136     1.0000 0.48513  0.18805  0.68456  Biso   1.000  C
  C137     1.0000 0.55064  0.14308  0.66807  Biso   1.000  C
  H122     1.0000 0.62283  0.44685  0.77727  Biso   1.000  H
  N18      1.0000 0.80005  0.56057  0.75743  Biso   1.000  N
  H123     1.0000 0.73193  0.50616  0.79646  Biso   1.000  H
  N19      1.0000 0.49951  0.37365  0.77074  Biso   1.000  N
  H124     1.0000 0.48232  0.37696  0.70665  Biso   1.000  H
  C138     1.0000 0.83178  0.35799  0.43515  Biso   1.000  C
  H125     1.0000 0.83951  0.39862  0.37019  Biso   1.000  H
  H126     1.0000 0.96759  0.56161  0.28910  Biso   1.000  H
  H127     1.0000 0.03942  0.59852  0.30642  Biso   1.000  H
  H128     1.0000 0.51681  0.01642  0.34468  Biso   1.000  H
  C139     1.0000 0.58772  0.00481  0.31592  Biso   1.000  C
  H129     1.0000 0.54940  0.99259  0.38140  Biso   1.000  H
  N20      1.0000 0.70699  0.16620  0.39595  Biso   1.000  N
  C140     1.0000 0.69390  0.07871  0.34842  Biso   1.000  C
  H130     1.0000 0.65897  0.07409  0.41389  Biso   1.000  H
  H131     1.0000 0.45672  0.20136  0.67436  Biso   1.000  H
  C141     1.0000 0.50152  0.19287  0.73151  Biso   1.000  C
  C142     1.0000 0.56692  0.14705  0.71491  Biso   1.000  C
  H132     1.0000 0.56724  0.12586  0.64647  Biso   1.000  H
  C143     1.0000 0.84444  0.57719  0.79573  Biso   1.000  C
  C144     1.0000 0.43262  0.33118  0.78132  Biso   1.000  C
  C145     1.0000 0.79150  0.29730  0.42111  Biso   1.000  C
  C146     1.0000 0.84821  0.36959  0.48209  Biso   1.000  C
  H133     1.0000 0.59400  0.03242  0.28910  Biso   1.000  H
  C147     1.0000 0.65062  0.01251  0.33061  Biso   1.000  C
  H134     1.0000 0.55915  0.96060  0.30642  Biso   1.000  H
  C148     1.0000 0.72469  0.18140  0.43729  Biso   1.000  C
  H135     1.0000 0.70659  0.10858  0.32211  Biso   1.000  H
  H136     1.0000 0.73259  0.08098  0.36100  Biso   1.000  H
  C149     1.0000 0.54184  0.17248  0.74554  Biso   1.000  C
  C150     1.0000 0.47836  0.22109  0.76576  Biso   1.000  C
  C151     1.0000 0.60861  0.12336  0.72936  Biso   1.000  C
  H137     1.0000 0.82193  0.54835  0.82228  Biso   1.000  H
  C152     1.0000 0.86942  0.64504  0.81157  Biso   1.000  C
  C153     1.0000 0.89854  0.56737  0.78132  Biso   1.000  C
  C154     1.0000 0.42283  0.26729  0.79573  Biso   1.000  C
  C155     1.0000 0.41205  0.36058  0.81827  Biso   1.000  C
  H138     1.0000 0.40743  0.32566  0.75277  Biso   1.000  H
  C156     1.0000 0.76642  0.24681  0.45174  Biso   1.000  C
  H139     1.0000 0.78021  0.28951  0.38942  Biso   1.000  H
  C157     1.0000 0.82290  0.32028  0.51365  Biso   1.000  C
  H140     1.0000 0.87659  0.41131  0.49229  Biso   1.000  H
  H141     1.0000 0.67060  0.00392  0.30400  Biso   1.000  H
  H142     1.0000 0.64370  0.98150  0.35519  Biso   1.000  H
  H143     1.0000 0.71027  0.14898  0.46000  Biso   1.000  H
  H144     1.0000 0.55315  0.17597  0.77727  Biso   1.000  H
  N21      1.0000 0.43943  0.23944  0.75743  Biso   1.000  N
  H145     1.0000 0.49381  0.22576  0.79646  Biso   1.000  H
  N22      1.0000 0.62634  0.12586  0.77074  Biso   1.000  N
  H146     1.0000 0.62304  0.10538  0.70665  Biso   1.000  H
  H147     1.0000 0.83374  0.65028  0.82197  Biso   1.000  H
  H148     1.0000 0.89014  0.67407  0.78526  Biso   1.000  H
  C158     1.0000 0.91623  0.66184  0.85073  Biso   1.000  C
  N23      1.0000 0.87412  0.50045  0.77074  Biso   1.000  N
  C159     1.0000 0.94851  0.58794  0.81827  Biso   1.000  C
  H149     1.0000 0.91821  0.59257  0.75277  Biso   1.000  H
  H150     1.0000 0.45163  0.27356  0.82228  Biso   1.000  H
  C160     1.0000 0.35495  0.22439  0.81157  Biso   1.000  C
  C161     1.0000 0.34585  0.31726  0.83608  Biso   1.000  C
  H151     1.0000 0.44194  0.37328  0.84458  Biso   1.000  H
  H152     1.0000 0.41432  0.39928  0.80566  Biso   1.000  H
  C162     1.0000 0.78271  0.25912  0.49858  Biso   1.000  C
  C163     1.0000 0.83442  0.33090  0.56264  Biso   1.000  C
  C164     1.0000 0.66882  0.10146  0.78132  Biso   1.000  C
  H153     1.0000 0.89494  0.63429  0.87756  Biso   1.000  H
  H154     1.0000 0.93184  0.70606  0.86027  Biso   1.000  H
  C165     1.0000 0.97144  0.65415  0.83608  Biso   1.000  C
  C166     1.0000 0.87662  0.48526  0.72936  Biso   1.000  C
  H155     1.0000 0.93133  0.55807  0.84458  Biso   1.000  H
  H156     1.0000 0.98494  0.58568  0.80566  Biso   1.000  H
  H157     1.0000 0.34974  0.18348  0.82197  Biso   1.000  H
  H158     1.0000 0.32595  0.21608  0.78526  Biso   1.000  H
  C167     1.0000 0.33814  0.25436  0.85073  Biso   1.000  C
  H159     1.0000 0.31482  0.31037  0.81146  Biso   1.000  H
  H160     1.0000 0.33722  0.33727  0.86266  Biso   1.000  H
  H161     1.0000 0.76608  0.22529  0.52019  Biso   1.000  H
  C168     1.0000 0.83685  0.33576  0.60402  Biso   1.000  C
  C169     1.0000 0.73274  0.15559  0.79573  Biso   1.000  C
  C170     1.0000 0.63946  0.05148  0.81827  Biso   1.000  C
  H162     1.0000 0.67435  0.08178  0.75277  Biso   1.000  H
  H163     1.0000 0.99553  0.68516  0.81146  Biso   1.000  H
  H164     1.0000 0.00004  0.66279  0.86266  Biso   1.000  H
  H165     1.0000 0.89462  0.51768  0.70665  Biso   1.000  H
  C171     1.0000 0.85294  0.41985  0.71491  Biso   1.000  C
  H166     1.0000 0.36574  0.26068  0.87756  Biso   1.000  H
  H167     1.0000 0.29392  0.22576  0.86027  Biso   1.000  H
  C172     1.0000 0.83595  0.34638  0.65300  Biso   1.000  C
  N24      1.0000 0.76052  0.19995  0.75743  Biso   1.000  N
  H168     1.0000 0.72644  0.17805  0.82228  Biso   1.000  H
  C173     1.0000 0.77566  0.13058  0.81157  Biso   1.000  C
  C174     1.0000 0.68271  0.02855  0.83608  Biso   1.000  C
  H169     1.0000 0.62671  0.06866  0.84458  Biso   1.000  H
  H170     1.0000 0.60073  0.01505  0.80566  Biso   1.000  H
  C175     1.0000 0.85694  0.40758  0.66807  Biso   1.000  C
  C176     1.0000 0.82753  0.36936  0.74554  Biso   1.000  C
  C177     1.0000 0.81194  0.29706  0.68456  Biso   1.000  C
  C178     1.0000 0.77893  0.25728  0.76576  Biso   1.000  C
  H171     1.0000 0.81654  0.16625  0.82197  Biso   1.000  H
  H172     1.0000 0.78393  0.10986  0.78526  Biso   1.000  H
  C179     1.0000 0.74563  0.08376  0.85073  Biso   1.000  C
  H173     1.0000 0.68964  0.00448  0.81146  Biso   1.000  H
  H174     1.0000 0.66277  0.99995  0.86266  Biso   1.000  H
  H175     1.0000 0.87412  0.44137  0.64647  Biso   1.000  H
  C180     1.0000 0.80712  0.30867  0.73151  Biso   1.000  C
  H176     1.0000 0.82403  0.37715  0.77727  Biso   1.000  H
  H177     1.0000 0.79860  0.25535  0.67436  Biso   1.000  H
  H178     1.0000 0.77424  0.26809  0.79646  Biso   1.000  H
  H179     1.0000 0.73931  0.10505  0.87756  Biso   1.000  H
  H180     1.0000 0.77426  0.06819  0.86027  Biso   1.000  H
  C181     1.0000 0.36057  0.41202  0.68173  Biso   1.000  C
  C182     1.0000 0.31725  0.34581  0.66392  Biso   1.000  C
  C183     1.0000 0.33116  0.43264  0.71868  Biso   1.000  C
  H181     1.0000 0.37328  0.44194  0.65542  Biso   1.000  H
  H182     1.0000 0.39925  0.41433  0.69434  Biso   1.000  H
  C184     1.0000 0.25435  0.33812  0.64927  Biso   1.000  C
  H183     1.0000 0.31040  0.31485  0.68854  Biso   1.000  H
  H184     1.0000 0.33727  0.33722  0.63734  Biso   1.000  H
  C185     1.0000 0.26728  0.42283  0.70427  Biso   1.000  C
  N25      1.0000 0.37367  0.49951  0.72926  Biso   1.000  N
  H185     1.0000 0.32567  0.40744  0.74723  Biso   1.000  H
  C186     1.0000 0.22438  0.35492  0.68843  Biso   1.000  C
  H186     1.0000 0.26068  0.36573  0.62244  Biso   1.000  H
  H187     1.0000 0.22577  0.29395  0.63973  Biso   1.000  H
  N26      1.0000 0.23946  0.43944  0.74257  Biso   1.000  N
  H188     1.0000 0.27354  0.45161  0.67772  Biso   1.000  H
  C187     1.0000 0.39138  0.51475  0.77064  Biso   1.000  C
  H189     1.0000 0.18345  0.34973  0.67803  Biso   1.000  H
  H190     1.0000 0.21606  0.32594  0.71474  Biso   1.000  H
  C188     1.0000 0.22106  0.47832  0.73424  Biso   1.000  C
  H191     1.0000 0.37697  0.48233  0.79335  Biso   1.000  H
  C189     1.0000 0.43305  0.58011  0.78509  Biso   1.000  C
  C190     1.0000 0.19286  0.50154  0.76849  Biso   1.000  C
  H192     1.0000 0.22575  0.49385  0.70354  Biso   1.000  H
  C191     1.0000 0.45816  0.63065  0.75446  Biso   1.000  C
  C192     1.0000 0.44935  0.59243  0.83193  Biso   1.000  C
  C193     1.0000 0.18804  0.48512  0.81544  Biso   1.000  C
  C194     1.0000 0.17247  0.54184  0.75446  Biso   1.000  C
  C195     1.0000 0.49847  0.69134  0.76849  Biso   1.000  C
  H193     1.0000 0.44685  0.62282  0.72273  Biso   1.000  H
  C196     1.0000 0.48955  0.65363  0.84700  Biso   1.000  C
  H194     1.0000 0.43278  0.55864  0.85353  Biso   1.000  H
  C197     1.0000 0.16407  0.51041  0.84700  Biso   1.000  C
  H195     1.0000 0.20136  0.45676  0.82564  Biso   1.000  H
  H196     1.0000 0.17594  0.55312  0.72273  Biso   1.000  H
  C198     1.0000 0.14705  0.56694  0.78509  Biso   1.000  C
  C199     1.0000 0.51486  0.70295  0.81544  Biso   1.000  C
  C200     1.0000 0.52168  0.74273  0.73424  Biso   1.000  C
  C201     1.0000 0.50107  0.66425  0.89598  Biso   1.000  C
  C202     1.0000 0.16316  0.49894  0.89598  Biso   1.000  C
  C203     1.0000 0.14306  0.55062  0.83193  Biso   1.000  C
  C204     1.0000 0.12334  0.60861  0.77064  Biso   1.000  C
  H197     1.0000 0.54326  0.74462  0.82564  Biso   1.000  H
  N27      1.0000 0.56058  0.80002  0.74257  Biso   1.000  N
  H198     1.0000 0.50618  0.73192  0.70354  Biso   1.000  H
  C205     1.0000 0.50350  0.66911  0.93736  Biso   1.000  C
  C206     1.0000 0.16561  0.49649  0.93736  Biso   1.000  C
  H199     1.0000 0.12586  0.56723  0.85353  Biso   1.000  H
  N28      1.0000 0.12586  0.62631  0.72926  Biso   1.000  N
  H200     1.0000 0.10539  0.62305  0.79335  Biso   1.000  H
  C207     1.0000 0.57714  0.84442  0.70427  Biso   1.000  C
  C208     1.0000 0.50258  0.67968  0.98635  Biso   1.000  C
  C209     1.0000 0.17709  0.49739  0.98635  Biso   1.000  C
  C210     1.0000 0.10147  0.66883  0.71868  Biso   1.000  C
  H201     1.0000 0.54836  0.82191  0.67772  Biso   1.000  H
  C211     1.0000 0.64507  0.86943  0.68843  Biso   1.000  C
  C212     1.0000 0.56738  0.89855  0.71868  Biso   1.000  C
  C213     1.0000 0.47860  0.63042  0.01791  Biso   1.000  C
  C214     1.0000 0.52358  0.74089  0.00142  Biso   1.000  C
  C215     1.0000 0.15179  0.52141  0.01791  Biso   1.000  C
  C216     1.0000 0.21731  0.47639  0.00142  Biso   1.000  C
  C217     1.0000 0.15556  0.73272  0.70427  Biso   1.000  C
  C218     1.0000 0.05146  0.63943  0.68173  Biso   1.000  C
  H202     1.0000 0.08179  0.67435  0.74723  Biso   1.000  H
  H203     1.0000 0.65025  0.83371  0.67803  Biso   1.000  H
  H204     1.0000 0.67406  0.89015  0.71474  Biso   1.000  H
  C219     1.0000 0.66189  0.91625  0.64927  Biso   1.000  C
  N29      1.0000 0.50046  0.87415  0.72926  Biso   1.000  N
  C220     1.0000 0.58796  0.94853  0.68173  Biso   1.000  C
  H205     1.0000 0.59255  0.91823  0.74723  Biso   1.000  H
  H206     1.0000 0.46530  0.58870  0.00771  Biso   1.000  H
  C221     1.0000 0.47379  0.64198  0.06485  Biso   1.000  C
  H207     1.0000 0.54080  0.77468  0.97981  Biso   1.000  H
  C222     1.0000 0.51960  0.75321  0.04826  Biso   1.000  C
  H208     1.0000 0.12342  0.53471  0.00771  Biso   1.000  H
  C223     1.0000 0.16821  0.52622  0.06485  Biso   1.000  C
  H209     1.0000 0.23390  0.45921  0.97981  Biso   1.000  H
  C224     1.0000 0.23362  0.48040  0.04826  Biso   1.000  C
  N30      1.0000 0.19997  0.76057  0.74257  Biso   1.000  N
  H210     1.0000 0.17809  0.72645  0.67772  Biso   1.000  H
  C225     1.0000 0.13055  0.77562  0.68843  Biso   1.000  C
  C226     1.0000 0.02857  0.68275  0.66392  Biso   1.000  C
  H211     1.0000 0.06865  0.62673  0.65542  Biso   1.000  H
  H212     1.0000 0.01507  0.60073  0.69434  Biso   1.000  H
  H213     1.0000 0.63427  0.89492  0.62244  Biso   1.000  H
  H214     1.0000 0.70605  0.93182  0.63973  Biso   1.000  H
  C227     1.0000 0.65416  0.97141  0.66392  Biso   1.000  C
  C228     1.0000 0.48528  0.87666  0.77064  Biso   1.000  C
  H215     1.0000 0.55808  0.93135  0.65542  Biso   1.000  H
  H216     1.0000 0.58570  0.98496  0.69434  Biso   1.000  H
  C229     1.0000 0.49419  0.70271  0.07889  Biso   1.000  C
  C230     1.0000 0.44561  0.59059  0.09911  Biso   1.000  C
  C231     1.0000 0.54331  0.81861  0.06271  Biso   1.000  C
  C232     1.0000 0.20851  0.50579  0.07889  Biso   1.000  C
  C233     1.0000 0.14499  0.55439  0.09911  Biso   1.000  C
  C234     1.0000 0.27531  0.45671  0.06271  Biso   1.000  C
  C235     1.0000 0.25725  0.77892  0.73424  Biso   1.000  C
  H217     1.0000 0.16629  0.81653  0.67803  Biso   1.000  H
  H218     1.0000 0.10985  0.78393  0.71474  Biso   1.000  H
  C236     1.0000 0.08377  0.74565  0.64927  Biso   1.000  C
  H219     1.0000 0.00447  0.68964  0.68854  Biso   1.000  H
  H220     1.0000 0.99997  0.66274  0.63734  Biso   1.000  H
  H221     1.0000 0.68514  0.99553  0.68854  Biso   1.000  H
  H222     1.0000 0.66274  0.00001  0.63734  Biso   1.000  H
  H223     1.0000 0.51765  0.89463  0.79335  Biso   1.000  H
  C237     1.0000 0.41988  0.85292  0.78509  Biso   1.000  C
  H224     1.0000 0.49069  0.71050  0.11058  Biso   1.000  H
  N31      1.0000 0.42722  0.53330  0.09074  Biso   1.000  N
  H225     1.0000 0.44092  0.60139  0.12981  Biso   1.000  H
  N32      1.0000 0.54081  0.83381  0.10405  Biso   1.000  N
  H226     1.0000 0.56130  0.85098  0.04000  Biso   1.000  H
  H227     1.0000 0.21978  0.50928  0.11058  Biso   1.000  H
  N33      1.0000 0.10609  0.57280  0.09074  Biso   1.000  N
  H228     1.0000 0.16051  0.55911  0.12981  Biso   1.000  H
  N34      1.0000 0.29299  0.45921  0.10405  Biso   1.000  N
  H229     1.0000 0.28967  0.43868  0.04000  Biso   1.000  H
  C238     1.0000 0.30868  0.80714  0.76849  Biso   1.000  C
  H230     1.0000 0.26808  0.77425  0.70354  Biso   1.000  H
  H231     1.0000 0.10509  0.73933  0.62244  Biso   1.000  H
  H232     1.0000 0.06819  0.77425  0.63973  Biso   1.000  H
  C239     1.0000 0.36938  0.82753  0.75446  Biso   1.000  C
  C240     1.0000 0.40758  0.85693  0.83193  Biso   1.000  C
  C241     1.0000 0.39938  0.48889  0.12908  Biso   1.000  C
  C242     1.0000 0.56520  0.90072  0.11466  Biso   1.000  C
  C243     1.0000 0.08950  0.60059  0.12908  Biso   1.000  C
  C244     1.0000 0.33551  0.43481  0.11466  Biso   1.000  C
  C245     1.0000 0.29704  0.81191  0.81544  Biso   1.000  C
  H233     1.0000 0.37716  0.82404  0.72273  Biso   1.000  H
  C246     1.0000 0.34636  0.83593  0.84700  Biso   1.000  C
  H234     1.0000 0.44137  0.87415  0.85353  Biso   1.000  H
  H235     1.0000 0.39310  0.51140  0.15559  Biso   1.000  H
  C247     1.0000 0.44229  0.46388  0.14491  Biso   1.000  C
  C248     1.0000 0.51111  0.91049  0.12908  Biso   1.000  C
  C249     1.0000 0.61521  0.92130  0.15158  Biso   1.000  C
  H236     1.0000 0.58491  0.92592  0.08611  Biso   1.000  H
  H237     1.0000 0.11833  0.60692  0.15559  Biso   1.000  H
  C250     1.0000 0.02158  0.55770  0.14491  Biso   1.000  C
  C251     1.0000 0.09930  0.66449  0.11466  Biso   1.000  C
  C252     1.0000 0.30609  0.38479  0.15158  Biso   1.000  C
  H238     1.0000 0.34098  0.41509  0.08611  Biso   1.000  H
  H239     1.0000 0.25539  0.79865  0.82564  Biso   1.000  H
  C253     1.0000 0.33578  0.83683  0.89598  Biso   1.000  C
  H240     1.0000 0.48320  0.49960  0.15532  Biso   1.000  H
  H241     1.0000 0.45059  0.44321  0.11860  Biso   1.000  H
  C254     1.0000 0.41233  0.41712  0.18408  Biso   1.000  C
  N35      1.0000 0.46670  0.89393  0.09074  Biso   1.000  N
  H242     1.0000 0.48859  0.88170  0.15559  Biso   1.000  H
  C255     1.0000 0.53612  0.97840  0.14491  Biso   1.000  C
  C256     1.0000 0.63810  0.98751  0.16939  Biso   1.000  C
  H243     1.0000 0.59800  0.89138  0.17789  Biso   1.000  H
  H244     1.0000 0.65157  0.91898  0.13900  Biso   1.000  H
  H245     1.0000 0.99258  0.54939  0.11860  Biso   1.000  H
  H246     1.0000 0.01641  0.51678  0.15532  Biso   1.000  H
  C257     1.0000 0.00479  0.58771  0.18408  Biso   1.000  C
  N36      1.0000 0.16620  0.70701  0.10405  Biso   1.000  N
  C258     1.0000 0.07869  0.69389  0.15158  Biso   1.000  C
  H247     1.0000 0.07412  0.65901  0.08611  Biso   1.000  H
  C259     1.0000 0.34941  0.36190  0.16939  Biso   1.000  C
  H248     1.0000 0.29341  0.40201  0.17789  Biso   1.000  H
  H249     1.0000 0.26742  0.34841  0.13900  Biso   1.000  H
  C260     1.0000 0.33090  0.83442  0.93736  Biso   1.000  C
  H250     1.0000 0.40601  0.43840  0.21090  Biso   1.000  H
  H251     1.0000 0.44089  0.40150  0.19358  Biso   1.000  H
  C261     1.0000 0.40939  0.85499  0.09911  Biso   1.000  C
  H252     1.0000 0.50038  0.98359  0.15532  Biso   1.000  H
  C262     1.0000 0.58289  0.99520  0.18408  Biso   1.000  C
  H253     1.0000 0.55676  0.00742  0.11860  Biso   1.000  H
  H254     1.0000 0.66671  0.99609  0.19600  Biso   1.000  H
  H255     1.0000 0.66222  0.01851  0.14481  Biso   1.000  H
  H256     1.0000 0.96062  0.55911  0.19358  Biso   1.000  H
  H257     1.0000 0.03241  0.59398  0.21090  Biso   1.000  H
  C263     1.0000 0.01250  0.65061  0.16939  Biso   1.000  C
  C264     1.0000 0.18139  0.72470  0.06271  Biso   1.000  C
  H258     1.0000 0.10857  0.70658  0.17789  Biso   1.000  H
  H259     1.0000 0.08099  0.73258  0.13900  Biso   1.000  H
  H260     1.0000 0.35627  0.33779  0.14481  Biso   1.000  H
  H261     1.0000 0.32939  0.33331  0.19600  Biso   1.000  H
  C265     1.0000 0.32032  0.82291  0.98635  Biso   1.000  C
  C266     1.0000 0.35798  0.83178  0.06485  Biso   1.000  C
  H262     1.0000 0.39859  0.83952  0.12981  Biso   1.000  H
  H263     1.0000 0.56161  0.96759  0.21090  Biso   1.000  H
  H264     1.0000 0.59846  0.03941  0.19358  Biso   1.000  H
  H265     1.0000 0.98151  0.64372  0.14481  Biso   1.000  H
  H266     1.0000 0.00391  0.67062  0.19600  Biso   1.000  H
  H267     1.0000 0.14902  0.71031  0.04000  Biso   1.000  H
  C267     1.0000 0.24679  0.76642  0.04826  Biso   1.000  C
  C268     1.0000 0.25910  0.78270  0.00142  Biso   1.000  C
  C269     1.0000 0.36958  0.84820  0.01791  Biso   1.000  C
  C270     1.0000 0.29729  0.79148  0.07889  Biso   1.000  C
  H268     1.0000 0.22529  0.76609  0.97981  Biso   1.000  H
  H269     1.0000 0.41129  0.87661  0.00771  Biso   1.000  H
  H270     1.0000 0.28948  0.78020  0.11058  Biso   1.000  H
  C271     1.0000 0.63943  0.58794  0.31827  Biso   1.000  C
  C272     1.0000 0.66883  0.56737  0.28132  Biso   1.000  C
  C273     1.0000 0.68271  0.65415  0.33608  Biso   1.000  C
  H271     1.0000 0.62674  0.55807  0.34458  Biso   1.000  H
  H272     1.0000 0.60074  0.58568  0.30566  Biso   1.000  H
  N37      1.0000 0.62634  0.50045  0.27074  Biso   1.000  N
  C274     1.0000 0.73275  0.57719  0.29573  Biso   1.000  C
  H273     1.0000 0.67435  0.59257  0.25277  Biso   1.000  H
  C275     1.0000 0.74561  0.66184  0.35073  Biso   1.000  C
  H274     1.0000 0.68963  0.68516  0.31146  Biso   1.000  H
  H275     1.0000 0.66275  0.66279  0.36266  Biso   1.000  H
  C276     1.0000 0.60864  0.48526  0.22936  Biso   1.000  C
  N38      1.0000 0.76053  0.56057  0.25743  Biso   1.000  N
  H276     1.0000 0.72642  0.54835  0.32228  Biso   1.000  H
  C277     1.0000 0.77563  0.64504  0.31157  Biso   1.000  C
  H277     1.0000 0.73935  0.63429  0.37756  Biso   1.000  H
  H278     1.0000 0.77422  0.70606  0.36027  Biso   1.000  H
  C278     1.0000 0.56691  0.41985  0.21491  Biso   1.000  C
  H279     1.0000 0.62305  0.51768  0.20665  Biso   1.000  H
  C279     1.0000 0.77893  0.52169  0.26576  Biso   1.000  C
  H280     1.0000 0.81654  0.65028  0.32197  Biso   1.000  H
  H281     1.0000 0.78393  0.67407  0.28526  Biso   1.000  H
  C280     1.0000 0.54183  0.36936  0.24554  Biso   1.000  C
  C281     1.0000 0.55064  0.40758  0.16807  Biso   1.000  C
  C282     1.0000 0.80713  0.49847  0.23151  Biso   1.000  C
  H282     1.0000 0.77423  0.50616  0.29646  Biso   1.000  H
  C283     1.0000 0.50155  0.30867  0.23151  Biso   1.000  C
  H283     1.0000 0.55312  0.37715  0.27727  Biso   1.000  H
  C284     1.0000 0.51043  0.34638  0.15300  Biso   1.000  C
  H284     1.0000 0.56725  0.44137  0.14647  Biso   1.000  H
  C285     1.0000 0.81192  0.51485  0.18456  Biso   1.000  C
  C286     1.0000 0.82752  0.45817  0.24554  Biso   1.000  C
  C287     1.0000 0.47835  0.25728  0.26576  Biso   1.000  C
  C288     1.0000 0.48512  0.29706  0.18456  Biso   1.000  C
  C289     1.0000 0.49891  0.33576  0.10402  Biso   1.000  C
  C290     1.0000 0.83593  0.48955  0.15300  Biso   1.000  C
  H285     1.0000 0.79862  0.54326  0.17436  Biso   1.000  H
  C291     1.0000 0.85293  0.43307  0.21491  Biso   1.000  C
  H286     1.0000 0.82402  0.44685  0.27727  Biso   1.000  H
  N39      1.0000 0.43942  0.19995  0.25743  Biso   1.000  N
  H287     1.0000 0.49385  0.26809  0.29646  Biso   1.000  H
  H288     1.0000 0.45674  0.25535  0.17436  Biso   1.000  H
  C292     1.0000 0.49648  0.33090  0.06264  Biso   1.000  C
  C293     1.0000 0.85694  0.44935  0.16807  Biso   1.000  C
  C294     1.0000 0.83683  0.50107  0.10402  Biso   1.000  C
  C295     1.0000 0.87662  0.39135  0.22936  Biso   1.000  C
  C296     1.0000 0.42284  0.15559  0.29573  Biso   1.000  C
  C297     1.0000 0.49738  0.32028  0.01365  Biso   1.000  C
  H289     1.0000 0.87412  0.43278  0.14647  Biso   1.000  H
  C298     1.0000 0.83442  0.50352  0.06264  Biso   1.000  C
  N40      1.0000 0.87415  0.37365  0.27074  Biso   1.000  N
  H290     1.0000 0.89464  0.37696  0.20665  Biso   1.000  H
  C299     1.0000 0.35492  0.13058  0.31157  Biso   1.000  C
  H291     1.0000 0.45161  0.17805  0.32228  Biso   1.000  H
  C300     1.0000 0.43264  0.10146  0.28132  Biso   1.000  C
  C301     1.0000 0.52139  0.36959  0.98209  Biso   1.000  C
  C302     1.0000 0.47641  0.25912  0.99858  Biso   1.000  C
  C303     1.0000 0.82287  0.50258  0.01365  Biso   1.000  C
  C304     1.0000 0.89856  0.33118  0.28132  Biso   1.000  C
  H292     1.0000 0.34971  0.16625  0.32197  Biso   1.000  H
  H293     1.0000 0.32593  0.10986  0.28526  Biso   1.000  H
  C305     1.0000 0.33813  0.08376  0.35073  Biso   1.000  C
  N41      1.0000 0.49952  0.12586  0.27074  Biso   1.000  N
  C306     1.0000 0.41203  0.05148  0.31827  Biso   1.000  C
  H294     1.0000 0.40744  0.08178  0.25277  Biso   1.000  H
  H295     1.0000 0.53472  0.41131  0.99229  Biso   1.000  H
  C307     1.0000 0.52621  0.35799  0.93515  Biso   1.000  C
  H296     1.0000 0.45920  0.22529  0.02019  Biso   1.000  H
  C308     1.0000 0.48039  0.24681  0.95174  Biso   1.000  C
  C309     1.0000 0.78269  0.52358  0.99858  Biso   1.000  C
  C310     1.0000 0.84820  0.47860  0.98209  Biso   1.000  C
  C311     1.0000 0.84446  0.26729  0.29573  Biso   1.000  C
  C312     1.0000 0.94853  0.36058  0.31827  Biso   1.000  C
  H297     1.0000 0.91824  0.32566  0.25277  Biso   1.000  H
  H298     1.0000 0.36574  0.10505  0.37756  Biso   1.000  H
  H299     1.0000 0.29393  0.06819  0.36027  Biso   1.000  H
  C313     1.0000 0.34584  0.02855  0.33608  Biso   1.000  C
  C314     1.0000 0.51474  0.12336  0.22936  Biso   1.000  C
  H300     1.0000 0.44195  0.06866  0.34458  Biso   1.000  H
  H301     1.0000 0.41433  0.01505  0.30566  Biso   1.000  H
  C315     1.0000 0.50580  0.29730  0.92111  Biso   1.000  C
  C316     1.0000 0.55442  0.40942  0.90089  Biso   1.000  C
  C317     1.0000 0.45671  0.18140  0.93729  Biso   1.000  C
  C318     1.0000 0.76641  0.51961  0.95174  Biso   1.000  C
  H302     1.0000 0.76609  0.54080  0.02019  Biso   1.000  H
  C319     1.0000 0.83181  0.47379  0.93515  Biso   1.000  C
  H303     1.0000 0.87661  0.46530  0.99229  Biso   1.000  H
  N42      1.0000 0.80001  0.23944  0.25743  Biso   1.000  N
  H304     1.0000 0.82193  0.27356  0.32228  Biso   1.000  H
  C320     1.0000 0.86944  0.22439  0.31157  Biso   1.000  C
  C321     1.0000 0.97141  0.31726  0.33608  Biso   1.000  C
  H305     1.0000 0.93134  0.37328  0.34458  Biso   1.000  H
  H306     1.0000 0.98496  0.39928  0.30566  Biso   1.000  H
  H307     1.0000 0.31484  0.00448  0.31146  Biso   1.000  H
  H308     1.0000 0.33722  0.99995  0.36266  Biso   1.000  H
  H309     1.0000 0.48233  0.10538  0.20665  Biso   1.000  H
  C322     1.0000 0.58012  0.14705  0.21491  Biso   1.000  C
  H310     1.0000 0.50930  0.28951  0.88942  Biso   1.000  H
  N43      1.0000 0.57281  0.46671  0.90926  Biso   1.000  N
  H311     1.0000 0.55911  0.39862  0.87019  Biso   1.000  H
  N44      1.0000 0.45921  0.16620  0.89595  Biso   1.000  N
  H312     1.0000 0.43871  0.14898  0.96000  Biso   1.000  H
  C323     1.0000 0.72471  0.54330  0.93729  Biso   1.000  C
  C324     1.0000 0.79149  0.49418  0.92111  Biso   1.000  C
  C325     1.0000 0.85500  0.44562  0.90089  Biso   1.000  C
  C326     1.0000 0.74273  0.22109  0.26576  Biso   1.000  C
  H313     1.0000 0.83374  0.18348  0.32197  Biso   1.000  H
  H314     1.0000 0.89013  0.21608  0.28526  Biso   1.000  H
  C327     1.0000 0.91622  0.25436  0.35073  Biso   1.000  C
  H315     1.0000 0.99555  0.31037  0.31146  Biso   1.000  H
  H316     1.0000 0.00005  0.33727  0.36266  Biso   1.000  H
  C328     1.0000 0.63064  0.17248  0.24554  Biso   1.000  C
  C329     1.0000 0.59244  0.14308  0.16807  Biso   1.000  C
  C330     1.0000 0.60061  0.51112  0.87092  Biso   1.000  C
  C331     1.0000 0.43478  0.09929  0.88534  Biso   1.000  C
  N45      1.0000 0.70699  0.54080  0.89595  Biso   1.000  N
  H317     1.0000 0.71029  0.56128  0.96000  Biso   1.000  H
  H318     1.0000 0.78018  0.49069  0.88942  Biso   1.000  H
  N46      1.0000 0.89390  0.42721  0.90926  Biso   1.000  N
  H319     1.0000 0.83952  0.44090  0.87019  Biso   1.000  H
  C332     1.0000 0.69135  0.19287  0.23151  Biso   1.000  C
  H320     1.0000 0.73195  0.22576  0.29646  Biso   1.000  H
  H321     1.0000 0.89494  0.26068  0.37756  Biso   1.000  H
  H322     1.0000 0.93183  0.22576  0.36027  Biso   1.000  H
  H323     1.0000 0.62283  0.17597  0.27727  Biso   1.000  H
  C333     1.0000 0.65362  0.16408  0.15300  Biso   1.000  C
  H324     1.0000 0.55862  0.12586  0.14647  Biso   1.000  H
  H325     1.0000 0.60689  0.48861  0.84441  Biso   1.000  H
  C334     1.0000 0.55767  0.53608  0.85509  Biso   1.000  C
  C335     1.0000 0.66451  0.56520  0.88534  Biso   1.000  C
  C336     1.0000 0.48891  0.08952  0.87092  Biso   1.000  C
  C337     1.0000 0.38481  0.07871  0.84842  Biso   1.000  C
  H326     1.0000 0.41511  0.07409  0.91389  Biso   1.000  H
  C338     1.0000 0.91053  0.39942  0.87092  Biso   1.000  C
  C339     1.0000 0.70292  0.18805  0.18456  Biso   1.000  C
  C340     1.0000 0.66425  0.16318  0.10402  Biso   1.000  C
  H327     1.0000 0.51679  0.50041  0.84468  Biso   1.000  H
  H328     1.0000 0.54940  0.55680  0.88140  Biso   1.000  H
  C341     1.0000 0.58770  0.58290  0.81592  Biso   1.000  C
  C342     1.0000 0.69389  0.61522  0.84842  Biso   1.000  C
  H329     1.0000 0.65898  0.58488  0.91389  Biso   1.000  H
  N47      1.0000 0.53328  0.10608  0.90926  Biso   1.000  N
  H330     1.0000 0.51140  0.11831  0.84441  Biso   1.000  H
  C343     1.0000 0.46391  0.02161  0.85509  Biso   1.000  C
  C344     1.0000 0.36189  0.01251  0.83061  Biso   1.000  C
  H331     1.0000 0.40200  0.10858  0.82211  Biso   1.000  H
  H332     1.0000 0.34839  0.08098  0.86100  Biso   1.000  H
  C345     1.0000 0.90073  0.33552  0.88534  Biso   1.000  C
  H333     1.0000 0.88170  0.39310  0.84441  Biso   1.000  H
  C346     1.0000 0.97840  0.44232  0.85509  Biso   1.000  C
  H334     1.0000 0.74464  0.20136  0.17436  Biso   1.000  H
  C347     1.0000 0.66909  0.16559  0.06264  Biso   1.000  C
  H335     1.0000 0.59402  0.56161  0.78910  Biso   1.000  H
  H336     1.0000 0.55910  0.59852  0.80642  Biso   1.000  H
  C348     1.0000 0.65062  0.63811  0.83061  Biso   1.000  C
  H337     1.0000 0.70662  0.59800  0.82211  Biso   1.000  H
  H338     1.0000 0.73260  0.65160  0.86100  Biso   1.000  H
  C349     1.0000 0.59059  0.14502  0.90089  Biso   1.000  C
  H339     1.0000 0.44319  0.99259  0.88140  Biso   1.000  H
  H340     1.0000 0.49961  0.01642  0.84468  Biso   1.000  H
  C350     1.0000 0.41709  0.00481  0.81592  Biso   1.000  C
  H341     1.0000 0.33780  0.98150  0.85519  Biso   1.000  H
  H342     1.0000 0.33332  0.00392  0.80400  Biso   1.000  H
  N48      1.0000 0.83382  0.29300  0.89595  Biso   1.000  N
  C351     1.0000 0.92128  0.30608  0.84842  Biso   1.000  C
  H343     1.0000 0.92590  0.34100  0.91389  Biso   1.000  H
  H344     1.0000 0.98359  0.48318  0.84468  Biso   1.000  H
  C352     1.0000 0.99519  0.41230  0.81592  Biso   1.000  C
  H345     1.0000 0.00740  0.45062  0.88140  Biso   1.000  H
  C353     1.0000 0.67971  0.17711  0.01365  Biso   1.000  C
  H346     1.0000 0.64371  0.66222  0.85519  Biso   1.000  H
  H347     1.0000 0.67060  0.66671  0.80400  Biso   1.000  H
  C354     1.0000 0.64198  0.16819  0.93515  Biso   1.000  C
  H348     1.0000 0.60140  0.16049  0.87019  Biso   1.000  H
  H349     1.0000 0.40148  0.96060  0.80642  Biso   1.000  H
  H350     1.0000 0.43842  0.03242  0.78910  Biso   1.000  H
  C355     1.0000 0.81860  0.27531  0.93729  Biso   1.000  C
  C356     1.0000 0.98748  0.34940  0.83061  Biso   1.000  C
  H351     1.0000 0.89139  0.29338  0.82211  Biso   1.000  H
  H352     1.0000 0.91901  0.26738  0.86100  Biso   1.000  H
  H353     1.0000 0.96759  0.40598  0.78910  Biso   1.000  H
  H354     1.0000 0.03940  0.44090  0.80642  Biso   1.000  H
  C357     1.0000 0.63040  0.15181  0.98209  Biso   1.000  C
  C358     1.0000 0.74093  0.21731  0.99858  Biso   1.000  C
  C359     1.0000 0.70267  0.20849  0.92111  Biso   1.000  C
  C360     1.0000 0.75319  0.23359  0.95174  Biso   1.000  C
  H355     1.0000 0.85101  0.28970  0.96000  Biso   1.000  H
  H356     1.0000 0.99611  0.32939  0.80400  Biso   1.000  H
  H357     1.0000 0.01851  0.35629  0.85519  Biso   1.000  H
  H358     1.0000 0.58869  0.12340  0.99229  Biso   1.000  H
  H359     1.0000 0.77469  0.23392  0.02019  Biso   1.000  H
  H360     1.0000 0.71050  0.21981  0.88942  Biso   1.000  H
  C361     1.0000 0.31170  0.10896  0.52174  Biso   1.000  C
  C362     1.0000 0.32849  0.07895  0.48261  Biso   1.000  C
  C363     1.0000 0.24383  0.06607  0.53761  Biso   1.000  C
  H361     1.0000 0.31692  0.14988  0.51137  Biso   1.000  H
  H362     1.0000 0.34075  0.11727  0.54805  Biso   1.000  H
  C364     1.0000 0.32853  0.07895  0.48261  Biso   1.000  C
  H363     1.0000 0.34071  0.11727  0.54805  Biso   1.000  H
  C365     1.0000 0.31175  0.10896  0.52174  Biso   1.000  C
  H364     1.0000 0.30092  0.07267  0.45575  Biso   1.000  H
  H365     1.0000 0.37271  0.10755  0.47307  Biso   1.000  H
  C366     1.0000 0.32083  0.01604  0.49727  Biso   1.000  C
  C367     1.0000 0.32079  0.01604  0.49727  Biso   1.000  C
  N49      1.0000 0.22724  0.09386  0.57591  Biso   1.000  N
  H366     1.0000 0.21503  0.05979  0.51106  Biso   1.000  H
  C368     1.0000 0.23403  0.00217  0.55203  Biso   1.000  C
  N50      1.0000 0.22720  0.09386  0.57591  Biso   1.000  N
  H367     1.0000 0.21500  0.05974  0.51106  Biso   1.000  H
  H368     1.0000 0.35184  0.02298  0.52188  Biso   1.000  H
  H369     1.0000 0.35182  0.02293  0.52188  Biso   1.000  H
  H370     1.0000 0.32948  0.99608  0.47065  Biso   1.000  H
  C369     1.0000 0.25464  0.97277  0.51507  Biso   1.000  C
  H371     1.0000 0.32946  0.99604  0.47065  Biso   1.000  H
  C370     1.0000 0.18834  0.11227  0.56755  Biso   1.000  C
  C371     1.0000 0.18830  0.11227  0.56755  Biso   1.000  C
  H372     1.0000 0.25921  0.00764  0.58058  Biso   1.000  H
  N51      1.0000 0.16712  0.95965  0.56260  Biso   1.000  N
  H373     1.0000 0.22480  0.96008  0.48877  Biso   1.000  H
  H374     1.0000 0.25234  0.93408  0.52765  Biso   1.000  H
  H375     1.0000 0.22472  0.96008  0.48877  Biso   1.000  H
  C372     1.0000 0.16514  0.14049  0.60184  Biso   1.000  C
  H376     1.0000 0.17282  0.10755  0.53685  Biso   1.000  H
  C373     1.0000 0.16511  0.14044  0.60184  Biso   1.000  C
  C374     1.0000 0.15194  0.94196  0.60398  Biso   1.000  C
  C375     1.0000 0.18154  0.14525  0.64878  Biso   1.000  C
  C376     1.0000 0.12482  0.16087  0.58780  Biso   1.000  C
  C377     1.0000 0.18150  0.14525  0.64878  Biso   1.000  C
  C378     1.0000 0.08656  0.90029  0.61840  Biso   1.000  C
  H377     1.0000 0.18435  0.95635  0.62666  Biso   1.000  H
  C379     1.0000 0.08650  0.90024  0.61840  Biso   1.000  C
  C380     1.0000 0.15624  0.16927  0.68031  Biso   1.000  C
  H378     1.0000 0.20991  0.13194  0.65898  Biso   1.000  H
  C381     1.0000 0.15620  0.16927  0.68031  Biso   1.000  C
  H379     1.0000 0.11355  0.15738  0.55607  Biso   1.000  H
  C382     1.0000 0.09971  0.18626  0.61840  Biso   1.000  C
  H380     1.0000 0.11349  0.15733  0.55607  Biso   1.000  H
  C383     1.0000 0.03604  0.87518  0.58780  Biso   1.000  C
  C384     1.0000 0.07423  0.88396  0.66524  Biso   1.000  C
  C385     1.0000 0.03602  0.87513  0.58780  Biso   1.000  C
  C386     1.0000 0.16772  0.17017  0.72929  Biso   1.000  C
  C387     1.0000 0.11602  0.19027  0.66524  Biso   1.000  C
  C388     1.0000 0.05802  0.20995  0.60398  Biso   1.000  C
  C389     1.0000 0.97535  0.83488  0.60184  Biso   1.000  C
  C390     1.0000 0.97533  0.83483  0.60184  Biso   1.000  C
  H381     1.0000 0.04385  0.88646  0.55607  Biso   1.000  H
  C391     1.0000 0.01305  0.84375  0.68031  Biso   1.000  C
  H382     1.0000 0.10808  0.90057  0.68688  Biso   1.000  H
  H383     1.0000 0.10804  0.90057  0.68688  Biso   1.000  H
  C392     1.0000 0.17017  0.16771  0.77071  Biso   1.000  C
  C393     1.0000 0.17013  0.16771  0.77071  Biso   1.000  C
  H384     1.0000 0.09943  0.20745  0.68688  Biso   1.000  H
  H385     1.0000 0.09939  0.20745  0.68688  Biso   1.000  H
  N52      1.0000 0.04034  0.20745  0.56260  Biso   1.000  N
  H386     1.0000 0.04365  0.22798  0.62666  Biso   1.000  H
  N53      1.0000 0.04030  0.20745  0.56260  Biso   1.000  N
  H387     1.0000 0.04361  0.22798  0.62666  Biso   1.000  H
  C394     1.0000 0.96379  0.81846  0.64878  Biso   1.000  C
  C395     1.0000 0.92398  0.81166  0.56755  Biso   1.000  C
  C396     1.0000 0.96371  0.81846  0.64878  Biso   1.000  C
  C397     1.0000 0.92394  0.81166  0.56755  Biso   1.000  C
  C398     1.0000 0.00246  0.83229  0.72929  Biso   1.000  C
  C399     1.0000 0.00239  0.83224  0.72929  Biso   1.000  C
  C400     1.0000 0.16926  0.15625  0.81969  Biso   1.000  C
  C401     1.0000 0.16924  0.15620  0.81969  Biso   1.000  C
  C402     1.0000 0.99781  0.23185  0.55203  Biso   1.000  C
  H388     1.0000 0.92204  0.79005  0.65898  Biso   1.000  H
  H389     1.0000 0.92200  0.79005  0.65898  Biso   1.000  H
  N54      1.0000 0.86669  0.77278  0.57591  Biso   1.000  N
  H390     1.0000 0.93476  0.82719  0.53685  Biso   1.000  H
  N55      1.0000 0.86663  0.77273  0.57591  Biso   1.000  N
  H391     1.0000 0.93470  0.82714  0.53685  Biso   1.000  H
  C403     1.0000 0.99755  0.82983  0.77071  Biso   1.000  C
  C404     1.0000 0.14529  0.18154  0.85122  Biso   1.000  C
  C405     1.0000 0.19027  0.11604  0.83476  Biso   1.000  C
  C406     1.0000 0.14525  0.18154  0.85122  Biso   1.000  C
  C407     1.0000 0.02724  0.28187  0.51507  Biso   1.000  C
  C408     1.0000 0.02720  0.28187  0.51507  Biso   1.000  C
  C409     1.0000 0.93395  0.17777  0.53761  Biso   1.000  C
  H392     1.0000 0.99235  0.25157  0.58058  Biso   1.000  H
  C410     1.0000 0.93391  0.17777  0.53761  Biso   1.000  C
  H393     1.0000 0.99231  0.25157  0.58058  Biso   1.000  H
  C411     1.0000 0.82222  0.75617  0.53761  Biso   1.000  C
  C412     1.0000 0.98696  0.83073  0.81969  Biso   1.000  C
  H394     1.0000 0.13199  0.20995  0.84102  Biso   1.000  H
  C413     1.0000 0.14047  0.16512  0.89816  Biso   1.000  C
  H395     1.0000 0.13192  0.20990  0.84102  Biso   1.000  H
  C414     1.0000 0.14043  0.16512  0.89816  Biso   1.000  C
  C415     1.0000 0.18627  0.09971  0.88160  Biso   1.000  C
  H396     1.0000 0.20747  0.09943  0.81312  Biso   1.000  H
  C416     1.0000 0.18623  0.09971  0.88160  Biso   1.000  C
  H397     1.0000 0.20742  0.09943  0.81312  Biso   1.000  H
  H398     1.0000 0.03992  0.26464  0.48877  Biso   1.000  H
  H399     1.0000 0.06591  0.31825  0.52765  Biso   1.000  H
  C417     1.0000 0.98392  0.30476  0.49727  Biso   1.000  C
  N56      1.0000 0.90611  0.13336  0.57591  Biso   1.000  N
  H400     1.0000 0.94023  0.15526  0.51106  Biso   1.000  H
  C418     1.0000 0.89104  0.20278  0.52174  Biso   1.000  C
  H401     1.0000 0.94019  0.15526  0.51106  Biso   1.000  H
  C419     1.0000 0.89100  0.20278  0.52174  Biso   1.000  C
  H402     1.0000 0.84478  0.78495  0.51106  Biso   1.000  H
  C420     1.0000 0.79725  0.68826  0.52174  Biso   1.000  C
  C421     1.0000 0.76819  0.76598  0.55203  Biso   1.000  C
  H403     1.0000 0.84470  0.78495  0.51106  Biso   1.000  H
  C422     1.0000 0.76809  0.76594  0.55203  Biso   1.000  C
  C423     1.0000 0.92575  0.80973  0.83476  Biso   1.000  C
  C424     1.0000 0.03633  0.85475  0.85122  Biso   1.000  C
  C425     1.0000 0.03622  0.85470  0.85122  Biso   1.000  C
  C426     1.0000 0.16086  0.12482  0.91220  Biso   1.000  C
  C427     1.0000 0.11227  0.18834  0.93245  Biso   1.000  C
  C428     1.0000 0.16082  0.12482  0.91220  Biso   1.000  C
  C429     1.0000 0.11223  0.18834  0.93245  Biso   1.000  C
  C430     1.0000 0.20999  0.05804  0.89602  Biso   1.000  C
  C431     1.0000 0.20994  0.05804  0.89602  Biso   1.000  C
  H404     1.0000 0.00394  0.33335  0.47065  Biso   1.000  H
  H405     1.0000 0.00390  0.33335  0.47065  Biso   1.000  H
  C432     1.0000 0.92103  0.24959  0.48261  Biso   1.000  C
  H406     1.0000 0.97705  0.32887  0.52188  Biso   1.000  H
  C433     1.0000 0.92100  0.24954  0.48261  Biso   1.000  C
  H407     1.0000 0.97701  0.32887  0.52188  Biso   1.000  H
  C434     1.0000 0.88772  0.07607  0.56755  Biso   1.000  C
  H408     1.0000 0.85013  0.16705  0.51137  Biso   1.000  H
  H409     1.0000 0.88274  0.22345  0.54805  Biso   1.000  H
  H410     1.0000 0.85009  0.16705  0.51137  Biso   1.000  H
  H411     1.0000 0.88270  0.22345  0.54805  Biso   1.000  H
  H412     1.0000 0.83299  0.68307  0.51137  Biso   1.000  H
  H413     1.0000 0.77660  0.65929  0.54805  Biso   1.000  H
  C435     1.0000 0.75044  0.67146  0.48261  Biso   1.000  C
  H414     1.0000 0.83295  0.68307  0.51137  Biso   1.000  H
  H415     1.0000 0.77649  0.65924  0.54805  Biso   1.000  H
  N57      1.0000 0.79255  0.83285  0.56260  Biso   1.000  N
  C436     1.0000 0.71816  0.74536  0.51507  Biso   1.000  C
  H416     1.0000 0.74848  0.74078  0.58058  Biso   1.000  H
  H417     1.0000 0.74846  0.74074  0.58058  Biso   1.000  H
  C437     1.0000 0.91349  0.81374  0.88160  Biso   1.000  C
  H418     1.0000 0.89203  0.79255  0.81312  Biso   1.000  H
  H419     1.0000 0.89196  0.79250  0.81312  Biso   1.000  H
  H420     1.0000 0.07797  0.86806  0.84102  Biso   1.000  H
  C438     1.0000 0.02465  0.85951  0.89816  Biso   1.000  C
  H421     1.0000 0.07794  0.86801  0.84102  Biso   1.000  H
  H422     1.0000 0.15739  0.11354  0.94393  Biso   1.000  H
  H423     1.0000 0.15735  0.11354  0.94393  Biso   1.000  H
  N58      1.0000 0.09387  0.22722  0.92409  Biso   1.000  N
  H424     1.0000 0.10758  0.17281  0.96315  Biso   1.000  H
  N59      1.0000 0.09383  0.22722  0.92409  Biso   1.000  N
  H425     1.0000 0.10753  0.17281  0.96315  Biso   1.000  H
  N60      1.0000 0.20747  0.04035  0.93740  Biso   1.000  N
  H426     1.0000 0.22796  0.04365  0.87334  Biso   1.000  H
  N61      1.0000 0.20745  0.04030  0.93740  Biso   1.000  N
  H427     1.0000 0.22794  0.04360  0.87334  Biso   1.000  H
  H428     1.0000 0.92732  0.22826  0.45575  Biso   1.000  H
  H429     1.0000 0.89244  0.26516  0.47307  Biso   1.000  H
  H430     1.0000 0.89240  0.26516  0.47307  Biso   1.000  H
  C439     1.0000 0.85953  0.02468  0.60184  Biso   1.000  C
  H431     1.0000 0.89241  0.06526  0.53685  Biso   1.000  H
  C440     1.0000 0.85951  0.02463  0.60184  Biso   1.000  C
  H432     1.0000 0.77176  0.69907  0.45575  Biso   1.000  H
  H433     1.0000 0.73487  0.62724  0.47307  Biso   1.000  H
  C441     1.0000 0.69527  0.67915  0.49727  Biso   1.000  C
  H434     1.0000 0.73479  0.62724  0.47307  Biso   1.000  H
  C442     1.0000 0.69519  0.67915  0.49727  Biso   1.000  C
  C443     1.0000 0.79002  0.84805  0.60398  Biso   1.000  C
  H435     1.0000 0.73532  0.77528  0.48877  Biso   1.000  H
  H436     1.0000 0.68180  0.74767  0.52765  Biso   1.000  H
  H437     1.0000 0.68176  0.74767  0.52765  Biso   1.000  H
  C444     1.0000 0.96399  0.83913  0.91220  Biso   1.000  C
  C445     1.0000 0.84807  0.79005  0.89602  Biso   1.000  C
  C446     1.0000 0.84804  0.79000  0.89602  Biso   1.000  C
  C447     1.0000 0.07612  0.88773  0.93245  Biso   1.000  C
  C448     1.0000 0.07608  0.88773  0.93245  Biso   1.000  C
  C449     1.0000 0.06605  0.24383  0.96239  Biso   1.000  C
  C450     1.0000 0.23186  0.99783  0.94797  Biso   1.000  C
  C451     1.0000 0.83918  0.96395  0.58780  Biso   1.000  C
  C452     1.0000 0.83914  0.96395  0.58780  Biso   1.000  C
  C453     1.0000 0.85475  0.03629  0.64878  Biso   1.000  C
  C454     1.0000 0.85469  0.03624  0.64878  Biso   1.000  C
  H438     1.0000 0.67111  0.64815  0.52188  Biso   1.000  H
  H439     1.0000 0.66662  0.67056  0.47065  Biso   1.000  H
  H440     1.0000 0.77207  0.81567  0.62666  Biso   1.000  H
  C455     1.0000 0.81377  0.91345  0.61840  Biso   1.000  C
  C456     1.0000 0.81373  0.91345  0.61840  Biso   1.000  C
  H441     1.0000 0.95621  0.84262  0.94393  Biso   1.000  H
  H442     1.0000 0.95617  0.84262  0.94393  Biso   1.000  H
  N62      1.0000 0.83293  0.79255  0.93740  Biso   1.000  N
  H443     1.0000 0.81572  0.77202  0.87334  Biso   1.000  H
  N63      1.0000 0.83282  0.79250  0.93740  Biso   1.000  N
  H444     1.0000 0.81564  0.77202  0.87334  Biso   1.000  H
  N64      1.0000 0.13338  0.90614  0.92409  Biso   1.000  N
  H445     1.0000 0.06528  0.89245  0.96315  Biso   1.000  H
  N65      1.0000 0.13336  0.90609  0.92409  Biso   1.000  N
  H446     1.0000 0.06525  0.89241  0.96315  Biso   1.000  H
  H447     1.0000 0.05979  0.21505  0.98894  Biso   1.000  H
  C457     1.0000 0.10895  0.31174  0.97826  Biso   1.000  C
  C458     1.0000 0.00217  0.23402  0.94797  Biso   1.000  C
  H448     1.0000 0.05972  0.21500  0.98894  Biso   1.000  H
  C459     1.0000 0.00213  0.23402  0.94797  Biso   1.000  C
  C460     1.0000 0.28187  0.02723  0.98493  Biso   1.000  C
  C461     1.0000 0.28183  0.02723  0.98493  Biso   1.000  C
  C462     1.0000 0.17780  0.93393  0.96239  Biso   1.000  C
  H449     1.0000 0.25160  0.99236  0.91942  Biso   1.000  H
  H450     1.0000 0.25158  0.99231  0.91942  Biso   1.000  H
  H451     1.0000 0.84268  0.95616  0.55607  Biso   1.000  H
  H452     1.0000 0.84264  0.95616  0.55607  Biso   1.000  H
  C463     1.0000 0.83075  0.98698  0.68031  Biso   1.000  C
  H453     1.0000 0.86803  0.07796  0.65898  Biso   1.000  H
  C464     1.0000 0.80975  0.92577  0.66524  Biso   1.000  C
  C465     1.0000 0.80971  0.92577  0.66524  Biso   1.000  C
  C466     1.0000 0.76601  0.76815  0.94797  Biso   1.000  C
  C467     1.0000 0.76599  0.76811  0.94797  Biso   1.000  C
  H454     1.0000 0.14988  0.31693  0.98863  Biso   1.000  H
  H455     1.0000 0.11727  0.34071  0.95195  Biso   1.000  H
  H456     1.0000 0.14984  0.31693  0.98863  Biso   1.000  H
  H457     1.0000 0.11723  0.34071  0.95195  Biso   1.000  H
  C468     1.0000 0.07898  0.32854  0.01739  Biso   1.000  C
  C469     1.0000 0.07894  0.32854  0.01739  Biso   1.000  C
  H458     1.0000 0.00766  0.25922  0.91942  Biso   1.000  H
  N66      1.0000 0.95966  0.16715  0.93740  Biso   1.000  N
  C470     1.0000 0.97276  0.25464  0.98493  Biso   1.000  C
  N67      1.0000 0.95964  0.16710  0.93740  Biso   1.000  N
  C471     1.0000 0.97280  0.25464  0.98493  Biso   1.000  C
  H459     1.0000 0.31826  0.06592  0.97235  Biso   1.000  H
  C472     1.0000 0.30478  0.98396  0.00273  Biso   1.000  C
  C473     1.0000 0.30476  0.98391  0.00273  Biso   1.000  C
  H460     1.0000 0.26468  0.03992  0.01123  Biso   1.000  H
  H461     1.0000 0.26464  0.03992  0.01123  Biso   1.000  H
  H462     1.0000 0.15524  0.94021  0.98894  Biso   1.000  H
  C474     1.0000 0.20278  0.89104  0.97826  Biso   1.000  C
  C475     1.0000 0.82987  0.99755  0.72929  Biso   1.000  C
  C476     1.0000 0.82978  0.99755  0.72929  Biso   1.000  C
  H463     1.0000 0.79253  0.89198  0.68688  Biso   1.000  H
  H464     1.0000 0.79251  0.89193  0.68688  Biso   1.000  H
  C477     1.0000 0.75619  0.82223  0.96239  Biso   1.000  C
  C478     1.0000 0.74541  0.71813  0.98493  Biso   1.000  C
  H465     1.0000 0.74082  0.74843  0.91942  Biso   1.000  H
  C479     1.0000 0.75615  0.82223  0.96239  Biso   1.000  C
  C480     1.0000 0.74533  0.71813  0.98493  Biso   1.000  C
  H466     1.0000 0.74078  0.74843  0.91942  Biso   1.000  H
  H467     1.0000 0.07265  0.30093  0.04425  Biso   1.000  H
  H468     1.0000 0.10758  0.37276  0.02693  Biso   1.000  H
  C481     1.0000 0.01608  0.32085  0.00273  Biso   1.000  C
  H469     1.0000 0.10752  0.37271  0.02693  Biso   1.000  H
  C482     1.0000 0.01601  0.32080  0.00273  Biso   1.000  C
  C483     1.0000 0.94197  0.15195  0.89602  Biso   1.000  C
  C484     1.0000 0.94195  0.15191  0.89602  Biso   1.000  C
  H470     1.0000 0.93408  0.25233  0.97235  Biso   1.000  H
  H471     1.0000 0.93404  0.25233  0.97235  Biso   1.000  H
  H472     1.0000 0.96005  0.22472  0.01123  Biso   1.000  H
  H473     1.0000 0.32890  0.97702  0.97812  Biso   1.000  H
  C485     1.0000 0.24963  0.92105  0.01739  Biso   1.000  C
  C486     1.0000 0.24952  0.92100  0.01739  Biso   1.000  C
  H474     1.0000 0.33336  0.00392  0.02935  Biso   1.000  H
  H475     1.0000 0.16704  0.85012  0.98863  Biso   1.000  H
  H476     1.0000 0.22352  0.88273  0.95195  Biso   1.000  H
  H477     1.0000 0.22344  0.88273  0.95195  Biso   1.000  H
  C487     1.0000 0.83228  0.00245  0.77071  Biso   1.000  C
  C488     1.0000 0.83221  0.00241  0.77071  Biso   1.000  C
  N68      1.0000 0.77275  0.86664  0.92409  Biso   1.000  N
  H478     1.0000 0.78501  0.84474  0.98894  Biso   1.000  H
  C489     1.0000 0.68830  0.79722  0.97826  Biso   1.000  C
  H479     1.0000 0.78497  0.84474  0.98894  Biso   1.000  H
  C490     1.0000 0.68826  0.79722  0.97826  Biso   1.000  C
  H480     1.0000 0.74770  0.68175  0.97235  Biso   1.000  H
  H481     1.0000 0.74767  0.68170  0.97235  Biso   1.000  H
  C491     1.0000 0.67916  0.69524  0.00273  Biso   1.000  C
  H482     1.0000 0.77532  0.73536  0.01123  Biso   1.000  H
  H483     1.0000 0.77529  0.73531  0.01123  Biso   1.000  H
  H484     1.0000 0.02296  0.35185  0.97812  Biso   1.000  H
  H485     1.0000 0.02293  0.35180  0.97812  Biso   1.000  H
  H486     1.0000 0.99606  0.32944  0.02935  Biso   1.000  H
  H487     1.0000 0.99610  0.32944  0.02935  Biso   1.000  H
  H488     1.0000 0.95636  0.18433  0.87334  Biso   1.000  H
  C492     1.0000 0.90028  0.08655  0.88160  Biso   1.000  C
  C493     1.0000 0.90021  0.08650  0.88160  Biso   1.000  C
  H489     1.0000 0.22824  0.92733  0.04425  Biso   1.000  H
  H490     1.0000 0.26516  0.89245  0.02693  Biso   1.000  H
  H491     1.0000 0.26514  0.89241  0.02693  Biso   1.000  H
  C494     1.0000 0.84378  0.01302  0.81969  Biso   1.000  C
  C495     1.0000 0.84373  0.01302  0.81969  Biso   1.000  C
  C496     1.0000 0.81165  0.92393  0.93245  Biso   1.000  C
  H492     1.0000 0.68312  0.83295  0.98863  Biso   1.000  H
  H493     1.0000 0.65929  0.77655  0.95195  Biso   1.000  H
  H494     1.0000 0.68303  0.83295  0.98863  Biso   1.000  H
  H495     1.0000 0.65923  0.77651  0.95195  Biso   1.000  H
  C497     1.0000 0.67144  0.75041  0.01739  Biso   1.000  C
  H496     1.0000 0.64819  0.67113  0.97812  Biso   1.000  H
  H497     1.0000 0.67059  0.66665  0.02935  Biso   1.000  H
  H498     1.0000 0.67056  0.66660  0.02935  Biso   1.000  H
  C498     1.0000 0.87519  0.03605  0.91220  Biso   1.000  C
  C499     1.0000 0.88398  0.07423  0.83476  Biso   1.000  C
  C500     1.0000 0.87513  0.03601  0.91220  Biso   1.000  C
  C501     1.0000 0.88394  0.07423  0.83476  Biso   1.000  C
  C502     1.0000 0.81846  0.96371  0.85122  Biso   1.000  C
  C503     1.0000 0.83485  0.97532  0.89816  Biso   1.000  C
  H499     1.0000 0.82719  0.93474  0.96315  Biso   1.000  H
  H500     1.0000 0.69906  0.77174  0.04425  Biso   1.000  H
  H501     1.0000 0.62732  0.73484  0.02693  Biso   1.000  H
  H502     1.0000 0.62724  0.73484  0.02693  Biso   1.000  H
  H503     1.0000 0.88648  0.04384  0.94393  Biso   1.000  H
  H504     1.0000 0.88644  0.04384  0.94393  Biso   1.000  H
  H505     1.0000 0.90055  0.10802  0.81312  Biso   1.000  H
  H506     1.0000 0.90059  0.10802  0.81312  Biso   1.000  H
  H507     1.0000 0.79007  0.92204  0.84102  Biso   1.000  H
  C504     1.0000 0.31170  0.10896  0.52174  Biso   1.000  C
  C505     1.0000 0.32849  0.07895  0.48261  Biso   1.000  C
  C506     1.0000 0.24383  0.06607  0.53761  Biso   1.000  C
  H508     1.0000 0.31692  0.14988  0.51137  Biso   1.000  H
  H509     1.0000 0.34075  0.11727  0.54805  Biso   1.000  H
  C507     1.0000 0.32853  0.07895  0.48261  Biso   1.000  C
  H510     1.0000 0.34071  0.11727  0.54805  Biso   1.000  H
  H511     1.0000 0.30092  0.07267  0.45575  Biso   1.000  H
  H512     1.0000 0.37271  0.10755  0.47307  Biso   1.000  H
  C508     1.0000 0.31175  0.10896  0.52174  Biso   1.000  C
  C509     1.0000 0.32083  0.01604  0.49727  Biso   1.000  C
  C510     1.0000 0.32079  0.01604  0.49727  Biso   1.000  C
  C511     1.0000 0.23403  0.00217  0.55203  Biso   1.000  C
  N69      1.0000 0.22724  0.09386  0.57591  Biso   1.000  N
  H513     1.0000 0.21503  0.05979  0.51106  Biso   1.000  H
  N70      1.0000 0.22720  0.09386  0.57591  Biso   1.000  N
  H514     1.0000 0.21500  0.05974  0.51106  Biso   1.000  H
  C512     1.0000 0.25464  0.97277  0.51507  Biso   1.000  C
  H515     1.0000 0.35184  0.02298  0.52188  Biso   1.000  H
  H516     1.0000 0.35182  0.02293  0.52188  Biso   1.000  H
  H517     1.0000 0.32948  0.99608  0.47065  Biso   1.000  H
  H518     1.0000 0.32946  0.99604  0.47065  Biso   1.000  H
  H519     1.0000 0.25921  0.00764  0.58058  Biso   1.000  H
  N71      1.0000 0.16712  0.95965  0.56260  Biso   1.000  N
  C513     1.0000 0.18834  0.11227  0.56755  Biso   1.000  C
  C514     1.0000 0.18830  0.11227  0.56755  Biso   1.000  C
  H520     1.0000 0.22480  0.96008  0.48877  Biso   1.000  H
  H521     1.0000 0.25234  0.93408  0.52765  Biso   1.000  H
  H522     1.0000 0.22472  0.96008  0.48877  Biso   1.000  H
  C515     1.0000 0.15194  0.94196  0.60398  Biso   1.000  C
  H523     1.0000 0.17282  0.10755  0.53685  Biso   1.000  H
  C516     1.0000 0.16514  0.14049  0.60184  Biso   1.000  C
  C517     1.0000 0.16511  0.14044  0.60184  Biso   1.000  C
  C518     1.0000 0.08656  0.90029  0.61840  Biso   1.000  C
  H524     1.0000 0.18435  0.95635  0.62666  Biso   1.000  H
  C519     1.0000 0.08650  0.90024  0.61840  Biso   1.000  C
  C520     1.0000 0.12482  0.16087  0.58780  Biso   1.000  C
  C521     1.0000 0.18154  0.14525  0.64878  Biso   1.000  C
  C522     1.0000 0.18150  0.14525  0.64878  Biso   1.000  C
  C523     1.0000 0.03604  0.87518  0.58780  Biso   1.000  C
  C524     1.0000 0.07423  0.88396  0.66524  Biso   1.000  C
  C525     1.0000 0.03602  0.87513  0.58780  Biso   1.000  C
  C526     1.0000 0.09971  0.18626  0.61840  Biso   1.000  C
  H525     1.0000 0.11355  0.15738  0.55607  Biso   1.000  H
  H526     1.0000 0.11349  0.15733  0.55607  Biso   1.000  H
  H527     1.0000 0.20991  0.13194  0.65898  Biso   1.000  H
  C527     1.0000 0.15624  0.16927  0.68031  Biso   1.000  C
  C528     1.0000 0.15620  0.16927  0.68031  Biso   1.000  C
  H528     1.0000 0.04385  0.88646  0.55607  Biso   1.000  H
  C529     1.0000 0.97535  0.83488  0.60184  Biso   1.000  C
  C530     1.0000 0.97533  0.83483  0.60184  Biso   1.000  C
  C531     1.0000 0.01305  0.84375  0.68031  Biso   1.000  C
  H529     1.0000 0.10808  0.90057  0.68688  Biso   1.000  H
  H530     1.0000 0.10804  0.90057  0.68688  Biso   1.000  H
  C532     1.0000 0.05802  0.20995  0.60398  Biso   1.000  C
  C533     1.0000 0.11602  0.19027  0.66524  Biso   1.000  C
  C534     1.0000 0.16772  0.17017  0.72929  Biso   1.000  C
  C535     1.0000 0.96379  0.81846  0.64878  Biso   1.000  C
  C536     1.0000 0.92398  0.81166  0.56755  Biso   1.000  C
  C537     1.0000 0.96371  0.81846  0.64878  Biso   1.000  C
  C538     1.0000 0.92394  0.81166  0.56755  Biso   1.000  C
  C539     1.0000 0.00246  0.83229  0.72929  Biso   1.000  C
  C540     1.0000 0.00239  0.83224  0.72929  Biso   1.000  C
  N72      1.0000 0.04034  0.20745  0.56260  Biso   1.000  N
  H531     1.0000 0.04365  0.22798  0.62666  Biso   1.000  H
  N73      1.0000 0.04030  0.20745  0.56260  Biso   1.000  N
  H532     1.0000 0.04361  0.22798  0.62666  Biso   1.000  H
  H533     1.0000 0.09943  0.20745  0.68688  Biso   1.000  H
  H534     1.0000 0.09939  0.20745  0.68688  Biso   1.000  H
  C541     1.0000 0.17017  0.16771  0.77071  Biso   1.000  C
  C542     1.0000 0.17013  0.16771  0.77071  Biso   1.000  C
  H535     1.0000 0.92204  0.79005  0.65898  Biso   1.000  H
  H536     1.0000 0.92200  0.79005  0.65898  Biso   1.000  H
  N74      1.0000 0.86669  0.77278  0.57591  Biso   1.000  N
  H537     1.0000 0.93476  0.82719  0.53685  Biso   1.000  H
  N75      1.0000 0.86663  0.77273  0.57591  Biso   1.000  N
  H538     1.0000 0.93470  0.82714  0.53685  Biso   1.000  H
  C543     1.0000 0.99755  0.82983  0.77071  Biso   1.000  C
  C544     1.0000 0.99781  0.23185  0.55203  Biso   1.000  C
  C545     1.0000 0.16926  0.15625  0.81969  Biso   1.000  C
  C546     1.0000 0.16924  0.15620  0.81969  Biso   1.000  C
  C547     1.0000 0.82222  0.75617  0.53761  Biso   1.000  C
  C548     1.0000 0.98696  0.83073  0.81969  Biso   1.000  C
  C549     1.0000 0.02724  0.28187  0.51507  Biso   1.000  C
  C550     1.0000 0.02720  0.28187  0.51507  Biso   1.000  C
  C551     1.0000 0.93395  0.17777  0.53761  Biso   1.000  C
  H539     1.0000 0.99235  0.25157  0.58058  Biso   1.000  H
  C552     1.0000 0.93391  0.17777  0.53761  Biso   1.000  C
  H540     1.0000 0.99231  0.25157  0.58058  Biso   1.000  H
  C553     1.0000 0.19027  0.11604  0.83476  Biso   1.000  C
  C554     1.0000 0.14529  0.18154  0.85122  Biso   1.000  C
  C555     1.0000 0.14525  0.18154  0.85122  Biso   1.000  C
  H541     1.0000 0.84478  0.78495  0.51106  Biso   1.000  H
  C556     1.0000 0.79725  0.68826  0.52174  Biso   1.000  C
  C557     1.0000 0.76819  0.76598  0.55203  Biso   1.000  C
  H542     1.0000 0.84470  0.78495  0.51106  Biso   1.000  H
  C558     1.0000 0.76809  0.76594  0.55203  Biso   1.000  C
  C559     1.0000 0.92575  0.80973  0.83476  Biso   1.000  C
  C560     1.0000 0.03633  0.85475  0.85122  Biso   1.000  C
  C561     1.0000 0.03622  0.85470  0.85122  Biso   1.000  C
  H543     1.0000 0.03992  0.26464  0.48877  Biso   1.000  H
  H544     1.0000 0.06591  0.31825  0.52765  Biso   1.000  H
  C562     1.0000 0.98392  0.30476  0.49727  Biso   1.000  C
  N76      1.0000 0.90611  0.13336  0.57591  Biso   1.000  N
  H545     1.0000 0.94023  0.15526  0.51106  Biso   1.000  H
  C563     1.0000 0.89104  0.20278  0.52174  Biso   1.000  C
  H546     1.0000 0.94019  0.15526  0.51106  Biso   1.000  H
  C564     1.0000 0.89100  0.20278  0.52174  Biso   1.000  C
  C565     1.0000 0.18627  0.09971  0.88160  Biso   1.000  C
  H547     1.0000 0.20747  0.09943  0.81312  Biso   1.000  H
  C566     1.0000 0.18623  0.09971  0.88160  Biso   1.000  C
  H548     1.0000 0.20742  0.09943  0.81312  Biso   1.000  H
  H549     1.0000 0.13199  0.20995  0.84102  Biso   1.000  H
  C567     1.0000 0.14047  0.16512  0.89816  Biso   1.000  C
  H550     1.0000 0.13192  0.20990  0.84102  Biso   1.000  H
  C568     1.0000 0.14043  0.16512  0.89816  Biso   1.000  C
  C569     1.0000 0.75044  0.67146  0.48261  Biso   1.000  C
  H551     1.0000 0.83299  0.68307  0.51137  Biso   1.000  H
  H552     1.0000 0.77660  0.65929  0.54805  Biso   1.000  H
  H553     1.0000 0.83295  0.68307  0.51137  Biso   1.000  H
  H554     1.0000 0.77649  0.65924  0.54805  Biso   1.000  H
  N77      1.0000 0.79255  0.83285  0.56260  Biso   1.000  N
  C570     1.0000 0.71816  0.74536  0.51507  Biso   1.000  C
  H555     1.0000 0.74848  0.74078  0.58058  Biso   1.000  H
  H556     1.0000 0.74846  0.74074  0.58058  Biso   1.000  H
  C571     1.0000 0.91349  0.81374  0.88160  Biso   1.000  C
  H557     1.0000 0.89203  0.79255  0.81312  Biso   1.000  H
  H558     1.0000 0.89196  0.79250  0.81312  Biso   1.000  H
  H559     1.0000 0.07797  0.86806  0.84102  Biso   1.000  H
  C572     1.0000 0.02465  0.85951  0.89816  Biso   1.000  C
  H560     1.0000 0.07794  0.86801  0.84102  Biso   1.000  H
  H561     1.0000 0.00394  0.33335  0.47065  Biso   1.000  H
  H562     1.0000 0.00390  0.33335  0.47065  Biso   1.000  H
  C573     1.0000 0.92103  0.24959  0.48261  Biso   1.000  C
  H563     1.0000 0.97705  0.32887  0.52188  Biso   1.000  H
  C574     1.0000 0.92100  0.24954  0.48261  Biso   1.000  C
  H564     1.0000 0.97701  0.32887  0.52188  Biso   1.000  H
  C575     1.0000 0.88772  0.07607  0.56755  Biso   1.000  C
  H565     1.0000 0.85013  0.16705  0.51137  Biso   1.000  H
  H566     1.0000 0.88274  0.22345  0.54805  Biso   1.000  H
  H567     1.0000 0.85009  0.16705  0.51137  Biso   1.000  H
  H568     1.0000 0.88270  0.22345  0.54805  Biso   1.000  H
  C576     1.0000 0.20999  0.05804  0.89602  Biso   1.000  C
  C577     1.0000 0.16086  0.12482  0.91220  Biso   1.000  C
  C578     1.0000 0.20994  0.05804  0.89602  Biso   1.000  C
  C579     1.0000 0.16082  0.12482  0.91220  Biso   1.000  C
  C580     1.0000 0.11227  0.18834  0.93245  Biso   1.000  C
  C581     1.0000 0.11223  0.18834  0.93245  Biso   1.000  C
  H569     1.0000 0.77176  0.69907  0.45575  Biso   1.000  H
  H570     1.0000 0.73487  0.62724  0.47307  Biso   1.000  H
  C582     1.0000 0.69527  0.67915  0.49727  Biso   1.000  C
  H571     1.0000 0.73479  0.62724  0.47307  Biso   1.000  H
  C583     1.0000 0.69519  0.67915  0.49727  Biso   1.000  C
  C584     1.0000 0.79002  0.84805  0.60398  Biso   1.000  C
  H572     1.0000 0.73532  0.77528  0.48877  Biso   1.000  H
  H573     1.0000 0.68180  0.74767  0.52765  Biso   1.000  H
  H574     1.0000 0.68176  0.74767  0.52765  Biso   1.000  H
  C585     1.0000 0.96399  0.83913  0.91220  Biso   1.000  C
  C586     1.0000 0.84807  0.79005  0.89602  Biso   1.000  C
  C587     1.0000 0.84804  0.79000  0.89602  Biso   1.000  C
  C588     1.0000 0.07612  0.88773  0.93245  Biso   1.000  C
  C589     1.0000 0.07608  0.88773  0.93245  Biso   1.000  C
  H575     1.0000 0.92732  0.22826  0.45575  Biso   1.000  H
  H576     1.0000 0.89244  0.26516  0.47307  Biso   1.000  H
  H577     1.0000 0.89240  0.26516  0.47307  Biso   1.000  H
  C590     1.0000 0.85953  0.02468  0.60184  Biso   1.000  C
  H578     1.0000 0.89241  0.06526  0.53685  Biso   1.000  H
  C591     1.0000 0.85951  0.02463  0.60184  Biso   1.000  C
  N78      1.0000 0.20747  0.04035  0.93740  Biso   1.000  N
  H579     1.0000 0.22796  0.04365  0.87334  Biso   1.000  H
  N79      1.0000 0.20745  0.04030  0.93740  Biso   1.000  N
  H580     1.0000 0.22794  0.04360  0.87334  Biso   1.000  H
  H581     1.0000 0.15739  0.11354  0.94393  Biso   1.000  H
  H582     1.0000 0.15735  0.11354  0.94393  Biso   1.000  H
  N80      1.0000 0.09387  0.22722  0.92409  Biso   1.000  N
  H583     1.0000 0.10758  0.17281  0.96315  Biso   1.000  H
  N81      1.0000 0.09383  0.22722  0.92409  Biso   1.000  N
  H584     1.0000 0.10753  0.17281  0.96315  Biso   1.000  H
  H585     1.0000 0.67111  0.64815  0.52188  Biso   1.000  H
  H586     1.0000 0.66662  0.67056  0.47065  Biso   1.000  H
  H587     1.0000 0.77207  0.81567  0.62666  Biso   1.000  H
  C592     1.0000 0.81377  0.91345  0.61840  Biso   1.000  C
  C593     1.0000 0.81373  0.91345  0.61840  Biso   1.000  C
  H588     1.0000 0.95621  0.84262  0.94393  Biso   1.000  H
  H589     1.0000 0.95617  0.84262  0.94393  Biso   1.000  H
  N82      1.0000 0.83293  0.79255  0.93740  Biso   1.000  N
  H590     1.0000 0.81572  0.77202  0.87334  Biso   1.000  H
  N83      1.0000 0.83282  0.79250  0.93740  Biso   1.000  N
  H591     1.0000 0.81564  0.77202  0.87334  Biso   1.000  H
  N84      1.0000 0.13338  0.90614  0.92409  Biso   1.000  N
  H592     1.0000 0.06528  0.89245  0.96315  Biso   1.000  H
  N85      1.0000 0.13336  0.90609  0.92409  Biso   1.000  N
  H593     1.0000 0.06525  0.89241  0.96315  Biso   1.000  H
  C594     1.0000 0.83918  0.96395  0.58780  Biso   1.000  C
  C595     1.0000 0.83914  0.96395  0.58780  Biso   1.000  C
  C596     1.0000 0.85475  0.03629  0.64878  Biso   1.000  C
  C597     1.0000 0.85469  0.03624  0.64878  Biso   1.000  C
  C598     1.0000 0.23186  0.99783  0.94797  Biso   1.000  C
  C599     1.0000 0.06605  0.24383  0.96239  Biso   1.000  C
  C600     1.0000 0.80975  0.92577  0.66524  Biso   1.000  C
  C601     1.0000 0.80971  0.92577  0.66524  Biso   1.000  C
  C602     1.0000 0.76601  0.76815  0.94797  Biso   1.000  C
  C603     1.0000 0.76599  0.76811  0.94797  Biso   1.000  C
  C604     1.0000 0.17780  0.93393  0.96239  Biso   1.000  C
  H594     1.0000 0.84268  0.95616  0.55607  Biso   1.000  H
  H595     1.0000 0.84264  0.95616  0.55607  Biso   1.000  H
  C605     1.0000 0.83075  0.98698  0.68031  Biso   1.000  C
  H596     1.0000 0.86803  0.07796  0.65898  Biso   1.000  H
  C606     1.0000 0.28187  0.02723  0.98493  Biso   1.000  C
  C607     1.0000 0.28183  0.02723  0.98493  Biso   1.000  C
  H597     1.0000 0.25160  0.99236  0.91942  Biso   1.000  H
  H598     1.0000 0.25158  0.99231  0.91942  Biso   1.000  H
  C608     1.0000 0.10895  0.31174  0.97826  Biso   1.000  C
  H599     1.0000 0.05979  0.21505  0.98894  Biso   1.000  H
  C609     1.0000 0.00217  0.23402  0.94797  Biso   1.000  C
  H600     1.0000 0.05972  0.21500  0.98894  Biso   1.000  H
  C610     1.0000 0.00213  0.23402  0.94797  Biso   1.000  C
  H601     1.0000 0.79253  0.89198  0.68688  Biso   1.000  H
  H602     1.0000 0.79251  0.89193  0.68688  Biso   1.000  H
  C611     1.0000 0.75619  0.82223  0.96239  Biso   1.000  C
  C612     1.0000 0.74541  0.71813  0.98493  Biso   1.000  C
  H603     1.0000 0.74082  0.74843  0.91942  Biso   1.000  H
  C613     1.0000 0.75615  0.82223  0.96239  Biso   1.000  C
  C614     1.0000 0.74533  0.71813  0.98493  Biso   1.000  C
  H604     1.0000 0.74078  0.74843  0.91942  Biso   1.000  H
  C615     1.0000 0.20278  0.89104  0.97826  Biso   1.000  C
  H605     1.0000 0.15524  0.94021  0.98894  Biso   1.000  H
  C616     1.0000 0.82987  0.99755  0.72929  Biso   1.000  C
  C617     1.0000 0.82978  0.99755  0.72929  Biso   1.000  C
  H606     1.0000 0.31826  0.06592  0.97235  Biso   1.000  H
  C618     1.0000 0.30478  0.98396  0.00273  Biso   1.000  C
  C619     1.0000 0.30476  0.98391  0.00273  Biso   1.000  C
  H607     1.0000 0.26468  0.03992  0.01123  Biso   1.000  H
  H608     1.0000 0.26464  0.03992  0.01123  Biso   1.000  H
  H609     1.0000 0.14988  0.31693  0.98863  Biso   1.000  H
  H610     1.0000 0.11727  0.34071  0.95195  Biso   1.000  H
  H611     1.0000 0.14984  0.31693  0.98863  Biso   1.000  H
  H612     1.0000 0.11723  0.34071  0.95195  Biso   1.000  H
  C620     1.0000 0.07898  0.32854  0.01739  Biso   1.000  C
  C621     1.0000 0.07894  0.32854  0.01739  Biso   1.000  C
  H613     1.0000 0.00766  0.25922  0.91942  Biso   1.000  H
  N86      1.0000 0.95966  0.16715  0.93740  Biso   1.000  N
  C622     1.0000 0.97276  0.25464  0.98493  Biso   1.000  C
  N87      1.0000 0.95964  0.16710  0.93740  Biso   1.000  N
  C623     1.0000 0.97280  0.25464  0.98493  Biso   1.000  C
  N88      1.0000 0.77275  0.86664  0.92409  Biso   1.000  N
  H614     1.0000 0.78501  0.84474  0.98894  Biso   1.000  H
  C624     1.0000 0.68830  0.79722  0.97826  Biso   1.000  C
  H615     1.0000 0.78497  0.84474  0.98894  Biso   1.000  H
  C625     1.0000 0.68826  0.79722  0.97826  Biso   1.000  C
  H616     1.0000 0.74770  0.68175  0.97235  Biso   1.000  H
  H617     1.0000 0.74767  0.68170  0.97235  Biso   1.000  H
  C626     1.0000 0.67916  0.69524  0.00273  Biso   1.000  C
  H618     1.0000 0.77532  0.73536  0.01123  Biso   1.000  H
  H619     1.0000 0.77529  0.73531  0.01123  Biso   1.000  H
  H620     1.0000 0.16704  0.85012  0.98863  Biso   1.000  H
  H621     1.0000 0.22352  0.88273  0.95195  Biso   1.000  H
  H622     1.0000 0.22344  0.88273  0.95195  Biso   1.000  H
  C627     1.0000 0.24963  0.92105  0.01739  Biso   1.000  C
  C628     1.0000 0.24952  0.92100  0.01739  Biso   1.000  C
  C629     1.0000 0.83228  0.00245  0.77071  Biso   1.000  C
  C630     1.0000 0.83221  0.00241  0.77071  Biso   1.000  C
  H623     1.0000 0.32890  0.97702  0.97812  Biso   1.000  H
  H624     1.0000 0.33336  0.00392  0.02935  Biso   1.000  H
  H625     1.0000 0.07265  0.30093  0.04425  Biso   1.000  H
  H626     1.0000 0.10758  0.37276  0.02693  Biso   1.000  H
  C631     1.0000 0.01608  0.32085  0.00273  Biso   1.000  C
  H627     1.0000 0.10752  0.37271  0.02693  Biso   1.000  H
  C632     1.0000 0.01601  0.32080  0.00273  Biso   1.000  C
  C633     1.0000 0.94197  0.15195  0.89602  Biso   1.000  C
  C634     1.0000 0.94195  0.15191  0.89602  Biso   1.000  C
  H628     1.0000 0.93408  0.25233  0.97235  Biso   1.000  H
  H629     1.0000 0.93404  0.25233  0.97235  Biso   1.000  H
  H630     1.0000 0.96005  0.22472  0.01123  Biso   1.000  H
  C635     1.0000 0.81165  0.92393  0.93245  Biso   1.000  C
  H631     1.0000 0.68312  0.83295  0.98863  Biso   1.000  H
  H632     1.0000 0.65929  0.77655  0.95195  Biso   1.000  H
  H633     1.0000 0.68303  0.83295  0.98863  Biso   1.000  H
  H634     1.0000 0.65923  0.77651  0.95195  Biso   1.000  H
  C636     1.0000 0.67144  0.75041  0.01739  Biso   1.000  C
  H635     1.0000 0.64819  0.67113  0.97812  Biso   1.000  H
  H636     1.0000 0.67059  0.66665  0.02935  Biso   1.000  H
  H637     1.0000 0.67056  0.66660  0.02935  Biso   1.000  H
  H638     1.0000 0.22824  0.92733  0.04425  Biso   1.000  H
  H639     1.0000 0.26516  0.89245  0.02693  Biso   1.000  H
  H640     1.0000 0.26514  0.89241  0.02693  Biso   1.000  H
  C637     1.0000 0.84378  0.01302  0.81969  Biso   1.000  C
  C638     1.0000 0.84373  0.01302  0.81969  Biso   1.000  C
  H641     1.0000 0.02296  0.35185  0.97812  Biso   1.000  H
  H642     1.0000 0.02293  0.35180  0.97812  Biso   1.000  H
  H643     1.0000 0.99606  0.32944  0.02935  Biso   1.000  H
  H644     1.0000 0.99610  0.32944  0.02935  Biso   1.000  H
  H645     1.0000 0.95636  0.18433  0.87334  Biso   1.000  H
  C639     1.0000 0.90028  0.08655  0.88160  Biso   1.000  C
  C640     1.0000 0.90021  0.08650  0.88160  Biso   1.000  C
  C641     1.0000 0.83485  0.97532  0.89816  Biso   1.000  C
  H646     1.0000 0.82719  0.93474  0.96315  Biso   1.000  H
  H647     1.0000 0.69906  0.77174  0.04425  Biso   1.000  H
  H648     1.0000 0.62732  0.73484  0.02693  Biso   1.000  H
  H649     1.0000 0.62724  0.73484  0.02693  Biso   1.000  H
  C642     1.0000 0.81846  0.96371  0.85122  Biso   1.000  C
  C643     1.0000 0.88398  0.07423  0.83476  Biso   1.000  C
  C644     1.0000 0.88394  0.07423  0.83476  Biso   1.000  C
  C645     1.0000 0.87519  0.03605  0.91220  Biso   1.000  C
  C646     1.0000 0.87513  0.03601  0.91220  Biso   1.000  C
  H650     1.0000 0.79007  0.92204  0.84102  Biso   1.000  H
  H651     1.0000 0.90055  0.10802  0.81312  Biso   1.000  H
  H652     1.0000 0.90059  0.10802  0.81312  Biso   1.000  H
  H653     1.0000 0.88648  0.04384  0.94393  Biso   1.000  H
  H654     1.0000 0.88644  0.04384  0.94393  Biso   1.000  H
  C647     1.0000 0.31170  0.10896  0.52174  Biso   1.000  C
  C648     1.0000 0.24383  0.06607  0.53761  Biso   1.000  C
  H655     1.0000 0.31692  0.14988  0.51137  Biso   1.000  H
  H656     1.0000 0.34075  0.11727  0.54805  Biso   1.000  H
  C649     1.0000 0.32853  0.07895  0.48261  Biso   1.000  C
  H657     1.0000 0.34071  0.11727  0.54805  Biso   1.000  H
  C650     1.0000 0.32849  0.07895  0.48261  Biso   1.000  C
  C651     1.0000 0.23403  0.00217  0.55203  Biso   1.000  C
  N89      1.0000 0.22724  0.09386  0.57591  Biso   1.000  N
  H658     1.0000 0.21503  0.05979  0.51106  Biso   1.000  H
  C652     1.0000 0.31175  0.10896  0.52174  Biso   1.000  C
  N90      1.0000 0.22720  0.09386  0.57591  Biso   1.000  N
  H659     1.0000 0.21500  0.05974  0.51106  Biso   1.000  H
  C653     1.0000 0.32083  0.01604  0.49727  Biso   1.000  C
  C654     1.0000 0.32079  0.01604  0.49727  Biso   1.000  C
  H660     1.0000 0.30092  0.07267  0.45575  Biso   1.000  H
  H661     1.0000 0.37271  0.10755  0.47307  Biso   1.000  H
  C655     1.0000 0.25464  0.97277  0.51507  Biso   1.000  C
  H662     1.0000 0.25921  0.00764  0.58058  Biso   1.000  H
  N91      1.0000 0.16712  0.95965  0.56260  Biso   1.000  N
  C656     1.0000 0.18834  0.11227  0.56755  Biso   1.000  C
  C657     1.0000 0.18830  0.11227  0.56755  Biso   1.000  C
  H663     1.0000 0.32948  0.99608  0.47065  Biso   1.000  H
  H664     1.0000 0.32946  0.99604  0.47065  Biso   1.000  H
  H665     1.0000 0.35184  0.02298  0.52188  Biso   1.000  H
  H666     1.0000 0.35182  0.02293  0.52188  Biso   1.000  H
  H667     1.0000 0.22480  0.96008  0.48877  Biso   1.000  H
  H668     1.0000 0.25234  0.93408  0.52765  Biso   1.000  H
  H669     1.0000 0.22472  0.96008  0.48877  Biso   1.000  H
  C658     1.0000 0.15194  0.94196  0.60398  Biso   1.000  C
  H670     1.0000 0.17282  0.10755  0.53685  Biso   1.000  H
  C659     1.0000 0.16514  0.14049  0.60184  Biso   1.000  C
  C660     1.0000 0.16511  0.14044  0.60184  Biso   1.000  C
  C661     1.0000 0.08656  0.90029  0.61840  Biso   1.000  C
  H671     1.0000 0.18435  0.95635  0.62666  Biso   1.000  H
  C662     1.0000 0.08650  0.90024  0.61840  Biso   1.000  C
  C663     1.0000 0.12482  0.16087  0.58780  Biso   1.000  C
  C664     1.0000 0.18154  0.14525  0.64878  Biso   1.000  C
  C665     1.0000 0.18150  0.14525  0.64878  Biso   1.000  C
  C666     1.0000 0.03604  0.87518  0.58780  Biso   1.000  C
  C667     1.0000 0.07423  0.88396  0.66524  Biso   1.000  C
  C668     1.0000 0.03602  0.87513  0.58780  Biso   1.000  C
  C669     1.0000 0.09971  0.18626  0.61840  Biso   1.000  C
  H672     1.0000 0.11355  0.15738  0.55607  Biso   1.000  H
  H673     1.0000 0.11349  0.15733  0.55607  Biso   1.000  H
  H674     1.0000 0.20991  0.13194  0.65898  Biso   1.000  H
  C670     1.0000 0.15624  0.16927  0.68031  Biso   1.000  C
  C671     1.0000 0.15620  0.16927  0.68031  Biso   1.000  C
  H675     1.0000 0.04385  0.88646  0.55607  Biso   1.000  H
  C672     1.0000 0.97535  0.83488  0.60184  Biso   1.000  C
  C673     1.0000 0.97533  0.83483  0.60184  Biso   1.000  C
  C674     1.0000 0.01305  0.84375  0.68031  Biso   1.000  C
  H676     1.0000 0.10808  0.90057  0.68688  Biso   1.000  H
  H677     1.0000 0.10804  0.90057  0.68688  Biso   1.000  H
  C675     1.0000 0.05802  0.20995  0.60398  Biso   1.000  C
  C676     1.0000 0.11602  0.19027  0.66524  Biso   1.000  C
  C677     1.0000 0.16772  0.17017  0.72929  Biso   1.000  C
  C678     1.0000 0.96379  0.81846  0.64878  Biso   1.000  C
  C679     1.0000 0.92398  0.81166  0.56755  Biso   1.000  C
  C680     1.0000 0.96371  0.81846  0.64878  Biso   1.000  C
  C681     1.0000 0.92394  0.81166  0.56755  Biso   1.000  C
  C682     1.0000 0.00246  0.83229  0.72929  Biso   1.000  C
  C683     1.0000 0.00239  0.83224  0.72929  Biso   1.000  C
  N92      1.0000 0.04034  0.20745  0.56260  Biso   1.000  N
  H678     1.0000 0.04365  0.22798  0.62666  Biso   1.000  H
  N93      1.0000 0.04030  0.20745  0.56260  Biso   1.000  N
  H679     1.0000 0.04361  0.22798  0.62666  Biso   1.000  H
  H680     1.0000 0.09943  0.20745  0.68688  Biso   1.000  H
  H681     1.0000 0.09939  0.20745  0.68688  Biso   1.000  H
  C684     1.0000 0.17017  0.16771  0.77071  Biso   1.000  C
  C685     1.0000 0.17013  0.16771  0.77071  Biso   1.000  C
  H682     1.0000 0.92204  0.79005  0.65898  Biso   1.000  H
  H683     1.0000 0.92200  0.79005  0.65898  Biso   1.000  H
  N94      1.0000 0.86669  0.77278  0.57591  Biso   1.000  N
  H684     1.0000 0.93476  0.82719  0.53685  Biso   1.000  H
  N95      1.0000 0.86663  0.77273  0.57591  Biso   1.000  N
  H685     1.0000 0.93470  0.82714  0.53685  Biso   1.000  H
  C686     1.0000 0.99755  0.82983  0.77071  Biso   1.000  C
  C687     1.0000 0.99781  0.23185  0.55203  Biso   1.000  C
  C688     1.0000 0.16926  0.15625  0.81969  Biso   1.000  C
  C689     1.0000 0.16924  0.15620  0.81969  Biso   1.000  C
  C690     1.0000 0.82222  0.75617  0.53761  Biso   1.000  C
  C691     1.0000 0.98696  0.83073  0.81969  Biso   1.000  C
  C692     1.0000 0.93395  0.17777  0.53761  Biso   1.000  C
  H686     1.0000 0.99235  0.25157  0.58058  Biso   1.000  H
  C693     1.0000 0.93391  0.17777  0.53761  Biso   1.000  C
  H687     1.0000 0.99231  0.25157  0.58058  Biso   1.000  H
  C694     1.0000 0.02724  0.28187  0.51507  Biso   1.000  C
  C695     1.0000 0.02720  0.28187  0.51507  Biso   1.000  C
  C696     1.0000 0.19027  0.11604  0.83476  Biso   1.000  C
  C697     1.0000 0.14529  0.18154  0.85122  Biso   1.000  C
  C698     1.0000 0.14525  0.18154  0.85122  Biso   1.000  C
  H688     1.0000 0.84478  0.78495  0.51106  Biso   1.000  H
  C699     1.0000 0.79725  0.68826  0.52174  Biso   1.000  C
  C700     1.0000 0.76819  0.76598  0.55203  Biso   1.000  C
  H689     1.0000 0.84470  0.78495  0.51106  Biso   1.000  H
  C701     1.0000 0.76809  0.76594  0.55203  Biso   1.000  C
  C702     1.0000 0.92575  0.80973  0.83476  Biso   1.000  C
  C703     1.0000 0.03633  0.85475  0.85122  Biso   1.000  C
  C704     1.0000 0.03622  0.85470  0.85122  Biso   1.000  C
  N96      1.0000 0.90611  0.13336  0.57591  Biso   1.000  N
  H690     1.0000 0.94023  0.15526  0.51106  Biso   1.000  H
  C705     1.0000 0.89104  0.20278  0.52174  Biso   1.000  C
  H691     1.0000 0.94019  0.15526  0.51106  Biso   1.000  H
  C706     1.0000 0.89100  0.20278  0.52174  Biso   1.000  C
  H692     1.0000 0.03992  0.26464  0.48877  Biso   1.000  H
  H693     1.0000 0.06591  0.31825  0.52765  Biso   1.000  H
  C707     1.0000 0.98392  0.30476  0.49727  Biso   1.000  C
  C708     1.0000 0.18627  0.09971  0.88160  Biso   1.000  C
  H694     1.0000 0.20747  0.09943  0.81312  Biso   1.000  H
  C709     1.0000 0.18623  0.09971  0.88160  Biso   1.000  C
  H695     1.0000 0.20742  0.09943  0.81312  Biso   1.000  H
  H696     1.0000 0.13199  0.20995  0.84102  Biso   1.000  H
  C710     1.0000 0.14047  0.16512  0.89816  Biso   1.000  C
  H697     1.0000 0.13192  0.20990  0.84102  Biso   1.000  H
  C711     1.0000 0.14043  0.16512  0.89816  Biso   1.000  C
  C712     1.0000 0.75044  0.67146  0.48261  Biso   1.000  C
  H698     1.0000 0.83299  0.68307  0.51137  Biso   1.000  H
  H699     1.0000 0.77660  0.65929  0.54805  Biso   1.000  H
  H700     1.0000 0.83295  0.68307  0.51137  Biso   1.000  H
  H701     1.0000 0.77649  0.65924  0.54805  Biso   1.000  H
  N97      1.0000 0.79255  0.83285  0.56260  Biso   1.000  N
  C713     1.0000 0.71816  0.74536  0.51507  Biso   1.000  C
  H702     1.0000 0.74848  0.74078  0.58058  Biso   1.000  H
  H703     1.0000 0.74846  0.74074  0.58058  Biso   1.000  H
  C714     1.0000 0.91349  0.81374  0.88160  Biso   1.000  C
  H704     1.0000 0.89203  0.79255  0.81312  Biso   1.000  H
  H705     1.0000 0.89196  0.79250  0.81312  Biso   1.000  H
  H706     1.0000 0.07797  0.86806  0.84102  Biso   1.000  H
  C715     1.0000 0.02465  0.85951  0.89816  Biso   1.000  C
  H707     1.0000 0.07794  0.86801  0.84102  Biso   1.000  H
  C716     1.0000 0.88772  0.07607  0.56755  Biso   1.000  C
  H708     1.0000 0.85013  0.16705  0.51137  Biso   1.000  H
  H709     1.0000 0.88274  0.22345  0.54805  Biso   1.000  H
  C717     1.0000 0.92103  0.24959  0.48261  Biso   1.000  C
  H710     1.0000 0.85009  0.16705  0.51137  Biso   1.000  H
  H711     1.0000 0.88270  0.22345  0.54805  Biso   1.000  H
  C718     1.0000 0.92100  0.24954  0.48261  Biso   1.000  C
  H712     1.0000 0.97705  0.32887  0.52188  Biso   1.000  H
  H713     1.0000 0.97701  0.32887  0.52188  Biso   1.000  H
  H714     1.0000 0.00394  0.33335  0.47065  Biso   1.000  H
  H715     1.0000 0.00390  0.33335  0.47065  Biso   1.000  H
  C719     1.0000 0.20999  0.05804  0.89602  Biso   1.000  C
  C720     1.0000 0.16086  0.12482  0.91220  Biso   1.000  C
  C721     1.0000 0.20994  0.05804  0.89602  Biso   1.000  C
  C722     1.0000 0.16082  0.12482  0.91220  Biso   1.000  C
  C723     1.0000 0.11227  0.18834  0.93245  Biso   1.000  C
  C724     1.0000 0.11223  0.18834  0.93245  Biso   1.000  C
  H716     1.0000 0.77176  0.69907  0.45575  Biso   1.000  H
  H717     1.0000 0.73487  0.62724  0.47307  Biso   1.000  H
  C725     1.0000 0.69527  0.67915  0.49727  Biso   1.000  C
  H718     1.0000 0.73479  0.62724  0.47307  Biso   1.000  H
  C726     1.0000 0.69519  0.67915  0.49727  Biso   1.000  C
  C727     1.0000 0.79002  0.84805  0.60398  Biso   1.000  C
  H719     1.0000 0.73532  0.77528  0.48877  Biso   1.000  H
  H720     1.0000 0.68180  0.74767  0.52765  Biso   1.000  H
  H721     1.0000 0.68176  0.74767  0.52765  Biso   1.000  H
  C728     1.0000 0.96399  0.83913  0.91220  Biso   1.000  C
  C729     1.0000 0.84807  0.79005  0.89602  Biso   1.000  C
  C730     1.0000 0.84804  0.79000  0.89602  Biso   1.000  C
  C731     1.0000 0.07612  0.88773  0.93245  Biso   1.000  C
  C732     1.0000 0.07608  0.88773  0.93245  Biso   1.000  C
  C733     1.0000 0.85953  0.02468  0.60184  Biso   1.000  C
  H722     1.0000 0.89241  0.06526  0.53685  Biso   1.000  H
  C734     1.0000 0.85951  0.02463  0.60184  Biso   1.000  C
  H723     1.0000 0.92732  0.22826  0.45575  Biso   1.000  H
  H724     1.0000 0.89244  0.26516  0.47307  Biso   1.000  H
  H725     1.0000 0.89240  0.26516  0.47307  Biso   1.000  H
  N98      1.0000 0.20747  0.04035  0.93740  Biso   1.000  N
  H726     1.0000 0.22796  0.04365  0.87334  Biso   1.000  H
  N99      1.0000 0.20745  0.04030  0.93740  Biso   1.000  N
  H727     1.0000 0.22794  0.04360  0.87334  Biso   1.000  H
  H728     1.0000 0.15739  0.11354  0.94393  Biso   1.000  H
  H729     1.0000 0.15735  0.11354  0.94393  Biso   1.000  H
  N100     1.0000 0.09387  0.22722  0.92409  Biso   1.000  N
  H730     1.0000 0.10758  0.17281  0.96315  Biso   1.000  H
  N101     1.0000 0.09383  0.22722  0.92409  Biso   1.000  N
  H731     1.0000 0.10753  0.17281  0.96315  Biso   1.000  H
  H732     1.0000 0.67111  0.64815  0.52188  Biso   1.000  H
  H733     1.0000 0.66662  0.67056  0.47065  Biso   1.000  H
  H734     1.0000 0.77207  0.81567  0.62666  Biso   1.000  H
  C735     1.0000 0.81377  0.91345  0.61840  Biso   1.000  C
  C736     1.0000 0.81373  0.91345  0.61840  Biso   1.000  C
  H735     1.0000 0.95621  0.84262  0.94393  Biso   1.000  H
  H736     1.0000 0.95617  0.84262  0.94393  Biso   1.000  H
  N102     1.0000 0.83293  0.79255  0.93740  Biso   1.000  N
  H737     1.0000 0.81572  0.77202  0.87334  Biso   1.000  H
  N103     1.0000 0.83282  0.79250  0.93740  Biso   1.000  N
  H738     1.0000 0.81564  0.77202  0.87334  Biso   1.000  H
  N104     1.0000 0.13338  0.90614  0.92409  Biso   1.000  N
  H739     1.0000 0.06528  0.89245  0.96315  Biso   1.000  H
  N105     1.0000 0.13336  0.90609  0.92409  Biso   1.000  N
  H740     1.0000 0.06525  0.89241  0.96315  Biso   1.000  H
  C737     1.0000 0.83918  0.96395  0.58780  Biso   1.000  C
  C738     1.0000 0.83914  0.96395  0.58780  Biso   1.000  C
  C739     1.0000 0.85475  0.03629  0.64878  Biso   1.000  C
  C740     1.0000 0.85469  0.03624  0.64878  Biso   1.000  C
  C741     1.0000 0.23186  0.99783  0.94797  Biso   1.000  C
  C742     1.0000 0.06605  0.24383  0.96239  Biso   1.000  C
  C743     1.0000 0.80975  0.92577  0.66524  Biso   1.000  C
  C744     1.0000 0.80971  0.92577  0.66524  Biso   1.000  C
  C745     1.0000 0.76601  0.76815  0.94797  Biso   1.000  C
  C746     1.0000 0.76599  0.76811  0.94797  Biso   1.000  C
  C747     1.0000 0.17780  0.93393  0.96239  Biso   1.000  C
  H741     1.0000 0.84268  0.95616  0.55607  Biso   1.000  H
  H742     1.0000 0.84264  0.95616  0.55607  Biso   1.000  H
  C748     1.0000 0.83075  0.98698  0.68031  Biso   1.000  C
  H743     1.0000 0.86803  0.07796  0.65898  Biso   1.000  H
  H744     1.0000 0.25160  0.99236  0.91942  Biso   1.000  H
  H745     1.0000 0.25158  0.99231  0.91942  Biso   1.000  H
  C749     1.0000 0.28187  0.02723  0.98493  Biso   1.000  C
  C750     1.0000 0.28183  0.02723  0.98493  Biso   1.000  C
  C751     1.0000 0.10895  0.31174  0.97826  Biso   1.000  C
  H746     1.0000 0.05979  0.21505  0.98894  Biso   1.000  H
  C752     1.0000 0.00217  0.23402  0.94797  Biso   1.000  C
  H747     1.0000 0.05972  0.21500  0.98894  Biso   1.000  H
  C753     1.0000 0.00213  0.23402  0.94797  Biso   1.000  C
  H748     1.0000 0.79253  0.89198  0.68688  Biso   1.000  H
  H749     1.0000 0.79251  0.89193  0.68688  Biso   1.000  H
  C754     1.0000 0.75619  0.82223  0.96239  Biso   1.000  C
  C755     1.0000 0.74541  0.71813  0.98493  Biso   1.000  C
  H750     1.0000 0.74082  0.74843  0.91942  Biso   1.000  H
  C756     1.0000 0.75615  0.82223  0.96239  Biso   1.000  C
  C757     1.0000 0.74533  0.71813  0.98493  Biso   1.000  C
  H751     1.0000 0.74078  0.74843  0.91942  Biso   1.000  H
  C758     1.0000 0.20278  0.89104  0.97826  Biso   1.000  C
  H752     1.0000 0.15524  0.94021  0.98894  Biso   1.000  H
  C759     1.0000 0.82987  0.99755  0.72929  Biso   1.000  C
  C760     1.0000 0.82978  0.99755  0.72929  Biso   1.000  C
  H753     1.0000 0.31826  0.06592  0.97235  Biso   1.000  H
  C761     1.0000 0.30478  0.98396  0.00273  Biso   1.000  C
  C762     1.0000 0.30476  0.98391  0.00273  Biso   1.000  C
  H754     1.0000 0.26468  0.03992  0.01123  Biso   1.000  H
  H755     1.0000 0.26464  0.03992  0.01123  Biso   1.000  H
  H756     1.0000 0.14988  0.31693  0.98863  Biso   1.000  H
  H757     1.0000 0.11727  0.34071  0.95195  Biso   1.000  H
  H758     1.0000 0.14984  0.31693  0.98863  Biso   1.000  H
  H759     1.0000 0.11723  0.34071  0.95195  Biso   1.000  H
  C763     1.0000 0.07898  0.32854  0.01739  Biso   1.000  C
  C764     1.0000 0.07894  0.32854  0.01739  Biso   1.000  C
  H760     1.0000 0.00766  0.25922  0.91942  Biso   1.000  H
  N106     1.0000 0.95966  0.16715  0.93740  Biso   1.000  N
  C765     1.0000 0.97276  0.25464  0.98493  Biso   1.000  C
  N107     1.0000 0.95964  0.16710  0.93740  Biso   1.000  N
  C766     1.0000 0.97280  0.25464  0.98493  Biso   1.000  C
  N108     1.0000 0.77275  0.86664  0.92409  Biso   1.000  N
  H761     1.0000 0.78501  0.84474  0.98894  Biso   1.000  H
  C767     1.0000 0.68830  0.79722  0.97826  Biso   1.000  C
  H762     1.0000 0.78497  0.84474  0.98894  Biso   1.000  H
  C768     1.0000 0.68826  0.79722  0.97826  Biso   1.000  C
  H763     1.0000 0.74770  0.68175  0.97235  Biso   1.000  H
  H764     1.0000 0.74767  0.68170  0.97235  Biso   1.000  H
  C769     1.0000 0.67916  0.69524  0.00273  Biso   1.000  C
  H765     1.0000 0.77532  0.73536  0.01123  Biso   1.000  H
  H766     1.0000 0.77529  0.73531  0.01123  Biso   1.000  H
  H767     1.0000 0.16704  0.85012  0.98863  Biso   1.000  H
  H768     1.0000 0.22352  0.88273  0.95195  Biso   1.000  H
  H769     1.0000 0.22344  0.88273  0.95195  Biso   1.000  H
  C770     1.0000 0.24963  0.92105  0.01739  Biso   1.000  C
  C771     1.0000 0.24952  0.92100  0.01739  Biso   1.000  C
  C772     1.0000 0.83228  0.00245  0.77071  Biso   1.000  C
  C773     1.0000 0.83221  0.00241  0.77071  Biso   1.000  C
  H770     1.0000 0.32890  0.97702  0.97812  Biso   1.000  H
  H771     1.0000 0.33336  0.00392  0.02935  Biso   1.000  H
  H772     1.0000 0.07265  0.30093  0.04425  Biso   1.000  H
  H773     1.0000 0.10758  0.37276  0.02693  Biso   1.000  H
  C774     1.0000 0.01608  0.32085  0.00273  Biso   1.000  C
  H774     1.0000 0.10752  0.37271  0.02693  Biso   1.000  H
  C775     1.0000 0.01601  0.32080  0.00273  Biso   1.000  C
  C776     1.0000 0.94197  0.15195  0.89602  Biso   1.000  C
  C777     1.0000 0.94195  0.15191  0.89602  Biso   1.000  C
  H775     1.0000 0.93408  0.25233  0.97235  Biso   1.000  H
  H776     1.0000 0.93404  0.25233  0.97235  Biso   1.000  H
  H777     1.0000 0.96005  0.22472  0.01123  Biso   1.000  H
  C778     1.0000 0.81165  0.92393  0.93245  Biso   1.000  C
  H778     1.0000 0.68312  0.83295  0.98863  Biso   1.000  H
  H779     1.0000 0.65929  0.77655  0.95195  Biso   1.000  H
  H780     1.0000 0.68303  0.83295  0.98863  Biso   1.000  H
  H781     1.0000 0.65923  0.77651  0.95195  Biso   1.000  H
  C779     1.0000 0.67144  0.75041  0.01739  Biso   1.000  C
  H782     1.0000 0.64819  0.67113  0.97812  Biso   1.000  H
  H783     1.0000 0.67059  0.66665  0.02935  Biso   1.000  H
  H784     1.0000 0.67056  0.66660  0.02935  Biso   1.000  H
  H785     1.0000 0.22824  0.92733  0.04425  Biso   1.000  H
  H786     1.0000 0.26516  0.89245  0.02693  Biso   1.000  H
  H787     1.0000 0.26514  0.89241  0.02693  Biso   1.000  H
  C780     1.0000 0.84378  0.01302  0.81969  Biso   1.000  C
  C781     1.0000 0.84373  0.01302  0.81969  Biso   1.000  C
  H788     1.0000 0.99606  0.32944  0.02935  Biso   1.000  H
  H789     1.0000 0.99610  0.32944  0.02935  Biso   1.000  H
  H790     1.0000 0.02296  0.35185  0.97812  Biso   1.000  H
  H791     1.0000 0.02293  0.35180  0.97812  Biso   1.000  H
  H792     1.0000 0.95636  0.18433  0.87334  Biso   1.000  H
  C782     1.0000 0.90028  0.08655  0.88160  Biso   1.000  C
  C783     1.0000 0.90021  0.08650  0.88160  Biso   1.000  C
  C784     1.0000 0.83485  0.97532  0.89816  Biso   1.000  C
  H793     1.0000 0.82719  0.93474  0.96315  Biso   1.000  H
  H794     1.0000 0.69906  0.77174  0.04425  Biso   1.000  H
  H795     1.0000 0.62732  0.73484  0.02693  Biso   1.000  H
  H796     1.0000 0.62724  0.73484  0.02693  Biso   1.000  H
  C785     1.0000 0.81846  0.96371  0.85122  Biso   1.000  C
  C786     1.0000 0.88398  0.07423  0.83476  Biso   1.000  C
  C787     1.0000 0.88394  0.07423  0.83476  Biso   1.000  C
  C788     1.0000 0.87519  0.03605  0.91220  Biso   1.000  C
  C789     1.0000 0.87513  0.03601  0.91220  Biso   1.000  C
  H797     1.0000 0.79007  0.92204  0.84102  Biso   1.000  H
  H798     1.0000 0.90055  0.10802  0.81312  Biso   1.000  H
  H799     1.0000 0.90059  0.10802  0.81312  Biso   1.000  H
  H800     1.0000 0.88648  0.04384  0.94393  Biso   1.000  H
  H801     1.0000 0.88644  0.04384  0.94393  Biso   1.000  H
  C790     1.0000 0.31170  0.10896  0.52174  Biso   1.000  C
  C791     1.0000 0.24383  0.06607  0.53761  Biso   1.000  C
  H802     1.0000 0.31692  0.14988  0.51137  Biso   1.000  H
  H803     1.0000 0.34075  0.11727  0.54805  Biso   1.000  H
  C792     1.0000 0.32853  0.07895  0.48261  Biso   1.000  C
  H804     1.0000 0.34071  0.11727  0.54805  Biso   1.000  H
  C793     1.0000 0.32849  0.07895  0.48261  Biso   1.000  C
  C794     1.0000 0.23403  0.00217  0.55203  Biso   1.000  C
  N109     1.0000 0.22724  0.09386  0.57591  Biso   1.000  N
  H805     1.0000 0.21503  0.05979  0.51106  Biso   1.000  H
  C795     1.0000 0.31175  0.10896  0.52174  Biso   1.000  C
  N110     1.0000 0.22720  0.09386  0.57591  Biso   1.000  N
  H806     1.0000 0.21500  0.05974  0.51106  Biso   1.000  H
  C796     1.0000 0.32083  0.01604  0.49727  Biso   1.000  C
  C797     1.0000 0.32079  0.01604  0.49727  Biso   1.000  C
  H807     1.0000 0.30092  0.07267  0.45575  Biso   1.000  H
  H808     1.0000 0.37271  0.10755  0.47307  Biso   1.000  H
  C798     1.0000 0.25464  0.97277  0.51507  Biso   1.000  C
  H809     1.0000 0.25921  0.00764  0.58058  Biso   1.000  H
  N111     1.0000 0.16712  0.95965  0.56260  Biso   1.000  N
  C799     1.0000 0.18834  0.11227  0.56755  Biso   1.000  C
  C800     1.0000 0.18830  0.11227  0.56755  Biso   1.000  C
  H810     1.0000 0.32948  0.99608  0.47065  Biso   1.000  H
  H811     1.0000 0.32946  0.99604  0.47065  Biso   1.000  H
  H812     1.0000 0.35184  0.02298  0.52188  Biso   1.000  H
  H813     1.0000 0.35182  0.02293  0.52188  Biso   1.000  H
  H814     1.0000 0.22480  0.96008  0.48877  Biso   1.000  H
  H815     1.0000 0.25234  0.93408  0.52765  Biso   1.000  H
  H816     1.0000 0.22472  0.96008  0.48877  Biso   1.000  H
  C801     1.0000 0.15194  0.94196  0.60398  Biso   1.000  C
  H817     1.0000 0.17282  0.10755  0.53685  Biso   1.000  H
  C802     1.0000 0.16514  0.14049  0.60184  Biso   1.000  C
  C803     1.0000 0.16511  0.14044  0.60184  Biso   1.000  C
  C804     1.0000 0.08656  0.90029  0.61840  Biso   1.000  C
  H818     1.0000 0.18435  0.95635  0.62666  Biso   1.000  H
  C805     1.0000 0.08650  0.90024  0.61840  Biso   1.000  C
  C806     1.0000 0.12482  0.16087  0.58780  Biso   1.000  C
  C807     1.0000 0.18154  0.14525  0.64878  Biso   1.000  C
  C808     1.0000 0.18150  0.14525  0.64878  Biso   1.000  C
  C809     1.0000 0.03604  0.87518  0.58780  Biso   1.000  C
  C810     1.0000 0.07423  0.88396  0.66524  Biso   1.000  C
  C811     1.0000 0.03602  0.87513  0.58780  Biso   1.000  C
  C812     1.0000 0.09971  0.18626  0.61840  Biso   1.000  C
  H819     1.0000 0.11355  0.15738  0.55607  Biso   1.000  H
  H820     1.0000 0.11349  0.15733  0.55607  Biso   1.000  H
  H821     1.0000 0.20991  0.13194  0.65898  Biso   1.000  H
  C813     1.0000 0.15624  0.16927  0.68031  Biso   1.000  C
  C814     1.0000 0.15620  0.16927  0.68031  Biso   1.000  C
  H822     1.0000 0.04385  0.88646  0.55607  Biso   1.000  H
  C815     1.0000 0.97535  0.83488  0.60184  Biso   1.000  C
  C816     1.0000 0.97533  0.83483  0.60184  Biso   1.000  C
  C817     1.0000 0.01305  0.84375  0.68031  Biso   1.000  C
  H823     1.0000 0.10808  0.90057  0.68688  Biso   1.000  H
  H824     1.0000 0.10804  0.90057  0.68688  Biso   1.000  H
  C818     1.0000 0.05802  0.20995  0.60398  Biso   1.000  C
  C819     1.0000 0.11602  0.19027  0.66524  Biso   1.000  C
  C820     1.0000 0.16772  0.17017  0.72929  Biso   1.000  C
  C821     1.0000 0.96379  0.81846  0.64878  Biso   1.000  C
  C822     1.0000 0.92398  0.81166  0.56755  Biso   1.000  C
  C823     1.0000 0.96371  0.81846  0.64878  Biso   1.000  C
  C824     1.0000 0.92394  0.81166  0.56755  Biso   1.000  C
  C825     1.0000 0.00246  0.83229  0.72929  Biso   1.000  C
  C826     1.0000 0.00239  0.83224  0.72929  Biso   1.000  C
  N112     1.0000 0.04034  0.20745  0.56260  Biso   1.000  N
  H825     1.0000 0.04365  0.22798  0.62666  Biso   1.000  H
  N113     1.0000 0.04030  0.20745  0.56260  Biso   1.000  N
  H826     1.0000 0.04361  0.22798  0.62666  Biso   1.000  H
  H827     1.0000 0.09943  0.20745  0.68688  Biso   1.000  H
  H828     1.0000 0.09939  0.20745  0.68688  Biso   1.000  H
  C827     1.0000 0.17017  0.16771  0.77071  Biso   1.000  C
  C828     1.0000 0.17013  0.16771  0.77071  Biso   1.000  C
  H829     1.0000 0.92204  0.79005  0.65898  Biso   1.000  H
  H830     1.0000 0.92200  0.79005  0.65898  Biso   1.000  H
  N114     1.0000 0.86669  0.77278  0.57591  Biso   1.000  N
  H831     1.0000 0.93476  0.82719  0.53685  Biso   1.000  H
  N115     1.0000 0.86663  0.77273  0.57591  Biso   1.000  N
  H832     1.0000 0.93470  0.82714  0.53685  Biso   1.000  H
  C829     1.0000 0.99755  0.82983  0.77071  Biso   1.000  C
  C830     1.0000 0.99781  0.23185  0.55203  Biso   1.000  C
  C831     1.0000 0.16926  0.15625  0.81969  Biso   1.000  C
  C832     1.0000 0.16924  0.15620  0.81969  Biso   1.000  C
  C833     1.0000 0.82222  0.75617  0.53761  Biso   1.000  C
  C834     1.0000 0.98696  0.83073  0.81969  Biso   1.000  C
  C835     1.0000 0.93395  0.17777  0.53761  Biso   1.000  C
  H833     1.0000 0.99235  0.25157  0.58058  Biso   1.000  H
  C836     1.0000 0.93391  0.17777  0.53761  Biso   1.000  C
  H834     1.0000 0.99231  0.25157  0.58058  Biso   1.000  H
  C837     1.0000 0.02724  0.28187  0.51507  Biso   1.000  C
  C838     1.0000 0.02720  0.28187  0.51507  Biso   1.000  C
  C839     1.0000 0.19027  0.11604  0.83476  Biso   1.000  C
  C840     1.0000 0.14529  0.18154  0.85122  Biso   1.000  C
  C841     1.0000 0.14525  0.18154  0.85122  Biso   1.000  C
  H835     1.0000 0.84478  0.78495  0.51106  Biso   1.000  H
  C842     1.0000 0.79725  0.68826  0.52174  Biso   1.000  C
  C843     1.0000 0.76819  0.76598  0.55203  Biso   1.000  C
  H836     1.0000 0.84470  0.78495  0.51106  Biso   1.000  H
  C844     1.0000 0.76809  0.76594  0.55203  Biso   1.000  C
  C845     1.0000 0.92575  0.80973  0.83476  Biso   1.000  C
  C846     1.0000 0.03633  0.85475  0.85122  Biso   1.000  C
  C847     1.0000 0.03622  0.85470  0.85122  Biso   1.000  C
  N116     1.0000 0.90611  0.13336  0.57591  Biso   1.000  N
  H837     1.0000 0.94023  0.15526  0.51106  Biso   1.000  H
  C848     1.0000 0.89104  0.20278  0.52174  Biso   1.000  C
  H838     1.0000 0.94019  0.15526  0.51106  Biso   1.000  H
  C849     1.0000 0.89100  0.20278  0.52174  Biso   1.000  C
  H839     1.0000 0.03992  0.26464  0.48877  Biso   1.000  H
  H840     1.0000 0.06591  0.31825  0.52765  Biso   1.000  H
  C850     1.0000 0.98392  0.30476  0.49727  Biso   1.000  C
  C851     1.0000 0.18627  0.09971  0.88160  Biso   1.000  C
  H841     1.0000 0.20747  0.09943  0.81312  Biso   1.000  H
  C852     1.0000 0.18623  0.09971  0.88160  Biso   1.000  C
  H842     1.0000 0.20742  0.09943  0.81312  Biso   1.000  H
  H843     1.0000 0.13199  0.20995  0.84102  Biso   1.000  H
  C853     1.0000 0.14047  0.16512  0.89816  Biso   1.000  C
  H844     1.0000 0.13192  0.20990  0.84102  Biso   1.000  H
  C854     1.0000 0.14043  0.16512  0.89816  Biso   1.000  C
  C855     1.0000 0.75044  0.67146  0.48261  Biso   1.000  C
  H845     1.0000 0.83299  0.68307  0.51137  Biso   1.000  H
  H846     1.0000 0.77660  0.65929  0.54805  Biso   1.000  H
  H847     1.0000 0.83295  0.68307  0.51137  Biso   1.000  H
  H848     1.0000 0.77649  0.65924  0.54805  Biso   1.000  H
  N117     1.0000 0.79255  0.83285  0.56260  Biso   1.000  N
  C856     1.0000 0.71816  0.74536  0.51507  Biso   1.000  C
  H849     1.0000 0.74848  0.74078  0.58058  Biso   1.000  H
  H850     1.0000 0.74846  0.74074  0.58058  Biso   1.000  H
  C857     1.0000 0.91349  0.81374  0.88160  Biso   1.000  C
  H851     1.0000 0.89203  0.79255  0.81312  Biso   1.000  H
  H852     1.0000 0.89196  0.79250  0.81312  Biso   1.000  H
  H853     1.0000 0.07797  0.86806  0.84102  Biso   1.000  H
  C858     1.0000 0.02465  0.85951  0.89816  Biso   1.000  C
  H854     1.0000 0.07794  0.86801  0.84102  Biso   1.000  H
  C859     1.0000 0.88772  0.07607  0.56755  Biso   1.000  C
  H855     1.0000 0.85013  0.16705  0.51137  Biso   1.000  H
  H856     1.0000 0.88274  0.22345  0.54805  Biso   1.000  H
  C860     1.0000 0.92103  0.24959  0.48261  Biso   1.000  C
  H857     1.0000 0.85009  0.16705  0.51137  Biso   1.000  H
  H858     1.0000 0.88270  0.22345  0.54805  Biso   1.000  H
  C861     1.0000 0.92100  0.24954  0.48261  Biso   1.000  C
  H859     1.0000 0.97705  0.32887  0.52188  Biso   1.000  H
  H860     1.0000 0.97701  0.32887  0.52188  Biso   1.000  H
  H861     1.0000 0.00394  0.33335  0.47065  Biso   1.000  H
  H862     1.0000 0.00390  0.33335  0.47065  Biso   1.000  H
  C862     1.0000 0.20999  0.05804  0.89602  Biso   1.000  C
  C863     1.0000 0.16086  0.12482  0.91220  Biso   1.000  C
  C864     1.0000 0.20994  0.05804  0.89602  Biso   1.000  C
  C865     1.0000 0.16082  0.12482  0.91220  Biso   1.000  C
  C866     1.0000 0.11227  0.18834  0.93245  Biso   1.000  C
  C867     1.0000 0.11223  0.18834  0.93245  Biso   1.000  C
  H863     1.0000 0.77176  0.69907  0.45575  Biso   1.000  H
  H864     1.0000 0.73487  0.62724  0.47307  Biso   1.000  H
  C868     1.0000 0.69527  0.67915  0.49727  Biso   1.000  C
  H865     1.0000 0.73479  0.62724  0.47307  Biso   1.000  H
  C869     1.0000 0.69519  0.67915  0.49727  Biso   1.000  C
  C870     1.0000 0.79002  0.84805  0.60398  Biso   1.000  C
  H866     1.0000 0.73532  0.77528  0.48877  Biso   1.000  H
  H867     1.0000 0.68180  0.74767  0.52765  Biso   1.000  H
  H868     1.0000 0.68176  0.74767  0.52765  Biso   1.000  H
  C871     1.0000 0.96399  0.83913  0.91220  Biso   1.000  C
  C872     1.0000 0.84807  0.79005  0.89602  Biso   1.000  C
  C873     1.0000 0.84804  0.79000  0.89602  Biso   1.000  C
  C874     1.0000 0.07612  0.88773  0.93245  Biso   1.000  C
  C875     1.0000 0.07608  0.88773  0.93245  Biso   1.000  C
  C876     1.0000 0.85953  0.02468  0.60184  Biso   1.000  C
  H869     1.0000 0.89241  0.06526  0.53685  Biso   1.000  H
  C877     1.0000 0.85951  0.02463  0.60184  Biso   1.000  C
  H870     1.0000 0.92732  0.22826  0.45575  Biso   1.000  H
  H871     1.0000 0.89244  0.26516  0.47307  Biso   1.000  H
  H872     1.0000 0.89240  0.26516  0.47307  Biso   1.000  H
  N118     1.0000 0.20747  0.04035  0.93740  Biso   1.000  N
  H873     1.0000 0.22796  0.04365  0.87334  Biso   1.000  H
  N119     1.0000 0.20745  0.04030  0.93740  Biso   1.000  N
  H874     1.0000 0.22794  0.04360  0.87334  Biso   1.000  H
  H875     1.0000 0.15739  0.11354  0.94393  Biso   1.000  H
  H876     1.0000 0.15735  0.11354  0.94393  Biso   1.000  H
  N120     1.0000 0.09387  0.22722  0.92409  Biso   1.000  N
  H877     1.0000 0.10758  0.17281  0.96315  Biso   1.000  H
  N121     1.0000 0.09383  0.22722  0.92409  Biso   1.000  N
  H878     1.0000 0.10753  0.17281  0.96315  Biso   1.000  H
  H879     1.0000 0.67111  0.64815  0.52188  Biso   1.000  H
  H880     1.0000 0.66662  0.67056  0.47065  Biso   1.000  H
  H881     1.0000 0.77207  0.81567  0.62666  Biso   1.000  H
  C878     1.0000 0.81377  0.91345  0.61840  Biso   1.000  C
  C879     1.0000 0.81373  0.91345  0.61840  Biso   1.000  C
  H882     1.0000 0.95621  0.84262  0.94393  Biso   1.000  H
  H883     1.0000 0.95617  0.84262  0.94393  Biso   1.000  H
  N122     1.0000 0.83293  0.79255  0.93740  Biso   1.000  N
  H884     1.0000 0.81572  0.77202  0.87334  Biso   1.000  H
  N123     1.0000 0.83282  0.79250  0.93740  Biso   1.000  N
  H885     1.0000 0.81564  0.77202  0.87334  Biso   1.000  H
  N124     1.0000 0.13338  0.90614  0.92409  Biso   1.000  N
  H886     1.0000 0.06528  0.89245  0.96315  Biso   1.000  H
  N125     1.0000 0.13336  0.90609  0.92409  Biso   1.000  N
  H887     1.0000 0.06525  0.89241  0.96315  Biso   1.000  H
  C880     1.0000 0.83918  0.96395  0.58780  Biso   1.000  C
  C881     1.0000 0.83914  0.96395  0.58780  Biso   1.000  C
  C882     1.0000 0.85475  0.03629  0.64878  Biso   1.000  C
  C883     1.0000 0.85469  0.03624  0.64878  Biso   1.000  C
  C884     1.0000 0.23186  0.99783  0.94797  Biso   1.000  C
  C885     1.0000 0.06605  0.24383  0.96239  Biso   1.000  C
  C886     1.0000 0.80975  0.92577  0.66524  Biso   1.000  C
  C887     1.0000 0.80971  0.92577  0.66524  Biso   1.000  C
  C888     1.0000 0.76601  0.76815  0.94797  Biso   1.000  C
  C889     1.0000 0.76599  0.76811  0.94797  Biso   1.000  C
  C890     1.0000 0.17780  0.93393  0.96239  Biso   1.000  C
  H888     1.0000 0.84268  0.95616  0.55607  Biso   1.000  H
  H889     1.0000 0.84264  0.95616  0.55607  Biso   1.000  H
  C891     1.0000 0.83075  0.98698  0.68031  Biso   1.000  C
  H890     1.0000 0.86803  0.07796  0.65898  Biso   1.000  H
  H891     1.0000 0.25160  0.99236  0.91942  Biso   1.000  H
  H892     1.0000 0.25158  0.99231  0.91942  Biso   1.000  H
  C892     1.0000 0.28187  0.02723  0.98493  Biso   1.000  C
  C893     1.0000 0.28183  0.02723  0.98493  Biso   1.000  C
  C894     1.0000 0.10895  0.31174  0.97826  Biso   1.000  C
  H893     1.0000 0.05979  0.21505  0.98894  Biso   1.000  H
  C895     1.0000 0.00217  0.23402  0.94797  Biso   1.000  C
  H894     1.0000 0.05972  0.21500  0.98894  Biso   1.000  H
  C896     1.0000 0.00213  0.23402  0.94797  Biso   1.000  C
  H895     1.0000 0.79253  0.89198  0.68688  Biso   1.000  H
  H896     1.0000 0.79251  0.89193  0.68688  Biso   1.000  H
  C897     1.0000 0.75619  0.82223  0.96239  Biso   1.000  C
  C898     1.0000 0.74541  0.71813  0.98493  Biso   1.000  C
  H897     1.0000 0.74082  0.74843  0.91942  Biso   1.000  H
  C899     1.0000 0.75615  0.82223  0.96239  Biso   1.000  C
  C900     1.0000 0.74533  0.71813  0.98493  Biso   1.000  C
  H898     1.0000 0.74078  0.74843  0.91942  Biso   1.000  H
  C901     1.0000 0.20278  0.89104  0.97826  Biso   1.000  C
  H899     1.0000 0.15524  0.94021  0.98894  Biso   1.000  H
  C902     1.0000 0.82987  0.99755  0.72929  Biso   1.000  C
  C903     1.0000 0.82978  0.99755  0.72929  Biso   1.000  C
  H900     1.0000 0.31826  0.06592  0.97235  Biso   1.000  H
  C904     1.0000 0.30478  0.98396  0.00273  Biso   1.000  C
  C905     1.0000 0.30476  0.98391  0.00273  Biso   1.000  C
  H901     1.0000 0.26468  0.03992  0.01123  Biso   1.000  H
  H902     1.0000 0.26464  0.03992  0.01123  Biso   1.000  H
  H903     1.0000 0.14988  0.31693  0.98863  Biso   1.000  H
  H904     1.0000 0.11727  0.34071  0.95195  Biso   1.000  H
  H905     1.0000 0.14984  0.31693  0.98863  Biso   1.000  H
  H906     1.0000 0.11723  0.34071  0.95195  Biso   1.000  H
  C906     1.0000 0.07898  0.32854  0.01739  Biso   1.000  C
  C907     1.0000 0.07894  0.32854  0.01739  Biso   1.000  C
  H907     1.0000 0.00766  0.25922  0.91942  Biso   1.000  H
  N126     1.0000 0.95966  0.16715  0.93740  Biso   1.000  N
  C908     1.0000 0.97276  0.25464  0.98493  Biso   1.000  C
  N127     1.0000 0.95964  0.16710  0.93740  Biso   1.000  N
  C909     1.0000 0.97280  0.25464  0.98493  Biso   1.000  C
  N128     1.0000 0.77275  0.86664  0.92409  Biso   1.000  N
  H908     1.0000 0.78501  0.84474  0.98894  Biso   1.000  H
  C910     1.0000 0.68830  0.79722  0.97826  Biso   1.000  C
  H909     1.0000 0.78497  0.84474  0.98894  Biso   1.000  H
  C911     1.0000 0.68826  0.79722  0.97826  Biso   1.000  C
  H910     1.0000 0.74770  0.68175  0.97235  Biso   1.000  H
  H911     1.0000 0.74767  0.68170  0.97235  Biso   1.000  H
  C912     1.0000 0.67916  0.69524  0.00273  Biso   1.000  C
  H912     1.0000 0.77532  0.73536  0.01123  Biso   1.000  H
  H913     1.0000 0.77529  0.73531  0.01123  Biso   1.000  H
  H914     1.0000 0.16704  0.85012  0.98863  Biso   1.000  H
  H915     1.0000 0.22352  0.88273  0.95195  Biso   1.000  H
  H916     1.0000 0.22344  0.88273  0.95195  Biso   1.000  H
  C913     1.0000 0.24963  0.92105  0.01739  Biso   1.000  C
  C914     1.0000 0.24952  0.92100  0.01739  Biso   1.000  C
  C915     1.0000 0.83228  0.00245  0.77071  Biso   1.000  C
  C916     1.0000 0.83221  0.00241  0.77071  Biso   1.000  C
  H917     1.0000 0.32890  0.97702  0.97812  Biso   1.000  H
  H918     1.0000 0.33336  0.00392  0.02935  Biso   1.000  H
  H919     1.0000 0.07265  0.30093  0.04425  Biso   1.000  H
  H920     1.0000 0.10758  0.37276  0.02693  Biso   1.000  H
  C917     1.0000 0.01608  0.32085  0.00273  Biso   1.000  C
  H921     1.0000 0.10752  0.37271  0.02693  Biso   1.000  H
  C918     1.0000 0.01601  0.32080  0.00273  Biso   1.000  C
  C919     1.0000 0.94197  0.15195  0.89602  Biso   1.000  C
  C920     1.0000 0.94195  0.15191  0.89602  Biso   1.000  C
  H922     1.0000 0.93408  0.25233  0.97235  Biso   1.000  H
  H923     1.0000 0.93404  0.25233  0.97235  Biso   1.000  H
  H924     1.0000 0.96005  0.22472  0.01123  Biso   1.000  H
  C921     1.0000 0.81165  0.92393  0.93245  Biso   1.000  C
  H925     1.0000 0.68312  0.83295  0.98863  Biso   1.000  H
  H926     1.0000 0.65929  0.77655  0.95195  Biso   1.000  H
  H927     1.0000 0.68303  0.83295  0.98863  Biso   1.000  H
  H928     1.0000 0.65923  0.77651  0.95195  Biso   1.000  H
  C922     1.0000 0.67144  0.75041  0.01739  Biso   1.000  C
  H929     1.0000 0.64819  0.67113  0.97812  Biso   1.000  H
  H930     1.0000 0.67059  0.66665  0.02935  Biso   1.000  H
  H931     1.0000 0.67056  0.66660  0.02935  Biso   1.000  H
  H932     1.0000 0.22824  0.92733  0.04425  Biso   1.000  H
  H933     1.0000 0.26516  0.89245  0.02693  Biso   1.000  H
  H934     1.0000 0.26514  0.89241  0.02693  Biso   1.000  H
  C923     1.0000 0.84378  0.01302  0.81969  Biso   1.000  C
  C924     1.0000 0.84373  0.01302  0.81969  Biso   1.000  C
  H935     1.0000 0.99606  0.32944  0.02935  Biso   1.000  H
  H936     1.0000 0.99610  0.32944  0.02935  Biso   1.000  H
  H937     1.0000 0.02296  0.35185  0.97812  Biso   1.000  H
  H938     1.0000 0.02293  0.35180  0.97812  Biso   1.000  H
  H939     1.0000 0.95636  0.18433  0.87334  Biso   1.000  H
  C925     1.0000 0.90028  0.08655  0.88160  Biso   1.000  C
  C926     1.0000 0.90021  0.08650  0.88160  Biso   1.000  C
  C927     1.0000 0.83485  0.97532  0.89816  Biso   1.000  C
  H940     1.0000 0.82719  0.93474  0.96315  Biso   1.000  H
  H941     1.0000 0.69906  0.77174  0.04425  Biso   1.000  H
  H942     1.0000 0.62732  0.73484  0.02693  Biso   1.000  H
  H943     1.0000 0.62724  0.73484  0.02693  Biso   1.000  H
  C928     1.0000 0.81846  0.96371  0.85122  Biso   1.000  C
  C929     1.0000 0.88398  0.07423  0.83476  Biso   1.000  C
  C930     1.0000 0.88394  0.07423  0.83476  Biso   1.000  C
  C931     1.0000 0.87519  0.03605  0.91220  Biso   1.000  C
  C932     1.0000 0.87513  0.03601  0.91220  Biso   1.000  C
  H944     1.0000 0.79007  0.92204  0.84102  Biso   1.000  H
  H945     1.0000 0.90055  0.10802  0.81312  Biso   1.000  H
  H946     1.0000 0.90059  0.10802  0.81312  Biso   1.000  H
  H947     1.0000 0.88648  0.04384  0.94393  Biso   1.000  H
  H948     1.0000 0.88644  0.04384  0.94393  Biso   1.000  H
  C933     1.0000 0.68828  0.89105  0.47826  Biso   1.000  C
  C934     1.0000 0.75620  0.93394  0.46239  Biso   1.000  C
  C935     1.0000 0.75615  0.93394  0.46239  Biso   1.000  C
  H949     1.0000 0.68311  0.85013  0.48863  Biso   1.000  H
  H950     1.0000 0.65928  0.88274  0.45195  Biso   1.000  H
  C936     1.0000 0.67149  0.92106  0.51739  Biso   1.000  C
  H951     1.0000 0.68307  0.85013  0.48863  Biso   1.000  H
  C937     1.0000 0.67147  0.92101  0.51739  Biso   1.000  C
  N129     1.0000 0.77279  0.90615  0.42409  Biso   1.000  N
  N130     1.0000 0.77276  0.90610  0.42409  Biso   1.000  N
  H952     1.0000 0.78500  0.94022  0.48894  Biso   1.000  H
  C938     1.0000 0.76599  0.99784  0.44797  Biso   1.000  C
  H953     1.0000 0.78496  0.94022  0.48894  Biso   1.000  H
  C939     1.0000 0.76595  0.99784  0.44797  Biso   1.000  C
  H954     1.0000 0.69911  0.92734  0.54425  Biso   1.000  H
  H955     1.0000 0.62732  0.89246  0.52693  Biso   1.000  H
  C940     1.0000 0.67920  0.98397  0.50273  Biso   1.000  C
  H956     1.0000 0.69907  0.92734  0.54425  Biso   1.000  H
  H957     1.0000 0.62725  0.89242  0.52693  Biso   1.000  H
  C941     1.0000 0.67918  0.98392  0.50273  Biso   1.000  C
  C942     1.0000 0.81168  0.88774  0.43245  Biso   1.000  C
  H958     1.0000 0.74082  0.99237  0.41942  Biso   1.000  H
  H959     1.0000 0.74075  0.99232  0.41942  Biso   1.000  H
  N131     1.0000 0.83290  0.04036  0.43740  Biso   1.000  N
  C943     1.0000 0.74534  0.02724  0.48493  Biso   1.000  C
  N132     1.0000 0.83284  0.04031  0.43740  Biso   1.000  N
  H960     1.0000 0.64819  0.97703  0.47812  Biso   1.000  H
  H961     1.0000 0.64814  0.97703  0.47812  Biso   1.000  H
  H962     1.0000 0.67054  0.00393  0.52935  Biso   1.000  H
  C944     1.0000 0.83489  0.85952  0.39816  Biso   1.000  C
  C945     1.0000 0.83485  0.85952  0.39816  Biso   1.000  C
  H963     1.0000 0.82720  0.89246  0.46315  Biso   1.000  H
  H964     1.0000 0.82714  0.89242  0.46315  Biso   1.000  H
  C946     1.0000 0.84804  0.05805  0.39602  Biso   1.000  C
  H965     1.0000 0.77527  0.03993  0.51123  Biso   1.000  H
  H966     1.0000 0.74765  0.06594  0.47235  Biso   1.000  H
  C947     1.0000 0.81849  0.85476  0.35122  Biso   1.000  C
  C948     1.0000 0.81846  0.85471  0.35122  Biso   1.000  C
  C949     1.0000 0.87521  0.83914  0.41220  Biso   1.000  C
  C950     1.0000 0.87517  0.83914  0.41220  Biso   1.000  C
  C951     1.0000 0.91342  0.09972  0.38160  Biso   1.000  C
  H967     1.0000 0.81571  0.04366  0.37334  Biso   1.000  H
  H968     1.0000 0.81561  0.04361  0.37334  Biso   1.000  H
  C952     1.0000 0.84379  0.83074  0.31969  Biso   1.000  C
  H969     1.0000 0.79012  0.86807  0.34102  Biso   1.000  H
  H970     1.0000 0.79005  0.86802  0.34102  Biso   1.000  H
  C953     1.0000 0.90032  0.81375  0.38160  Biso   1.000  C
  C954     1.0000 0.90027  0.81375  0.38160  Biso   1.000  C
  H971     1.0000 0.88648  0.84263  0.44393  Biso   1.000  H
  C955     1.0000 0.96394  0.12483  0.41220  Biso   1.000  C
  C956     1.0000 0.92576  0.11605  0.33476  Biso   1.000  C
  C957     1.0000 0.83227  0.82984  0.27071  Biso   1.000  C
  C958     1.0000 0.83231  0.82984  0.27071  Biso   1.000  C
  C959     1.0000 0.88401  0.80974  0.33476  Biso   1.000  C
  C960     1.0000 0.88397  0.80974  0.33476  Biso   1.000  C
  C961     1.0000 0.94201  0.79006  0.39602  Biso   1.000  C
  C962     1.0000 0.94194  0.79001  0.39602  Biso   1.000  C
  H972     1.0000 0.95618  0.11355  0.44393  Biso   1.000  H
  C963     1.0000 0.02468  0.16513  0.39816  Biso   1.000  C
  C964     1.0000 0.98701  0.15626  0.31969  Biso   1.000  C
  H973     1.0000 0.89195  0.09944  0.31312  Biso   1.000  H
  C965     1.0000 0.98695  0.15621  0.31969  Biso   1.000  C
  C966     1.0000 0.82986  0.83230  0.22929  Biso   1.000  C
  C967     1.0000 0.82983  0.83225  0.22929  Biso   1.000  C
  H974     1.0000 0.90059  0.79256  0.31312  Biso   1.000  H
  H975     1.0000 0.90057  0.79251  0.31312  Biso   1.000  H
  N133     1.0000 0.95969  0.79256  0.43740  Biso   1.000  N
  H976     1.0000 0.95637  0.77203  0.37334  Biso   1.000  H
  N134     1.0000 0.95966  0.79251  0.43740  Biso   1.000  N
  C968     1.0000 0.03624  0.18155  0.35122  Biso   1.000  C
  C969     1.0000 0.07605  0.18835  0.43245  Biso   1.000  C
  C970     1.0000 0.99757  0.16773  0.27071  Biso   1.000  C
  C971     1.0000 0.83077  0.84376  0.18031  Biso   1.000  C
  C972     1.0000 0.83073  0.84376  0.18031  Biso   1.000  C
  C973     1.0000 0.00221  0.76816  0.44797  Biso   1.000  C
  C974     1.0000 0.00215  0.76812  0.44797  Biso   1.000  C
  H977     1.0000 0.07795  0.20996  0.34102  Biso   1.000  H
  H978     1.0000 0.07792  0.20991  0.34102  Biso   1.000  H
  N135     1.0000 0.13333  0.22723  0.42409  Biso   1.000  N
  H979     1.0000 0.06522  0.17282  0.46315  Biso   1.000  H
  C975     1.0000 0.00247  0.17018  0.22929  Biso   1.000  C
  C976     1.0000 0.00239  0.17018  0.22929  Biso   1.000  C
  C977     1.0000 0.85474  0.81847  0.14878  Biso   1.000  C
  C978     1.0000 0.80976  0.88397  0.16524  Biso   1.000  C
  C979     1.0000 0.80972  0.88397  0.16524  Biso   1.000  C
  C980     1.0000 0.97279  0.71814  0.48493  Biso   1.000  C
  C981     1.0000 0.06607  0.82224  0.46239  Biso   1.000  C
  H980     1.0000 0.00767  0.74844  0.41942  Biso   1.000  H
  C982     1.0000 0.17777  0.24384  0.46239  Biso   1.000  C
  C983     1.0000 0.01302  0.16928  0.18031  Biso   1.000  C
  H981     1.0000 0.86804  0.79006  0.15898  Biso   1.000  H
  C984     1.0000 0.85956  0.83489  0.10184  Biso   1.000  C
  C985     1.0000 0.85953  0.83484  0.10184  Biso   1.000  C
  C986     1.0000 0.81375  0.90030  0.11840  Biso   1.000  C
  H982     1.0000 0.79256  0.90058  0.18688  Biso   1.000  H
  C987     1.0000 0.81373  0.90025  0.11840  Biso   1.000  C
  H983     1.0000 0.96011  0.73537  0.51123  Biso   1.000  H
  H984     1.0000 0.93412  0.68176  0.47235  Biso   1.000  H
  H985     1.0000 0.96004  0.73532  0.51123  Biso   1.000  H
  H986     1.0000 0.93406  0.68171  0.47235  Biso   1.000  H
  C988     1.0000 0.01611  0.69526  0.50273  Biso   1.000  C
  C989     1.0000 0.01607  0.69526  0.50273  Biso   1.000  C
  N136     1.0000 0.09392  0.86665  0.42409  Biso   1.000  N
  H987     1.0000 0.05980  0.84475  0.48894  Biso   1.000  H
  C990     1.0000 0.10899  0.79723  0.47826  Biso   1.000  C
  N137     1.0000 0.09388  0.86665  0.42409  Biso   1.000  N
  C991     1.0000 0.23183  0.23403  0.44797  Biso   1.000  C
  H988     1.0000 0.15524  0.21506  0.48894  Biso   1.000  H
  C992     1.0000 0.20281  0.31175  0.47826  Biso   1.000  C
  H989     1.0000 0.15522  0.21501  0.48894  Biso   1.000  H
  C993     1.0000 0.20277  0.31175  0.47826  Biso   1.000  C
  C994     1.0000 0.96370  0.14526  0.14878  Biso   1.000  C
  C995     1.0000 0.07424  0.19028  0.16524  Biso   1.000  C
  C996     1.0000 0.83917  0.87519  0.08780  Biso   1.000  C
  C997     1.0000 0.88775  0.81167  0.06755  Biso   1.000  C
  C998     1.0000 0.83914  0.87514  0.08780  Biso   1.000  C
  C999     1.0000 0.79004  0.94197  0.10398  Biso   1.000  C
  H990     1.0000 0.99609  0.66666  0.52935  Biso   1.000  H
  H991     1.0000 0.99606  0.66661  0.52935  Biso   1.000  H
  C1000    1.0000 0.07900  0.75042  0.51739  Biso   1.000  C
  H992     1.0000 0.02297  0.67114  0.47812  Biso   1.000  H
  C1001    1.0000 0.07896  0.75042  0.51739  Biso   1.000  C
  C1002    1.0000 0.11230  0.92394  0.43245  Biso   1.000  C
  C1003    1.0000 0.11226  0.92394  0.43245  Biso   1.000  C
  H993     1.0000 0.14990  0.83296  0.48863  Biso   1.000  H
  H994     1.0000 0.11729  0.77656  0.45195  Biso   1.000  H
  H995     1.0000 0.11726  0.77652  0.45195  Biso   1.000  H
  N138     1.0000 0.20751  0.16716  0.43740  Biso   1.000  N
  N139     1.0000 0.20741  0.16711  0.43740  Biso   1.000  N
  C1004    1.0000 0.28191  0.25465  0.48493  Biso   1.000  C
  H996     1.0000 0.25158  0.25923  0.41942  Biso   1.000  H
  C1005    1.0000 0.28183  0.25465  0.48493  Biso   1.000  C
  H997     1.0000 0.25150  0.25923  0.41942  Biso   1.000  H
  H998     1.0000 0.16703  0.31694  0.48863  Biso   1.000  H
  H999     1.0000 0.22347  0.34072  0.45195  Biso   1.000  H
  C1006    1.0000 0.24959  0.32855  0.51739  Biso   1.000  C
  C1007    1.0000 0.97533  0.14050  0.10184  Biso   1.000  C
  C1008    1.0000 0.97531  0.14045  0.10184  Biso   1.000  C
  H1000    1.0000 0.92206  0.13195  0.15898  Biso   1.000  H
  H1001    1.0000 0.92198  0.13195  0.15898  Biso   1.000  H
  C1009    1.0000 0.08654  0.18627  0.11840  Biso   1.000  C
  C1010    1.0000 0.08649  0.18627  0.11840  Biso   1.000  C
  H1002    1.0000 0.10800  0.20746  0.18688  Biso   1.000  H
  H1003    1.0000 0.84264  0.88647  0.05607  Biso   1.000  H
  N140     1.0000 0.90615  0.77279  0.07591  Biso   1.000  N
  H1004    1.0000 0.89245  0.82720  0.03685  Biso   1.000  H
  N141     1.0000 0.90613  0.77274  0.07591  Biso   1.000  N
  H1005    1.0000 0.89243  0.82715  0.03685  Biso   1.000  H
  N142     1.0000 0.79255  0.95966  0.06260  Biso   1.000  N
  H1006    1.0000 0.77206  0.95636  0.12666  Biso   1.000  H
  N143     1.0000 0.79251  0.95966  0.06260  Biso   1.000  N
  H1007    1.0000 0.77202  0.95636  0.12666  Biso   1.000  H
  H1008    1.0000 0.07270  0.77175  0.54425  Biso   1.000  H
  H1009    1.0000 0.10759  0.73485  0.52693  Biso   1.000  H
  H1010    1.0000 0.07266  0.77175  0.54425  Biso   1.000  H
  C1011    1.0000 0.14049  0.97533  0.39816  Biso   1.000  C
  H1011    1.0000 0.10761  0.93475  0.46315  Biso   1.000  H
  C1012    1.0000 0.14045  0.97533  0.39816  Biso   1.000  C
  H1012    1.0000 0.10757  0.93475  0.46315  Biso   1.000  H
  C1013    1.0000 0.21001  0.15196  0.39602  Biso   1.000  C
  C1014    1.0000 0.20990  0.15192  0.39602  Biso   1.000  C
  C1015    1.0000 0.30480  0.32086  0.50273  Biso   1.000  C
  H1013    1.0000 0.26466  0.22473  0.51123  Biso   1.000  H
  H1014    1.0000 0.31823  0.25234  0.47235  Biso   1.000  H
  C1016    1.0000 0.30477  0.32081  0.50273  Biso   1.000  C
  H1015    1.0000 0.26462  0.22473  0.51123  Biso   1.000  H
  H1016    1.0000 0.22830  0.30094  0.54425  Biso   1.000  H
  H1017    1.0000 0.26516  0.37277  0.52693  Biso   1.000  H
  H1018    1.0000 0.22822  0.30094  0.54425  Biso   1.000  H
  H1019    1.0000 0.26513  0.37272  0.52693  Biso   1.000  H
  C1017    1.0000 0.92391  0.11228  0.06755  Biso   1.000  C
  C1018    1.0000 0.92399  0.11228  0.06755  Biso   1.000  C
  C1019    1.0000 0.03608  0.16088  0.08780  Biso   1.000  C
  C1020    1.0000 0.03604  0.16088  0.08780  Biso   1.000  C
  C1021    1.0000 0.15192  0.20996  0.10398  Biso   1.000  C
  C1022    1.0000 0.93398  0.75618  0.03761  Biso   1.000  C
  C1023    1.0000 0.93394  0.75618  0.03761  Biso   1.000  C
  C1024    1.0000 0.76816  0.00218  0.05203  Biso   1.000  C
  C1025    1.0000 0.76812  0.00218  0.05203  Biso   1.000  C
  C1026    1.0000 0.14527  0.96372  0.35122  Biso   1.000  C
  C1027    1.0000 0.16085  0.03606  0.41220  Biso   1.000  C
  C1028    1.0000 0.16082  0.03602  0.41220  Biso   1.000  C
  C1029    1.0000 0.18626  0.08656  0.38160  Biso   1.000  C
  C1030    1.0000 0.18623  0.08651  0.38160  Biso   1.000  C
  H1020    1.0000 0.22795  0.18434  0.37334  Biso   1.000  H
  H1021    1.0000 0.22791  0.18434  0.37334  Biso   1.000  H
  H1022    1.0000 0.32888  0.35186  0.47812  Biso   1.000  H
  H1023    1.0000 0.33337  0.32945  0.52935  Biso   1.000  H
  H1024    1.0000 0.32882  0.35181  0.47812  Biso   1.000  H
  H1025    1.0000 0.33332  0.32945  0.52935  Biso   1.000  H
  N144     1.0000 0.86661  0.09387  0.07591  Biso   1.000  N
  H1026    1.0000 0.93475  0.10756  0.03685  Biso   1.000  H
  H1027    1.0000 0.93467  0.10756  0.03685  Biso   1.000  H
  H1028    1.0000 0.04386  0.15739  0.05607  Biso   1.000  H
  H1029    1.0000 0.04383  0.15734  0.05607  Biso   1.000  H
  N145     1.0000 0.16714  0.20746  0.06260  Biso   1.000  N
  H1030    1.0000 0.18435  0.22799  0.12666  Biso   1.000  H
  H1031    1.0000 0.94024  0.78496  0.01106  Biso   1.000  H
  C1031    1.0000 0.89107  0.68827  0.02174  Biso   1.000  C
  C1032    1.0000 0.99786  0.76599  0.05203  Biso   1.000  C
  C1033    1.0000 0.89103  0.68827  0.02174  Biso   1.000  C
  C1034    1.0000 0.99783  0.76595  0.05203  Biso   1.000  C
  C1035    1.0000 0.71815  0.97278  0.01507  Biso   1.000  C
  C1036    1.0000 0.82226  0.06608  0.03761  Biso   1.000  C
  H1032    1.0000 0.74846  0.00766  0.08058  Biso   1.000  H
  C1037    1.0000 0.82218  0.06608  0.03761  Biso   1.000  C
  H1033    1.0000 0.74838  0.00766  0.08058  Biso   1.000  H
  H1034    1.0000 0.13200  0.92205  0.34102  Biso   1.000  H
  H1035    1.0000 0.13196  0.92205  0.34102  Biso   1.000  H
  C1038    1.0000 0.16923  0.01304  0.31969  Biso   1.000  C
  H1036    1.0000 0.15738  0.04385  0.44393  Biso   1.000  H
  C1039    1.0000 0.19027  0.07424  0.33476  Biso   1.000  C
  C1040    1.0000 0.23402  0.23186  0.05203  Biso   1.000  C
  C1041    1.0000 0.23398  0.23186  0.05203  Biso   1.000  C
  H1037    1.0000 0.85014  0.68308  0.01137  Biso   1.000  H
  H1038    1.0000 0.88276  0.65930  0.04805  Biso   1.000  H
  H1039    1.0000 0.88273  0.65925  0.04805  Biso   1.000  H
  C1042    1.0000 0.92105  0.67147  0.98261  Biso   1.000  C
  H1040    1.0000 0.99237  0.74079  0.08058  Biso   1.000  H
  H1041    1.0000 0.99230  0.74075  0.08058  Biso   1.000  H
  N146     1.0000 0.04036  0.83286  0.06260  Biso   1.000  N
  C1043    1.0000 0.02727  0.74537  0.01507  Biso   1.000  C
  N147     1.0000 0.04032  0.83286  0.06260  Biso   1.000  N
  C1044    1.0000 0.02723  0.74537  0.01507  Biso   1.000  C
  H1042    1.0000 0.68176  0.93409  0.02765  Biso   1.000  H
  H1043    1.0000 0.68172  0.93409  0.02765  Biso   1.000  H
  H1044    1.0000 0.73535  0.96009  0.98877  Biso   1.000  H
  C1045    1.0000 0.69520  0.01606  0.99727  Biso   1.000  C
  H1045    1.0000 0.84479  0.05980  0.01106  Biso   1.000  H
  C1046    1.0000 0.79720  0.10897  0.02174  Biso   1.000  C
  H1046    1.0000 0.84472  0.05975  0.01106  Biso   1.000  H
  C1047    1.0000 0.17020  0.00246  0.27071  Biso   1.000  C
  C1048    1.0000 0.17018  0.00242  0.27071  Biso   1.000  C
  H1047    1.0000 0.20745  0.10803  0.31312  Biso   1.000  H
  C1049    1.0000 0.24384  0.17778  0.03761  Biso   1.000  C
  C1050    1.0000 0.25465  0.28188  0.01507  Biso   1.000  C
  H1048    1.0000 0.25920  0.25158  0.08058  Biso   1.000  H
  H1049    1.0000 0.92737  0.69908  0.95575  Biso   1.000  H
  H1050    1.0000 0.89244  0.62725  0.97307  Biso   1.000  H
  C1051    1.0000 0.98395  0.67916  0.99727  Biso   1.000  C
  H1051    1.0000 0.92733  0.69908  0.95575  Biso   1.000  H
  C1052    1.0000 0.05806  0.84806  0.10398  Biso   1.000  C
  C1053    1.0000 0.05801  0.84806  0.10398  Biso   1.000  C
  H1052    1.0000 0.03998  0.77529  0.98877  Biso   1.000  H
  H1053    1.0000 0.03994  0.77529  0.98877  Biso   1.000  H
  H1054    1.0000 0.06594  0.74768  0.02765  Biso   1.000  H
  H1055    1.0000 0.66667  0.99609  0.97065  Biso   1.000  H
  H1056    1.0000 0.66660  0.99605  0.97065  Biso   1.000  H
  C1054    1.0000 0.75044  0.07896  0.98261  Biso   1.000  C
  H1057    1.0000 0.67113  0.02299  0.02188  Biso   1.000  H
  H1058    1.0000 0.67106  0.02295  0.02188  Biso   1.000  H
  H1059    1.0000 0.83298  0.14989  0.01137  Biso   1.000  H
  H1060    1.0000 0.77655  0.11728  0.04805  Biso   1.000  H
  H1061    1.0000 0.83290  0.14989  0.01137  Biso   1.000  H
  C1055    1.0000 0.16775  0.99756  0.22929  Biso   1.000  C
  N148     1.0000 0.22724  0.13337  0.07591  Biso   1.000  N
  H1062    1.0000 0.21505  0.15527  0.01106  Biso   1.000  H
  C1056    1.0000 0.31172  0.20279  0.02174  Biso   1.000  C
  C1057    1.0000 0.32086  0.30477  0.99727  Biso   1.000  C
  H1063    1.0000 0.22471  0.26465  0.98877  Biso   1.000  H
  C1058    1.0000 0.32078  0.30477  0.99727  Biso   1.000  C
  H1064    1.0000 0.25233  0.31826  0.02765  Biso   1.000  H
  H1065    1.0000 0.25229  0.31826  0.02765  Biso   1.000  H
  H1066    1.0000 0.97707  0.64816  0.02188  Biso   1.000  H
  H1067    1.0000 0.97703  0.64816  0.02188  Biso   1.000  H
  H1068    1.0000 0.00397  0.67057  0.97065  Biso   1.000  H
  H1069    1.0000 0.00393  0.67057  0.97065  Biso   1.000  H
  H1070    1.0000 0.04367  0.81569  0.12666  Biso   1.000  H
  C1059    1.0000 0.09975  0.91346  0.11840  Biso   1.000  C
  H1071    1.0000 0.04363  0.81569  0.12666  Biso   1.000  H
  H1072    1.0000 0.77178  0.07268  0.95575  Biso   1.000  H
  H1073    1.0000 0.73486  0.10756  0.97307  Biso   1.000  H
  H1074    1.0000 0.77174  0.07268  0.95575  Biso   1.000  H
  H1075    1.0000 0.73478  0.10756  0.97307  Biso   1.000  H
  C1060    1.0000 0.15625  0.98699  0.18031  Biso   1.000  C
  C1061    1.0000 0.18833  0.07608  0.06755  Biso   1.000  C
  C1062    1.0000 0.32859  0.24960  0.98261  Biso   1.000  C
  C1063    1.0000 0.32852  0.24955  0.98261  Biso   1.000  C
  H1076    1.0000 0.31691  0.16706  0.01137  Biso   1.000  H
  H1077    1.0000 0.34069  0.22346  0.04805  Biso   1.000  H
  H1078    1.0000 0.32940  0.33336  0.97065  Biso   1.000  H
  H1079    1.0000 0.35184  0.32888  0.02188  Biso   1.000  H
  C1064    1.0000 0.12483  0.96396  0.08780  Biso   1.000  C
  C1065    1.0000 0.11604  0.92578  0.16524  Biso   1.000  C
  C1066    1.0000 0.18156  0.03630  0.14878  Biso   1.000  C
  C1067    1.0000 0.18154  0.03625  0.14878  Biso   1.000  C
  C1068    1.0000 0.16513  0.02469  0.10184  Biso   1.000  C
  C1069    1.0000 0.16511  0.02464  0.10184  Biso   1.000  C
  H1080    1.0000 0.17284  0.06527  0.03685  Biso   1.000  H
  H1081    1.0000 0.30092  0.22827  0.95575  Biso   1.000  H
  H1082    1.0000 0.37271  0.26517  0.97307  Biso   1.000  H
  H1083    1.0000 0.11354  0.95617  0.05607  Biso   1.000  H
  H1084    1.0000 0.09948  0.89199  0.18688  Biso   1.000  H
  H1085    1.0000 0.09941  0.89194  0.18688  Biso   1.000  H
  H1086    1.0000 0.20996  0.07797  0.15898  Biso   1.000  H
  H1087    1.0000 0.20987  0.07797  0.15898  Biso   1.000  H
  C1070    1.0000 0.68828  0.89105  0.47826  Biso   1.000  C
  C1071    1.0000 0.75620  0.93394  0.46239  Biso   1.000  C
  C1072    1.0000 0.75615  0.93394  0.46239  Biso   1.000  C
  H1088    1.0000 0.65928  0.88274  0.45195  Biso   1.000  H
  H1089    1.0000 0.68311  0.85013  0.48863  Biso   1.000  H
  C1073    1.0000 0.67149  0.92106  0.51739  Biso   1.000  C
  H1090    1.0000 0.68307  0.85013  0.48863  Biso   1.000  H
  C1074    1.0000 0.67147  0.92101  0.51739  Biso   1.000  C
  N149     1.0000 0.77279  0.90615  0.42409  Biso   1.000  N
  N150     1.0000 0.77276  0.90610  0.42409  Biso   1.000  N
  H1091    1.0000 0.78500  0.94022  0.48894  Biso   1.000  H
  C1075    1.0000 0.76599  0.99784  0.44797  Biso   1.000  C
  H1092    1.0000 0.78496  0.94022  0.48894  Biso   1.000  H
  C1076    1.0000 0.76595  0.99784  0.44797  Biso   1.000  C
  H1093    1.0000 0.69911  0.92734  0.54425  Biso   1.000  H
  H1094    1.0000 0.62732  0.89246  0.52693  Biso   1.000  H
  C1077    1.0000 0.67920  0.98397  0.50273  Biso   1.000  C
  H1095    1.0000 0.69907  0.92734  0.54425  Biso   1.000  H
  H1096    1.0000 0.62725  0.89242  0.52693  Biso   1.000  H
  C1078    1.0000 0.67918  0.98392  0.50273  Biso   1.000  C
  C1079    1.0000 0.81168  0.88774  0.43245  Biso   1.000  C
  H1097    1.0000 0.74082  0.99237  0.41942  Biso   1.000  H
  H1098    1.0000 0.74075  0.99232  0.41942  Biso   1.000  H
  N151     1.0000 0.83290  0.04036  0.43740  Biso   1.000  N
  C1080    1.0000 0.74534  0.02724  0.48493  Biso   1.000  C
  N152     1.0000 0.83284  0.04031  0.43740  Biso   1.000  N
  H1099    1.0000 0.67054  0.00393  0.52935  Biso   1.000  H
  H1100    1.0000 0.64819  0.97703  0.47812  Biso   1.000  H
  H1101    1.0000 0.64814  0.97703  0.47812  Biso   1.000  H
  C1081    1.0000 0.83489  0.85952  0.39816  Biso   1.000  C
  C1082    1.0000 0.83485  0.85952  0.39816  Biso   1.000  C
  H1102    1.0000 0.82720  0.89246  0.46315  Biso   1.000  H
  H1103    1.0000 0.82714  0.89242  0.46315  Biso   1.000  H
  C1083    1.0000 0.84804  0.05805  0.39602  Biso   1.000  C
  H1104    1.0000 0.74765  0.06594  0.47235  Biso   1.000  H
  H1105    1.0000 0.77527  0.03993  0.51123  Biso   1.000  H
  C1084    1.0000 0.81849  0.85476  0.35122  Biso   1.000  C
  C1085    1.0000 0.81846  0.85471  0.35122  Biso   1.000  C
  C1086    1.0000 0.87521  0.83914  0.41220  Biso   1.000  C
  C1087    1.0000 0.87517  0.83914  0.41220  Biso   1.000  C
  C1088    1.0000 0.91342  0.09972  0.38160  Biso   1.000  C
  H1106    1.0000 0.81571  0.04366  0.37334  Biso   1.000  H
  H1107    1.0000 0.81561  0.04361  0.37334  Biso   1.000  H
  C1089    1.0000 0.84379  0.83074  0.31969  Biso   1.000  C
  H1108    1.0000 0.79012  0.86807  0.34102  Biso   1.000  H
  H1109    1.0000 0.79005  0.86802  0.34102  Biso   1.000  H
  C1090    1.0000 0.90032  0.81375  0.38160  Biso   1.000  C
  C1091    1.0000 0.90027  0.81375  0.38160  Biso   1.000  C
  H1110    1.0000 0.88648  0.84263  0.44393  Biso   1.000  H
  C1092    1.0000 0.92576  0.11605  0.33476  Biso   1.000  C
  C1093    1.0000 0.96394  0.12483  0.41220  Biso   1.000  C
  C1094    1.0000 0.83227  0.82984  0.27071  Biso   1.000  C
  C1095    1.0000 0.83231  0.82984  0.27071  Biso   1.000  C
  C1096    1.0000 0.88401  0.80974  0.33476  Biso   1.000  C
  C1097    1.0000 0.88397  0.80974  0.33476  Biso   1.000  C
  C1098    1.0000 0.94201  0.79006  0.39602  Biso   1.000  C
  C1099    1.0000 0.94194  0.79001  0.39602  Biso   1.000  C
  C1100    1.0000 0.98701  0.15626  0.31969  Biso   1.000  C
  H1111    1.0000 0.89195  0.09944  0.31312  Biso   1.000  H
  C1101    1.0000 0.98695  0.15621  0.31969  Biso   1.000  C
  H1112    1.0000 0.95618  0.11355  0.44393  Biso   1.000  H
  C1102    1.0000 0.02468  0.16513  0.39816  Biso   1.000  C
  C1103    1.0000 0.82986  0.83230  0.22929  Biso   1.000  C
  C1104    1.0000 0.82983  0.83225  0.22929  Biso   1.000  C
  H1113    1.0000 0.90059  0.79256  0.31312  Biso   1.000  H
  H1114    1.0000 0.90057  0.79251  0.31312  Biso   1.000  H
  H1115    1.0000 0.95637  0.77203  0.37334  Biso   1.000  H
  N153     1.0000 0.95969  0.79256  0.43740  Biso   1.000  N
  N154     1.0000 0.95966  0.79251  0.43740  Biso   1.000  N
  C1105    1.0000 0.03624  0.18155  0.35122  Biso   1.000  C
  C1106    1.0000 0.99757  0.16773  0.27071  Biso   1.000  C
  C1107    1.0000 0.07605  0.18835  0.43245  Biso   1.000  C
  C1108    1.0000 0.83077  0.84376  0.18031  Biso   1.000  C
  C1109    1.0000 0.83073  0.84376  0.18031  Biso   1.000  C
  C1110    1.0000 0.00221  0.76816  0.44797  Biso   1.000  C
  C1111    1.0000 0.00215  0.76812  0.44797  Biso   1.000  C
  H1116    1.0000 0.07795  0.20996  0.34102  Biso   1.000  H
  H1117    1.0000 0.07792  0.20991  0.34102  Biso   1.000  H
  C1112    1.0000 0.00247  0.17018  0.22929  Biso   1.000  C
  C1113    1.0000 0.00239  0.17018  0.22929  Biso   1.000  C
  N155     1.0000 0.13333  0.22723  0.42409  Biso   1.000  N
  H1118    1.0000 0.06522  0.17282  0.46315  Biso   1.000  H
  C1114    1.0000 0.85474  0.81847  0.14878  Biso   1.000  C
  C1115    1.0000 0.80976  0.88397  0.16524  Biso   1.000  C
  C1116    1.0000 0.80972  0.88397  0.16524  Biso   1.000  C
  C1117    1.0000 0.97279  0.71814  0.48493  Biso   1.000  C
  C1118    1.0000 0.06607  0.82224  0.46239  Biso   1.000  C
  H1119    1.0000 0.00767  0.74844  0.41942  Biso   1.000  H
  C1119    1.0000 0.01302  0.16928  0.18031  Biso   1.000  C
  C1120    1.0000 0.17777  0.24384  0.46239  Biso   1.000  C
  H1120    1.0000 0.86804  0.79006  0.15898  Biso   1.000  H
  C1121    1.0000 0.85956  0.83489  0.10184  Biso   1.000  C
  C1122    1.0000 0.85953  0.83484  0.10184  Biso   1.000  C
  H1121    1.0000 0.79256  0.90058  0.18688  Biso   1.000  H
  C1123    1.0000 0.81375  0.90030  0.11840  Biso   1.000  C
  C1124    1.0000 0.81373  0.90025  0.11840  Biso   1.000  C
  H1122    1.0000 0.96011  0.73537  0.51123  Biso   1.000  H
  H1123    1.0000 0.93412  0.68176  0.47235  Biso   1.000  H
  H1124    1.0000 0.96004  0.73532  0.51123  Biso   1.000  H
  H1125    1.0000 0.93406  0.68171  0.47235  Biso   1.000  H
  C1125    1.0000 0.01611  0.69526  0.50273  Biso   1.000  C
  C1126    1.0000 0.01607  0.69526  0.50273  Biso   1.000  C
  N156     1.0000 0.09392  0.86665  0.42409  Biso   1.000  N
  H1126    1.0000 0.05980  0.84475  0.48894  Biso   1.000  H
  C1127    1.0000 0.10899  0.79723  0.47826  Biso   1.000  C
  N157     1.0000 0.09388  0.86665  0.42409  Biso   1.000  N
  C1128    1.0000 0.07424  0.19028  0.16524  Biso   1.000  C
  C1129    1.0000 0.96370  0.14526  0.14878  Biso   1.000  C
  C1130    1.0000 0.23183  0.23403  0.44797  Biso   1.000  C
  H1127    1.0000 0.15524  0.21506  0.48894  Biso   1.000  H
  C1131    1.0000 0.20281  0.31175  0.47826  Biso   1.000  C
  H1128    1.0000 0.15522  0.21501  0.48894  Biso   1.000  H
  C1132    1.0000 0.20277  0.31175  0.47826  Biso   1.000  C
  C1133    1.0000 0.88775  0.81167  0.06755  Biso   1.000  C
  C1134    1.0000 0.83917  0.87519  0.08780  Biso   1.000  C
  C1135    1.0000 0.83914  0.87514  0.08780  Biso   1.000  C
  C1136    1.0000 0.79004  0.94197  0.10398  Biso   1.000  C
  H1129    1.0000 0.99609  0.66666  0.52935  Biso   1.000  H
  H1130    1.0000 0.99606  0.66661  0.52935  Biso   1.000  H
  C1137    1.0000 0.07900  0.75042  0.51739  Biso   1.000  C
  H1131    1.0000 0.02297  0.67114  0.47812  Biso   1.000  H
  C1138    1.0000 0.07896  0.75042  0.51739  Biso   1.000  C
  C1139    1.0000 0.11230  0.92394  0.43245  Biso   1.000  C
  C1140    1.0000 0.11226  0.92394  0.43245  Biso   1.000  C
  H1132    1.0000 0.14990  0.83296  0.48863  Biso   1.000  H
  H1133    1.0000 0.11729  0.77656  0.45195  Biso   1.000  H
  H1134    1.0000 0.11726  0.77652  0.45195  Biso   1.000  H
  C1141    1.0000 0.08654  0.18627  0.11840  Biso   1.000  C
  C1142    1.0000 0.08649  0.18627  0.11840  Biso   1.000  C
  H1135    1.0000 0.10800  0.20746  0.18688  Biso   1.000  H
  C1143    1.0000 0.97533  0.14050  0.10184  Biso   1.000  C
  C1144    1.0000 0.97531  0.14045  0.10184  Biso   1.000  C
  H1136    1.0000 0.92206  0.13195  0.15898  Biso   1.000  H
  H1137    1.0000 0.92198  0.13195  0.15898  Biso   1.000  H
  N158     1.0000 0.20751  0.16716  0.43740  Biso   1.000  N
  N159     1.0000 0.20741  0.16711  0.43740  Biso   1.000  N
  C1145    1.0000 0.28191  0.25465  0.48493  Biso   1.000  C
  H1138    1.0000 0.25158  0.25923  0.41942  Biso   1.000  H
  C1146    1.0000 0.28183  0.25465  0.48493  Biso   1.000  C
  H1139    1.0000 0.25150  0.25923  0.41942  Biso   1.000  H
  H1140    1.0000 0.16703  0.31694  0.48863  Biso   1.000  H
  H1141    1.0000 0.22347  0.34072  0.45195  Biso   1.000  H
  C1147    1.0000 0.24959  0.32855  0.51739  Biso   1.000  C
  N160     1.0000 0.90615  0.77279  0.07591  Biso   1.000  N
  H1142    1.0000 0.89245  0.82720  0.03685  Biso   1.000  H
  N161     1.0000 0.90613  0.77274  0.07591  Biso   1.000  N
  H1143    1.0000 0.89243  0.82715  0.03685  Biso   1.000  H
  H1144    1.0000 0.84264  0.88647  0.05607  Biso   1.000  H
  N162     1.0000 0.79255  0.95966  0.06260  Biso   1.000  N
  H1145    1.0000 0.77206  0.95636  0.12666  Biso   1.000  H
  N163     1.0000 0.79251  0.95966  0.06260  Biso   1.000  N
  H1146    1.0000 0.77202  0.95636  0.12666  Biso   1.000  H
  H1147    1.0000 0.07270  0.77175  0.54425  Biso   1.000  H
  H1148    1.0000 0.10759  0.73485  0.52693  Biso   1.000  H
  H1149    1.0000 0.07266  0.77175  0.54425  Biso   1.000  H
  C1148    1.0000 0.14049  0.97533  0.39816  Biso   1.000  C
  H1150    1.0000 0.10761  0.93475  0.46315  Biso   1.000  H
  C1149    1.0000 0.14045  0.97533  0.39816  Biso   1.000  C
  H1151    1.0000 0.10757  0.93475  0.46315  Biso   1.000  H
  C1150    1.0000 0.15192  0.20996  0.10398  Biso   1.000  C
  C1151    1.0000 0.03608  0.16088  0.08780  Biso   1.000  C
  C1152    1.0000 0.03604  0.16088  0.08780  Biso   1.000  C
  C1153    1.0000 0.92391  0.11228  0.06755  Biso   1.000  C
  C1154    1.0000 0.92399  0.11228  0.06755  Biso   1.000  C
  C1155    1.0000 0.21001  0.15196  0.39602  Biso   1.000  C
  C1156    1.0000 0.20990  0.15192  0.39602  Biso   1.000  C
  C1157    1.0000 0.30480  0.32086  0.50273  Biso   1.000  C
  H1152    1.0000 0.26466  0.22473  0.51123  Biso   1.000  H
  H1153    1.0000 0.31823  0.25234  0.47235  Biso   1.000  H
  C1158    1.0000 0.30477  0.32081  0.50273  Biso   1.000  C
  H1154    1.0000 0.26462  0.22473  0.51123  Biso   1.000  H
  H1155    1.0000 0.22830  0.30094  0.54425  Biso   1.000  H
  H1156    1.0000 0.26516  0.37277  0.52693  Biso   1.000  H
  H1157    1.0000 0.22822  0.30094  0.54425  Biso   1.000  H
  H1158    1.0000 0.26513  0.37272  0.52693  Biso   1.000  H
  C1159    1.0000 0.93398  0.75618  0.03761  Biso   1.000  C
  C1160    1.0000 0.93394  0.75618  0.03761  Biso   1.000  C
  C1161    1.0000 0.76816  0.00218  0.05203  Biso   1.000  C
  C1162    1.0000 0.76812  0.00218  0.05203  Biso   1.000  C
  C1163    1.0000 0.14527  0.96372  0.35122  Biso   1.000  C
  C1164    1.0000 0.16085  0.03606  0.41220  Biso   1.000  C
  C1165    1.0000 0.16082  0.03602  0.41220  Biso   1.000  C
  N164     1.0000 0.16714  0.20746  0.06260  Biso   1.000  N
  H1159    1.0000 0.18435  0.22799  0.12666  Biso   1.000  H
  H1160    1.0000 0.04386  0.15739  0.05607  Biso   1.000  H
  H1161    1.0000 0.04383  0.15734  0.05607  Biso   1.000  H
  N165     1.0000 0.86661  0.09387  0.07591  Biso   1.000  N
  H1162    1.0000 0.93475  0.10756  0.03685  Biso   1.000  H
  H1163    1.0000 0.93467  0.10756  0.03685  Biso   1.000  H
  C1166    1.0000 0.18626  0.08656  0.38160  Biso   1.000  C
  C1167    1.0000 0.18623  0.08651  0.38160  Biso   1.000  C
  H1164    1.0000 0.22795  0.18434  0.37334  Biso   1.000  H
  H1165    1.0000 0.22791  0.18434  0.37334  Biso   1.000  H
  H1166    1.0000 0.32888  0.35186  0.47812  Biso   1.000  H
  H1167    1.0000 0.33337  0.32945  0.52935  Biso   1.000  H
  H1168    1.0000 0.32882  0.35181  0.47812  Biso   1.000  H
  H1169    1.0000 0.33332  0.32945  0.52935  Biso   1.000  H
  H1170    1.0000 0.94024  0.78496  0.01106  Biso   1.000  H
  C1168    1.0000 0.89107  0.68827  0.02174  Biso   1.000  C
  C1169    1.0000 0.99786  0.76599  0.05203  Biso   1.000  C
  C1170    1.0000 0.89103  0.68827  0.02174  Biso   1.000  C
  C1171    1.0000 0.99783  0.76595  0.05203  Biso   1.000  C
  C1172    1.0000 0.71815  0.97278  0.01507  Biso   1.000  C
  C1173    1.0000 0.82226  0.06608  0.03761  Biso   1.000  C
  H1171    1.0000 0.74846  0.00766  0.08058  Biso   1.000  H
  C1174    1.0000 0.82218  0.06608  0.03761  Biso   1.000  C
  H1172    1.0000 0.74838  0.00766  0.08058  Biso   1.000  H
  H1173    1.0000 0.13200  0.92205  0.34102  Biso   1.000  H
  H1174    1.0000 0.13196  0.92205  0.34102  Biso   1.000  H
  C1175    1.0000 0.16923  0.01304  0.31969  Biso   1.000  C
  H1175    1.0000 0.15738  0.04385  0.44393  Biso   1.000  H
  C1176    1.0000 0.23402  0.23186  0.05203  Biso   1.000  C
  C1177    1.0000 0.23398  0.23186  0.05203  Biso   1.000  C
  C1178    1.0000 0.19027  0.07424  0.33476  Biso   1.000  C
  H1176    1.0000 0.85014  0.68308  0.01137  Biso   1.000  H
  H1177    1.0000 0.88276  0.65930  0.04805  Biso   1.000  H
  H1178    1.0000 0.88273  0.65925  0.04805  Biso   1.000  H
  C1179    1.0000 0.92105  0.67147  0.98261  Biso   1.000  C
  H1179    1.0000 0.99237  0.74079  0.08058  Biso   1.000  H
  H1180    1.0000 0.99230  0.74075  0.08058  Biso   1.000  H
  N166     1.0000 0.04036  0.83286  0.06260  Biso   1.000  N
  C1180    1.0000 0.02727  0.74537  0.01507  Biso   1.000  C
  N167     1.0000 0.04032  0.83286  0.06260  Biso   1.000  N
  C1181    1.0000 0.02723  0.74537  0.01507  Biso   1.000  C
  H1181    1.0000 0.68176  0.93409  0.02765  Biso   1.000  H
  H1182    1.0000 0.68172  0.93409  0.02765  Biso   1.000  H
  H1183    1.0000 0.73535  0.96009  0.98877  Biso   1.000  H
  C1182    1.0000 0.69520  0.01606  0.99727  Biso   1.000  C
  H1184    1.0000 0.84479  0.05980  0.01106  Biso   1.000  H
  C1183    1.0000 0.79720  0.10897  0.02174  Biso   1.000  C
  H1185    1.0000 0.84472  0.05975  0.01106  Biso   1.000  H
  C1184    1.0000 0.17020  0.00246  0.27071  Biso   1.000  C
  C1185    1.0000 0.17018  0.00242  0.27071  Biso   1.000  C
  C1186    1.0000 0.24384  0.17778  0.03761  Biso   1.000  C
  C1187    1.0000 0.25465  0.28188  0.01507  Biso   1.000  C
  H1186    1.0000 0.25920  0.25158  0.08058  Biso   1.000  H
  H1187    1.0000 0.20745  0.10803  0.31312  Biso   1.000  H
  H1188    1.0000 0.92737  0.69908  0.95575  Biso   1.000  H
  H1189    1.0000 0.89244  0.62725  0.97307  Biso   1.000  H
  C1188    1.0000 0.98395  0.67916  0.99727  Biso   1.000  C
  H1190    1.0000 0.92733  0.69908  0.95575  Biso   1.000  H
  C1189    1.0000 0.05806  0.84806  0.10398  Biso   1.000  C
  C1190    1.0000 0.05801  0.84806  0.10398  Biso   1.000  C
  H1191    1.0000 0.03998  0.77529  0.98877  Biso   1.000  H
  H1192    1.0000 0.03994  0.77529  0.98877  Biso   1.000  H
  H1193    1.0000 0.06594  0.74768  0.02765  Biso   1.000  H
  H1194    1.0000 0.66667  0.99609  0.97065  Biso   1.000  H
  H1195    1.0000 0.66660  0.99605  0.97065  Biso   1.000  H
  C1191    1.0000 0.75044  0.07896  0.98261  Biso   1.000  C
  H1196    1.0000 0.67113  0.02299  0.02188  Biso   1.000  H
  H1197    1.0000 0.67106  0.02295  0.02188  Biso   1.000  H
  H1198    1.0000 0.83298  0.14989  0.01137  Biso   1.000  H
  H1199    1.0000 0.77655  0.11728  0.04805  Biso   1.000  H
  H1200    1.0000 0.83290  0.14989  0.01137  Biso   1.000  H
  C1192    1.0000 0.16775  0.99756  0.22929  Biso   1.000  C
  N168     1.0000 0.22724  0.13337  0.07591  Biso   1.000  N
  H1201    1.0000 0.21505  0.15527  0.01106  Biso   1.000  H
  C1193    1.0000 0.31172  0.20279  0.02174  Biso   1.000  C
  H1202    1.0000 0.22471  0.26465  0.98877  Biso   1.000  H
  C1194    1.0000 0.32086  0.30477  0.99727  Biso   1.000  C
  C1195    1.0000 0.32078  0.30477  0.99727  Biso   1.000  C
  H1203    1.0000 0.25233  0.31826  0.02765  Biso   1.000  H
  H1204    1.0000 0.25229  0.31826  0.02765  Biso   1.000  H
  H1205    1.0000 0.97707  0.64816  0.02188  Biso   1.000  H
  H1206    1.0000 0.97703  0.64816  0.02188  Biso   1.000  H
  H1207    1.0000 0.00397  0.67057  0.97065  Biso   1.000  H
  H1208    1.0000 0.00393  0.67057  0.97065  Biso   1.000  H
  H1209    1.0000 0.04367  0.81569  0.12666  Biso   1.000  H
  C1196    1.0000 0.09975  0.91346  0.11840  Biso   1.000  C
  H1210    1.0000 0.04363  0.81569  0.12666  Biso   1.000  H
  H1211    1.0000 0.77178  0.07268  0.95575  Biso   1.000  H
  H1212    1.0000 0.73486  0.10756  0.97307  Biso   1.000  H
  H1213    1.0000 0.77174  0.07268  0.95575  Biso   1.000  H
  H1214    1.0000 0.73478  0.10756  0.97307  Biso   1.000  H
  C1197    1.0000 0.15625  0.98699  0.18031  Biso   1.000  C
  C1198    1.0000 0.18833  0.07608  0.06755  Biso   1.000  C
  C1199    1.0000 0.32859  0.24960  0.98261  Biso   1.000  C
  C1200    1.0000 0.32852  0.24955  0.98261  Biso   1.000  C
  H1215    1.0000 0.31691  0.16706  0.01137  Biso   1.000  H
  H1216    1.0000 0.34069  0.22346  0.04805  Biso   1.000  H
  H1217    1.0000 0.32940  0.33336  0.97065  Biso   1.000  H
  H1218    1.0000 0.35184  0.32888  0.02188  Biso   1.000  H
  C1201    1.0000 0.12483  0.96396  0.08780  Biso   1.000  C
  C1202    1.0000 0.11604  0.92578  0.16524  Biso   1.000  C
  C1203    1.0000 0.18156  0.03630  0.14878  Biso   1.000  C
  C1204    1.0000 0.18154  0.03625  0.14878  Biso   1.000  C
  H1219    1.0000 0.17284  0.06527  0.03685  Biso   1.000  H
  C1205    1.0000 0.16513  0.02469  0.10184  Biso   1.000  C
  C1206    1.0000 0.16511  0.02464  0.10184  Biso   1.000  C
  H1220    1.0000 0.30092  0.22827  0.95575  Biso   1.000  H
  H1221    1.0000 0.37271  0.26517  0.97307  Biso   1.000  H
  H1222    1.0000 0.11354  0.95617  0.05607  Biso   1.000  H
  H1223    1.0000 0.09948  0.89199  0.18688  Biso   1.000  H
  H1224    1.0000 0.09941  0.89194  0.18688  Biso   1.000  H
  H1225    1.0000 0.20996  0.07797  0.15898  Biso   1.000  H
  H1226    1.0000 0.20987  0.07797  0.15898  Biso   1.000  H
  C1207    1.0000 0.68828  0.89105  0.47826  Biso   1.000  C
  C1208    1.0000 0.75620  0.93394  0.46239  Biso   1.000  C
  C1209    1.0000 0.75615  0.93394  0.46239  Biso   1.000  C
  H1227    1.0000 0.65928  0.88274  0.45195  Biso   1.000  H
  H1228    1.0000 0.68311  0.85013  0.48863  Biso   1.000  H
  C1210    1.0000 0.67149  0.92106  0.51739  Biso   1.000  C
  H1229    1.0000 0.68307  0.85013  0.48863  Biso   1.000  H
  C1211    1.0000 0.67147  0.92101  0.51739  Biso   1.000  C
  N169     1.0000 0.77279  0.90615  0.42409  Biso   1.000  N
  N170     1.0000 0.77276  0.90610  0.42409  Biso   1.000  N
  H1230    1.0000 0.78500  0.94022  0.48894  Biso   1.000  H
  C1212    1.0000 0.76599  0.99784  0.44797  Biso   1.000  C
  H1231    1.0000 0.78496  0.94022  0.48894  Biso   1.000  H
  C1213    1.0000 0.76595  0.99784  0.44797  Biso   1.000  C
  H1232    1.0000 0.69911  0.92734  0.54425  Biso   1.000  H
  H1233    1.0000 0.62732  0.89246  0.52693  Biso   1.000  H
  C1214    1.0000 0.67920  0.98397  0.50273  Biso   1.000  C
  H1234    1.0000 0.69907  0.92734  0.54425  Biso   1.000  H
  H1235    1.0000 0.62725  0.89242  0.52693  Biso   1.000  H
  C1215    1.0000 0.67918  0.98392  0.50273  Biso   1.000  C
  C1216    1.0000 0.81168  0.88774  0.43245  Biso   1.000  C
  H1236    1.0000 0.74082  0.99237  0.41942  Biso   1.000  H
  H1237    1.0000 0.74075  0.99232  0.41942  Biso   1.000  H
  N171     1.0000 0.83290  0.04036  0.43740  Biso   1.000  N
  C1217    1.0000 0.74534  0.02724  0.48493  Biso   1.000  C
  N172     1.0000 0.83284  0.04031  0.43740  Biso   1.000  N
  H1238    1.0000 0.67054  0.00393  0.52935  Biso   1.000  H
  H1239    1.0000 0.64819  0.97703  0.47812  Biso   1.000  H
  H1240    1.0000 0.64814  0.97703  0.47812  Biso   1.000  H
  C1218    1.0000 0.83489  0.85952  0.39816  Biso   1.000  C
  C1219    1.0000 0.83485  0.85952  0.39816  Biso   1.000  C
  H1241    1.0000 0.82720  0.89246  0.46315  Biso   1.000  H
  H1242    1.0000 0.82714  0.89242  0.46315  Biso   1.000  H
  C1220    1.0000 0.84804  0.05805  0.39602  Biso   1.000  C
  H1243    1.0000 0.74765  0.06594  0.47235  Biso   1.000  H
  H1244    1.0000 0.77527  0.03993  0.51123  Biso   1.000  H
  C1221    1.0000 0.81849  0.85476  0.35122  Biso   1.000  C
  C1222    1.0000 0.81846  0.85471  0.35122  Biso   1.000  C
  C1223    1.0000 0.87521  0.83914  0.41220  Biso   1.000  C
  C1224    1.0000 0.87517  0.83914  0.41220  Biso   1.000  C
  C1225    1.0000 0.91342  0.09972  0.38160  Biso   1.000  C
  H1245    1.0000 0.81571  0.04366  0.37334  Biso   1.000  H
  H1246    1.0000 0.81561  0.04361  0.37334  Biso   1.000  H
  C1226    1.0000 0.84379  0.83074  0.31969  Biso   1.000  C
  H1247    1.0000 0.79012  0.86807  0.34102  Biso   1.000  H
  H1248    1.0000 0.79005  0.86802  0.34102  Biso   1.000  H
  C1227    1.0000 0.90032  0.81375  0.38160  Biso   1.000  C
  C1228    1.0000 0.90027  0.81375  0.38160  Biso   1.000  C
  H1249    1.0000 0.88648  0.84263  0.44393  Biso   1.000  H
  C1229    1.0000 0.92576  0.11605  0.33476  Biso   1.000  C
  C1230    1.0000 0.96394  0.12483  0.41220  Biso   1.000  C
  C1231    1.0000 0.83231  0.82984  0.27071  Biso   1.000  C
  C1232    1.0000 0.88401  0.80974  0.33476  Biso   1.000  C
  C1233    1.0000 0.83227  0.82984  0.27071  Biso   1.000  C
  C1234    1.0000 0.88397  0.80974  0.33476  Biso   1.000  C
  C1235    1.0000 0.94201  0.79006  0.39602  Biso   1.000  C
  C1236    1.0000 0.94194  0.79001  0.39602  Biso   1.000  C
  C1237    1.0000 0.98701  0.15626  0.31969  Biso   1.000  C
  H1250    1.0000 0.89195  0.09944  0.31312  Biso   1.000  H
  C1238    1.0000 0.98695  0.15621  0.31969  Biso   1.000  C
  H1251    1.0000 0.95618  0.11355  0.44393  Biso   1.000  H
  C1239    1.0000 0.02468  0.16513  0.39816  Biso   1.000  C
  C1240    1.0000 0.82986  0.83230  0.22929  Biso   1.000  C
  C1241    1.0000 0.82983  0.83225  0.22929  Biso   1.000  C
  H1252    1.0000 0.90059  0.79256  0.31312  Biso   1.000  H
  H1253    1.0000 0.90057  0.79251  0.31312  Biso   1.000  H
  H1254    1.0000 0.95637  0.77203  0.37334  Biso   1.000  H
  N173     1.0000 0.95969  0.79256  0.43740  Biso   1.000  N
  N174     1.0000 0.95966  0.79251  0.43740  Biso   1.000  N
  C1242    1.0000 0.03624  0.18155  0.35122  Biso   1.000  C
  C1243    1.0000 0.99757  0.16773  0.27071  Biso   1.000  C
  C1244    1.0000 0.07605  0.18835  0.43245  Biso   1.000  C
  C1245    1.0000 0.83077  0.84376  0.18031  Biso   1.000  C
  C1246    1.0000 0.83073  0.84376  0.18031  Biso   1.000  C
  C1247    1.0000 0.00221  0.76816  0.44797  Biso   1.000  C
  C1248    1.0000 0.00215  0.76812  0.44797  Biso   1.000  C
  H1255    1.0000 0.07795  0.20996  0.34102  Biso   1.000  H
  H1256    1.0000 0.07792  0.20991  0.34102  Biso   1.000  H
  C1249    1.0000 0.00247  0.17018  0.22929  Biso   1.000  C
  C1250    1.0000 0.00239  0.17018  0.22929  Biso   1.000  C
  N175     1.0000 0.13333  0.22723  0.42409  Biso   1.000  N
  H1257    1.0000 0.06522  0.17282  0.46315  Biso   1.000  H
  C1251    1.0000 0.85474  0.81847  0.14878  Biso   1.000  C
  C1252    1.0000 0.80976  0.88397  0.16524  Biso   1.000  C
  C1253    1.0000 0.80972  0.88397  0.16524  Biso   1.000  C
  C1254    1.0000 0.97279  0.71814  0.48493  Biso   1.000  C
  C1255    1.0000 0.06607  0.82224  0.46239  Biso   1.000  C
  H1258    1.0000 0.00767  0.74844  0.41942  Biso   1.000  H
  C1256    1.0000 0.01302  0.16928  0.18031  Biso   1.000  C
  C1257    1.0000 0.17777  0.24384  0.46239  Biso   1.000  C
  H1259    1.0000 0.86804  0.79006  0.15898  Biso   1.000  H
  C1258    1.0000 0.85956  0.83489  0.10184  Biso   1.000  C
  C1259    1.0000 0.85953  0.83484  0.10184  Biso   1.000  C
  H1260    1.0000 0.79256  0.90058  0.18688  Biso   1.000  H
  C1260    1.0000 0.81375  0.90030  0.11840  Biso   1.000  C
  C1261    1.0000 0.81373  0.90025  0.11840  Biso   1.000  C
  H1261    1.0000 0.96011  0.73537  0.51123  Biso   1.000  H
  H1262    1.0000 0.93412  0.68176  0.47235  Biso   1.000  H
  H1263    1.0000 0.96004  0.73532  0.51123  Biso   1.000  H
  H1264    1.0000 0.93406  0.68171  0.47235  Biso   1.000  H
  C1262    1.0000 0.01611  0.69526  0.50273  Biso   1.000  C
  C1263    1.0000 0.01607  0.69526  0.50273  Biso   1.000  C
  N176     1.0000 0.09392  0.86665  0.42409  Biso   1.000  N
  H1265    1.0000 0.05980  0.84475  0.48894  Biso   1.000  H
  C1264    1.0000 0.10899  0.79723  0.47826  Biso   1.000  C
  N177     1.0000 0.09388  0.86665  0.42409  Biso   1.000  N
  C1265    1.0000 0.07424  0.19028  0.16524  Biso   1.000  C
  C1266    1.0000 0.96370  0.14526  0.14878  Biso   1.000  C
  C1267    1.0000 0.23183  0.23403  0.44797  Biso   1.000  C
  H1266    1.0000 0.15524  0.21506  0.48894  Biso   1.000  H
  C1268    1.0000 0.20281  0.31175  0.47826  Biso   1.000  C
  H1267    1.0000 0.15522  0.21501  0.48894  Biso   1.000  H
  C1269    1.0000 0.20277  0.31175  0.47826  Biso   1.000  C
  C1270    1.0000 0.88775  0.81167  0.06755  Biso   1.000  C
  C1271    1.0000 0.83917  0.87519  0.08780  Biso   1.000  C
  C1272    1.0000 0.83914  0.87514  0.08780  Biso   1.000  C
  C1273    1.0000 0.79004  0.94197  0.10398  Biso   1.000  C
  H1268    1.0000 0.99609  0.66666  0.52935  Biso   1.000  H
  H1269    1.0000 0.99606  0.66661  0.52935  Biso   1.000  H
  C1274    1.0000 0.07900  0.75042  0.51739  Biso   1.000  C
  H1270    1.0000 0.02297  0.67114  0.47812  Biso   1.000  H
  C1275    1.0000 0.07896  0.75042  0.51739  Biso   1.000  C
  C1276    1.0000 0.11230  0.92394  0.43245  Biso   1.000  C
  C1277    1.0000 0.11226  0.92394  0.43245  Biso   1.000  C
  H1271    1.0000 0.14990  0.83296  0.48863  Biso   1.000  H
  H1272    1.0000 0.11729  0.77656  0.45195  Biso   1.000  H
  H1273    1.0000 0.11726  0.77652  0.45195  Biso   1.000  H
  C1278    1.0000 0.08654  0.18627  0.11840  Biso   1.000  C
  C1279    1.0000 0.08649  0.18627  0.11840  Biso   1.000  C
  H1274    1.0000 0.10800  0.20746  0.18688  Biso   1.000  H
  C1280    1.0000 0.97533  0.14050  0.10184  Biso   1.000  C
  C1281    1.0000 0.97531  0.14045  0.10184  Biso   1.000  C
  H1275    1.0000 0.92206  0.13195  0.15898  Biso   1.000  H
  H1276    1.0000 0.92198  0.13195  0.15898  Biso   1.000  H
  N178     1.0000 0.20751  0.16716  0.43740  Biso   1.000  N
  N179     1.0000 0.20741  0.16711  0.43740  Biso   1.000  N
  C1282    1.0000 0.28191  0.25465  0.48493  Biso   1.000  C
  H1277    1.0000 0.25158  0.25923  0.41942  Biso   1.000  H
  C1283    1.0000 0.28183  0.25465  0.48493  Biso   1.000  C
  H1278    1.0000 0.25150  0.25923  0.41942  Biso   1.000  H
  H1279    1.0000 0.16703  0.31694  0.48863  Biso   1.000  H
  H1280    1.0000 0.22347  0.34072  0.45195  Biso   1.000  H
  C1284    1.0000 0.24959  0.32855  0.51739  Biso   1.000  C
  N180     1.0000 0.90615  0.77279  0.07591  Biso   1.000  N
  H1281    1.0000 0.89245  0.82720  0.03685  Biso   1.000  H
  N181     1.0000 0.90613  0.77274  0.07591  Biso   1.000  N
  H1282    1.0000 0.89243  0.82715  0.03685  Biso   1.000  H
  H1283    1.0000 0.84264  0.88647  0.05607  Biso   1.000  H
  N182     1.0000 0.79255  0.95966  0.06260  Biso   1.000  N
  H1284    1.0000 0.77206  0.95636  0.12666  Biso   1.000  H
  N183     1.0000 0.79251  0.95966  0.06260  Biso   1.000  N
  H1285    1.0000 0.77202  0.95636  0.12666  Biso   1.000  H
  H1286    1.0000 0.07270  0.77175  0.54425  Biso   1.000  H
  H1287    1.0000 0.10759  0.73485  0.52693  Biso   1.000  H
  H1288    1.0000 0.07266  0.77175  0.54425  Biso   1.000  H
  C1285    1.0000 0.14049  0.97533  0.39816  Biso   1.000  C
  H1289    1.0000 0.10761  0.93475  0.46315  Biso   1.000  H
  C1286    1.0000 0.14045  0.97533  0.39816  Biso   1.000  C
  H1290    1.0000 0.10757  0.93475  0.46315  Biso   1.000  H
  C1287    1.0000 0.15192  0.20996  0.10398  Biso   1.000  C
  C1288    1.0000 0.03608  0.16088  0.08780  Biso   1.000  C
  C1289    1.0000 0.03604  0.16088  0.08780  Biso   1.000  C
  C1290    1.0000 0.92391  0.11228  0.06755  Biso   1.000  C
  C1291    1.0000 0.92399  0.11228  0.06755  Biso   1.000  C
  C1292    1.0000 0.21001  0.15196  0.39602  Biso   1.000  C
  C1293    1.0000 0.20990  0.15192  0.39602  Biso   1.000  C
  C1294    1.0000 0.30480  0.32086  0.50273  Biso   1.000  C
  H1291    1.0000 0.26466  0.22473  0.51123  Biso   1.000  H
  H1292    1.0000 0.31823  0.25234  0.47235  Biso   1.000  H
  C1295    1.0000 0.30477  0.32081  0.50273  Biso   1.000  C
  H1293    1.0000 0.26462  0.22473  0.51123  Biso   1.000  H
  H1294    1.0000 0.22830  0.30094  0.54425  Biso   1.000  H
  H1295    1.0000 0.26516  0.37277  0.52693  Biso   1.000  H
  H1296    1.0000 0.22822  0.30094  0.54425  Biso   1.000  H
  H1297    1.0000 0.26513  0.37272  0.52693  Biso   1.000  H
  C1296    1.0000 0.93398  0.75618  0.03761  Biso   1.000  C
  C1297    1.0000 0.93394  0.75618  0.03761  Biso   1.000  C
  C1298    1.0000 0.76816  0.00218  0.05203  Biso   1.000  C
  C1299    1.0000 0.76812  0.00218  0.05203  Biso   1.000  C
  C1300    1.0000 0.14527  0.96372  0.35122  Biso   1.000  C
  C1301    1.0000 0.16085  0.03606  0.41220  Biso   1.000  C
  C1302    1.0000 0.16082  0.03602  0.41220  Biso   1.000  C
  N184     1.0000 0.16714  0.20746  0.06260  Biso   1.000  N
  H1298    1.0000 0.18435  0.22799  0.12666  Biso   1.000  H
  H1299    1.0000 0.04386  0.15739  0.05607  Biso   1.000  H
  H1300    1.0000 0.04383  0.15734  0.05607  Biso   1.000  H
  N185     1.0000 0.86661  0.09387  0.07591  Biso   1.000  N
  H1301    1.0000 0.93475  0.10756  0.03685  Biso   1.000  H
  H1302    1.0000 0.93467  0.10756  0.03685  Biso   1.000  H
  C1303    1.0000 0.18626  0.08656  0.38160  Biso   1.000  C
  C1304    1.0000 0.18623  0.08651  0.38160  Biso   1.000  C
  H1303    1.0000 0.22795  0.18434  0.37334  Biso   1.000  H
  H1304    1.0000 0.22791  0.18434  0.37334  Biso   1.000  H
  H1305    1.0000 0.32888  0.35186  0.47812  Biso   1.000  H
  H1306    1.0000 0.33337  0.32945  0.52935  Biso   1.000  H
  H1307    1.0000 0.32882  0.35181  0.47812  Biso   1.000  H
  H1308    1.0000 0.33332  0.32945  0.52935  Biso   1.000  H
  H1309    1.0000 0.94024  0.78496  0.01106  Biso   1.000  H
  C1305    1.0000 0.89107  0.68827  0.02174  Biso   1.000  C
  C1306    1.0000 0.99786  0.76599  0.05203  Biso   1.000  C
  C1307    1.0000 0.89103  0.68827  0.02174  Biso   1.000  C
  C1308    1.0000 0.99783  0.76595  0.05203  Biso   1.000  C
  C1309    1.0000 0.71815  0.97278  0.01507  Biso   1.000  C
  C1310    1.0000 0.82226  0.06608  0.03761  Biso   1.000  C
  H1310    1.0000 0.74846  0.00766  0.08058  Biso   1.000  H
  C1311    1.0000 0.82218  0.06608  0.03761  Biso   1.000  C
  H1311    1.0000 0.74838  0.00766  0.08058  Biso   1.000  H
  H1312    1.0000 0.13200  0.92205  0.34102  Biso   1.000  H
  H1313    1.0000 0.13196  0.92205  0.34102  Biso   1.000  H
  C1312    1.0000 0.16923  0.01304  0.31969  Biso   1.000  C
  H1314    1.0000 0.15738  0.04385  0.44393  Biso   1.000  H
  C1313    1.0000 0.23402  0.23186  0.05203  Biso   1.000  C
  C1314    1.0000 0.23398  0.23186  0.05203  Biso   1.000  C
  C1315    1.0000 0.19027  0.07424  0.33476  Biso   1.000  C
  H1315    1.0000 0.85014  0.68308  0.01137  Biso   1.000  H
  C1316    1.0000 0.92105  0.67147  0.98261  Biso   1.000  C
  H1316    1.0000 0.88276  0.65930  0.04805  Biso   1.000  H
  H1317    1.0000 0.88273  0.65925  0.04805  Biso   1.000  H
  H1318    1.0000 0.99237  0.74079  0.08058  Biso   1.000  H
  H1319    1.0000 0.99230  0.74075  0.08058  Biso   1.000  H
  N186     1.0000 0.04036  0.83286  0.06260  Biso   1.000  N
  C1317    1.0000 0.02727  0.74537  0.01507  Biso   1.000  C
  N187     1.0000 0.04032  0.83286  0.06260  Biso   1.000  N
  C1318    1.0000 0.02723  0.74537  0.01507  Biso   1.000  C
  H1320    1.0000 0.73535  0.96009  0.98877  Biso   1.000  H
  H1321    1.0000 0.68176  0.93409  0.02765  Biso   1.000  H
  H1322    1.0000 0.68172  0.93409  0.02765  Biso   1.000  H
  C1319    1.0000 0.69520  0.01606  0.99727  Biso   1.000  C
  H1323    1.0000 0.84479  0.05980  0.01106  Biso   1.000  H
  C1320    1.0000 0.79720  0.10897  0.02174  Biso   1.000  C
  H1324    1.0000 0.84472  0.05975  0.01106  Biso   1.000  H
  C1321    1.0000 0.17020  0.00246  0.27071  Biso   1.000  C
  C1322    1.0000 0.17018  0.00242  0.27071  Biso   1.000  C
  C1323    1.0000 0.24384  0.17778  0.03761  Biso   1.000  C
  C1324    1.0000 0.25465  0.28188  0.01507  Biso   1.000  C
  H1325    1.0000 0.25920  0.25158  0.08058  Biso   1.000  H
  H1326    1.0000 0.20745  0.10803  0.31312  Biso   1.000  H
  H1327    1.0000 0.92737  0.69908  0.95575  Biso   1.000  H
  H1328    1.0000 0.89244  0.62725  0.97307  Biso   1.000  H
  C1325    1.0000 0.98395  0.67916  0.99727  Biso   1.000  C
  H1329    1.0000 0.92733  0.69908  0.95575  Biso   1.000  H
  C1326    1.0000 0.05806  0.84806  0.10398  Biso   1.000  C
  C1327    1.0000 0.05801  0.84806  0.10398  Biso   1.000  C
  H1330    1.0000 0.03998  0.77529  0.98877  Biso   1.000  H
  H1331    1.0000 0.03994  0.77529  0.98877  Biso   1.000  H
  H1332    1.0000 0.06594  0.74768  0.02765  Biso   1.000  H
  H1333    1.0000 0.66667  0.99609  0.97065  Biso   1.000  H
  H1334    1.0000 0.66660  0.99605  0.97065  Biso   1.000  H
  C1328    1.0000 0.75044  0.07896  0.98261  Biso   1.000  C
  H1335    1.0000 0.67113  0.02299  0.02188  Biso   1.000  H
  H1336    1.0000 0.67106  0.02295  0.02188  Biso   1.000  H
  H1337    1.0000 0.83298  0.14989  0.01137  Biso   1.000  H
  H1338    1.0000 0.77655  0.11728  0.04805  Biso   1.000  H
  H1339    1.0000 0.83290  0.14989  0.01137  Biso   1.000  H
  C1329    1.0000 0.16775  0.99756  0.22929  Biso   1.000  C
  N188     1.0000 0.22724  0.13337  0.07591  Biso   1.000  N
  H1340    1.0000 0.21505  0.15527  0.01106  Biso   1.000  H
  C1330    1.0000 0.31172  0.20279  0.02174  Biso   1.000  C
  H1341    1.0000 0.22471  0.26465  0.98877  Biso   1.000  H
  C1331    1.0000 0.32086  0.30477  0.99727  Biso   1.000  C
  C1332    1.0000 0.32078  0.30477  0.99727  Biso   1.000  C
  H1342    1.0000 0.25233  0.31826  0.02765  Biso   1.000  H
  H1343    1.0000 0.25229  0.31826  0.02765  Biso   1.000  H
  H1344    1.0000 0.97707  0.64816  0.02188  Biso   1.000  H
  H1345    1.0000 0.97703  0.64816  0.02188  Biso   1.000  H
  H1346    1.0000 0.00397  0.67057  0.97065  Biso   1.000  H
  H1347    1.0000 0.00393  0.67057  0.97065  Biso   1.000  H
  H1348    1.0000 0.04367  0.81569  0.12666  Biso   1.000  H
  C1333    1.0000 0.09975  0.91346  0.11840  Biso   1.000  C
  H1349    1.0000 0.04363  0.81569  0.12666  Biso   1.000  H
  H1350    1.0000 0.77178  0.07268  0.95575  Biso   1.000  H
  H1351    1.0000 0.73486  0.10756  0.97307  Biso   1.000  H
  H1352    1.0000 0.77174  0.07268  0.95575  Biso   1.000  H
  H1353    1.0000 0.73478  0.10756  0.97307  Biso   1.000  H
  C1334    1.0000 0.15625  0.98699  0.18031  Biso   1.000  C
  C1335    1.0000 0.18833  0.07608  0.06755  Biso   1.000  C
  C1336    1.0000 0.32859  0.24960  0.98261  Biso   1.000  C
  C1337    1.0000 0.32852  0.24955  0.98261  Biso   1.000  C
  H1354    1.0000 0.31691  0.16706  0.01137  Biso   1.000  H
  H1355    1.0000 0.34069  0.22346  0.04805  Biso   1.000  H
  H1356    1.0000 0.32940  0.33336  0.97065  Biso   1.000  H
  H1357    1.0000 0.35184  0.32888  0.02188  Biso   1.000  H
  C1338    1.0000 0.12483  0.96396  0.08780  Biso   1.000  C
  C1339    1.0000 0.11604  0.92578  0.16524  Biso   1.000  C
  C1340    1.0000 0.18156  0.03630  0.14878  Biso   1.000  C
  C1341    1.0000 0.18154  0.03625  0.14878  Biso   1.000  C
  H1358    1.0000 0.17284  0.06527  0.03685  Biso   1.000  H
  C1342    1.0000 0.16513  0.02469  0.10184  Biso   1.000  C
  C1343    1.0000 0.16511  0.02464  0.10184  Biso   1.000  C
  H1359    1.0000 0.30092  0.22827  0.95575  Biso   1.000  H
  H1360    1.0000 0.37271  0.26517  0.97307  Biso   1.000  H
  H1361    1.0000 0.11354  0.95617  0.05607  Biso   1.000  H
  H1362    1.0000 0.09948  0.89199  0.18688  Biso   1.000  H
  H1363    1.0000 0.09941  0.89194  0.18688  Biso   1.000  H
  H1364    1.0000 0.20996  0.07797  0.15898  Biso   1.000  H
  H1365    1.0000 0.20987  0.07797  0.15898  Biso   1.000  H
  C1344    1.0000 0.68828  0.89105  0.47826  Biso   1.000  C
  C1345    1.0000 0.75620  0.93394  0.46239  Biso   1.000  C
  C1346    1.0000 0.75615  0.93394  0.46239  Biso   1.000  C
  H1366    1.0000 0.65928  0.88274  0.45195  Biso   1.000  H
  H1367    1.0000 0.68311  0.85013  0.48863  Biso   1.000  H
  C1347    1.0000 0.67149  0.92106  0.51739  Biso   1.000  C
  H1368    1.0000 0.68307  0.85013  0.48863  Biso   1.000  H
  C1348    1.0000 0.67147  0.92101  0.51739  Biso   1.000  C
  N189     1.0000 0.77279  0.90615  0.42409  Biso   1.000  N
  N190     1.0000 0.77276  0.90610  0.42409  Biso   1.000  N
  H1369    1.0000 0.78500  0.94022  0.48894  Biso   1.000  H
  C1349    1.0000 0.76599  0.99784  0.44797  Biso   1.000  C
  H1370    1.0000 0.78496  0.94022  0.48894  Biso   1.000  H
  C1350    1.0000 0.76595  0.99784  0.44797  Biso   1.000  C
  H1371    1.0000 0.69911  0.92734  0.54425  Biso   1.000  H
  H1372    1.0000 0.62732  0.89246  0.52693  Biso   1.000  H
  C1351    1.0000 0.67920  0.98397  0.50273  Biso   1.000  C
  H1373    1.0000 0.69907  0.92734  0.54425  Biso   1.000  H
  H1374    1.0000 0.62725  0.89242  0.52693  Biso   1.000  H
  C1352    1.0000 0.67918  0.98392  0.50273  Biso   1.000  C
  C1353    1.0000 0.81168  0.88774  0.43245  Biso   1.000  C
  H1375    1.0000 0.74082  0.99237  0.41942  Biso   1.000  H
  H1376    1.0000 0.74075  0.99232  0.41942  Biso   1.000  H
  N191     1.0000 0.83290  0.04036  0.43740  Biso   1.000  N
  C1354    1.0000 0.74534  0.02724  0.48493  Biso   1.000  C
  N192     1.0000 0.83284  0.04031  0.43740  Biso   1.000  N
  H1377    1.0000 0.67054  0.00393  0.52935  Biso   1.000  H
  H1378    1.0000 0.64819  0.97703  0.47812  Biso   1.000  H
  H1379    1.0000 0.64814  0.97703  0.47812  Biso   1.000  H
  C1355    1.0000 0.83489  0.85952  0.39816  Biso   1.000  C
  C1356    1.0000 0.83485  0.85952  0.39816  Biso   1.000  C
  H1380    1.0000 0.82720  0.89246  0.46315  Biso   1.000  H
  H1381    1.0000 0.82714  0.89242  0.46315  Biso   1.000  H
  C1357    1.0000 0.84804  0.05805  0.39602  Biso   1.000  C
  H1382    1.0000 0.74765  0.06594  0.47235  Biso   1.000  H
  H1383    1.0000 0.77527  0.03993  0.51123  Biso   1.000  H
  C1358    1.0000 0.81849  0.85476  0.35122  Biso   1.000  C
  C1359    1.0000 0.81846  0.85471  0.35122  Biso   1.000  C
  C1360    1.0000 0.87521  0.83914  0.41220  Biso   1.000  C
  C1361    1.0000 0.87517  0.83914  0.41220  Biso   1.000  C
  C1362    1.0000 0.91342  0.09972  0.38160  Biso   1.000  C
  H1384    1.0000 0.81571  0.04366  0.37334  Biso   1.000  H
  H1385    1.0000 0.81561  0.04361  0.37334  Biso   1.000  H
  C1363    1.0000 0.84379  0.83074  0.31969  Biso   1.000  C
  H1386    1.0000 0.79012  0.86807  0.34102  Biso   1.000  H
  H1387    1.0000 0.79005  0.86802  0.34102  Biso   1.000  H
  C1364    1.0000 0.90032  0.81375  0.38160  Biso   1.000  C
  C1365    1.0000 0.90027  0.81375  0.38160  Biso   1.000  C
  H1388    1.0000 0.88648  0.84263  0.44393  Biso   1.000  H
  C1366    1.0000 0.92576  0.11605  0.33476  Biso   1.000  C
  C1367    1.0000 0.96394  0.12483  0.41220  Biso   1.000  C
  C1368    1.0000 0.83231  0.82984  0.27071  Biso   1.000  C
  C1369    1.0000 0.88401  0.80974  0.33476  Biso   1.000  C
  C1370    1.0000 0.83227  0.82984  0.27071  Biso   1.000  C
  C1371    1.0000 0.88397  0.80974  0.33476  Biso   1.000  C
  C1372    1.0000 0.94201  0.79006  0.39602  Biso   1.000  C
  C1373    1.0000 0.94194  0.79001  0.39602  Biso   1.000  C
  C1374    1.0000 0.98701  0.15626  0.31969  Biso   1.000  C
  H1389    1.0000 0.89195  0.09944  0.31312  Biso   1.000  H
  C1375    1.0000 0.98695  0.15621  0.31969  Biso   1.000  C
  H1390    1.0000 0.95618  0.11355  0.44393  Biso   1.000  H
  C1376    1.0000 0.02468  0.16513  0.39816  Biso   1.000  C
  C1377    1.0000 0.82986  0.83230  0.22929  Biso   1.000  C
  C1378    1.0000 0.82983  0.83225  0.22929  Biso   1.000  C
  H1391    1.0000 0.90059  0.79256  0.31312  Biso   1.000  H
  H1392    1.0000 0.90057  0.79251  0.31312  Biso   1.000  H
  H1393    1.0000 0.95637  0.77203  0.37334  Biso   1.000  H
  N193     1.0000 0.95969  0.79256  0.43740  Biso   1.000  N
  N194     1.0000 0.95966  0.79251  0.43740  Biso   1.000  N
  C1379    1.0000 0.03624  0.18155  0.35122  Biso   1.000  C
  C1380    1.0000 0.99757  0.16773  0.27071  Biso   1.000  C
  C1381    1.0000 0.07605  0.18835  0.43245  Biso   1.000  C
  C1382    1.0000 0.83077  0.84376  0.18031  Biso   1.000  C
  C1383    1.0000 0.83073  0.84376  0.18031  Biso   1.000  C
  C1384    1.0000 0.00221  0.76816  0.44797  Biso   1.000  C
  C1385    1.0000 0.00215  0.76812  0.44797  Biso   1.000  C
  H1394    1.0000 0.07795  0.20996  0.34102  Biso   1.000  H
  H1395    1.0000 0.07792  0.20991  0.34102  Biso   1.000  H
  C1386    1.0000 0.00247  0.17018  0.22929  Biso   1.000  C
  C1387    1.0000 0.00239  0.17018  0.22929  Biso   1.000  C
  N195     1.0000 0.13333  0.22723  0.42409  Biso   1.000  N
  H1396    1.0000 0.06522  0.17282  0.46315  Biso   1.000  H
  C1388    1.0000 0.85474  0.81847  0.14878  Biso   1.000  C
  C1389    1.0000 0.80976  0.88397  0.16524  Biso   1.000  C
  C1390    1.0000 0.80972  0.88397  0.16524  Biso   1.000  C
  C1391    1.0000 0.97279  0.71814  0.48493  Biso   1.000  C
  C1392    1.0000 0.06607  0.82224  0.46239  Biso   1.000  C
  H1397    1.0000 0.00767  0.74844  0.41942  Biso   1.000  H
  C1393    1.0000 0.01302  0.16928  0.18031  Biso   1.000  C
  C1394    1.0000 0.17777  0.24384  0.46239  Biso   1.000  C
  H1398    1.0000 0.86804  0.79006  0.15898  Biso   1.000  H
  C1395    1.0000 0.85956  0.83489  0.10184  Biso   1.000  C
  C1396    1.0000 0.85953  0.83484  0.10184  Biso   1.000  C
  H1399    1.0000 0.79256  0.90058  0.18688  Biso   1.000  H
  C1397    1.0000 0.81375  0.90030  0.11840  Biso   1.000  C
  C1398    1.0000 0.81373  0.90025  0.11840  Biso   1.000  C
  H1400    1.0000 0.96011  0.73537  0.51123  Biso   1.000  H
  H1401    1.0000 0.93412  0.68176  0.47235  Biso   1.000  H
  H1402    1.0000 0.96004  0.73532  0.51123  Biso   1.000  H
  H1403    1.0000 0.93406  0.68171  0.47235  Biso   1.000  H
  C1399    1.0000 0.01611  0.69526  0.50273  Biso   1.000  C
  C1400    1.0000 0.01607  0.69526  0.50273  Biso   1.000  C
  N196     1.0000 0.09392  0.86665  0.42409  Biso   1.000  N
  H1404    1.0000 0.05980  0.84475  0.48894  Biso   1.000  H
  C1401    1.0000 0.10899  0.79723  0.47826  Biso   1.000  C
  N197     1.0000 0.09388  0.86665  0.42409  Biso   1.000  N
  C1402    1.0000 0.07424  0.19028  0.16524  Biso   1.000  C
  C1403    1.0000 0.96370  0.14526  0.14878  Biso   1.000  C
  C1404    1.0000 0.23183  0.23403  0.44797  Biso   1.000  C
  H1405    1.0000 0.15524  0.21506  0.48894  Biso   1.000  H
  C1405    1.0000 0.20281  0.31175  0.47826  Biso   1.000  C
  H1406    1.0000 0.15522  0.21501  0.48894  Biso   1.000  H
  C1406    1.0000 0.20277  0.31175  0.47826  Biso   1.000  C
  C1407    1.0000 0.88775  0.81167  0.06755  Biso   1.000  C
  C1408    1.0000 0.83917  0.87519  0.08780  Biso   1.000  C
  C1409    1.0000 0.83914  0.87514  0.08780  Biso   1.000  C
  C1410    1.0000 0.79004  0.94197  0.10398  Biso   1.000  C
  H1407    1.0000 0.99609  0.66666  0.52935  Biso   1.000  H
  H1408    1.0000 0.99606  0.66661  0.52935  Biso   1.000  H
  C1411    1.0000 0.07900  0.75042  0.51739  Biso   1.000  C
  H1409    1.0000 0.02297  0.67114  0.47812  Biso   1.000  H
  C1412    1.0000 0.07896  0.75042  0.51739  Biso   1.000  C
  C1413    1.0000 0.11230  0.92394  0.43245  Biso   1.000  C
  C1414    1.0000 0.11226  0.92394  0.43245  Biso   1.000  C
  H1410    1.0000 0.14990  0.83296  0.48863  Biso   1.000  H
  H1411    1.0000 0.11729  0.77656  0.45195  Biso   1.000  H
  H1412    1.0000 0.11726  0.77652  0.45195  Biso   1.000  H
  C1415    1.0000 0.08654  0.18627  0.11840  Biso   1.000  C
  C1416    1.0000 0.08649  0.18627  0.11840  Biso   1.000  C
  H1413    1.0000 0.10800  0.20746  0.18688  Biso   1.000  H
  C1417    1.0000 0.97533  0.14050  0.10184  Biso   1.000  C
  C1418    1.0000 0.97531  0.14045  0.10184  Biso   1.000  C
  H1414    1.0000 0.92206  0.13195  0.15898  Biso   1.000  H
  H1415    1.0000 0.92198  0.13195  0.15898  Biso   1.000  H
  N198     1.0000 0.20751  0.16716  0.43740  Biso   1.000  N
  N199     1.0000 0.20741  0.16711  0.43740  Biso   1.000  N
  C1419    1.0000 0.28191  0.25465  0.48493  Biso   1.000  C
  H1416    1.0000 0.25158  0.25923  0.41942  Biso   1.000  H
  C1420    1.0000 0.28183  0.25465  0.48493  Biso   1.000  C
  H1417    1.0000 0.25150  0.25923  0.41942  Biso   1.000  H
  H1418    1.0000 0.16703  0.31694  0.48863  Biso   1.000  H
  H1419    1.0000 0.22347  0.34072  0.45195  Biso   1.000  H
  C1421    1.0000 0.24959  0.32855  0.51739  Biso   1.000  C
  N200     1.0000 0.90615  0.77279  0.07591  Biso   1.000  N
  H1420    1.0000 0.89245  0.82720  0.03685  Biso   1.000  H
  N201     1.0000 0.90613  0.77274  0.07591  Biso   1.000  N
  H1421    1.0000 0.89243  0.82715  0.03685  Biso   1.000  H
  H1422    1.0000 0.84264  0.88647  0.05607  Biso   1.000  H
  N202     1.0000 0.79255  0.95966  0.06260  Biso   1.000  N
  H1423    1.0000 0.77206  0.95636  0.12666  Biso   1.000  H
  N203     1.0000 0.79251  0.95966  0.06260  Biso   1.000  N
  H1424    1.0000 0.77202  0.95636  0.12666  Biso   1.000  H
  H1425    1.0000 0.07270  0.77175  0.54425  Biso   1.000  H
  H1426    1.0000 0.10759  0.73485  0.52693  Biso   1.000  H
  H1427    1.0000 0.07266  0.77175  0.54425  Biso   1.000  H
  C1422    1.0000 0.14049  0.97533  0.39816  Biso   1.000  C
  H1428    1.0000 0.10761  0.93475  0.46315  Biso   1.000  H
  C1423    1.0000 0.14045  0.97533  0.39816  Biso   1.000  C
  H1429    1.0000 0.10757  0.93475  0.46315  Biso   1.000  H
  C1424    1.0000 0.15192  0.20996  0.10398  Biso   1.000  C
  C1425    1.0000 0.03608  0.16088  0.08780  Biso   1.000  C
  C1426    1.0000 0.03604  0.16088  0.08780  Biso   1.000  C
  C1427    1.0000 0.92391  0.11228  0.06755  Biso   1.000  C
  C1428    1.0000 0.92399  0.11228  0.06755  Biso   1.000  C
  C1429    1.0000 0.21001  0.15196  0.39602  Biso   1.000  C
  C1430    1.0000 0.20990  0.15192  0.39602  Biso   1.000  C
  C1431    1.0000 0.30480  0.32086  0.50273  Biso   1.000  C
  H1430    1.0000 0.26466  0.22473  0.51123  Biso   1.000  H
  H1431    1.0000 0.31823  0.25234  0.47235  Biso   1.000  H
  C1432    1.0000 0.30477  0.32081  0.50273  Biso   1.000  C
  H1432    1.0000 0.26462  0.22473  0.51123  Biso   1.000  H
  H1433    1.0000 0.22830  0.30094  0.54425  Biso   1.000  H
  H1434    1.0000 0.26516  0.37277  0.52693  Biso   1.000  H
  H1435    1.0000 0.22822  0.30094  0.54425  Biso   1.000  H
  H1436    1.0000 0.26513  0.37272  0.52693  Biso   1.000  H
  C1433    1.0000 0.93398  0.75618  0.03761  Biso   1.000  C
  C1434    1.0000 0.93394  0.75618  0.03761  Biso   1.000  C
  C1435    1.0000 0.76816  0.00218  0.05203  Biso   1.000  C
  C1436    1.0000 0.76812  0.00218  0.05203  Biso   1.000  C
  C1437    1.0000 0.14527  0.96372  0.35122  Biso   1.000  C
  C1438    1.0000 0.16085  0.03606  0.41220  Biso   1.000  C
  C1439    1.0000 0.16082  0.03602  0.41220  Biso   1.000  C
  N204     1.0000 0.16714  0.20746  0.06260  Biso   1.000  N
  H1437    1.0000 0.18435  0.22799  0.12666  Biso   1.000  H
  H1438    1.0000 0.04386  0.15739  0.05607  Biso   1.000  H
  H1439    1.0000 0.04383  0.15734  0.05607  Biso   1.000  H
  N205     1.0000 0.86661  0.09387  0.07591  Biso   1.000  N
  H1440    1.0000 0.93475  0.10756  0.03685  Biso   1.000  H
  H1441    1.0000 0.93467  0.10756  0.03685  Biso   1.000  H
  C1440    1.0000 0.18626  0.08656  0.38160  Biso   1.000  C
  C1441    1.0000 0.18623  0.08651  0.38160  Biso   1.000  C
  H1442    1.0000 0.22795  0.18434  0.37334  Biso   1.000  H
  H1443    1.0000 0.22791  0.18434  0.37334  Biso   1.000  H
  H1444    1.0000 0.32888  0.35186  0.47812  Biso   1.000  H
  H1445    1.0000 0.33337  0.32945  0.52935  Biso   1.000  H
  H1446    1.0000 0.32882  0.35181  0.47812  Biso   1.000  H
  H1447    1.0000 0.33332  0.32945  0.52935  Biso   1.000  H
  H1448    1.0000 0.94024  0.78496  0.01106  Biso   1.000  H
  C1442    1.0000 0.89107  0.68827  0.02174  Biso   1.000  C
  C1443    1.0000 0.99786  0.76599  0.05203  Biso   1.000  C
  C1444    1.0000 0.89103  0.68827  0.02174  Biso   1.000  C
  C1445    1.0000 0.99783  0.76595  0.05203  Biso   1.000  C
  C1446    1.0000 0.71815  0.97278  0.01507  Biso   1.000  C
  C1447    1.0000 0.82226  0.06608  0.03761  Biso   1.000  C
  H1449    1.0000 0.74846  0.00766  0.08058  Biso   1.000  H
  C1448    1.0000 0.82218  0.06608  0.03761  Biso   1.000  C
  H1450    1.0000 0.74838  0.00766  0.08058  Biso   1.000  H
  H1451    1.0000 0.13200  0.92205  0.34102  Biso   1.000  H
  H1452    1.0000 0.13196  0.92205  0.34102  Biso   1.000  H
  C1449    1.0000 0.16923  0.01304  0.31969  Biso   1.000  C
  H1453    1.0000 0.15738  0.04385  0.44393  Biso   1.000  H
  C1450    1.0000 0.23402  0.23186  0.05203  Biso   1.000  C
  C1451    1.0000 0.23398  0.23186  0.05203  Biso   1.000  C
  C1452    1.0000 0.19027  0.07424  0.33476  Biso   1.000  C
  H1454    1.0000 0.85014  0.68308  0.01137  Biso   1.000  H
  C1453    1.0000 0.92105  0.67147  0.98261  Biso   1.000  C
  H1455    1.0000 0.88276  0.65930  0.04805  Biso   1.000  H
  H1456    1.0000 0.88273  0.65925  0.04805  Biso   1.000  H
  H1457    1.0000 0.99237  0.74079  0.08058  Biso   1.000  H
  H1458    1.0000 0.99230  0.74075  0.08058  Biso   1.000  H
  N206     1.0000 0.04036  0.83286  0.06260  Biso   1.000  N
  C1454    1.0000 0.02727  0.74537  0.01507  Biso   1.000  C
  N207     1.0000 0.04032  0.83286  0.06260  Biso   1.000  N
  C1455    1.0000 0.02723  0.74537  0.01507  Biso   1.000  C
  H1459    1.0000 0.73535  0.96009  0.98877  Biso   1.000  H
  H1460    1.0000 0.68176  0.93409  0.02765  Biso   1.000  H
  H1461    1.0000 0.68172  0.93409  0.02765  Biso   1.000  H
  C1456    1.0000 0.69520  0.01606  0.99727  Biso   1.000  C
  H1462    1.0000 0.84479  0.05980  0.01106  Biso   1.000  H
  C1457    1.0000 0.79720  0.10897  0.02174  Biso   1.000  C
  H1463    1.0000 0.84472  0.05975  0.01106  Biso   1.000  H
  C1458    1.0000 0.17020  0.00246  0.27071  Biso   1.000  C
  C1459    1.0000 0.17018  0.00242  0.27071  Biso   1.000  C
  C1460    1.0000 0.24384  0.17778  0.03761  Biso   1.000  C
  C1461    1.0000 0.25465  0.28188  0.01507  Biso   1.000  C
  H1464    1.0000 0.25920  0.25158  0.08058  Biso   1.000  H
  H1465    1.0000 0.20745  0.10803  0.31312  Biso   1.000  H
  H1466    1.0000 0.92737  0.69908  0.95575  Biso   1.000  H
  H1467    1.0000 0.89244  0.62725  0.97307  Biso   1.000  H
  C1462    1.0000 0.98395  0.67916  0.99727  Biso   1.000  C
  H1468    1.0000 0.92733  0.69908  0.95575  Biso   1.000  H
  C1463    1.0000 0.05806  0.84806  0.10398  Biso   1.000  C
  C1464    1.0000 0.05801  0.84806  0.10398  Biso   1.000  C
  H1469    1.0000 0.03998  0.77529  0.98877  Biso   1.000  H
  H1470    1.0000 0.03994  0.77529  0.98877  Biso   1.000  H
  H1471    1.0000 0.06594  0.74768  0.02765  Biso   1.000  H
  H1472    1.0000 0.66667  0.99609  0.97065  Biso   1.000  H
  H1473    1.0000 0.66660  0.99605  0.97065  Biso   1.000  H
  C1465    1.0000 0.75044  0.07896  0.98261  Biso   1.000  C
  H1474    1.0000 0.67113  0.02299  0.02188  Biso   1.000  H
  H1475    1.0000 0.67106  0.02295  0.02188  Biso   1.000  H
  H1476    1.0000 0.83298  0.14989  0.01137  Biso   1.000  H
  H1477    1.0000 0.77655  0.11728  0.04805  Biso   1.000  H
  H1478    1.0000 0.83290  0.14989  0.01137  Biso   1.000  H
  C1466    1.0000 0.16775  0.99756  0.22929  Biso   1.000  C
  N208     1.0000 0.22724  0.13337  0.07591  Biso   1.000  N
  H1479    1.0000 0.21505  0.15527  0.01106  Biso   1.000  H
  C1467    1.0000 0.31172  0.20279  0.02174  Biso   1.000  C
  H1480    1.0000 0.22471  0.26465  0.98877  Biso   1.000  H
  C1468    1.0000 0.32086  0.30477  0.99727  Biso   1.000  C
  C1469    1.0000 0.32078  0.30477  0.99727  Biso   1.000  C
  H1481    1.0000 0.25233  0.31826  0.02765  Biso   1.000  H
  H1482    1.0000 0.25229  0.31826  0.02765  Biso   1.000  H
  H1483    1.0000 0.97707  0.64816  0.02188  Biso   1.000  H
  H1484    1.0000 0.97703  0.64816  0.02188  Biso   1.000  H
  H1485    1.0000 0.00397  0.67057  0.97065  Biso   1.000  H
  H1486    1.0000 0.00393  0.67057  0.97065  Biso   1.000  H
  H1487    1.0000 0.04367  0.81569  0.12666  Biso   1.000  H
  C1470    1.0000 0.09975  0.91346  0.11840  Biso   1.000  C
  H1488    1.0000 0.04363  0.81569  0.12666  Biso   1.000  H
  H1489    1.0000 0.77178  0.07268  0.95575  Biso   1.000  H
  H1490    1.0000 0.73486  0.10756  0.97307  Biso   1.000  H
  H1491    1.0000 0.77174  0.07268  0.95575  Biso   1.000  H
  H1492    1.0000 0.73478  0.10756  0.97307  Biso   1.000  H
  C1471    1.0000 0.15625  0.98699  0.18031  Biso   1.000  C
  C1472    1.0000 0.18833  0.07608  0.06755  Biso   1.000  C
  C1473    1.0000 0.32859  0.24960  0.98261  Biso   1.000  C
  C1474    1.0000 0.32852  0.24955  0.98261  Biso   1.000  C
  H1493    1.0000 0.31691  0.16706  0.01137  Biso   1.000  H
  H1494    1.0000 0.34069  0.22346  0.04805  Biso   1.000  H
  H1495    1.0000 0.32940  0.33336  0.97065  Biso   1.000  H
  H1496    1.0000 0.35184  0.32888  0.02188  Biso   1.000  H
  C1475    1.0000 0.12483  0.96396  0.08780  Biso   1.000  C
  C1476    1.0000 0.11604  0.92578  0.16524  Biso   1.000  C
  C1477    1.0000 0.18156  0.03630  0.14878  Biso   1.000  C
  C1478    1.0000 0.18154  0.03625  0.14878  Biso   1.000  C
  H1497    1.0000 0.17284  0.06527  0.03685  Biso   1.000  H
  C1479    1.0000 0.16513  0.02469  0.10184  Biso   1.000  C
  C1480    1.0000 0.16511  0.02464  0.10184  Biso   1.000  C
  H1498    1.0000 0.30092  0.22827  0.95575  Biso   1.000  H
  H1499    1.0000 0.37271  0.26517  0.97307  Biso   1.000  H
  H1500    1.0000 0.11354  0.95617  0.05607  Biso   1.000  H
  H1501    1.0000 0.09948  0.89199  0.18688  Biso   1.000  H
  H1502    1.0000 0.09941  0.89194  0.18688  Biso   1.000  H
  H1503    1.0000 0.20996  0.07797  0.15898  Biso   1.000  H
  H1504    1.0000 0.20987  0.07797  0.15898  Biso   1.000  H
