data_image0
_cell_length_a       17.316
_cell_length_b       17.316
_cell_length_c       121.63
_cell_angle_alpha    90
_cell_angle_beta     90
_cell_angle_gamma    120

_symmetry_space_group_name_H-M    "P 1"
_symmetry_int_tables_number       1

loop_
  _symmetry_equiv_pos_as_xyz
  'x, y, z'

loop_
  _atom_site_label
  _atom_site_occupancy
  _atom_site_fract_x
  _atom_site_fract_y
  _atom_site_fract_z
  _atom_site_thermal_displace_type
  _atom_site_B_iso_or_equiv
  _atom_site_type_symbol
  C1       1.0000 0.81192  0.87389  0.64339  Biso   1.000  C
  N1       1.0000 0.75513  0.89810  0.64418  Biso   1.000  N
  H1       1.0000 0.79280  0.81348  0.64280  Biso   1.000  H
  C2       1.0000 0.90967  0.93958  0.64342  Biso   1.000  C
  C3       1.0000 0.66099  0.82868  0.64415  Biso   1.000  C
  C4       1.0000 0.96950  0.90990  0.64357  Biso   1.000  C
  C5       1.0000 0.94039  0.03047  0.64357  Biso   1.000  C
  C6       1.0000 0.61552  0.84989  0.63502  Biso   1.000  C
  C7       1.0000 0.61978  0.82908  0.65517  Biso   1.000  C
  H2       1.0000 0.65546  0.77027  0.64290  Biso   1.000  H
  C8       1.0000 0.06042  0.97012  0.64342  Biso   1.000  C
  H3       1.0000 0.94900  0.84902  0.64380  Biso   1.000  H
  C9       1.0000 0.02990  0.09028  0.64342  Biso   1.000  C
  H4       1.0000 0.90001  0.05101  0.64380  Biso   1.000  H
  N2       1.0000 0.64911  0.84269  0.62431  Biso   1.000  N
  H5       1.0000 0.62700  0.91097  0.63600  Biso   1.000  H
  C10      1.0000 0.51496  0.78587  0.63519  Biso   1.000  C
  C11      1.0000 0.51956  0.76527  0.65541  Biso   1.000  C
  C12      1.0000 0.51959  0.76533  0.65541  Biso   1.000  C
  H6       1.0000 0.63159  0.88896  0.65670  Biso   1.000  H
  H7       1.0000 0.64770  0.81261  0.66090  Biso   1.000  H
  H8       1.0000 0.63163  0.88903  0.65670  Biso   1.000  H
  C13      1.0000 0.12607  0.93798  0.64339  Biso   1.000  C
  C14      1.0000 0.09010  0.05961  0.64357  Biso   1.000  C
  C15      1.0000 0.06200  0.18811  0.64339  Biso   1.000  C
  C16      1.0000 0.68302  0.90830  0.61789  Biso   1.000  C
  H9       1.0000 0.48679  0.80288  0.62950  Biso   1.000  H
  H10      1.0000 0.50281  0.72599  0.63360  Biso   1.000  H
  C17      1.0000 0.47640  0.78740  0.64628  Biso   1.000  C
  H11      1.0000 0.50743  0.70452  0.65460  Biso   1.000  H
  H12      1.0000 0.49542  0.77000  0.66240  Biso   1.000  H
  N3       1.0000 0.10193  0.85702  0.64418  Biso   1.000  N
  H13      1.0000 0.18653  0.97932  0.64280  Biso   1.000  H
  H14      1.0000 0.15101  0.10002  0.64380  Biso   1.000  H
  H15      1.0000 0.02072  0.20718  0.64280  Biso   1.000  H
  N4       1.0000 0.14302  0.24492  0.64418  Biso   1.000  N
  C18      1.0000 0.71429  0.90537  0.60694  Biso   1.000  C
  H16      1.0000 0.68830  0.96172  0.62030  Biso   1.000  H
  H17      1.0000 0.48409  0.84622  0.64750  Biso   1.000  H
  H18      1.0000 0.41288  0.74479  0.64630  Biso   1.000  H
  C19      1.0000 0.17128  0.83228  0.64415  Biso   1.000  C
  C20      1.0000 0.16772  0.33902  0.64415  Biso   1.000  C
  C21      1.0000 0.71689  0.82902  0.60327  Biso   1.000  C
  C22      1.0000 0.74009  0.97532  0.59960  Biso   1.000  C
  C23      1.0000 0.15012  0.76560  0.63502  Biso   1.000  C
  C24      1.0000 0.17086  0.79067  0.65517  Biso   1.000  C
  H19      1.0000 0.22966  0.88516  0.64290  Biso   1.000  H
  H20      1.0000 0.22969  0.88523  0.64290  Biso   1.000  H
  C25      1.0000 0.23440  0.38449  0.63502  Biso   1.000  C
  C26      1.0000 0.20929  0.38023  0.65517  Biso   1.000  C
  H21      1.0000 0.11478  0.34448  0.64290  Biso   1.000  H
  C27      1.0000 0.74351  0.82381  0.59283  Biso   1.000  C
  H22      1.0000 0.70018  0.78140  0.60810  Biso   1.000  H
  C28      1.0000 0.76792  0.97139  0.58900  Biso   1.000  C
  H23      1.0000 0.73880  0.02600  0.60180  Biso   1.000  H
  N5       1.0000 0.15731  0.80641  0.62431  Biso   1.000  N
  H24      1.0000 0.08899  0.71599  0.63600  Biso   1.000  H
  C29      1.0000 0.21412  0.72912  0.63519  Biso   1.000  C
  C30      1.0000 0.23466  0.75426  0.65541  Biso   1.000  C
  C31      1.0000 0.23470  0.75433  0.65541  Biso   1.000  C
  H25      1.0000 0.11102  0.74259  0.65670  Biso   1.000  H
  H26      1.0000 0.18741  0.83508  0.66090  Biso   1.000  H
  N6       1.0000 0.19358  0.35088  0.62431  Biso   1.000  N
  H27      1.0000 0.28399  0.37302  0.63600  Biso   1.000  H
  C32      1.0000 0.27091  0.48499  0.63519  Biso   1.000  C
  C33      1.0000 0.24568  0.48039  0.65541  Biso   1.000  C
  H28      1.0000 0.25744  0.36842  0.65670  Biso   1.000  H
  H29      1.0000 0.16488  0.35229  0.66090  Biso   1.000  H
  C34      1.0000 0.73972  0.74013  0.58917  Biso   1.000  C
  C35      1.0000 0.76957  0.89557  0.58562  Biso   1.000  C
  C36      1.0000 0.76960  0.89563  0.58562  Biso   1.000  C
  C37      1.0000 0.79272  0.04421  0.58103  Biso   1.000  C
  C38      1.0000 0.09171  0.77467  0.61789  Biso   1.000  C
  H30      1.0000 0.19712  0.68391  0.62950  Biso   1.000  H
  H31      1.0000 0.27400  0.77680  0.63360  Biso   1.000  H
  C39      1.0000 0.21259  0.68898  0.64628  Biso   1.000  C
  H32      1.0000 0.29547  0.80288  0.65460  Biso   1.000  H
  H33      1.0000 0.22998  0.72539  0.66240  Biso   1.000  H
  C40      1.0000 0.22532  0.31701  0.61789  Biso   1.000  C
  H34      1.0000 0.31608  0.51319  0.62950  Biso   1.000  H
  H35      1.0000 0.22318  0.49719  0.63360  Biso   1.000  H
  C41      1.0000 0.31100  0.52360  0.64628  Biso   1.000  C
  H36      1.0000 0.19709  0.49259  0.65460  Biso   1.000  H
  H37      1.0000 0.27459  0.50459  0.66240  Biso   1.000  H
  N7       1.0000 0.74747  0.72179  0.57947  Biso   1.000  N
  H38      1.0000 0.73073  0.69812  0.59450  Biso   1.000  H
  H39      1.0000 0.78828  0.89257  0.57850  Biso   1.000  H
  H40      1.0000 0.78831  0.89263  0.57850  Biso   1.000  H
  H41      1.0000 0.80942  0.03740  0.57400  Biso   1.000  H
  N8       1.0000 0.79251  0.11482  0.58325  Biso   1.000  N
  C42      1.0000 0.09461  0.80888  0.60694  Biso   1.000  C
  H42      1.0000 0.03828  0.72659  0.62030  Biso   1.000  H
  H43      1.0000 0.15378  0.63790  0.64750  Biso   1.000  H
  H44      1.0000 0.25522  0.66811  0.64630  Biso   1.000  H
  C43      1.0000 0.19106  0.28567  0.60694  Biso   1.000  C
  H45      1.0000 0.27336  0.31167  0.62030  Biso   1.000  H
  H46      1.0000 0.36205  0.51586  0.64750  Biso   1.000  H
  H47      1.0000 0.33189  0.58708  0.64630  Biso   1.000  H
  H48      1.0000 0.36209  0.51593  0.64750  Biso   1.000  H
  C44      1.0000 0.73452  0.63410  0.57746  Biso   1.000  C
  C45      1.0000 0.81721  0.17957  0.57445  Biso   1.000  C
  C46      1.0000 0.02470  0.76480  0.59960  Biso   1.000  C
  C47      1.0000 0.17102  0.88790  0.60327  Biso   1.000  C
  C48      1.0000 0.23521  0.25986  0.59960  Biso   1.000  C
  C49      1.0000 0.23524  0.25993  0.59960  Biso   1.000  C
  C50      1.0000 0.11208  0.28307  0.60327  Biso   1.000  C
  C51      1.0000 0.66571  0.58922  0.56799  Biso   1.000  C
  C52      1.0000 0.82040  0.63757  0.57445  Biso   1.000  C
  C53      1.0000 0.82043  0.63763  0.57445  Biso   1.000  C
  H49      1.0000 0.71064  0.59822  0.58410  Biso   1.000  H
  C54      1.0000 0.89959  0.26546  0.57746  Biso   1.000  C
  C55      1.0000 0.73860  0.19538  0.57200  Biso   1.000  C
  H50      1.0000 0.82971  0.15550  0.56780  Biso   1.000  H
  C56      1.0000 0.89963  0.26553  0.57746  Biso   1.000  C
  C57      1.0000 0.02858  0.79647  0.58900  Biso   1.000  C
  H51      1.0000 0.97397  0.71279  0.60180  Biso   1.000  H
  C58      1.0000 0.17618  0.91971  0.59283  Biso   1.000  C
  H52      1.0000 0.21857  0.91877  0.60810  Biso   1.000  H
  C59      1.0000 0.20349  0.23212  0.58900  Biso   1.000  C
  H53      1.0000 0.28722  0.26119  0.60180  Biso   1.000  H
  C60      1.0000 0.08030  0.25646  0.59283  Biso   1.000  C
  C61      1.0000 0.08033  0.25653  0.59283  Biso   1.000  C
  H54      1.0000 0.08118  0.29980  0.60810  Biso   1.000  H
  C62      1.0000 0.64989  0.49660  0.56576  Biso   1.000  C
  H55      1.0000 0.60990  0.58582  0.57000  Biso   1.000  H
  H56      1.0000 0.68792  0.62510  0.56140  Biso   1.000  H
  C63      1.0000 0.80458  0.54321  0.57200  Biso   1.000  C
  H57      1.0000 0.84448  0.67418  0.56780  Biso   1.000  H
  N9       1.0000 0.88523  0.67771  0.58325  Biso   1.000  N
  H58      1.0000 0.88760  0.28940  0.58410  Biso   1.000  H
  C64      1.0000 0.92349  0.33428  0.56799  Biso   1.000  C
  N10      1.0000 0.97432  0.25253  0.57947  Biso   1.000  N
  C65      1.0000 0.76357  0.26346  0.56285  Biso   1.000  C
  H59      1.0000 0.68667  0.13956  0.56980  Biso   1.000  H
  H60      1.0000 0.72363  0.21672  0.57860  Biso   1.000  H
  C66      1.0000 0.76361  0.26353  0.56285  Biso   1.000  C
  H61      1.0000 0.68670  0.13963  0.56980  Biso   1.000  H
  C67      1.0000 0.95577  0.74846  0.58103  Biso   1.000  C
  C68      1.0000 0.95581  0.74853  0.58103  Biso   1.000  C
  C69      1.0000 0.10440  0.87396  0.58562  Biso   1.000  C
  C70      1.0000 0.10443  0.87403  0.58562  Biso   1.000  C
  C71      1.0000 0.25990  0.99959  0.58917  Biso   1.000  C
  C72      1.0000 0.25150  0.20731  0.58103  Biso   1.000  C
  C73      1.0000 0.12599  0.23039  0.58562  Biso   1.000  C
  C74      1.0000 0.00037  0.26026  0.58917  Biso   1.000  C
  C75      1.0000 0.00040  0.26033  0.58917  Biso   1.000  C
  C76      1.0000 0.73646  0.50006  0.56285  Biso   1.000  C
  H62      1.0000 0.60789  0.46999  0.55970  Biso   1.000  H
  H63      1.0000 0.62411  0.45959  0.57220  Biso   1.000  H
  C77      1.0000 0.73649  0.50013  0.56285  Biso   1.000  C
  H64      1.0000 0.86039  0.54708  0.56980  Biso   1.000  H
  H65      1.0000 0.78329  0.50687  0.57860  Biso   1.000  H
  H66      1.0000 0.78332  0.50693  0.57860  Biso   1.000  H
  H67      1.0000 0.97589  0.39010  0.57000  Biso   1.000  H
  H68      1.0000 0.93716  0.31207  0.56140  Biso   1.000  H
  C78      1.0000 0.84668  0.35008  0.56576  Biso   1.000  C
  H69      1.0000 0.77369  0.23992  0.55610  Biso   1.000  H
  H70      1.0000 0.71468  0.27460  0.56160  Biso   1.000  H
  H71      1.0000 0.96258  0.77200  0.57400  Biso   1.000  H
  H72      1.0000 0.10741  0.89570  0.57850  Biso   1.000  H
  H73      1.0000 0.30188  0.03260  0.59450  Biso   1.000  H
  N11      1.0000 0.27819  0.02567  0.57947  Biso   1.000  N
  N12      1.0000 0.32228  0.20751  0.58325  Biso   1.000  N
  H74      1.0000 0.22800  0.19058  0.57400  Biso   1.000  H
  H75      1.0000 0.10430  0.21172  0.57850  Biso   1.000  H
  H76      1.0000 0.96739  0.26926  0.59450  Biso   1.000  H
  H77      1.0000 0.96742  0.26933  0.59450  Biso   1.000  H
  H78      1.0000 0.76009  0.53381  0.55610  Biso   1.000  H
  H79      1.0000 0.72543  0.44011  0.56160  Biso   1.000  H
  H80      1.0000 0.86208  0.39210  0.55970  Biso   1.000  H
  H81      1.0000 0.83550  0.37589  0.57220  Biso   1.000  H
  C79      1.0000 0.36593  0.10042  0.57746  Biso   1.000  C
  C80      1.0000 0.36241  0.18277  0.57445  Biso   1.000  C
  H82      1.0000 0.40179  0.11242  0.58410  Biso   1.000  H
  C81      1.0000 0.41079  0.07648  0.56799  Biso   1.000  C
  C82      1.0000 0.45681  0.26139  0.57200  Biso   1.000  C
  H83      1.0000 0.32580  0.17030  0.56780  Biso   1.000  H
  H84      1.0000 0.41420  0.02407  0.57000  Biso   1.000  H
  H85      1.0000 0.37490  0.06281  0.56140  Biso   1.000  H
  C83      1.0000 0.50342  0.15330  0.56576  Biso   1.000  C
  H86      1.0000 0.41424  0.02413  0.57000  Biso   1.000  H
  C84      1.0000 0.49992  0.23639  0.56285  Biso   1.000  C
  H87      1.0000 0.45290  0.31328  0.56980  Biso   1.000  H
  H88      1.0000 0.49307  0.27640  0.57860  Biso   1.000  H
  H89      1.0000 0.53002  0.13790  0.55970  Biso   1.000  H
  H90      1.0000 0.54038  0.16450  0.57220  Biso   1.000  H
  H91      1.0000 0.46619  0.22632  0.55610  Biso   1.000  H
  H92      1.0000 0.55988  0.28527  0.56160  Biso   1.000  H
  C85      1.0000 0.81192  0.87389  0.64339  Biso   1.000  C
  N13      1.0000 0.75513  0.89810  0.64418  Biso   1.000  N
  H93      1.0000 0.79280  0.81348  0.64280  Biso   1.000  H
  C86      1.0000 0.90967  0.93958  0.64342  Biso   1.000  C
  C87      1.0000 0.66099  0.82868  0.64415  Biso   1.000  C
  C88      1.0000 0.96950  0.90990  0.64357  Biso   1.000  C
  C89      1.0000 0.94039  0.03047  0.64357  Biso   1.000  C
  C90      1.0000 0.61552  0.84989  0.63502  Biso   1.000  C
  C91      1.0000 0.61978  0.82908  0.65517  Biso   1.000  C
  H94      1.0000 0.65546  0.77027  0.64290  Biso   1.000  H
  C92      1.0000 0.06042  0.97012  0.64342  Biso   1.000  C
  H95      1.0000 0.94900  0.84902  0.64380  Biso   1.000  H
  C93      1.0000 0.02990  0.09028  0.64342  Biso   1.000  C
  H96      1.0000 0.90001  0.05101  0.64380  Biso   1.000  H
  N14      1.0000 0.64911  0.84269  0.62431  Biso   1.000  N
  H97      1.0000 0.62700  0.91097  0.63600  Biso   1.000  H
  C94      1.0000 0.51496  0.78587  0.63519  Biso   1.000  C
  C95      1.0000 0.51956  0.76527  0.65541  Biso   1.000  C
  C96      1.0000 0.51959  0.76533  0.65541  Biso   1.000  C
  H98      1.0000 0.64770  0.81261  0.66090  Biso   1.000  H
  H99      1.0000 0.63159  0.88896  0.65670  Biso   1.000  H
  H100     1.0000 0.63163  0.88903  0.65670  Biso   1.000  H
  C97      1.0000 0.12607  0.93798  0.64339  Biso   1.000  C
  C98      1.0000 0.09010  0.05961  0.64357  Biso   1.000  C
  C99      1.0000 0.06200  0.18811  0.64339  Biso   1.000  C
  C100     1.0000 0.68302  0.90830  0.61789  Biso   1.000  C
  H101     1.0000 0.48679  0.80288  0.62950  Biso   1.000  H
  H102     1.0000 0.50281  0.72599  0.63360  Biso   1.000  H
  C101     1.0000 0.47640  0.78740  0.64628  Biso   1.000  C
  H103     1.0000 0.50743  0.70452  0.65460  Biso   1.000  H
  H104     1.0000 0.49542  0.77000  0.66240  Biso   1.000  H
  N15      1.0000 0.10193  0.85702  0.64418  Biso   1.000  N
  H105     1.0000 0.18653  0.97932  0.64280  Biso   1.000  H
  H106     1.0000 0.15101  0.10002  0.64380  Biso   1.000  H
  H107     1.0000 0.02072  0.20718  0.64280  Biso   1.000  H
  N16      1.0000 0.14302  0.24492  0.64418  Biso   1.000  N
  C102     1.0000 0.71429  0.90537  0.60694  Biso   1.000  C
  H108     1.0000 0.68830  0.96172  0.62030  Biso   1.000  H
  H109     1.0000 0.48409  0.84622  0.64750  Biso   1.000  H
  H110     1.0000 0.41288  0.74479  0.64630  Biso   1.000  H
  C103     1.0000 0.17128  0.83228  0.64415  Biso   1.000  C
  C104     1.0000 0.16772  0.33902  0.64415  Biso   1.000  C
  C105     1.0000 0.71689  0.82902  0.60327  Biso   1.000  C
  C106     1.0000 0.74009  0.97532  0.59960  Biso   1.000  C
  C107     1.0000 0.15012  0.76560  0.63502  Biso   1.000  C
  C108     1.0000 0.17086  0.79067  0.65517  Biso   1.000  C
  H111     1.0000 0.22966  0.88516  0.64290  Biso   1.000  H
  H112     1.0000 0.22969  0.88523  0.64290  Biso   1.000  H
  C109     1.0000 0.23440  0.38449  0.63502  Biso   1.000  C
  C110     1.0000 0.20929  0.38023  0.65517  Biso   1.000  C
  H113     1.0000 0.11478  0.34448  0.64290  Biso   1.000  H
  C111     1.0000 0.74351  0.82381  0.59283  Biso   1.000  C
  H114     1.0000 0.70018  0.78140  0.60810  Biso   1.000  H
  C112     1.0000 0.76792  0.97139  0.58900  Biso   1.000  C
  H115     1.0000 0.73880  0.02600  0.60180  Biso   1.000  H
  N17      1.0000 0.15731  0.80641  0.62431  Biso   1.000  N
  H116     1.0000 0.08899  0.71599  0.63600  Biso   1.000  H
  C113     1.0000 0.21412  0.72912  0.63519  Biso   1.000  C
  C114     1.0000 0.23466  0.75426  0.65541  Biso   1.000  C
  C115     1.0000 0.23470  0.75433  0.65541  Biso   1.000  C
  H117     1.0000 0.11102  0.74259  0.65670  Biso   1.000  H
  H118     1.0000 0.18741  0.83508  0.66090  Biso   1.000  H
  N18      1.0000 0.19358  0.35088  0.62431  Biso   1.000  N
  H119     1.0000 0.28399  0.37302  0.63600  Biso   1.000  H
  C116     1.0000 0.27091  0.48499  0.63519  Biso   1.000  C
  C117     1.0000 0.24568  0.48039  0.65541  Biso   1.000  C
  H120     1.0000 0.25744  0.36842  0.65670  Biso   1.000  H
  H121     1.0000 0.16488  0.35229  0.66090  Biso   1.000  H
  C118     1.0000 0.73972  0.74013  0.58917  Biso   1.000  C
  C119     1.0000 0.76957  0.89557  0.58562  Biso   1.000  C
  C120     1.0000 0.76960  0.89563  0.58562  Biso   1.000  C
  C121     1.0000 0.79272  0.04421  0.58103  Biso   1.000  C
  C122     1.0000 0.09171  0.77467  0.61789  Biso   1.000  C
  H122     1.0000 0.19712  0.68391  0.62950  Biso   1.000  H
  H123     1.0000 0.27400  0.77680  0.63360  Biso   1.000  H
  C123     1.0000 0.21259  0.68898  0.64628  Biso   1.000  C
  H124     1.0000 0.29547  0.80288  0.65460  Biso   1.000  H
  H125     1.0000 0.22998  0.72539  0.66240  Biso   1.000  H
  C124     1.0000 0.22532  0.31701  0.61789  Biso   1.000  C
  H126     1.0000 0.31608  0.51319  0.62950  Biso   1.000  H
  H127     1.0000 0.22318  0.49719  0.63360  Biso   1.000  H
  C125     1.0000 0.31100  0.52360  0.64628  Biso   1.000  C
  H128     1.0000 0.19709  0.49259  0.65460  Biso   1.000  H
  H129     1.0000 0.27459  0.50459  0.66240  Biso   1.000  H
  N19      1.0000 0.74747  0.72179  0.57947  Biso   1.000  N
  H130     1.0000 0.73073  0.69812  0.59450  Biso   1.000  H
  H131     1.0000 0.78828  0.89257  0.57850  Biso   1.000  H
  H132     1.0000 0.78831  0.89263  0.57850  Biso   1.000  H
  H133     1.0000 0.80942  0.03740  0.57400  Biso   1.000  H
  N20      1.0000 0.79251  0.11482  0.58325  Biso   1.000  N
  C126     1.0000 0.09461  0.80888  0.60694  Biso   1.000  C
  H134     1.0000 0.03828  0.72659  0.62030  Biso   1.000  H
  H135     1.0000 0.15378  0.63790  0.64750  Biso   1.000  H
  H136     1.0000 0.25522  0.66811  0.64630  Biso   1.000  H
  C127     1.0000 0.19106  0.28567  0.60694  Biso   1.000  C
  H137     1.0000 0.27336  0.31167  0.62030  Biso   1.000  H
  H138     1.0000 0.36205  0.51586  0.64750  Biso   1.000  H
  H139     1.0000 0.33189  0.58708  0.64630  Biso   1.000  H
  H140     1.0000 0.36209  0.51593  0.64750  Biso   1.000  H
  C128     1.0000 0.73452  0.63410  0.57746  Biso   1.000  C
  C129     1.0000 0.81721  0.17957  0.57445  Biso   1.000  C
  C130     1.0000 0.02470  0.76480  0.59960  Biso   1.000  C
  C131     1.0000 0.17102  0.88790  0.60327  Biso   1.000  C
  C132     1.0000 0.23521  0.25986  0.59960  Biso   1.000  C
  C133     1.0000 0.23524  0.25993  0.59960  Biso   1.000  C
  C134     1.0000 0.11208  0.28307  0.60327  Biso   1.000  C
  C135     1.0000 0.66571  0.58922  0.56799  Biso   1.000  C
  C136     1.0000 0.82040  0.63757  0.57445  Biso   1.000  C
  C137     1.0000 0.82043  0.63763  0.57445  Biso   1.000  C
  H141     1.0000 0.71064  0.59822  0.58410  Biso   1.000  H
  C138     1.0000 0.89959  0.26546  0.57746  Biso   1.000  C
  C139     1.0000 0.73860  0.19538  0.57200  Biso   1.000  C
  H142     1.0000 0.82971  0.15550  0.56780  Biso   1.000  H
  C140     1.0000 0.89963  0.26553  0.57746  Biso   1.000  C
  C141     1.0000 0.02858  0.79647  0.58900  Biso   1.000  C
  H143     1.0000 0.97397  0.71279  0.60180  Biso   1.000  H
  C142     1.0000 0.17618  0.91971  0.59283  Biso   1.000  C
  H144     1.0000 0.21857  0.91877  0.60810  Biso   1.000  H
  C143     1.0000 0.20349  0.23212  0.58900  Biso   1.000  C
  H145     1.0000 0.28722  0.26119  0.60180  Biso   1.000  H
  C144     1.0000 0.08030  0.25646  0.59283  Biso   1.000  C
  C145     1.0000 0.08033  0.25653  0.59283  Biso   1.000  C
  H146     1.0000 0.08118  0.29980  0.60810  Biso   1.000  H
  C146     1.0000 0.64989  0.49660  0.56576  Biso   1.000  C
  H147     1.0000 0.60990  0.58582  0.57000  Biso   1.000  H
  H148     1.0000 0.68792  0.62510  0.56140  Biso   1.000  H
  C147     1.0000 0.80458  0.54321  0.57200  Biso   1.000  C
  H149     1.0000 0.84448  0.67418  0.56780  Biso   1.000  H
  N21      1.0000 0.88523  0.67771  0.58325  Biso   1.000  N
  H150     1.0000 0.88760  0.28940  0.58410  Biso   1.000  H
  C148     1.0000 0.92349  0.33428  0.56799  Biso   1.000  C
  N22      1.0000 0.97432  0.25253  0.57947  Biso   1.000  N
  C149     1.0000 0.76357  0.26346  0.56285  Biso   1.000  C
  H151     1.0000 0.68667  0.13956  0.56980  Biso   1.000  H
  H152     1.0000 0.72363  0.21672  0.57860  Biso   1.000  H
  C150     1.0000 0.76361  0.26353  0.56285  Biso   1.000  C
  H153     1.0000 0.68670  0.13963  0.56980  Biso   1.000  H
  C151     1.0000 0.95577  0.74846  0.58103  Biso   1.000  C
  C152     1.0000 0.95581  0.74853  0.58103  Biso   1.000  C
  C153     1.0000 0.10440  0.87396  0.58562  Biso   1.000  C
  C154     1.0000 0.10443  0.87403  0.58562  Biso   1.000  C
  C155     1.0000 0.25990  0.99959  0.58917  Biso   1.000  C
  C156     1.0000 0.25150  0.20731  0.58103  Biso   1.000  C
  C157     1.0000 0.12599  0.23039  0.58562  Biso   1.000  C
  C158     1.0000 0.00037  0.26026  0.58917  Biso   1.000  C
  C159     1.0000 0.00040  0.26033  0.58917  Biso   1.000  C
  C160     1.0000 0.73646  0.50006  0.56285  Biso   1.000  C
  H154     1.0000 0.60789  0.46999  0.55970  Biso   1.000  H
  H155     1.0000 0.62411  0.45959  0.57220  Biso   1.000  H
  C161     1.0000 0.73649  0.50013  0.56285  Biso   1.000  C
  H156     1.0000 0.86039  0.54708  0.56980  Biso   1.000  H
  H157     1.0000 0.78329  0.50687  0.57860  Biso   1.000  H
  H158     1.0000 0.78332  0.50693  0.57860  Biso   1.000  H
  H159     1.0000 0.97589  0.39010  0.57000  Biso   1.000  H
  H160     1.0000 0.93716  0.31207  0.56140  Biso   1.000  H
  C162     1.0000 0.84668  0.35008  0.56576  Biso   1.000  C
  H161     1.0000 0.77369  0.23992  0.55610  Biso   1.000  H
  H162     1.0000 0.71468  0.27460  0.56160  Biso   1.000  H
  H163     1.0000 0.96258  0.77200  0.57400  Biso   1.000  H
  H164     1.0000 0.10741  0.89570  0.57850  Biso   1.000  H
  H165     1.0000 0.30188  0.03260  0.59450  Biso   1.000  H
  N23      1.0000 0.27819  0.02567  0.57947  Biso   1.000  N
  N24      1.0000 0.32228  0.20751  0.58325  Biso   1.000  N
  H166     1.0000 0.22800  0.19058  0.57400  Biso   1.000  H
  H167     1.0000 0.10430  0.21172  0.57850  Biso   1.000  H
  H168     1.0000 0.96739  0.26926  0.59450  Biso   1.000  H
  H169     1.0000 0.96742  0.26933  0.59450  Biso   1.000  H
  H170     1.0000 0.76009  0.53381  0.55610  Biso   1.000  H
  H171     1.0000 0.72543  0.44011  0.56160  Biso   1.000  H
  H172     1.0000 0.86208  0.39210  0.55970  Biso   1.000  H
  H173     1.0000 0.83550  0.37589  0.57220  Biso   1.000  H
  C163     1.0000 0.36593  0.10042  0.57746  Biso   1.000  C
  C164     1.0000 0.36241  0.18277  0.57445  Biso   1.000  C
  H174     1.0000 0.40179  0.11242  0.58410  Biso   1.000  H
  C165     1.0000 0.41079  0.07648  0.56799  Biso   1.000  C
  C166     1.0000 0.45681  0.26139  0.57200  Biso   1.000  C
  H175     1.0000 0.32580  0.17030  0.56780  Biso   1.000  H
  H176     1.0000 0.41420  0.02407  0.57000  Biso   1.000  H
  H177     1.0000 0.37490  0.06281  0.56140  Biso   1.000  H
  C167     1.0000 0.50342  0.15330  0.56576  Biso   1.000  C
  H178     1.0000 0.41424  0.02413  0.57000  Biso   1.000  H
  C168     1.0000 0.49992  0.23639  0.56285  Biso   1.000  C
  H179     1.0000 0.45290  0.31328  0.56980  Biso   1.000  H
  H180     1.0000 0.49307  0.27640  0.57860  Biso   1.000  H
  H181     1.0000 0.53002  0.13790  0.55970  Biso   1.000  H
  H182     1.0000 0.54038  0.16450  0.57220  Biso   1.000  H
  H183     1.0000 0.46619  0.22632  0.55610  Biso   1.000  H
  H184     1.0000 0.55988  0.28527  0.56160  Biso   1.000  H
  C169     1.0000 0.81192  0.87389  0.64339  Biso   1.000  C
  N25      1.0000 0.75513  0.89810  0.64418  Biso   1.000  N
  H185     1.0000 0.79280  0.81348  0.64280  Biso   1.000  H
  C170     1.0000 0.90967  0.93958  0.64342  Biso   1.000  C
  C171     1.0000 0.66099  0.82868  0.64415  Biso   1.000  C
  C172     1.0000 0.96950  0.90990  0.64357  Biso   1.000  C
  C173     1.0000 0.94039  0.03047  0.64357  Biso   1.000  C
  C174     1.0000 0.61552  0.84989  0.63502  Biso   1.000  C
  C175     1.0000 0.61978  0.82908  0.65517  Biso   1.000  C
  H186     1.0000 0.65546  0.77027  0.64290  Biso   1.000  H
  C176     1.0000 0.06042  0.97012  0.64342  Biso   1.000  C
  H187     1.0000 0.94900  0.84902  0.64380  Biso   1.000  H
  H188     1.0000 0.90001  0.05101  0.64380  Biso   1.000  H
  C177     1.0000 0.02990  0.09028  0.64342  Biso   1.000  C
  N26      1.0000 0.64911  0.84269  0.62431  Biso   1.000  N
  H189     1.0000 0.62700  0.91097  0.63600  Biso   1.000  H
  C178     1.0000 0.51496  0.78587  0.63519  Biso   1.000  C
  C179     1.0000 0.51956  0.76527  0.65541  Biso   1.000  C
  C180     1.0000 0.51959  0.76533  0.65541  Biso   1.000  C
  H190     1.0000 0.64770  0.81261  0.66090  Biso   1.000  H
  H191     1.0000 0.63159  0.88896  0.65670  Biso   1.000  H
  H192     1.0000 0.63163  0.88903  0.65670  Biso   1.000  H
  C181     1.0000 0.12607  0.93798  0.64339  Biso   1.000  C
  C182     1.0000 0.09010  0.05961  0.64357  Biso   1.000  C
  C183     1.0000 0.06200  0.18811  0.64339  Biso   1.000  C
  C184     1.0000 0.68302  0.90830  0.61789  Biso   1.000  C
  H193     1.0000 0.48679  0.80288  0.62950  Biso   1.000  H
  H194     1.0000 0.50281  0.72599  0.63360  Biso   1.000  H
  C185     1.0000 0.47640  0.78740  0.64628  Biso   1.000  C
  H195     1.0000 0.50743  0.70452  0.65460  Biso   1.000  H
  H196     1.0000 0.49542  0.77000  0.66240  Biso   1.000  H
  N27      1.0000 0.10193  0.85702  0.64418  Biso   1.000  N
  H197     1.0000 0.18653  0.97932  0.64280  Biso   1.000  H
  H198     1.0000 0.15101  0.10002  0.64380  Biso   1.000  H
  H199     1.0000 0.02072  0.20718  0.64280  Biso   1.000  H
  N28      1.0000 0.14302  0.24492  0.64418  Biso   1.000  N
  C186     1.0000 0.71429  0.90537  0.60694  Biso   1.000  C
  H200     1.0000 0.68830  0.96172  0.62030  Biso   1.000  H
  H201     1.0000 0.48409  0.84622  0.64750  Biso   1.000  H
  H202     1.0000 0.41288  0.74479  0.64630  Biso   1.000  H
  C187     1.0000 0.17128  0.83228  0.64415  Biso   1.000  C
  C188     1.0000 0.16772  0.33902  0.64415  Biso   1.000  C
  C189     1.0000 0.71689  0.82902  0.60327  Biso   1.000  C
  C190     1.0000 0.74009  0.97532  0.59960  Biso   1.000  C
  C191     1.0000 0.15012  0.76560  0.63502  Biso   1.000  C
  C192     1.0000 0.17086  0.79067  0.65517  Biso   1.000  C
  H203     1.0000 0.22966  0.88516  0.64290  Biso   1.000  H
  H204     1.0000 0.22969  0.88523  0.64290  Biso   1.000  H
  C193     1.0000 0.23440  0.38449  0.63502  Biso   1.000  C
  C194     1.0000 0.20929  0.38023  0.65517  Biso   1.000  C
  H205     1.0000 0.11478  0.34448  0.64290  Biso   1.000  H
  C195     1.0000 0.74351  0.82381  0.59283  Biso   1.000  C
  H206     1.0000 0.70018  0.78140  0.60810  Biso   1.000  H
  C196     1.0000 0.76792  0.97139  0.58900  Biso   1.000  C
  H207     1.0000 0.73880  0.02600  0.60180  Biso   1.000  H
  N29      1.0000 0.15731  0.80641  0.62431  Biso   1.000  N
  H208     1.0000 0.08899  0.71599  0.63600  Biso   1.000  H
  C197     1.0000 0.21412  0.72912  0.63519  Biso   1.000  C
  C198     1.0000 0.23466  0.75426  0.65541  Biso   1.000  C
  C199     1.0000 0.23470  0.75433  0.65541  Biso   1.000  C
  H209     1.0000 0.11102  0.74259  0.65670  Biso   1.000  H
  H210     1.0000 0.18741  0.83508  0.66090  Biso   1.000  H
  N30      1.0000 0.19358  0.35088  0.62431  Biso   1.000  N
  H211     1.0000 0.28399  0.37302  0.63600  Biso   1.000  H
  C200     1.0000 0.27091  0.48499  0.63519  Biso   1.000  C
  C201     1.0000 0.24568  0.48039  0.65541  Biso   1.000  C
  H212     1.0000 0.25744  0.36842  0.65670  Biso   1.000  H
  H213     1.0000 0.16488  0.35229  0.66090  Biso   1.000  H
  C202     1.0000 0.73972  0.74013  0.58917  Biso   1.000  C
  C203     1.0000 0.76957  0.89557  0.58562  Biso   1.000  C
  C204     1.0000 0.76960  0.89563  0.58562  Biso   1.000  C
  C205     1.0000 0.79272  0.04421  0.58103  Biso   1.000  C
  C206     1.0000 0.09171  0.77467  0.61789  Biso   1.000  C
  H214     1.0000 0.19712  0.68391  0.62950  Biso   1.000  H
  H215     1.0000 0.27400  0.77680  0.63360  Biso   1.000  H
  C207     1.0000 0.21259  0.68898  0.64628  Biso   1.000  C
  H216     1.0000 0.29547  0.80288  0.65460  Biso   1.000  H
  H217     1.0000 0.22998  0.72539  0.66240  Biso   1.000  H
  C208     1.0000 0.22532  0.31701  0.61789  Biso   1.000  C
  H218     1.0000 0.31608  0.51319  0.62950  Biso   1.000  H
  H219     1.0000 0.22318  0.49719  0.63360  Biso   1.000  H
  C209     1.0000 0.31100  0.52360  0.64628  Biso   1.000  C
  H220     1.0000 0.19709  0.49259  0.65460  Biso   1.000  H
  H221     1.0000 0.27459  0.50459  0.66240  Biso   1.000  H
  N31      1.0000 0.74747  0.72179  0.57947  Biso   1.000  N
  H222     1.0000 0.73073  0.69812  0.59450  Biso   1.000  H
  H223     1.0000 0.78828  0.89257  0.57850  Biso   1.000  H
  H224     1.0000 0.78831  0.89263  0.57850  Biso   1.000  H
  H225     1.0000 0.80942  0.03740  0.57400  Biso   1.000  H
  N32      1.0000 0.79251  0.11482  0.58325  Biso   1.000  N
  C210     1.0000 0.09461  0.80888  0.60694  Biso   1.000  C
  H226     1.0000 0.03828  0.72659  0.62030  Biso   1.000  H
  H227     1.0000 0.15378  0.63790  0.64750  Biso   1.000  H
  H228     1.0000 0.25522  0.66811  0.64630  Biso   1.000  H
  C211     1.0000 0.19106  0.28567  0.60694  Biso   1.000  C
  H229     1.0000 0.27336  0.31167  0.62030  Biso   1.000  H
  H230     1.0000 0.36205  0.51586  0.64750  Biso   1.000  H
  H231     1.0000 0.33189  0.58708  0.64630  Biso   1.000  H
  H232     1.0000 0.36209  0.51593  0.64750  Biso   1.000  H
  C212     1.0000 0.73452  0.63410  0.57746  Biso   1.000  C
  C213     1.0000 0.81721  0.17957  0.57445  Biso   1.000  C
  C214     1.0000 0.02470  0.76480  0.59960  Biso   1.000  C
  C215     1.0000 0.17102  0.88790  0.60327  Biso   1.000  C
  C216     1.0000 0.11208  0.28307  0.60327  Biso   1.000  C
  C217     1.0000 0.23521  0.25986  0.59960  Biso   1.000  C
  C218     1.0000 0.23524  0.25993  0.59960  Biso   1.000  C
  C219     1.0000 0.66571  0.58922  0.56799  Biso   1.000  C
  H233     1.0000 0.71064  0.59822  0.58410  Biso   1.000  H
  C220     1.0000 0.82040  0.63757  0.57445  Biso   1.000  C
  C221     1.0000 0.82043  0.63763  0.57445  Biso   1.000  C
  C222     1.0000 0.89959  0.26546  0.57746  Biso   1.000  C
  C223     1.0000 0.73860  0.19538  0.57200  Biso   1.000  C
  H234     1.0000 0.82971  0.15550  0.56780  Biso   1.000  H
  C224     1.0000 0.89963  0.26553  0.57746  Biso   1.000  C
  C225     1.0000 0.02858  0.79647  0.58900  Biso   1.000  C
  H235     1.0000 0.97397  0.71279  0.60180  Biso   1.000  H
  C226     1.0000 0.17618  0.91971  0.59283  Biso   1.000  C
  H236     1.0000 0.21857  0.91877  0.60810  Biso   1.000  H
  C227     1.0000 0.08030  0.25646  0.59283  Biso   1.000  C
  C228     1.0000 0.08033  0.25653  0.59283  Biso   1.000  C
  H237     1.0000 0.08118  0.29980  0.60810  Biso   1.000  H
  C229     1.0000 0.20349  0.23212  0.58900  Biso   1.000  C
  H238     1.0000 0.28722  0.26119  0.60180  Biso   1.000  H
  C230     1.0000 0.64989  0.49660  0.56576  Biso   1.000  C
  H239     1.0000 0.60990  0.58582  0.57000  Biso   1.000  H
  H240     1.0000 0.68792  0.62510  0.56140  Biso   1.000  H
  C231     1.0000 0.80458  0.54321  0.57200  Biso   1.000  C
  H241     1.0000 0.84448  0.67418  0.56780  Biso   1.000  H
  N33      1.0000 0.88523  0.67771  0.58325  Biso   1.000  N
  H242     1.0000 0.88760  0.28940  0.58410  Biso   1.000  H
  C232     1.0000 0.92349  0.33428  0.56799  Biso   1.000  C
  N34      1.0000 0.97432  0.25253  0.57947  Biso   1.000  N
  C233     1.0000 0.76357  0.26346  0.56285  Biso   1.000  C
  H243     1.0000 0.68667  0.13956  0.56980  Biso   1.000  H
  H244     1.0000 0.72363  0.21672  0.57860  Biso   1.000  H
  C234     1.0000 0.76361  0.26353  0.56285  Biso   1.000  C
  H245     1.0000 0.68670  0.13963  0.56980  Biso   1.000  H
  C235     1.0000 0.95577  0.74846  0.58103  Biso   1.000  C
  C236     1.0000 0.95581  0.74853  0.58103  Biso   1.000  C
  C237     1.0000 0.10440  0.87396  0.58562  Biso   1.000  C
  C238     1.0000 0.10443  0.87403  0.58562  Biso   1.000  C
  C239     1.0000 0.25990  0.99959  0.58917  Biso   1.000  C
  C240     1.0000 0.00037  0.26026  0.58917  Biso   1.000  C
  C241     1.0000 0.00040  0.26033  0.58917  Biso   1.000  C
  C242     1.0000 0.12599  0.23039  0.58562  Biso   1.000  C
  C243     1.0000 0.25150  0.20731  0.58103  Biso   1.000  C
  H246     1.0000 0.60789  0.46999  0.55970  Biso   1.000  H
  H247     1.0000 0.62411  0.45959  0.57220  Biso   1.000  H
  C244     1.0000 0.73646  0.50006  0.56285  Biso   1.000  C
  C245     1.0000 0.73649  0.50013  0.56285  Biso   1.000  C
  H248     1.0000 0.86039  0.54708  0.56980  Biso   1.000  H
  H249     1.0000 0.78329  0.50687  0.57860  Biso   1.000  H
  H250     1.0000 0.78332  0.50693  0.57860  Biso   1.000  H
  H251     1.0000 0.97589  0.39010  0.57000  Biso   1.000  H
  H252     1.0000 0.93716  0.31207  0.56140  Biso   1.000  H
  C246     1.0000 0.84668  0.35008  0.56576  Biso   1.000  C
  H253     1.0000 0.77369  0.23992  0.55610  Biso   1.000  H
  H254     1.0000 0.71468  0.27460  0.56160  Biso   1.000  H
  H255     1.0000 0.96258  0.77200  0.57400  Biso   1.000  H
  H256     1.0000 0.10741  0.89570  0.57850  Biso   1.000  H
  H257     1.0000 0.30188  0.03260  0.59450  Biso   1.000  H
  N35      1.0000 0.27819  0.02567  0.57947  Biso   1.000  N
  H258     1.0000 0.96739  0.26926  0.59450  Biso   1.000  H
  H259     1.0000 0.96742  0.26933  0.59450  Biso   1.000  H
  H260     1.0000 0.10430  0.21172  0.57850  Biso   1.000  H
  N36      1.0000 0.32228  0.20751  0.58325  Biso   1.000  N
  H261     1.0000 0.22800  0.19058  0.57400  Biso   1.000  H
  H262     1.0000 0.76009  0.53381  0.55610  Biso   1.000  H
  H263     1.0000 0.72543  0.44011  0.56160  Biso   1.000  H
  H264     1.0000 0.86208  0.39210  0.55970  Biso   1.000  H
  H265     1.0000 0.83550  0.37589  0.57220  Biso   1.000  H
  C247     1.0000 0.36593  0.10042  0.57746  Biso   1.000  C
  C248     1.0000 0.36241  0.18277  0.57445  Biso   1.000  C
  H266     1.0000 0.40179  0.11242  0.58410  Biso   1.000  H
  C249     1.0000 0.41079  0.07648  0.56799  Biso   1.000  C
  C250     1.0000 0.45681  0.26139  0.57200  Biso   1.000  C
  H267     1.0000 0.32580  0.17030  0.56780  Biso   1.000  H
  H268     1.0000 0.41420  0.02407  0.57000  Biso   1.000  H
  H269     1.0000 0.37490  0.06281  0.56140  Biso   1.000  H
  C251     1.0000 0.50342  0.15330  0.56576  Biso   1.000  C
  H270     1.0000 0.41424  0.02413  0.57000  Biso   1.000  H
  C252     1.0000 0.49992  0.23639  0.56285  Biso   1.000  C
  H271     1.0000 0.45290  0.31328  0.56980  Biso   1.000  H
  H272     1.0000 0.49307  0.27640  0.57860  Biso   1.000  H
  H273     1.0000 0.53002  0.13790  0.55970  Biso   1.000  H
  H274     1.0000 0.54038  0.16450  0.57220  Biso   1.000  H
  H275     1.0000 0.46619  0.22632  0.55610  Biso   1.000  H
  H276     1.0000 0.55988  0.28527  0.56160  Biso   1.000  H
  C253     1.0000 0.81192  0.87389  0.64339  Biso   1.000  C
  N37      1.0000 0.75513  0.89810  0.64418  Biso   1.000  N
  H277     1.0000 0.79280  0.81348  0.64280  Biso   1.000  H
  C254     1.0000 0.90967  0.93958  0.64342  Biso   1.000  C
  C255     1.0000 0.66099  0.82868  0.64415  Biso   1.000  C
  C256     1.0000 0.96950  0.90990  0.64357  Biso   1.000  C
  C257     1.0000 0.94039  0.03047  0.64357  Biso   1.000  C
  C258     1.0000 0.61552  0.84989  0.63502  Biso   1.000  C
  C259     1.0000 0.61978  0.82908  0.65517  Biso   1.000  C
  H278     1.0000 0.65546  0.77027  0.64290  Biso   1.000  H
  C260     1.0000 0.06042  0.97012  0.64342  Biso   1.000  C
  H279     1.0000 0.94900  0.84902  0.64380  Biso   1.000  H
  H280     1.0000 0.90001  0.05101  0.64380  Biso   1.000  H
  C261     1.0000 0.02990  0.09028  0.64342  Biso   1.000  C
  N38      1.0000 0.64911  0.84269  0.62431  Biso   1.000  N
  H281     1.0000 0.62700  0.91097  0.63600  Biso   1.000  H
  C262     1.0000 0.51496  0.78587  0.63519  Biso   1.000  C
  C263     1.0000 0.51956  0.76527  0.65541  Biso   1.000  C
  C264     1.0000 0.51959  0.76533  0.65541  Biso   1.000  C
  H282     1.0000 0.64770  0.81261  0.66090  Biso   1.000  H
  H283     1.0000 0.63159  0.88896  0.65670  Biso   1.000  H
  H284     1.0000 0.63163  0.88903  0.65670  Biso   1.000  H
  C265     1.0000 0.12607  0.93798  0.64339  Biso   1.000  C
  C266     1.0000 0.09010  0.05961  0.64357  Biso   1.000  C
  C267     1.0000 0.06200  0.18811  0.64339  Biso   1.000  C
  C268     1.0000 0.68302  0.90830  0.61789  Biso   1.000  C
  H285     1.0000 0.48679  0.80288  0.62950  Biso   1.000  H
  H286     1.0000 0.50281  0.72599  0.63360  Biso   1.000  H
  C269     1.0000 0.47640  0.78740  0.64628  Biso   1.000  C
  H287     1.0000 0.50743  0.70452  0.65460  Biso   1.000  H
  H288     1.0000 0.49542  0.77000  0.66240  Biso   1.000  H
  N39      1.0000 0.10193  0.85702  0.64418  Biso   1.000  N
  H289     1.0000 0.18653  0.97932  0.64280  Biso   1.000  H
  H290     1.0000 0.15101  0.10002  0.64380  Biso   1.000  H
  H291     1.0000 0.02072  0.20718  0.64280  Biso   1.000  H
  N40      1.0000 0.14302  0.24492  0.64418  Biso   1.000  N
  C270     1.0000 0.71429  0.90537  0.60694  Biso   1.000  C
  H292     1.0000 0.68830  0.96172  0.62030  Biso   1.000  H
  H293     1.0000 0.48409  0.84622  0.64750  Biso   1.000  H
  H294     1.0000 0.41288  0.74479  0.64630  Biso   1.000  H
  C271     1.0000 0.17128  0.83228  0.64415  Biso   1.000  C
  C272     1.0000 0.16772  0.33902  0.64415  Biso   1.000  C
  C273     1.0000 0.71689  0.82902  0.60327  Biso   1.000  C
  C274     1.0000 0.74009  0.97532  0.59960  Biso   1.000  C
  C275     1.0000 0.15012  0.76560  0.63502  Biso   1.000  C
  C276     1.0000 0.17086  0.79067  0.65517  Biso   1.000  C
  H295     1.0000 0.22966  0.88516  0.64290  Biso   1.000  H
  H296     1.0000 0.22969  0.88523  0.64290  Biso   1.000  H
  C277     1.0000 0.23440  0.38449  0.63502  Biso   1.000  C
  C278     1.0000 0.20929  0.38023  0.65517  Biso   1.000  C
  H297     1.0000 0.11478  0.34448  0.64290  Biso   1.000  H
  C279     1.0000 0.74351  0.82381  0.59283  Biso   1.000  C
  H298     1.0000 0.70018  0.78140  0.60810  Biso   1.000  H
  C280     1.0000 0.76792  0.97139  0.58900  Biso   1.000  C
  H299     1.0000 0.73880  0.02600  0.60180  Biso   1.000  H
  N41      1.0000 0.15731  0.80641  0.62431  Biso   1.000  N
  H300     1.0000 0.08899  0.71599  0.63600  Biso   1.000  H
  C281     1.0000 0.21412  0.72912  0.63519  Biso   1.000  C
  C282     1.0000 0.23466  0.75426  0.65541  Biso   1.000  C
  C283     1.0000 0.23470  0.75433  0.65541  Biso   1.000  C
  H301     1.0000 0.11102  0.74259  0.65670  Biso   1.000  H
  H302     1.0000 0.18741  0.83508  0.66090  Biso   1.000  H
  N42      1.0000 0.19358  0.35088  0.62431  Biso   1.000  N
  H303     1.0000 0.28399  0.37302  0.63600  Biso   1.000  H
  C284     1.0000 0.27091  0.48499  0.63519  Biso   1.000  C
  C285     1.0000 0.24568  0.48039  0.65541  Biso   1.000  C
  H304     1.0000 0.25744  0.36842  0.65670  Biso   1.000  H
  H305     1.0000 0.16488  0.35229  0.66090  Biso   1.000  H
  C286     1.0000 0.73972  0.74013  0.58917  Biso   1.000  C
  C287     1.0000 0.76957  0.89557  0.58562  Biso   1.000  C
  C288     1.0000 0.76960  0.89563  0.58562  Biso   1.000  C
  C289     1.0000 0.79272  0.04421  0.58103  Biso   1.000  C
  C290     1.0000 0.09171  0.77467  0.61789  Biso   1.000  C
  H306     1.0000 0.19712  0.68391  0.62950  Biso   1.000  H
  H307     1.0000 0.27400  0.77680  0.63360  Biso   1.000  H
  C291     1.0000 0.21259  0.68898  0.64628  Biso   1.000  C
  H308     1.0000 0.29547  0.80288  0.65460  Biso   1.000  H
  H309     1.0000 0.22998  0.72539  0.66240  Biso   1.000  H
  C292     1.0000 0.22532  0.31701  0.61789  Biso   1.000  C
  H310     1.0000 0.31608  0.51319  0.62950  Biso   1.000  H
  H311     1.0000 0.22318  0.49719  0.63360  Biso   1.000  H
  C293     1.0000 0.31100  0.52360  0.64628  Biso   1.000  C
  H312     1.0000 0.19709  0.49259  0.65460  Biso   1.000  H
  H313     1.0000 0.27459  0.50459  0.66240  Biso   1.000  H
  N43      1.0000 0.74747  0.72179  0.57947  Biso   1.000  N
  H314     1.0000 0.73073  0.69812  0.59450  Biso   1.000  H
  H315     1.0000 0.78828  0.89257  0.57850  Biso   1.000  H
  H316     1.0000 0.78831  0.89263  0.57850  Biso   1.000  H
  H317     1.0000 0.80942  0.03740  0.57400  Biso   1.000  H
  N44      1.0000 0.79251  0.11482  0.58325  Biso   1.000  N
  C294     1.0000 0.09461  0.80888  0.60694  Biso   1.000  C
  H318     1.0000 0.03828  0.72659  0.62030  Biso   1.000  H
  H319     1.0000 0.15378  0.63790  0.64750  Biso   1.000  H
  H320     1.0000 0.25522  0.66811  0.64630  Biso   1.000  H
  C295     1.0000 0.19106  0.28567  0.60694  Biso   1.000  C
  H321     1.0000 0.27336  0.31167  0.62030  Biso   1.000  H
  H322     1.0000 0.36205  0.51586  0.64750  Biso   1.000  H
  H323     1.0000 0.33189  0.58708  0.64630  Biso   1.000  H
  H324     1.0000 0.36209  0.51593  0.64750  Biso   1.000  H
  C296     1.0000 0.73452  0.63410  0.57746  Biso   1.000  C
  C297     1.0000 0.81721  0.17957  0.57445  Biso   1.000  C
  C298     1.0000 0.02470  0.76480  0.59960  Biso   1.000  C
  C299     1.0000 0.17102  0.88790  0.60327  Biso   1.000  C
  C300     1.0000 0.11208  0.28307  0.60327  Biso   1.000  C
  C301     1.0000 0.23521  0.25986  0.59960  Biso   1.000  C
  C302     1.0000 0.23524  0.25993  0.59960  Biso   1.000  C
  C303     1.0000 0.66571  0.58922  0.56799  Biso   1.000  C
  H325     1.0000 0.71064  0.59822  0.58410  Biso   1.000  H
  C304     1.0000 0.82040  0.63757  0.57445  Biso   1.000  C
  C305     1.0000 0.82043  0.63763  0.57445  Biso   1.000  C
  C306     1.0000 0.89959  0.26546  0.57746  Biso   1.000  C
  C307     1.0000 0.73860  0.19538  0.57200  Biso   1.000  C
  H326     1.0000 0.82971  0.15550  0.56780  Biso   1.000  H
  C308     1.0000 0.89963  0.26553  0.57746  Biso   1.000  C
  C309     1.0000 0.02858  0.79647  0.58900  Biso   1.000  C
  H327     1.0000 0.97397  0.71279  0.60180  Biso   1.000  H
  C310     1.0000 0.17618  0.91971  0.59283  Biso   1.000  C
  H328     1.0000 0.21857  0.91877  0.60810  Biso   1.000  H
  C311     1.0000 0.08030  0.25646  0.59283  Biso   1.000  C
  C312     1.0000 0.08033  0.25653  0.59283  Biso   1.000  C
  H329     1.0000 0.08118  0.29980  0.60810  Biso   1.000  H
  C313     1.0000 0.20349  0.23212  0.58900  Biso   1.000  C
  H330     1.0000 0.28722  0.26119  0.60180  Biso   1.000  H
  C314     1.0000 0.64989  0.49660  0.56576  Biso   1.000  C
  H331     1.0000 0.60990  0.58582  0.57000  Biso   1.000  H
  H332     1.0000 0.68792  0.62510  0.56140  Biso   1.000  H
  C315     1.0000 0.80458  0.54321  0.57200  Biso   1.000  C
  H333     1.0000 0.84448  0.67418  0.56780  Biso   1.000  H
  N45      1.0000 0.88523  0.67771  0.58325  Biso   1.000  N
  H334     1.0000 0.88760  0.28940  0.58410  Biso   1.000  H
  C316     1.0000 0.92349  0.33428  0.56799  Biso   1.000  C
  N46      1.0000 0.97432  0.25253  0.57947  Biso   1.000  N
  C317     1.0000 0.76357  0.26346  0.56285  Biso   1.000  C
  H335     1.0000 0.68667  0.13956  0.56980  Biso   1.000  H
  H336     1.0000 0.72363  0.21672  0.57860  Biso   1.000  H
  C318     1.0000 0.76361  0.26353  0.56285  Biso   1.000  C
  H337     1.0000 0.68670  0.13963  0.56980  Biso   1.000  H
  C319     1.0000 0.95577  0.74846  0.58103  Biso   1.000  C
  C320     1.0000 0.95581  0.74853  0.58103  Biso   1.000  C
  C321     1.0000 0.10440  0.87396  0.58562  Biso   1.000  C
  C322     1.0000 0.10443  0.87403  0.58562  Biso   1.000  C
  C323     1.0000 0.25990  0.99959  0.58917  Biso   1.000  C
  C324     1.0000 0.00037  0.26026  0.58917  Biso   1.000  C
  C325     1.0000 0.00040  0.26033  0.58917  Biso   1.000  C
  C326     1.0000 0.12599  0.23039  0.58562  Biso   1.000  C
  C327     1.0000 0.25150  0.20731  0.58103  Biso   1.000  C
  H338     1.0000 0.60789  0.46999  0.55970  Biso   1.000  H
  H339     1.0000 0.62411  0.45959  0.57220  Biso   1.000  H
  C328     1.0000 0.73646  0.50006  0.56285  Biso   1.000  C
  C329     1.0000 0.73649  0.50013  0.56285  Biso   1.000  C
  H340     1.0000 0.86039  0.54708  0.56980  Biso   1.000  H
  H341     1.0000 0.78329  0.50687  0.57860  Biso   1.000  H
  H342     1.0000 0.78332  0.50693  0.57860  Biso   1.000  H
  H343     1.0000 0.97589  0.39010  0.57000  Biso   1.000  H
  H344     1.0000 0.93716  0.31207  0.56140  Biso   1.000  H
  C330     1.0000 0.84668  0.35008  0.56576  Biso   1.000  C
  H345     1.0000 0.77369  0.23992  0.55610  Biso   1.000  H
  H346     1.0000 0.71468  0.27460  0.56160  Biso   1.000  H
  H347     1.0000 0.96258  0.77200  0.57400  Biso   1.000  H
  H348     1.0000 0.10741  0.89570  0.57850  Biso   1.000  H
  H349     1.0000 0.30188  0.03260  0.59450  Biso   1.000  H
  N47      1.0000 0.27819  0.02567  0.57947  Biso   1.000  N
  H350     1.0000 0.96739  0.26926  0.59450  Biso   1.000  H
  H351     1.0000 0.96742  0.26933  0.59450  Biso   1.000  H
  H352     1.0000 0.10430  0.21172  0.57850  Biso   1.000  H
  N48      1.0000 0.32228  0.20751  0.58325  Biso   1.000  N
  H353     1.0000 0.22800  0.19058  0.57400  Biso   1.000  H
  H354     1.0000 0.76009  0.53381  0.55610  Biso   1.000  H
  H355     1.0000 0.72543  0.44011  0.56160  Biso   1.000  H
  H356     1.0000 0.86208  0.39210  0.55970  Biso   1.000  H
  H357     1.0000 0.83550  0.37589  0.57220  Biso   1.000  H
  C331     1.0000 0.36593  0.10042  0.57746  Biso   1.000  C
  C332     1.0000 0.36241  0.18277  0.57445  Biso   1.000  C
  H358     1.0000 0.40179  0.11242  0.58410  Biso   1.000  H
  C333     1.0000 0.41079  0.07648  0.56799  Biso   1.000  C
  C334     1.0000 0.45681  0.26139  0.57200  Biso   1.000  C
  H359     1.0000 0.32580  0.17030  0.56780  Biso   1.000  H
  H360     1.0000 0.41420  0.02407  0.57000  Biso   1.000  H
  H361     1.0000 0.37490  0.06281  0.56140  Biso   1.000  H
  C335     1.0000 0.50342  0.15330  0.56576  Biso   1.000  C
  H362     1.0000 0.41424  0.02413  0.57000  Biso   1.000  H
  C336     1.0000 0.49992  0.23639  0.56285  Biso   1.000  C
  H363     1.0000 0.45290  0.31328  0.56980  Biso   1.000  H
  H364     1.0000 0.49307  0.27640  0.57860  Biso   1.000  H
  H365     1.0000 0.53002  0.13790  0.55970  Biso   1.000  H
  H366     1.0000 0.54038  0.16450  0.57220  Biso   1.000  H
  H367     1.0000 0.46619  0.22632  0.55610  Biso   1.000  H
  H368     1.0000 0.55988  0.28527  0.56160  Biso   1.000  H
  C337     1.0000 0.85010  0.77967  0.67803  Biso   1.000  C
  C338     1.0000 0.85581  0.71659  0.66966  Biso   1.000  C
  H369     1.0000 0.81740  0.80621  0.67480  Biso   1.000  H
  H370     1.0000 0.81761  0.74599  0.68450  Biso   1.000  H
  C339     1.0000 0.94209  0.85289  0.68145  Biso   1.000  C
  N49      1.0000 0.76428  0.64210  0.66771  Biso   1.000  N
  H371     1.0000 0.88154  0.74853  0.66280  Biso   1.000  H
  C340     1.0000 0.91198  0.67878  0.67414  Biso   1.000  C
  H372     1.0000 0.97252  0.88983  0.67510  Biso   1.000  H
  H373     1.0000 0.93609  0.89043  0.68690  Biso   1.000  H
  C341     1.0000 0.99773  0.81621  0.68614  Biso   1.000  C
  C342     1.0000 0.73582  0.63150  0.65819  Biso   1.000  C
  H374     1.0000 0.88156  0.64057  0.68050  Biso   1.000  H
  N50      1.0000 0.92280  0.62570  0.66558  Biso   1.000  N
  C343     1.0000 0.00292  0.75360  0.67771  Biso   1.000  C
  H375     1.0000 0.97110  0.78407  0.69290  Biso   1.000  H
  H376     1.0000 0.05720  0.86469  0.68780  Biso   1.000  H
  C344     1.0000 0.64639  0.55981  0.65496  Biso   1.000  C
  H377     1.0000 0.77279  0.67077  0.65280  Biso   1.000  H
  C345     1.0000 0.90468  0.54648  0.66790  Biso   1.000  C
  H378     1.0000 0.03496  0.78787  0.67130  Biso   1.000  H
  H379     1.0000 0.03652  0.72792  0.68080  Biso   1.000  H
  C346     1.0000 0.61398  0.55621  0.64463  Biso   1.000  C
  C347     1.0000 0.59172  0.49239  0.66275  Biso   1.000  C
  C348     1.0000 0.91739  0.49233  0.65974  Biso   1.000  C
  H380     1.0000 0.88322  0.52320  0.67480  Biso   1.000  H
  C349     1.0000 0.52811  0.48853  0.64147  Biso   1.000  C
  H381     1.0000 0.64949  0.59962  0.63950  Biso   1.000  H
  C350     1.0000 0.50772  0.42511  0.65974  Biso   1.000  C
  H382     1.0000 0.61270  0.49393  0.66980  Biso   1.000  H
  C351     1.0000 0.94561  0.52220  0.64907  Biso   1.000  C
  C352     1.0000 0.90068  0.40831  0.66275  Biso   1.000  C
  C353     1.0000 0.49170  0.48639  0.63053  Biso   1.000  C
  C354     1.0000 0.47780  0.42338  0.64907  Biso   1.000  C
  C355     1.0000 0.45354  0.35823  0.66790  Biso   1.000  C
  C356     1.0000 0.96044  0.47192  0.64147  Biso   1.000  C
  H383     1.0000 0.95471  0.57782  0.64700  Biso   1.000  H
  C357     1.0000 0.91341  0.35363  0.65496  Biso   1.000  C
  H384     1.0000 0.88122  0.38730  0.66980  Biso   1.000  H
  N51      1.0000 0.52598  0.54861  0.62358  Biso   1.000  N
  H385     1.0000 0.43906  0.43518  0.62860  Biso   1.000  H
  H386     1.0000 0.42222  0.37690  0.64700  Biso   1.000  H
  N52      1.0000 0.37428  0.29708  0.66558  Biso   1.000  N
  H387     1.0000 0.47679  0.36003  0.67480  Biso   1.000  H
  C358     1.0000 0.99470  0.50833  0.63053  Biso   1.000  C
  C359     1.0000 0.94218  0.38597  0.64463  Biso   1.000  C
  C360     1.0000 0.89567  0.26420  0.65819  Biso   1.000  C
  C361     1.0000 0.47818  0.53641  0.61318  Biso   1.000  C
  C362     1.0000 0.32121  0.23319  0.67414  Biso   1.000  C
  N53      1.0000 0.02257  0.47399  0.62358  Biso   1.000  N
  H388     1.0000 0.99608  0.56088  0.62860  Biso   1.000  H
  H389     1.0000 0.95008  0.35049  0.63950  Biso   1.000  H
  H390     1.0000 0.89802  0.22719  0.65280  Biso   1.000  H
  N54      1.0000 0.87780  0.23573  0.66771  Biso   1.000  N
  C363     1.0000 0.53522  0.53661  0.60377  Biso   1.000  C
  C364     1.0000 0.45991  0.61363  0.61179  Biso   1.000  C
  H391     1.0000 0.42172  0.47972  0.61330  Biso   1.000  H
  C365     1.0000 0.28338  0.13917  0.66966  Biso   1.000  C
  C366     1.0000 0.24640  0.24933  0.67771  Biso   1.000  C
  H392     1.0000 0.35941  0.24100  0.68050  Biso   1.000  H
  C367     1.0000 0.05820  0.52180  0.61318  Biso   1.000  C
  C368     1.0000 0.86078  0.14417  0.66966  Biso   1.000  C
  C369     1.0000 0.49211  0.53307  0.59282  Biso   1.000  C
  H393     1.0000 0.59380  0.59069  0.60410  Biso   1.000  H
  N55      1.0000 0.54591  0.45992  0.60458  Biso   1.000  N
  C370     1.0000 0.41673  0.60662  0.60052  Biso   1.000  C
  H394     1.0000 0.51531  0.66991  0.61230  Biso   1.000  H
  H395     1.0000 0.42032  0.61149  0.61760  Biso   1.000  H
  H396     1.0000 0.25146  0.13297  0.66280  Biso   1.000  H
  C371     1.0000 0.22030  0.07042  0.67803  Biso   1.000  C
  N56      1.0000 0.35789  0.12223  0.66771  Biso   1.000  N
  C372     1.0000 0.18379  0.18151  0.68614  Biso   1.000  C
  H397     1.0000 0.21210  0.24713  0.67130  Biso   1.000  H
  H398     1.0000 0.27212  0.30861  0.68080  Biso   1.000  H
  C373     1.0000 0.00139  0.46479  0.60377  Biso   1.000  C
  C374     1.0000 0.15367  0.54007  0.61179  Biso   1.000  C
  H399     1.0000 0.05797  0.57828  0.61330  Biso   1.000  H
  C375     1.0000 0.76681  0.08802  0.67414  Biso   1.000  C
  H400     1.0000 0.86700  0.11850  0.66280  Biso   1.000  H
  C376     1.0000 0.92960  0.14991  0.67803  Biso   1.000  C
  C377     1.0000 0.47481  0.60809  0.59162  Biso   1.000  C
  H401     1.0000 0.53093  0.53541  0.58690  Biso   1.000  H
  H402     1.0000 0.43630  0.47712  0.59220  Biso   1.000  H
  C378     1.0000 0.62550  0.47472  0.60521  Biso   1.000  C
  H403     1.0000 0.35983  0.55161  0.60020  Biso   1.000  H
  H404     1.0000 0.40577  0.65597  0.59960  Biso   1.000  H
  H405     1.0000 0.19381  0.01120  0.67480  Biso   1.000  H
  H406     1.0000 0.25399  0.07162  0.68450  Biso   1.000  H
  C379     1.0000 0.14712  0.08922  0.68145  Biso   1.000  C
  C380     1.0000 0.36850  0.10429  0.65819  Biso   1.000  C
  H407     1.0000 0.21586  0.18698  0.69290  Biso   1.000  H
  H408     1.0000 0.13530  0.19252  0.68780  Biso   1.000  H
  N57      1.0000 0.91400  0.45412  0.60458  Biso   1.000  N
  H409     1.0000 0.99686  0.40617  0.60410  Biso   1.000  H
  C381     1.0000 0.04104  0.50793  0.59282  Biso   1.000  C
  C382     1.0000 0.18989  0.58329  0.60052  Biso   1.000  C
  H410     1.0000 0.15464  0.48473  0.61230  Biso   1.000  H
  H411     1.0000 0.19121  0.57968  0.61760  Biso   1.000  H
  N58      1.0000 0.70291  0.07722  0.66558  Biso   1.000  N
  H412     1.0000 0.75903  0.11843  0.68050  Biso   1.000  H
  C383     1.0000 0.75070  0.99713  0.67771  Biso   1.000  C
  H413     1.0000 0.98878  0.18258  0.67480  Biso   1.000  H
  H414     1.0000 0.92839  0.18238  0.68450  Biso   1.000  H
  C384     1.0000 0.91078  0.05788  0.68145  Biso   1.000  C
  H415     1.0000 0.53083  0.66411  0.59180  Biso   1.000  H
  H416     1.0000 0.44651  0.60369  0.58460  Biso   1.000  H
  C385     1.0000 0.64651  0.40217  0.60533  Biso   1.000  C
  H417     1.0000 0.67211  0.53341  0.60560  Biso   1.000  H
  H418     1.0000 0.11018  0.08269  0.67510  Biso   1.000  H
  H419     1.0000 0.10958  0.04568  0.68690  Biso   1.000  H
  C386     1.0000 0.44023  0.08662  0.65496  Biso   1.000  C
  H420     1.0000 0.32920  0.10203  0.65280  Biso   1.000  H
  C387     1.0000 0.84918  0.37450  0.60521  Biso   1.000  C
  H421     1.0000 0.00448  0.46912  0.58690  Biso   1.000  H
  H422     1.0000 0.04079  0.56368  0.59220  Biso   1.000  H
  C388     1.0000 0.13330  0.52520  0.59162  Biso   1.000  C
  H423     1.0000 0.19180  0.64023  0.60020  Biso   1.000  H
  H424     1.0000 0.25022  0.59422  0.59960  Biso   1.000  H
  C389     1.0000 0.64178  0.09529  0.66790  Biso   1.000  C
  C390     1.0000 0.81847  0.00227  0.68614  Biso   1.000  C
  H425     1.0000 0.75288  0.96499  0.67130  Biso   1.000  H
  H426     1.0000 0.69139  0.96352  0.68080  Biso   1.000  H
  H427     1.0000 0.91729  0.02747  0.67510  Biso   1.000  H
  H428     1.0000 0.95427  0.06388  0.68690  Biso   1.000  H
  C391     1.0000 0.57800  0.31308  0.60534  Biso   1.000  C
  C392     1.0000 0.73507  0.42198  0.60534  Biso   1.000  C
  C393     1.0000 0.44378  0.05782  0.64463  Biso   1.000  C
  C394     1.0000 0.50760  0.09929  0.66275  Biso   1.000  C
  C395     1.0000 0.75569  0.35349  0.60533  Biso   1.000  C
  H429     1.0000 0.86127  0.32789  0.60560  Biso   1.000  H
  H430     1.0000 0.13330  0.46919  0.59180  Biso   1.000  H
  H431     1.0000 0.15720  0.55348  0.58460  Biso   1.000  H
  C396     1.0000 0.57492  0.08262  0.65974  Biso   1.000  C
  H432     1.0000 0.64002  0.11683  0.67480  Biso   1.000  H
  H433     1.0000 0.81300  0.02887  0.69290  Biso   1.000  H
  H434     1.0000 0.80750  0.94279  0.68780  Biso   1.000  H
  H435     1.0000 0.51880  0.29968  0.60540  Biso   1.000  H
  C397     1.0000 0.59779  0.24433  0.60533  Biso   1.000  C
  H436     1.0000 0.78091  0.48119  0.60540  Biso   1.000  H
  C398     1.0000 0.51149  0.03961  0.64147  Biso   1.000  C
  H437     1.0000 0.40037  0.04988  0.63950  Biso   1.000  H
  H438     1.0000 0.50611  0.11883  0.66980  Biso   1.000  H
  C399     1.0000 0.68689  0.26487  0.60534  Biso   1.000  C
  C400     1.0000 0.57658  0.05441  0.64907  Biso   1.000  C
  C401     1.0000 0.52526  0.15077  0.60521  Biso   1.000  C
  C402     1.0000 0.51361  0.00527  0.63053  Biso   1.000  C
  H439     1.0000 0.70029  0.21912  0.60540  Biso   1.000  H
  H440     1.0000 0.62307  0.04528  0.64700  Biso   1.000  H
  H441     1.0000 0.46661  0.13870  0.60560  Biso   1.000  H
  N59      1.0000 0.54012  0.08602  0.60458  Biso   1.000  N
  N60      1.0000 0.45139  0.97739  0.62358  Biso   1.000  N
  H442     1.0000 0.56477  0.00387  0.62860  Biso   1.000  H
  C403     1.0000 0.46338  0.99860  0.60377  Biso   1.000  C
  C404     1.0000 0.46362  0.94178  0.61318  Biso   1.000  C
  H443     1.0000 0.40931  0.00307  0.60410  Biso   1.000  H
  C405     1.0000 0.46691  0.95899  0.59282  Biso   1.000  C
  C406     1.0000 0.38642  0.84629  0.61179  Biso   1.000  C
  H444     1.0000 0.52031  0.94198  0.61330  Biso   1.000  H
  H445     1.0000 0.46462  0.99553  0.58690  Biso   1.000  H
  H446     1.0000 0.52291  0.95919  0.59220  Biso   1.000  H
  C407     1.0000 0.39188  0.86670  0.59162  Biso   1.000  C
  C408     1.0000 0.39338  0.81008  0.60052  Biso   1.000  C
  H447     1.0000 0.33014  0.84543  0.61230  Biso   1.000  H
  H448     1.0000 0.38853  0.80882  0.61760  Biso   1.000  H
  H449     1.0000 0.33592  0.86670  0.59180  Biso   1.000  H
  H450     1.0000 0.39629  0.84283  0.58460  Biso   1.000  H
  H451     1.0000 0.44840  0.80822  0.60020  Biso   1.000  H
  H452     1.0000 0.34400  0.74980  0.59960  Biso   1.000  H
  C409     1.0000 0.54981  0.69791  0.68202  Biso   1.000  C
  C410     1.0000 0.60928  0.69511  0.69131  Biso   1.000  C
  H453     1.0000 0.56032  0.75820  0.68130  Biso   1.000  H
  H454     1.0000 0.56541  0.68118  0.67510  Biso   1.000  H
  C411     1.0000 0.45298  0.63570  0.68442  Biso   1.000  C
  C412     1.0000 0.59021  0.60002  0.69310  Biso   1.000  C
  H455     1.0000 0.67160  0.73312  0.68940  Biso   1.000  H
  H456     1.0000 0.59811  0.71759  0.69810  Biso   1.000  H
  H457     1.0000 0.41788  0.63490  0.67820  Biso   1.000  H
  H458     1.0000 0.43548  0.65797  0.69070  Biso   1.000  H
  C413     1.0000 0.43276  0.54247  0.68677  Biso   1.000  C
  H459     1.0000 0.60351  0.57788  0.68640  Biso   1.000  H
  C414     1.0000 0.49099  0.54101  0.69605  Biso   1.000  C
  N61      1.0000 0.64568  0.59929  0.70203  Biso   1.000  N
  H460     1.0000 0.44300  0.51720  0.68020  Biso   1.000  H
  H461     1.0000 0.37053  0.50613  0.68880  Biso   1.000  H
  H462     1.0000 0.47811  0.56341  0.70280  Biso   1.000  H
  N62      1.0000 0.47212  0.44932  0.69785  Biso   1.000  N
  C415     1.0000 0.70084  0.57562  0.69967  Biso   1.000  C
  C416     1.0000 0.46088  0.42431  0.70764  Biso   1.000  C
  C417     1.0000 0.75926  0.56588  0.70774  Biso   1.000  C
  H463     1.0000 0.70537  0.56308  0.69230  Biso   1.000  H
  H464     1.0000 0.45788  0.46139  0.71290  Biso   1.000  H
  C418     1.0000 0.45220  0.33822  0.71122  Biso   1.000  C
  C419     1.0000 0.74778  0.56868  0.71877  Biso   1.000  C
  C420     1.0000 0.82909  0.55388  0.70382  Biso   1.000  C
  C421     1.0000 0.44999  0.32328  0.72214  Biso   1.000  C
  C422     1.0000 0.44610  0.27520  0.70382  Biso   1.000  C
  C423     1.0000 0.80160  0.55988  0.72633  Biso   1.000  C
  H465     1.0000 0.70170  0.57688  0.72130  Biso   1.000  H
  C424     1.0000 0.88600  0.54781  0.71122  Biso   1.000  C
  H466     1.0000 0.83662  0.55001  0.69630  Biso   1.000  H
  H467     1.0000 0.45499  0.36690  0.72700  Biso   1.000  H
  C425     1.0000 0.44011  0.24173  0.72633  Biso   1.000  C
  C426     1.0000 0.43407  0.19338  0.70774  Biso   1.000  C
  H468     1.0000 0.45001  0.28661  0.69630  Biso   1.000  H
  C427     1.0000 0.87330  0.55001  0.72214  Biso   1.000  C
  C428     1.0000 0.78743  0.55581  0.73835  Biso   1.000  C
  C429     1.0000 0.96340  0.53907  0.70764  Biso   1.000  C
  C430     1.0000 0.43132  0.17911  0.71877  Biso   1.000  C
  C431     1.0000 0.44422  0.23159  0.73835  Biso   1.000  C
  C432     1.0000 0.42442  0.12523  0.69967  Biso   1.000  C
  H469     1.0000 0.91191  0.54501  0.72700  Biso   1.000  H
  C433     1.0000 0.75569  0.60782  0.74303  Biso   1.000  C
  C434     1.0000 0.85943  0.60382  0.74538  Biso   1.000  C
  C435     1.0000 0.80629  0.49973  0.74488  Biso   1.000  C
  C436     1.0000 0.70572  0.49900  0.74360  Biso   1.000  C
  N63      1.0000 0.97721  0.52787  0.69785  Biso   1.000  N
  H470     1.0000 0.00348  0.54207  0.71290  Biso   1.000  H
  H471     1.0000 0.42312  0.12483  0.72130  Biso   1.000  H
  C437     1.0000 0.39221  0.14791  0.74303  Biso   1.000  C
  C438     1.0000 0.39622  0.25560  0.74538  Biso   1.000  C
  C439     1.0000 0.50033  0.30661  0.74488  Biso   1.000  C
  C440     1.0000 0.50103  0.20672  0.74360  Biso   1.000  C
  H472     1.0000 0.43688  0.14230  0.69230  Biso   1.000  H
  N64      1.0000 0.40072  0.04641  0.70203  Biso   1.000  N
  C441     1.0000 0.74439  0.60382  0.75462  Biso   1.000  C
  H473     1.0000 0.74220  0.64390  0.73870  Biso   1.000  H
  H474     1.0000 0.91602  0.63523  0.74230  Biso   1.000  H
  C442     1.0000 0.85213  0.60782  0.75697  Biso   1.000  C
  C443     1.0000 0.79327  0.49900  0.75640  Biso   1.000  C
  H475     1.0000 0.82670  0.46432  0.74170  Biso   1.000  H
  H476     1.0000 0.65769  0.45919  0.73930  Biso   1.000  H
  C444     1.0000 0.69344  0.49973  0.75512  Biso   1.000  C
  C445     1.0000 0.05001  0.50900  0.69605  Biso   1.000  C
  C446     1.0000 0.39617  0.14057  0.75462  Biso   1.000  C
  H477     1.0000 0.35609  0.09829  0.73870  Biso   1.000  H
  H478     1.0000 0.36482  0.28081  0.74230  Biso   1.000  H
  C447     1.0000 0.39220  0.24433  0.75697  Biso   1.000  C
  C448     1.0000 0.50097  0.29428  0.75640  Biso   1.000  C
  H479     1.0000 0.53574  0.36243  0.74170  Biso   1.000  H
  H480     1.0000 0.54082  0.19852  0.73930  Biso   1.000  H
  C449     1.0000 0.50030  0.19372  0.75512  Biso   1.000  C
  C450     1.0000 0.39998  0.99020  0.69310  Biso   1.000  C
  H481     1.0000 0.71921  0.63523  0.75770  Biso   1.000  H
  C451     1.0000 0.76838  0.55581  0.76165  Biso   1.000  C
  H482     1.0000 0.90170  0.64390  0.76130  Biso   1.000  H
  H483     1.0000 0.80149  0.45919  0.76070  Biso   1.000  H
  H484     1.0000 0.63762  0.46432  0.75830  Biso   1.000  H
  C452     1.0000 0.00981  0.40977  0.69310  Biso   1.000  C
  C453     1.0000 0.10972  0.56721  0.68677  Biso   1.000  C
  H485     1.0000 0.08526  0.52187  0.70280  Biso   1.000  H
  H486     1.0000 0.36483  0.08402  0.75770  Biso   1.000  H
  C454     1.0000 0.44419  0.21259  0.76165  Biso   1.000  C
  H487     1.0000 0.35609  0.25780  0.76130  Biso   1.000  H
  H488     1.0000 0.54080  0.34229  0.76070  Biso   1.000  H
  H489     1.0000 0.53572  0.17331  0.75830  Biso   1.000  H
  H490     1.0000 0.42208  0.02561  0.68640  Biso   1.000  H
  C455     1.0000 0.30492  0.91418  0.69131  Biso   1.000  C
  C456     1.0000 0.45900  0.94999  0.69605  Biso   1.000  C
  C457     1.0000 0.75828  0.55988  0.77367  Biso   1.000  C
  H491     1.0000 0.97441  0.39650  0.68640  Biso   1.000  H
  N65      1.0000 0.95360  0.35429  0.70203  Biso   1.000  N
  C458     1.0000 0.08580  0.39070  0.69131  Biso   1.000  C
  C459     1.0000 0.18272  0.54701  0.68442  Biso   1.000  C
  H492     1.0000 0.07419  0.55701  0.68020  Biso   1.000  H
  H493     1.0000 0.13561  0.62950  0.68880  Biso   1.000  H
  C460     1.0000 0.44009  0.19838  0.77367  Biso   1.000  C
  H494     1.0000 0.26690  0.93852  0.68940  Biso   1.000  H
  H495     1.0000 0.28242  0.88050  0.69810  Biso   1.000  H
  C461     1.0000 0.30207  0.85189  0.68202  Biso   1.000  C
  N66      1.0000 0.55073  0.02281  0.69785  Biso   1.000  N
  C462     1.0000 0.45751  0.89030  0.68677  Biso   1.000  C
  H496     1.0000 0.43662  0.91471  0.70280  Biso   1.000  H
  C463     1.0000 0.67671  0.55001  0.77786  Biso   1.000  C
  C464     1.0000 0.82090  0.56868  0.78123  Biso   1.000  C
  C465     1.0000 0.87483  0.29921  0.69967  Biso   1.000  C
  H497     1.0000 0.06153  0.32842  0.68940  Biso   1.000  H
  H498     1.0000 0.11952  0.40190  0.69810  Biso   1.000  H
  C466     1.0000 0.14811  0.45018  0.68202  Biso   1.000  C
  H499     1.0000 0.21701  0.58208  0.67820  Biso   1.000  H
  H500     1.0000 0.22247  0.56448  0.69070  Biso   1.000  H
  C467     1.0000 0.44999  0.12670  0.77786  Biso   1.000  C
  C468     1.0000 0.43131  0.25220  0.78123  Biso   1.000  C
  H501     1.0000 0.24177  0.80208  0.68130  Biso   1.000  H
  H502     1.0000 0.31879  0.88417  0.67510  Biso   1.000  H
  C469     1.0000 0.36429  0.81729  0.68442  Biso   1.000  C
  C470     1.0000 0.57571  0.03661  0.70764  Biso   1.000  C
  H503     1.0000 0.48281  0.92578  0.68020  Biso   1.000  H
  H504     1.0000 0.49389  0.86443  0.68880  Biso   1.000  H
  C471     1.0000 0.66181  0.54781  0.78878  Biso   1.000  C
  H505     1.0000 0.63310  0.54501  0.77300  Biso   1.000  H
  H506     1.0000 0.87518  0.57688  0.77870  Biso   1.000  H
  C472     1.0000 0.80662  0.56588  0.79226  Biso   1.000  C
  C473     1.0000 0.80661  0.24073  0.70774  Biso   1.000  C
  H507     1.0000 0.85769  0.29461  0.69230  Biso   1.000  H
  H508     1.0000 0.19791  0.43971  0.68130  Biso   1.000  H
  H509     1.0000 0.11577  0.43458  0.67510  Biso   1.000  H
  C474     1.0000 0.45220  0.11403  0.78878  Biso   1.000  C
  H510     1.0000 0.45499  0.08809  0.77300  Biso   1.000  H
  H511     1.0000 0.42311  0.29828  0.77870  Biso   1.000  H
  C475     1.0000 0.43412  0.24073  0.79226  Biso   1.000  C
  H512     1.0000 0.36511  0.78301  0.67820  Biso   1.000  H
  H513     1.0000 0.34196  0.77748  0.69070  Biso   1.000  H
  C476     1.0000 0.66183  0.11403  0.71122  Biso   1.000  C
  H514     1.0000 0.53863  0.99653  0.71290  Biso   1.000  H
  C477     1.0000 0.57567  0.53907  0.79236  Biso   1.000  C
  C478     1.0000 0.72479  0.55388  0.79618  Biso   1.000  C
  C479     1.0000 0.87478  0.57562  0.80033  Biso   1.000  C
  C480     1.0000 0.82089  0.25220  0.71877  Biso   1.000  C
  C481     1.0000 0.72481  0.17091  0.70382  Biso   1.000  C
  C482     1.0000 0.46090  0.03661  0.79236  Biso   1.000  C
  C483     1.0000 0.44610  0.17091  0.79618  Biso   1.000  C
  C484     1.0000 0.42438  0.29921  0.80033  Biso   1.000  C
  C485     1.0000 0.67671  0.12670  0.72214  Biso   1.000  C
  N67      1.0000 0.55066  0.52787  0.80215  Biso   1.000  N
  H515     1.0000 0.53859  0.54207  0.78710  Biso   1.000  H
  H516     1.0000 0.71339  0.55001  0.80370  Biso   1.000  H
  H517     1.0000 0.85771  0.56308  0.80770  Biso   1.000  H
  N68      1.0000 0.95361  0.59929  0.79797  Biso   1.000  N
  C486     1.0000 0.75829  0.19838  0.72633  Biso   1.000  C
  H518     1.0000 0.87517  0.29828  0.72130  Biso   1.000  H
  H519     1.0000 0.71342  0.16338  0.69630  Biso   1.000  H
  N69      1.0000 0.47208  0.02281  0.80215  Biso   1.000  N
  H520     1.0000 0.45790  0.99653  0.78710  Biso   1.000  H
  H521     1.0000 0.44996  0.16338  0.80370  Biso   1.000  H
  H522     1.0000 0.43692  0.29461  0.80770  Biso   1.000  H
  N70      1.0000 0.40070  0.35429  0.79797  Biso   1.000  N
  H523     1.0000 0.63310  0.08809  0.72700  Biso   1.000  H
  C487     1.0000 0.45899  0.50900  0.80395  Biso   1.000  C
  C488     1.0000 0.00982  0.60002  0.80690  Biso   1.000  C
  C489     1.0000 0.76840  0.21259  0.73835  Biso   1.000  C
  C490     1.0000 0.49099  0.94999  0.80395  Biso   1.000  C
  C491     1.0000 0.39997  0.40977  0.80690  Biso   1.000  C
  C492     1.0000 0.45749  0.56721  0.81323  Biso   1.000  C
  H524     1.0000 0.43661  0.52187  0.79720  Biso   1.000  H
  H525     1.0000 0.97438  0.57788  0.81360  Biso   1.000  H
  C493     1.0000 0.08583  0.69511  0.80869  Biso   1.000  C
  C494     1.0000 0.05001  0.54101  0.80395  Biso   1.000  C
  C495     1.0000 0.85213  0.24433  0.74303  Biso   1.000  C
  C496     1.0000 0.74440  0.14057  0.74538  Biso   1.000  C
  C497     1.0000 0.69342  0.19372  0.74488  Biso   1.000  C
  C498     1.0000 0.79330  0.29428  0.74360  Biso   1.000  C
  C499     1.0000 0.59021  0.99020  0.80690  Biso   1.000  C
  C500     1.0000 0.43279  0.89030  0.81323  Biso   1.000  C
  H526     1.0000 0.47809  0.91471  0.79720  Biso   1.000  H
  H527     1.0000 0.42209  0.39650  0.81360  Biso   1.000  H
  C501     1.0000 0.30490  0.39070  0.80869  Biso   1.000  C
  C502     1.0000 0.36429  0.54701  0.81558  Biso   1.000  C
  H528     1.0000 0.48283  0.55701  0.81980  Biso   1.000  H
  H529     1.0000 0.49389  0.62950  0.81120  Biso   1.000  H
  H530     1.0000 0.06153  0.73312  0.81060  Biso   1.000  H
  H531     1.0000 0.11948  0.71759  0.80190  Biso   1.000  H
  C503     1.0000 0.14810  0.69791  0.81798  Biso   1.000  C
  N71      1.0000 0.97720  0.44932  0.80215  Biso   1.000  N
  C504     1.0000 0.10971  0.54247  0.81323  Biso   1.000  C
  H532     1.0000 0.08530  0.56341  0.79720  Biso   1.000  H
  C505     1.0000 0.85938  0.25560  0.75462  Biso   1.000  C
  H533     1.0000 0.90171  0.25780  0.73870  Biso   1.000  H
  H534     1.0000 0.71919  0.08402  0.74230  Biso   1.000  H
  C506     1.0000 0.75569  0.14791  0.75697  Biso   1.000  C
  C507     1.0000 0.70569  0.20672  0.75640  Biso   1.000  C
  H535     1.0000 0.63759  0.17331  0.74170  Biso   1.000  H
  H536     1.0000 0.80149  0.34229  0.73930  Biso   1.000  H
  C508     1.0000 0.80629  0.30661  0.75512  Biso   1.000  C
  H537     1.0000 0.60353  0.02561  0.81360  Biso   1.000  H
  N72      1.0000 0.64569  0.04641  0.79797  Biso   1.000  N
  C509     1.0000 0.60926  0.91418  0.80869  Biso   1.000  C
  C510     1.0000 0.45299  0.81729  0.81558  Biso   1.000  C
  H538     1.0000 0.44297  0.92578  0.81980  Biso   1.000  H
  H539     1.0000 0.37054  0.86443  0.81120  Biso   1.000  H
  H540     1.0000 0.26689  0.32842  0.81060  Biso   1.000  H
  H541     1.0000 0.28238  0.40190  0.80190  Biso   1.000  H
  C511     1.0000 0.30207  0.45018  0.81798  Biso   1.000  C
  H542     1.0000 0.36508  0.58208  0.82180  Biso   1.000  H
  H543     1.0000 0.34201  0.56448  0.80930  Biso   1.000  H
  H544     1.0000 0.19788  0.75820  0.81870  Biso   1.000  H
  H545     1.0000 0.11577  0.68118  0.82490  Biso   1.000  H
  C512     1.0000 0.18271  0.63570  0.81558  Biso   1.000  C
  C513     1.0000 0.96343  0.42431  0.79236  Biso   1.000  C
  H546     1.0000 0.07420  0.51720  0.81980  Biso   1.000  H
  H547     1.0000 0.13560  0.50613  0.81120  Biso   1.000  H
  H548     1.0000 0.91599  0.28081  0.75770  Biso   1.000  H
  C514     1.0000 0.78737  0.23159  0.76165  Biso   1.000  C
  H549     1.0000 0.74220  0.09829  0.76130  Biso   1.000  H
  H550     1.0000 0.65770  0.19852  0.76070  Biso   1.000  H
  H551     1.0000 0.82669  0.36243  0.75830  Biso   1.000  H
  C515     1.0000 0.70081  0.12523  0.80033  Biso   1.000  C
  H552     1.0000 0.67161  0.93852  0.81060  Biso   1.000  H
  H553     1.0000 0.59808  0.88050  0.80190  Biso   1.000  H
  C516     1.0000 0.54982  0.85189  0.81798  Biso   1.000  C
  H554     1.0000 0.41790  0.78301  0.82180  Biso   1.000  H
  H555     1.0000 0.43552  0.77748  0.80930  Biso   1.000  H
  H556     1.0000 0.24180  0.43971  0.81870  Biso   1.000  H
  H557     1.0000 0.31881  0.43458  0.82490  Biso   1.000  H
  H558     1.0000 0.21702  0.63490  0.82180  Biso   1.000  H
  H559     1.0000 0.22249  0.65797  0.80930  Biso   1.000  H
  C517     1.0000 0.88602  0.33822  0.78878  Biso   1.000  C
  H560     1.0000 0.00350  0.46139  0.78710  Biso   1.000  H
  C518     1.0000 0.80162  0.24173  0.77367  Biso   1.000  C
  C519     1.0000 0.75932  0.19338  0.79226  Biso   1.000  C
  H561     1.0000 0.70542  0.14230  0.80770  Biso   1.000  H
  H562     1.0000 0.56032  0.80208  0.81870  Biso   1.000  H
  H563     1.0000 0.56538  0.88417  0.82490  Biso   1.000  H
  C520     1.0000 0.87330  0.32328  0.77786  Biso   1.000  C
  C521     1.0000 0.82910  0.27520  0.79618  Biso   1.000  C
  C522     1.0000 0.74779  0.17911  0.78123  Biso   1.000  C
  H564     1.0000 0.91191  0.36690  0.77300  Biso   1.000  H
  H565     1.0000 0.83659  0.28661  0.80370  Biso   1.000  H
  H566     1.0000 0.70171  0.12483  0.77870  Biso   1.000  H
  C523     1.0000 0.49949  0.78947  0.56702  Biso   1.000  C
  C524     1.0000 0.54967  0.76347  0.55888  Biso   1.000  C
  C525     1.0000 0.54970  0.76353  0.55888  Biso   1.000  C
  C526     1.0000 0.48999  0.86563  0.56242  Biso   1.000  C
  H567     1.0000 0.44102  0.73859  0.56840  Biso   1.000  H
  H568     1.0000 0.53177  0.80748  0.57390  Biso   1.000  H
  C527     1.0000 0.64188  0.84209  0.55648  Biso   1.000  C
  H569     1.0000 0.55538  0.71472  0.56190  Biso   1.000  H
  H570     1.0000 0.51599  0.74299  0.55210  Biso   1.000  H
  C528     1.0000 0.58417  0.94658  0.56039  Biso   1.000  C
  H571     1.0000 0.45771  0.88170  0.56760  Biso   1.000  H
  H572     1.0000 0.45678  0.84749  0.55560  Biso   1.000  H
  N73      1.0000 0.68550  0.81821  0.54796  Biso   1.000  N
  C529     1.0000 0.63411  0.92231  0.55222  Biso   1.000  C
  H573     1.0000 0.67797  0.85929  0.56320  Biso   1.000  H
  H574     1.0000 0.57913  0.99633  0.55760  Biso   1.000  H
  H575     1.0000 0.61692  0.96472  0.56730  Biso   1.000  H
  C530     1.0000 0.75497  0.81648  0.55052  Biso   1.000  C
  H576     1.0000 0.60201  0.90637  0.54520  Biso   1.000  H
  N74      1.0000 0.72441  0.99653  0.55050  Biso   1.000  N
  C531     1.0000 0.80812  0.80081  0.54221  Biso   1.000  C
  H577     1.0000 0.77359  0.82541  0.55780  Biso   1.000  H
  C532     1.0000 0.75079  0.01266  0.54064  Biso   1.000  C
  C533     1.0000 0.75082  0.01273  0.54064  Biso   1.000  C
  C534     1.0000 0.79731  0.81188  0.53102  Biso   1.000  C
  C535     1.0000 0.86938  0.77780  0.54538  Biso   1.000  C
  H578     1.0000 0.71052  0.98052  0.53510  Biso   1.000  H
  C536     1.0000 0.84256  0.08048  0.53753  Biso   1.000  C
  C537     1.0000 0.84579  0.79841  0.52311  Biso   1.000  C
  H579     1.0000 0.75623  0.82882  0.52890  Biso   1.000  H
  C538     1.0000 0.91949  0.76207  0.53753  Biso   1.000  C
  C539     1.0000 0.91953  0.76213  0.53753  Biso   1.000  C
  H580     1.0000 0.87812  0.77240  0.55280  Biso   1.000  H
  C540     1.0000 0.86519  0.09328  0.52654  Biso   1.000  C
  C541     1.0000 0.90837  0.13056  0.54538  Biso   1.000  C
  C542     1.0000 0.90841  0.13063  0.54538  Biso   1.000  C
  C543     1.0000 0.83626  0.81228  0.51131  Biso   1.000  C
  C544     1.0000 0.90667  0.77187  0.52654  Biso   1.000  C
  C545     1.0000 0.98733  0.73813  0.54064  Biso   1.000  C
  C546     1.0000 0.95257  0.15417  0.52311  Biso   1.000  C
  H581     1.0000 0.82180  0.06101  0.52130  Biso   1.000  H
  C547     1.0000 0.99270  0.19191  0.54221  Biso   1.000  C
  H582     1.0000 0.89428  0.12189  0.55280  Biso   1.000  H
  C548     1.0000 0.75651  0.80201  0.50734  Biso   1.000  C
  C549     1.0000 0.81808  0.74519  0.50359  Biso   1.000  C
  C550     1.0000 0.90570  0.84062  0.50385  Biso   1.000  C
  C551     1.0000 0.85082  0.89210  0.50711  Biso   1.000  C
  H583     1.0000 0.93902  0.76080  0.52130  Biso   1.000  H
  H584     1.0000 0.01948  0.72999  0.53510  Biso   1.000  H
  N75      1.0000 0.00349  0.72792  0.55050  Biso   1.000  N
  C552     1.0000 0.97600  0.16370  0.51131  Biso   1.000  C
  C553     1.0000 0.01462  0.20271  0.53102  Biso   1.000  C
  C554     1.0000 0.06151  0.24499  0.55052  Biso   1.000  C
  C555     1.0000 0.74520  0.81808  0.49641  Biso   1.000  C
  H585     1.0000 0.70877  0.78367  0.51220  Biso   1.000  H
  C556     1.0000 0.80200  0.75646  0.49266  Biso   1.000  C
  C557     1.0000 0.80204  0.75653  0.49266  Biso   1.000  C
  H586     1.0000 0.81682  0.69311  0.50580  Biso   1.000  H
  C558     1.0000 0.89209  0.85082  0.49289  Biso   1.000  C
  H587     1.0000 0.96180  0.85302  0.50620  Biso   1.000  H
  C559     1.0000 0.84059  0.90570  0.49615  Biso   1.000  C
  H588     1.0000 0.86862  0.93971  0.51190  Biso   1.000  H
  C560     1.0000 0.07771  0.71179  0.55222  Biso   1.000  C
  C561     1.0000 0.92712  0.18191  0.50359  Biso   1.000  C
  C562     1.0000 0.93488  0.09428  0.50385  Biso   1.000  C
  C563     1.0000 0.04553  0.24352  0.50734  Biso   1.000  C
  C564     1.0000 0.04129  0.14923  0.50711  Biso   1.000  C
  H589     1.0000 0.07258  0.24379  0.52890  Biso   1.000  H
  N76      1.0000 0.13269  0.31448  0.54796  Biso   1.000  N
  H590     1.0000 0.05180  0.22639  0.55780  Biso   1.000  H
  C565     1.0000 0.81229  0.83628  0.48869  Biso   1.000  C
  H591     1.0000 0.69311  0.81681  0.49420  Biso   1.000  H
  H592     1.0000 0.78371  0.70878  0.48780  Biso   1.000  H
  H593     1.0000 0.93974  0.86863  0.48810  Biso   1.000  H
  H594     1.0000 0.85298  0.96178  0.49380  Biso   1.000  H
  C566     1.0000 0.15793  0.79981  0.55648  Biso   1.000  C
  H595     1.0000 0.09357  0.69558  0.54520  Biso   1.000  H
  C567     1.0000 0.05336  0.63757  0.56039  Biso   1.000  C
  C568     1.0000 0.05340  0.63763  0.56039  Biso   1.000  C
  C569     1.0000 0.95450  0.19798  0.49266  Biso   1.000  C
  H596     1.0000 0.87630  0.18317  0.50580  Biso   1.000  H
  C570     1.0000 0.95871  0.10789  0.49289  Biso   1.000  C
  H597     1.0000 0.89119  0.03820  0.50620  Biso   1.000  H
  C571     1.0000 0.07288  0.25479  0.49641  Biso   1.000  C
  H598     1.0000 0.07492  0.29120  0.51220  Biso   1.000  H
  C572     1.0000 0.06507  0.15937  0.49615  Biso   1.000  C
  H599     1.0000 0.07114  0.13143  0.51190  Biso   1.000  H
  C573     1.0000 0.20018  0.35809  0.55648  Biso   1.000  C
  C574     1.0000 0.79840  0.84582  0.47689  Biso   1.000  C
  N77      1.0000 0.18180  0.86729  0.54796  Biso   1.000  N
  C575     1.0000 0.23648  0.78620  0.55888  Biso   1.000  C
  H600     1.0000 0.14069  0.81868  0.56320  Biso   1.000  H
  H601     1.0000 0.00370  0.58282  0.55760  Biso   1.000  H
  H602     1.0000 0.03531  0.65217  0.56730  Biso   1.000  H
  C576     1.0000 0.13437  0.62436  0.56242  Biso   1.000  C
  C577     1.0000 0.13440  0.62443  0.56242  Biso   1.000  C
  C578     1.0000 0.02398  0.18771  0.48869  Biso   1.000  C
  H603     1.0000 0.92509  0.21632  0.48780  Biso   1.000  H
  H604     1.0000 0.92890  0.06028  0.48810  Biso   1.000  H
  H605     1.0000 0.12370  0.30687  0.49420  Biso   1.000  H
  H606     1.0000 0.10880  0.14703  0.49380  Biso   1.000  H
  C579     1.0000 0.28822  0.36589  0.55222  Biso   1.000  C
  C580     1.0000 0.21378  0.45031  0.55888  Biso   1.000  C
  H607     1.0000 0.18133  0.32201  0.56320  Biso   1.000  H
  C581     1.0000 0.81190  0.79727  0.46898  Biso   1.000  C
  C582     1.0000 0.77190  0.90670  0.47346  Biso   1.000  C
  C583     1.0000 0.18351  0.93851  0.55052  Biso   1.000  C
  C584     1.0000 0.21050  0.70998  0.56702  Biso   1.000  C
  H608     1.0000 0.28527  0.84069  0.56190  Biso   1.000  H
  H609     1.0000 0.25702  0.77300  0.55210  Biso   1.000  H
  H610     1.0000 0.11828  0.57602  0.56760  Biso   1.000  H
  H611     1.0000 0.15247  0.60929  0.55560  Biso   1.000  H
  C585     1.0000 0.04737  0.20158  0.47689  Biso   1.000  C
  N78      1.0000 0.27213  0.27560  0.55050  Biso   1.000  N
  H612     1.0000 0.30438  0.39796  0.54520  Biso   1.000  H
  C586     1.0000 0.36237  0.41577  0.56039  Biso   1.000  C
  H613     1.0000 0.30441  0.39803  0.54520  Biso   1.000  H
  C587     1.0000 0.28999  0.50052  0.56702  Biso   1.000  C
  H614     1.0000 0.15928  0.44458  0.56190  Biso   1.000  H
  H615     1.0000 0.22698  0.48399  0.55210  Biso   1.000  H
  C588     1.0000 0.80078  0.80808  0.45779  Biso   1.000  C
  H616     1.0000 0.82878  0.75620  0.47110  Biso   1.000  H
  C589     1.0000 0.76207  0.91951  0.46247  Biso   1.000  C
  H617     1.0000 0.76078  0.93898  0.47870  Biso   1.000  H
  C590     1.0000 0.19917  0.00726  0.54221  Biso   1.000  C
  C591     1.0000 0.19921  0.00733  0.54221  Biso   1.000  C
  H618     1.0000 0.17460  0.94818  0.55780  Biso   1.000  H
  H619     1.0000 0.26139  0.70238  0.56840  Biso   1.000  H
  H620     1.0000 0.19249  0.72432  0.57390  Biso   1.000  H
  C592     1.0000 0.98543  0.18811  0.46898  Biso   1.000  C
  C593     1.0000 0.13479  0.22812  0.47346  Biso   1.000  C
  C594     1.0000 0.26187  0.24919  0.54064  Biso   1.000  C
  H621     1.0000 0.41720  0.42090  0.55760  Biso   1.000  H
  H622     1.0000 0.34782  0.38309  0.56730  Biso   1.000  H
  C595     1.0000 0.37558  0.50999  0.56242  Biso   1.000  C
  H623     1.0000 0.29758  0.55901  0.56840  Biso   1.000  H
  H624     1.0000 0.27567  0.46818  0.57390  Biso   1.000  H
  C596     1.0000 0.81651  0.75500  0.44948  Biso   1.000  C
  C597     1.0000 0.77781  0.86943  0.45462  Biso   1.000  C
  C598     1.0000 0.73812  0.98732  0.45936  Biso   1.000  C
  C599     1.0000 0.18812  0.98539  0.53102  Biso   1.000  C
  C600     1.0000 0.22224  0.09162  0.54538  Biso   1.000  C
  C601     1.0000 0.00730  0.19918  0.45779  Biso   1.000  C
  H625     1.0000 0.92741  0.17117  0.47110  Biso   1.000  H
  C602     1.0000 0.15742  0.23792  0.46247  Biso   1.000  C
  H626     1.0000 0.17821  0.23919  0.47870  Biso   1.000  H
  C603     1.0000 0.23790  0.15737  0.53753  Biso   1.000  C
  H627     1.0000 0.26999  0.28947  0.53510  Biso   1.000  H
  H628     1.0000 0.42400  0.54227  0.56760  Biso   1.000  H
  H629     1.0000 0.39068  0.54320  0.55560  Biso   1.000  H
  N79      1.0000 0.81821  0.68551  0.45204  Biso   1.000  N
  H630     1.0000 0.82541  0.77360  0.44220  Biso   1.000  H
  H631     1.0000 0.77238  0.87810  0.44720  Biso   1.000  H
  H632     1.0000 0.72999  0.01947  0.46490  Biso   1.000  H
  N80      1.0000 0.72788  0.00346  0.44950  Biso   1.000  N
  H633     1.0000 0.73002  0.01953  0.46490  Biso   1.000  H
  N81      1.0000 0.72791  0.00353  0.44950  Biso   1.000  N
  C604     1.0000 0.20163  0.04741  0.52311  Biso   1.000  C
  H634     1.0000 0.17118  0.92737  0.52890  Biso   1.000  H
  H635     1.0000 0.22760  0.10569  0.55280  Biso   1.000  H
  C605     1.0000 0.93849  0.18351  0.44948  Biso   1.000  C
  C606     1.0000 0.09157  0.22218  0.45462  Biso   1.000  C
  C607     1.0000 0.24920  0.26186  0.45936  Biso   1.000  C
  C608     1.0000 0.24924  0.26193  0.45936  Biso   1.000  C
  C609     1.0000 0.22810  0.13476  0.52654  Biso   1.000  C
  C610     1.0000 0.22813  0.13483  0.52654  Biso   1.000  C
  C611     1.0000 0.84209  0.64190  0.44352  Biso   1.000  C
  C612     1.0000 0.71180  0.07768  0.44778  Biso   1.000  C
  C613     1.0000 0.18768  0.02400  0.51131  Biso   1.000  C
  N82      1.0000 0.86728  0.18177  0.45204  Biso   1.000  N
  H636     1.0000 0.94817  0.17457  0.44220  Biso   1.000  H
  H637     1.0000 0.10571  0.22759  0.44720  Biso   1.000  H
  N83      1.0000 0.27556  0.27206  0.44950  Biso   1.000  N
  N84      1.0000 0.27559  0.27213  0.44950  Biso   1.000  N
  H638     1.0000 0.28948  0.27000  0.46490  Biso   1.000  H
  H639     1.0000 0.23918  0.17817  0.52130  Biso   1.000  H
  C614     1.0000 0.76346  0.54968  0.44112  Biso   1.000  C
  C615     1.0000 0.92233  0.63410  0.44778  Biso   1.000  C
  H640     1.0000 0.85932  0.67798  0.43680  Biso   1.000  H
  H641     1.0000 0.69563  0.09362  0.45480  Biso   1.000  H
  C616     1.0000 0.63758  0.05341  0.43961  Biso   1.000  C
  C617     1.0000 0.79979  0.15790  0.44352  Biso   1.000  C
  C618     1.0000 0.19804  0.95452  0.50734  Biso   1.000  C
  C619     1.0000 0.10791  0.95872  0.50711  Biso   1.000  C
  C620     1.0000 0.25479  0.07288  0.50359  Biso   1.000  C
  C621     1.0000 0.15942  0.06508  0.50385  Biso   1.000  C
  C622     1.0000 0.36592  0.28820  0.44778  Biso   1.000  C
  C623     1.0000 0.78946  0.49946  0.43298  Biso   1.000  C
  C624     1.0000 0.78950  0.49953  0.43298  Biso   1.000  C
  H642     1.0000 0.71470  0.55541  0.43810  Biso   1.000  H
  H643     1.0000 0.74299  0.51600  0.44790  Biso   1.000  H
  C625     1.0000 0.94659  0.58422  0.43961  Biso   1.000  C
  H644     1.0000 0.90641  0.60202  0.45480  Biso   1.000  H
  N85      1.0000 0.99652  0.72439  0.44950  Biso   1.000  N
  H645     1.0000 0.58280  0.00366  0.44240  Biso   1.000  H
  H646     1.0000 0.65219  0.03527  0.43270  Biso   1.000  H
  C626     1.0000 0.62435  0.13436  0.43758  Biso   1.000  C
  H647     1.0000 0.58283  0.00373  0.44240  Biso   1.000  H
  C627     1.0000 0.62439  0.13443  0.43758  Biso   1.000  C
  C628     1.0000 0.78620  0.23652  0.44112  Biso   1.000  C
  H648     1.0000 0.81867  0.14070  0.43680  Biso   1.000  H
  C629     1.0000 0.18191  0.92711  0.49641  Biso   1.000  C
  H649     1.0000 0.21631  0.92511  0.51220  Biso   1.000  H
  C630     1.0000 0.09433  0.93491  0.49615  Biso   1.000  C
  H650     1.0000 0.06032  0.92891  0.51190  Biso   1.000  H
  C631     1.0000 0.24351  0.04547  0.49266  Biso   1.000  C
  H651     1.0000 0.30688  0.12369  0.50580  Biso   1.000  H
  C632     1.0000 0.14919  0.04127  0.49289  Biso   1.000  C
  H652     1.0000 0.14698  0.10882  0.50620  Biso   1.000  H
  C633     1.0000 0.35812  0.20018  0.44352  Biso   1.000  C
  H653     1.0000 0.39799  0.30441  0.45480  Biso   1.000  H
  C634     1.0000 0.41579  0.36242  0.43961  Biso   1.000  C
  C635     1.0000 0.86558  0.48999  0.43758  Biso   1.000  C
  H654     1.0000 0.73857  0.44098  0.43160  Biso   1.000  H
  H655     1.0000 0.80748  0.53181  0.42610  Biso   1.000  H
  H656     1.0000 0.99629  0.57908  0.44240  Biso   1.000  H
  H657     1.0000 0.96472  0.61689  0.43270  Biso   1.000  H
  C636     1.0000 0.01267  0.75080  0.45936  Biso   1.000  C
  H658     1.0000 0.57601  0.11829  0.43240  Biso   1.000  H
  H659     1.0000 0.60928  0.15250  0.44440  Biso   1.000  H
  C637     1.0000 0.71002  0.21052  0.43298  Biso   1.000  C
  H660     1.0000 0.84066  0.28527  0.43810  Biso   1.000  H
  H661     1.0000 0.77299  0.25699  0.44790  Biso   1.000  H
  C638     1.0000 0.16367  0.97599  0.48869  Biso   1.000  C
  H662     1.0000 0.18318  0.87629  0.49420  Biso   1.000  H
  H663     1.0000 0.03816  0.89117  0.49380  Biso   1.000  H
  H664     1.0000 0.29119  0.07488  0.48780  Biso   1.000  H
  H665     1.0000 0.13140  0.07108  0.48810  Biso   1.000  H
  N86      1.0000 0.31450  0.13269  0.45204  Biso   1.000  N
  C639     1.0000 0.45027  0.21378  0.44112  Biso   1.000  C
  H666     1.0000 0.32200  0.18131  0.43680  Biso   1.000  H
  H667     1.0000 0.42087  0.41717  0.44240  Biso   1.000  H
  H668     1.0000 0.38314  0.34782  0.43270  Biso   1.000  H
  C640     1.0000 0.51000  0.37562  0.43758  Biso   1.000  C
  H669     1.0000 0.88172  0.45772  0.43240  Biso   1.000  H
  H670     1.0000 0.84747  0.45679  0.44440  Biso   1.000  H
  H671     1.0000 0.98052  0.71052  0.46490  Biso   1.000  H
  C641     1.0000 0.08053  0.84262  0.46247  Biso   1.000  C
  H672     1.0000 0.70242  0.26139  0.43160  Biso   1.000  H
  H673     1.0000 0.72429  0.19251  0.42610  Biso   1.000  H
  C642     1.0000 0.15422  0.95258  0.47689  Biso   1.000  C
  C643     1.0000 0.24499  0.06148  0.44948  Biso   1.000  C
  C644     1.0000 0.50051  0.29000  0.43298  Biso   1.000  C
  H674     1.0000 0.44457  0.15930  0.43810  Biso   1.000  H
  H675     1.0000 0.48402  0.22699  0.44790  Biso   1.000  H
  H676     1.0000 0.54226  0.42397  0.43240  Biso   1.000  H
  H677     1.0000 0.54318  0.39070  0.44440  Biso   1.000  H
  C645     1.0000 0.13061  0.90837  0.45462  Biso   1.000  C
  C646     1.0000 0.09333  0.86523  0.47346  Biso   1.000  C
  C647     1.0000 0.20272  0.01460  0.46898  Biso   1.000  C
  C648     1.0000 0.19190  0.99273  0.45779  Biso   1.000  C
  H678     1.0000 0.22641  0.05181  0.44220  Biso   1.000  H
  H679     1.0000 0.55900  0.29760  0.43160  Biso   1.000  H
  H680     1.0000 0.46816  0.27567  0.42610  Biso   1.000  H
  H681     1.0000 0.46820  0.27573  0.42610  Biso   1.000  H
  H682     1.0000 0.12190  0.89430  0.44720  Biso   1.000  H
  H683     1.0000 0.06100  0.82181  0.47870  Biso   1.000  H
  H684     1.0000 0.24380  0.07261  0.47110  Biso   1.000  H
  C649     1.0000 0.49949  0.78947  0.56702  Biso   1.000  C
  C650     1.0000 0.54967  0.76347  0.55888  Biso   1.000  C
  C651     1.0000 0.54970  0.76353  0.55888  Biso   1.000  C
  C652     1.0000 0.48999  0.86563  0.56242  Biso   1.000  C
  H685     1.0000 0.44102  0.73859  0.56840  Biso   1.000  H
  H686     1.0000 0.53177  0.80748  0.57390  Biso   1.000  H
  C653     1.0000 0.64188  0.84209  0.55648  Biso   1.000  C
  H687     1.0000 0.55538  0.71472  0.56190  Biso   1.000  H
  H688     1.0000 0.51599  0.74299  0.55210  Biso   1.000  H
  C654     1.0000 0.58417  0.94658  0.56039  Biso   1.000  C
  H689     1.0000 0.45771  0.88170  0.56760  Biso   1.000  H
  H690     1.0000 0.45678  0.84749  0.55560  Biso   1.000  H
  N87      1.0000 0.68550  0.81821  0.54796  Biso   1.000  N
  C655     1.0000 0.63411  0.92231  0.55222  Biso   1.000  C
  H691     1.0000 0.67797  0.85929  0.56320  Biso   1.000  H
  H692     1.0000 0.57913  0.99633  0.55760  Biso   1.000  H
  H693     1.0000 0.61692  0.96472  0.56730  Biso   1.000  H
  C656     1.0000 0.75497  0.81648  0.55052  Biso   1.000  C
  H694     1.0000 0.60201  0.90637  0.54520  Biso   1.000  H
  N88      1.0000 0.72441  0.99653  0.55050  Biso   1.000  N
  C657     1.0000 0.80812  0.80081  0.54221  Biso   1.000  C
  H695     1.0000 0.77359  0.82541  0.55780  Biso   1.000  H
  C658     1.0000 0.75079  0.01266  0.54064  Biso   1.000  C
  C659     1.0000 0.75082  0.01273  0.54064  Biso   1.000  C
  C660     1.0000 0.79731  0.81188  0.53102  Biso   1.000  C
  C661     1.0000 0.86938  0.77780  0.54538  Biso   1.000  C
  H696     1.0000 0.71052  0.98052  0.53510  Biso   1.000  H
  C662     1.0000 0.84256  0.08048  0.53753  Biso   1.000  C
  C663     1.0000 0.84579  0.79841  0.52311  Biso   1.000  C
  H697     1.0000 0.75623  0.82882  0.52890  Biso   1.000  H
  C664     1.0000 0.91949  0.76207  0.53753  Biso   1.000  C
  C665     1.0000 0.91953  0.76213  0.53753  Biso   1.000  C
  H698     1.0000 0.87812  0.77240  0.55280  Biso   1.000  H
  C666     1.0000 0.86519  0.09328  0.52654  Biso   1.000  C
  C667     1.0000 0.90837  0.13056  0.54538  Biso   1.000  C
  C668     1.0000 0.90841  0.13063  0.54538  Biso   1.000  C
  C669     1.0000 0.83626  0.81228  0.51131  Biso   1.000  C
  C670     1.0000 0.90667  0.77187  0.52654  Biso   1.000  C
  C671     1.0000 0.98733  0.73813  0.54064  Biso   1.000  C
  C672     1.0000 0.95257  0.15417  0.52311  Biso   1.000  C
  H699     1.0000 0.82180  0.06101  0.52130  Biso   1.000  H
  C673     1.0000 0.99270  0.19191  0.54221  Biso   1.000  C
  H700     1.0000 0.89428  0.12189  0.55280  Biso   1.000  H
  C674     1.0000 0.75651  0.80201  0.50734  Biso   1.000  C
  C675     1.0000 0.81808  0.74519  0.50359  Biso   1.000  C
  C676     1.0000 0.90570  0.84062  0.50385  Biso   1.000  C
  C677     1.0000 0.85082  0.89210  0.50711  Biso   1.000  C
  H701     1.0000 0.93902  0.76080  0.52130  Biso   1.000  H
  H702     1.0000 0.01948  0.72999  0.53510  Biso   1.000  H
  N89      1.0000 0.00349  0.72792  0.55050  Biso   1.000  N
  C678     1.0000 0.97600  0.16370  0.51131  Biso   1.000  C
  C679     1.0000 0.01462  0.20271  0.53102  Biso   1.000  C
  C680     1.0000 0.06151  0.24499  0.55052  Biso   1.000  C
  C681     1.0000 0.74520  0.81808  0.49641  Biso   1.000  C
  H703     1.0000 0.70877  0.78367  0.51220  Biso   1.000  H
  C682     1.0000 0.80200  0.75646  0.49266  Biso   1.000  C
  C683     1.0000 0.80204  0.75653  0.49266  Biso   1.000  C
  H704     1.0000 0.81682  0.69311  0.50580  Biso   1.000  H
  C684     1.0000 0.89209  0.85082  0.49289  Biso   1.000  C
  H705     1.0000 0.96180  0.85302  0.50620  Biso   1.000  H
  C685     1.0000 0.84059  0.90570  0.49615  Biso   1.000  C
  H706     1.0000 0.86862  0.93971  0.51190  Biso   1.000  H
  C686     1.0000 0.07771  0.71179  0.55222  Biso   1.000  C
  C687     1.0000 0.92712  0.18191  0.50359  Biso   1.000  C
  C688     1.0000 0.93488  0.09428  0.50385  Biso   1.000  C
  C689     1.0000 0.04553  0.24352  0.50734  Biso   1.000  C
  C690     1.0000 0.04129  0.14923  0.50711  Biso   1.000  C
  H707     1.0000 0.07258  0.24379  0.52890  Biso   1.000  H
  N90      1.0000 0.13269  0.31448  0.54796  Biso   1.000  N
  H708     1.0000 0.05180  0.22639  0.55780  Biso   1.000  H
  C691     1.0000 0.81229  0.83628  0.48869  Biso   1.000  C
  H709     1.0000 0.69311  0.81681  0.49420  Biso   1.000  H
  H710     1.0000 0.78371  0.70878  0.48780  Biso   1.000  H
  H711     1.0000 0.93974  0.86863  0.48810  Biso   1.000  H
  H712     1.0000 0.85298  0.96178  0.49380  Biso   1.000  H
  C692     1.0000 0.15793  0.79981  0.55648  Biso   1.000  C
  H713     1.0000 0.09357  0.69558  0.54520  Biso   1.000  H
  C693     1.0000 0.05336  0.63757  0.56039  Biso   1.000  C
  C694     1.0000 0.05340  0.63763  0.56039  Biso   1.000  C
  C695     1.0000 0.95450  0.19798  0.49266  Biso   1.000  C
  H714     1.0000 0.87630  0.18317  0.50580  Biso   1.000  H
  C696     1.0000 0.95871  0.10789  0.49289  Biso   1.000  C
  H715     1.0000 0.89119  0.03820  0.50620  Biso   1.000  H
  C697     1.0000 0.07288  0.25479  0.49641  Biso   1.000  C
  H716     1.0000 0.07492  0.29120  0.51220  Biso   1.000  H
  C698     1.0000 0.06507  0.15937  0.49615  Biso   1.000  C
  H717     1.0000 0.07114  0.13143  0.51190  Biso   1.000  H
  C699     1.0000 0.20018  0.35809  0.55648  Biso   1.000  C
  C700     1.0000 0.79840  0.84582  0.47689  Biso   1.000  C
  N91      1.0000 0.18180  0.86729  0.54796  Biso   1.000  N
  C701     1.0000 0.23648  0.78620  0.55888  Biso   1.000  C
  H718     1.0000 0.14069  0.81868  0.56320  Biso   1.000  H
  H719     1.0000 0.00370  0.58282  0.55760  Biso   1.000  H
  H720     1.0000 0.03531  0.65217  0.56730  Biso   1.000  H
  C702     1.0000 0.13437  0.62436  0.56242  Biso   1.000  C
  C703     1.0000 0.13440  0.62443  0.56242  Biso   1.000  C
  C704     1.0000 0.02398  0.18771  0.48869  Biso   1.000  C
  H721     1.0000 0.92509  0.21632  0.48780  Biso   1.000  H
  H722     1.0000 0.92890  0.06028  0.48810  Biso   1.000  H
  H723     1.0000 0.12370  0.30687  0.49420  Biso   1.000  H
  H724     1.0000 0.10880  0.14703  0.49380  Biso   1.000  H
  C705     1.0000 0.28822  0.36589  0.55222  Biso   1.000  C
  C706     1.0000 0.21378  0.45031  0.55888  Biso   1.000  C
  H725     1.0000 0.18133  0.32201  0.56320  Biso   1.000  H
  C707     1.0000 0.81190  0.79727  0.46898  Biso   1.000  C
  C708     1.0000 0.77190  0.90670  0.47346  Biso   1.000  C
  C709     1.0000 0.18351  0.93851  0.55052  Biso   1.000  C
  C710     1.0000 0.21050  0.70998  0.56702  Biso   1.000  C
  H726     1.0000 0.28527  0.84069  0.56190  Biso   1.000  H
  H727     1.0000 0.25702  0.77300  0.55210  Biso   1.000  H
  H728     1.0000 0.11828  0.57602  0.56760  Biso   1.000  H
  H729     1.0000 0.15247  0.60929  0.55560  Biso   1.000  H
  C711     1.0000 0.04737  0.20158  0.47689  Biso   1.000  C
  N92      1.0000 0.27213  0.27560  0.55050  Biso   1.000  N
  H730     1.0000 0.30438  0.39796  0.54520  Biso   1.000  H
  C712     1.0000 0.36237  0.41577  0.56039  Biso   1.000  C
  H731     1.0000 0.30441  0.39803  0.54520  Biso   1.000  H
  C713     1.0000 0.28999  0.50052  0.56702  Biso   1.000  C
  H732     1.0000 0.15928  0.44458  0.56190  Biso   1.000  H
  H733     1.0000 0.22698  0.48399  0.55210  Biso   1.000  H
  C714     1.0000 0.80078  0.80808  0.45779  Biso   1.000  C
  H734     1.0000 0.82878  0.75620  0.47110  Biso   1.000  H
  C715     1.0000 0.76207  0.91951  0.46247  Biso   1.000  C
  H735     1.0000 0.76078  0.93898  0.47870  Biso   1.000  H
  C716     1.0000 0.19917  0.00726  0.54221  Biso   1.000  C
  C717     1.0000 0.19921  0.00733  0.54221  Biso   1.000  C
  H736     1.0000 0.17460  0.94818  0.55780  Biso   1.000  H
  H737     1.0000 0.26139  0.70238  0.56840  Biso   1.000  H
  H738     1.0000 0.19249  0.72432  0.57390  Biso   1.000  H
  C718     1.0000 0.98543  0.18811  0.46898  Biso   1.000  C
  C719     1.0000 0.13479  0.22812  0.47346  Biso   1.000  C
  C720     1.0000 0.26187  0.24919  0.54064  Biso   1.000  C
  H739     1.0000 0.41720  0.42090  0.55760  Biso   1.000  H
  H740     1.0000 0.34782  0.38309  0.56730  Biso   1.000  H
  C721     1.0000 0.37558  0.50999  0.56242  Biso   1.000  C
  H741     1.0000 0.29758  0.55901  0.56840  Biso   1.000  H
  H742     1.0000 0.27567  0.46818  0.57390  Biso   1.000  H
  C722     1.0000 0.81651  0.75500  0.44948  Biso   1.000  C
  C723     1.0000 0.77781  0.86943  0.45462  Biso   1.000  C
  C724     1.0000 0.73812  0.98732  0.45936  Biso   1.000  C
  C725     1.0000 0.18812  0.98539  0.53102  Biso   1.000  C
  C726     1.0000 0.22224  0.09162  0.54538  Biso   1.000  C
  C727     1.0000 0.00730  0.19918  0.45779  Biso   1.000  C
  H743     1.0000 0.92741  0.17117  0.47110  Biso   1.000  H
  C728     1.0000 0.15742  0.23792  0.46247  Biso   1.000  C
  H744     1.0000 0.17821  0.23919  0.47870  Biso   1.000  H
  C729     1.0000 0.23790  0.15737  0.53753  Biso   1.000  C
  H745     1.0000 0.26999  0.28947  0.53510  Biso   1.000  H
  H746     1.0000 0.42400  0.54227  0.56760  Biso   1.000  H
  H747     1.0000 0.39068  0.54320  0.55560  Biso   1.000  H
  N93      1.0000 0.81821  0.68551  0.45204  Biso   1.000  N
  H748     1.0000 0.82541  0.77360  0.44220  Biso   1.000  H
  H749     1.0000 0.77238  0.87810  0.44720  Biso   1.000  H
  H750     1.0000 0.72999  0.01947  0.46490  Biso   1.000  H
  N94      1.0000 0.72788  0.00346  0.44950  Biso   1.000  N
  H751     1.0000 0.73002  0.01953  0.46490  Biso   1.000  H
  N95      1.0000 0.72791  0.00353  0.44950  Biso   1.000  N
  C730     1.0000 0.20163  0.04741  0.52311  Biso   1.000  C
  H752     1.0000 0.17118  0.92737  0.52890  Biso   1.000  H
  H753     1.0000 0.22760  0.10569  0.55280  Biso   1.000  H
  C731     1.0000 0.93849  0.18351  0.44948  Biso   1.000  C
  C732     1.0000 0.09157  0.22218  0.45462  Biso   1.000  C
  C733     1.0000 0.24920  0.26186  0.45936  Biso   1.000  C
  C734     1.0000 0.24924  0.26193  0.45936  Biso   1.000  C
  C735     1.0000 0.22810  0.13476  0.52654  Biso   1.000  C
  C736     1.0000 0.22813  0.13483  0.52654  Biso   1.000  C
  C737     1.0000 0.84209  0.64190  0.44352  Biso   1.000  C
  C738     1.0000 0.71180  0.07768  0.44778  Biso   1.000  C
  C739     1.0000 0.18768  0.02400  0.51131  Biso   1.000  C
  N96      1.0000 0.86728  0.18177  0.45204  Biso   1.000  N
  H754     1.0000 0.94817  0.17457  0.44220  Biso   1.000  H
  H755     1.0000 0.10571  0.22759  0.44720  Biso   1.000  H
  N97      1.0000 0.27556  0.27206  0.44950  Biso   1.000  N
  N98      1.0000 0.27559  0.27213  0.44950  Biso   1.000  N
  H756     1.0000 0.28948  0.27000  0.46490  Biso   1.000  H
  H757     1.0000 0.23918  0.17817  0.52130  Biso   1.000  H
  C740     1.0000 0.76346  0.54968  0.44112  Biso   1.000  C
  C741     1.0000 0.92233  0.63410  0.44778  Biso   1.000  C
  H758     1.0000 0.85932  0.67798  0.43680  Biso   1.000  H
  H759     1.0000 0.69563  0.09362  0.45480  Biso   1.000  H
  C742     1.0000 0.63758  0.05341  0.43961  Biso   1.000  C
  C743     1.0000 0.79979  0.15790  0.44352  Biso   1.000  C
  C744     1.0000 0.19804  0.95452  0.50734  Biso   1.000  C
  C745     1.0000 0.10791  0.95872  0.50711  Biso   1.000  C
  C746     1.0000 0.25479  0.07288  0.50359  Biso   1.000  C
  C747     1.0000 0.15942  0.06508  0.50385  Biso   1.000  C
  C748     1.0000 0.36592  0.28820  0.44778  Biso   1.000  C
  C749     1.0000 0.78946  0.49946  0.43298  Biso   1.000  C
  C750     1.0000 0.78950  0.49953  0.43298  Biso   1.000  C
  H760     1.0000 0.71470  0.55541  0.43810  Biso   1.000  H
  H761     1.0000 0.74299  0.51600  0.44790  Biso   1.000  H
  C751     1.0000 0.94659  0.58422  0.43961  Biso   1.000  C
  H762     1.0000 0.90641  0.60202  0.45480  Biso   1.000  H
  N99      1.0000 0.99652  0.72439  0.44950  Biso   1.000  N
  H763     1.0000 0.58280  0.00366  0.44240  Biso   1.000  H
  H764     1.0000 0.65219  0.03527  0.43270  Biso   1.000  H
  C752     1.0000 0.62435  0.13436  0.43758  Biso   1.000  C
  H765     1.0000 0.58283  0.00373  0.44240  Biso   1.000  H
  C753     1.0000 0.62439  0.13443  0.43758  Biso   1.000  C
  C754     1.0000 0.78620  0.23652  0.44112  Biso   1.000  C
  H766     1.0000 0.81867  0.14070  0.43680  Biso   1.000  H
  C755     1.0000 0.18191  0.92711  0.49641  Biso   1.000  C
  H767     1.0000 0.21631  0.92511  0.51220  Biso   1.000  H
  C756     1.0000 0.09433  0.93491  0.49615  Biso   1.000  C
  H768     1.0000 0.06032  0.92891  0.51190  Biso   1.000  H
  C757     1.0000 0.24351  0.04547  0.49266  Biso   1.000  C
  H769     1.0000 0.30688  0.12369  0.50580  Biso   1.000  H
  C758     1.0000 0.14919  0.04127  0.49289  Biso   1.000  C
  H770     1.0000 0.14698  0.10882  0.50620  Biso   1.000  H
  C759     1.0000 0.35812  0.20018  0.44352  Biso   1.000  C
  H771     1.0000 0.39799  0.30441  0.45480  Biso   1.000  H
  C760     1.0000 0.41579  0.36242  0.43961  Biso   1.000  C
  C761     1.0000 0.86558  0.48999  0.43758  Biso   1.000  C
  H772     1.0000 0.73857  0.44098  0.43160  Biso   1.000  H
  H773     1.0000 0.80748  0.53181  0.42610  Biso   1.000  H
  H774     1.0000 0.99629  0.57908  0.44240  Biso   1.000  H
  H775     1.0000 0.96472  0.61689  0.43270  Biso   1.000  H
  C762     1.0000 0.01267  0.75080  0.45936  Biso   1.000  C
  H776     1.0000 0.57601  0.11829  0.43240  Biso   1.000  H
  H777     1.0000 0.60928  0.15250  0.44440  Biso   1.000  H
  C763     1.0000 0.71002  0.21052  0.43298  Biso   1.000  C
  H778     1.0000 0.84066  0.28527  0.43810  Biso   1.000  H
  H779     1.0000 0.77299  0.25699  0.44790  Biso   1.000  H
  C764     1.0000 0.16367  0.97599  0.48869  Biso   1.000  C
  H780     1.0000 0.18318  0.87629  0.49420  Biso   1.000  H
  H781     1.0000 0.03816  0.89117  0.49380  Biso   1.000  H
  H782     1.0000 0.29119  0.07488  0.48780  Biso   1.000  H
  H783     1.0000 0.13140  0.07108  0.48810  Biso   1.000  H
  N100     1.0000 0.31450  0.13269  0.45204  Biso   1.000  N
  C765     1.0000 0.45027  0.21378  0.44112  Biso   1.000  C
  H784     1.0000 0.32200  0.18131  0.43680  Biso   1.000  H
  H785     1.0000 0.42087  0.41717  0.44240  Biso   1.000  H
  H786     1.0000 0.38314  0.34782  0.43270  Biso   1.000  H
  C766     1.0000 0.51000  0.37562  0.43758  Biso   1.000  C
  H787     1.0000 0.88172  0.45772  0.43240  Biso   1.000  H
  H788     1.0000 0.84747  0.45679  0.44440  Biso   1.000  H
  H789     1.0000 0.98052  0.71052  0.46490  Biso   1.000  H
  C767     1.0000 0.08053  0.84262  0.46247  Biso   1.000  C
  H790     1.0000 0.70242  0.26139  0.43160  Biso   1.000  H
  H791     1.0000 0.72429  0.19251  0.42610  Biso   1.000  H
  C768     1.0000 0.15422  0.95258  0.47689  Biso   1.000  C
  C769     1.0000 0.24499  0.06148  0.44948  Biso   1.000  C
  C770     1.0000 0.50051  0.29000  0.43298  Biso   1.000  C
  H792     1.0000 0.44457  0.15930  0.43810  Biso   1.000  H
  H793     1.0000 0.48402  0.22699  0.44790  Biso   1.000  H
  H794     1.0000 0.54226  0.42397  0.43240  Biso   1.000  H
  H795     1.0000 0.54318  0.39070  0.44440  Biso   1.000  H
  C771     1.0000 0.13061  0.90837  0.45462  Biso   1.000  C
  C772     1.0000 0.09333  0.86523  0.47346  Biso   1.000  C
  C773     1.0000 0.20272  0.01460  0.46898  Biso   1.000  C
  C774     1.0000 0.19190  0.99273  0.45779  Biso   1.000  C
  H796     1.0000 0.22641  0.05181  0.44220  Biso   1.000  H
  H797     1.0000 0.55900  0.29760  0.43160  Biso   1.000  H
  H798     1.0000 0.46816  0.27567  0.42610  Biso   1.000  H
  H799     1.0000 0.46820  0.27573  0.42610  Biso   1.000  H
  H800     1.0000 0.12190  0.89430  0.44720  Biso   1.000  H
  H801     1.0000 0.06100  0.82181  0.47870  Biso   1.000  H
  H802     1.0000 0.24380  0.07261  0.47110  Biso   1.000  H
  C775     1.0000 0.49949  0.78947  0.56702  Biso   1.000  C
  C776     1.0000 0.54967  0.76347  0.55888  Biso   1.000  C
  C777     1.0000 0.54970  0.76353  0.55888  Biso   1.000  C
  C778     1.0000 0.48999  0.86563  0.56242  Biso   1.000  C
  H803     1.0000 0.44102  0.73859  0.56840  Biso   1.000  H
  H804     1.0000 0.53177  0.80748  0.57390  Biso   1.000  H
  C779     1.0000 0.64188  0.84209  0.55648  Biso   1.000  C
  H805     1.0000 0.55538  0.71472  0.56190  Biso   1.000  H
  H806     1.0000 0.51599  0.74299  0.55210  Biso   1.000  H
  C780     1.0000 0.58417  0.94658  0.56039  Biso   1.000  C
  H807     1.0000 0.45771  0.88170  0.56760  Biso   1.000  H
  H808     1.0000 0.45678  0.84749  0.55560  Biso   1.000  H
  N101     1.0000 0.68550  0.81821  0.54796  Biso   1.000  N
  C781     1.0000 0.63411  0.92231  0.55222  Biso   1.000  C
  H809     1.0000 0.67797  0.85929  0.56320  Biso   1.000  H
  H810     1.0000 0.57913  0.99633  0.55760  Biso   1.000  H
  H811     1.0000 0.61692  0.96472  0.56730  Biso   1.000  H
  C782     1.0000 0.75497  0.81648  0.55052  Biso   1.000  C
  H812     1.0000 0.60201  0.90637  0.54520  Biso   1.000  H
  N102     1.0000 0.72441  0.99653  0.55050  Biso   1.000  N
  C783     1.0000 0.80812  0.80081  0.54221  Biso   1.000  C
  H813     1.0000 0.77359  0.82541  0.55780  Biso   1.000  H
  C784     1.0000 0.75079  0.01266  0.54064  Biso   1.000  C
  C785     1.0000 0.75082  0.01273  0.54064  Biso   1.000  C
  C786     1.0000 0.79731  0.81188  0.53102  Biso   1.000  C
  C787     1.0000 0.86938  0.77780  0.54538  Biso   1.000  C
  H814     1.0000 0.71052  0.98052  0.53510  Biso   1.000  H
  C788     1.0000 0.84256  0.08048  0.53753  Biso   1.000  C
  C789     1.0000 0.84579  0.79841  0.52311  Biso   1.000  C
  H815     1.0000 0.75623  0.82882  0.52890  Biso   1.000  H
  C790     1.0000 0.91949  0.76207  0.53753  Biso   1.000  C
  C791     1.0000 0.91953  0.76213  0.53753  Biso   1.000  C
  H816     1.0000 0.87812  0.77240  0.55280  Biso   1.000  H
  C792     1.0000 0.86519  0.09328  0.52654  Biso   1.000  C
  C793     1.0000 0.90837  0.13056  0.54538  Biso   1.000  C
  C794     1.0000 0.90841  0.13063  0.54538  Biso   1.000  C
  C795     1.0000 0.83626  0.81228  0.51131  Biso   1.000  C
  C796     1.0000 0.90667  0.77187  0.52654  Biso   1.000  C
  C797     1.0000 0.98733  0.73813  0.54064  Biso   1.000  C
  C798     1.0000 0.95257  0.15417  0.52311  Biso   1.000  C
  H817     1.0000 0.82180  0.06101  0.52130  Biso   1.000  H
  C799     1.0000 0.99270  0.19191  0.54221  Biso   1.000  C
  H818     1.0000 0.89428  0.12189  0.55280  Biso   1.000  H
  C800     1.0000 0.75651  0.80201  0.50734  Biso   1.000  C
  C801     1.0000 0.81808  0.74519  0.50359  Biso   1.000  C
  C802     1.0000 0.90570  0.84062  0.50385  Biso   1.000  C
  C803     1.0000 0.85082  0.89210  0.50711  Biso   1.000  C
  H819     1.0000 0.93902  0.76080  0.52130  Biso   1.000  H
  H820     1.0000 0.01948  0.72999  0.53510  Biso   1.000  H
  N103     1.0000 0.00349  0.72792  0.55050  Biso   1.000  N
  C804     1.0000 0.97600  0.16370  0.51131  Biso   1.000  C
  C805     1.0000 0.01462  0.20271  0.53102  Biso   1.000  C
  C806     1.0000 0.06151  0.24499  0.55052  Biso   1.000  C
  C807     1.0000 0.74520  0.81808  0.49641  Biso   1.000  C
  H821     1.0000 0.70877  0.78367  0.51220  Biso   1.000  H
  C808     1.0000 0.80200  0.75646  0.49266  Biso   1.000  C
  C809     1.0000 0.80204  0.75653  0.49266  Biso   1.000  C
  H822     1.0000 0.81682  0.69311  0.50580  Biso   1.000  H
  C810     1.0000 0.89209  0.85082  0.49289  Biso   1.000  C
  H823     1.0000 0.96180  0.85302  0.50620  Biso   1.000  H
  C811     1.0000 0.84059  0.90570  0.49615  Biso   1.000  C
  H824     1.0000 0.86862  0.93971  0.51190  Biso   1.000  H
  C812     1.0000 0.07771  0.71179  0.55222  Biso   1.000  C
  C813     1.0000 0.92712  0.18191  0.50359  Biso   1.000  C
  C814     1.0000 0.93488  0.09428  0.50385  Biso   1.000  C
  C815     1.0000 0.04553  0.24352  0.50734  Biso   1.000  C
  C816     1.0000 0.04129  0.14923  0.50711  Biso   1.000  C
  H825     1.0000 0.07258  0.24379  0.52890  Biso   1.000  H
  N104     1.0000 0.13269  0.31448  0.54796  Biso   1.000  N
  H826     1.0000 0.05180  0.22639  0.55780  Biso   1.000  H
  C817     1.0000 0.81229  0.83628  0.48869  Biso   1.000  C
  H827     1.0000 0.69311  0.81681  0.49420  Biso   1.000  H
  H828     1.0000 0.78371  0.70878  0.48780  Biso   1.000  H
  H829     1.0000 0.93974  0.86863  0.48810  Biso   1.000  H
  H830     1.0000 0.85298  0.96178  0.49380  Biso   1.000  H
  C818     1.0000 0.15793  0.79981  0.55648  Biso   1.000  C
  H831     1.0000 0.09357  0.69558  0.54520  Biso   1.000  H
  C819     1.0000 0.05336  0.63757  0.56039  Biso   1.000  C
  C820     1.0000 0.05340  0.63763  0.56039  Biso   1.000  C
  C821     1.0000 0.95450  0.19798  0.49266  Biso   1.000  C
  H832     1.0000 0.87630  0.18317  0.50580  Biso   1.000  H
  C822     1.0000 0.95871  0.10789  0.49289  Biso   1.000  C
  H833     1.0000 0.89119  0.03820  0.50620  Biso   1.000  H
  C823     1.0000 0.07288  0.25479  0.49641  Biso   1.000  C
  H834     1.0000 0.07492  0.29120  0.51220  Biso   1.000  H
  C824     1.0000 0.06507  0.15937  0.49615  Biso   1.000  C
  H835     1.0000 0.07114  0.13143  0.51190  Biso   1.000  H
  C825     1.0000 0.20018  0.35809  0.55648  Biso   1.000  C
  C826     1.0000 0.79840  0.84582  0.47689  Biso   1.000  C
  N105     1.0000 0.18180  0.86729  0.54796  Biso   1.000  N
  C827     1.0000 0.23648  0.78620  0.55888  Biso   1.000  C
  H836     1.0000 0.14069  0.81868  0.56320  Biso   1.000  H
  H837     1.0000 0.00370  0.58282  0.55760  Biso   1.000  H
  H838     1.0000 0.03531  0.65217  0.56730  Biso   1.000  H
  C828     1.0000 0.13437  0.62436  0.56242  Biso   1.000  C
  C829     1.0000 0.13440  0.62443  0.56242  Biso   1.000  C
  C830     1.0000 0.02398  0.18771  0.48869  Biso   1.000  C
  H839     1.0000 0.92509  0.21632  0.48780  Biso   1.000  H
  H840     1.0000 0.92890  0.06028  0.48810  Biso   1.000  H
  H841     1.0000 0.12370  0.30687  0.49420  Biso   1.000  H
  H842     1.0000 0.10880  0.14703  0.49380  Biso   1.000  H
  C831     1.0000 0.28822  0.36589  0.55222  Biso   1.000  C
  C832     1.0000 0.21378  0.45031  0.55888  Biso   1.000  C
  H843     1.0000 0.18133  0.32201  0.56320  Biso   1.000  H
  C833     1.0000 0.81190  0.79727  0.46898  Biso   1.000  C
  C834     1.0000 0.77190  0.90670  0.47346  Biso   1.000  C
  C835     1.0000 0.18351  0.93851  0.55052  Biso   1.000  C
  C836     1.0000 0.21050  0.70998  0.56702  Biso   1.000  C
  H844     1.0000 0.28527  0.84069  0.56190  Biso   1.000  H
  H845     1.0000 0.25702  0.77300  0.55210  Biso   1.000  H
  H846     1.0000 0.11828  0.57602  0.56760  Biso   1.000  H
  H847     1.0000 0.15247  0.60929  0.55560  Biso   1.000  H
  C837     1.0000 0.04737  0.20158  0.47689  Biso   1.000  C
  N106     1.0000 0.27213  0.27560  0.55050  Biso   1.000  N
  H848     1.0000 0.30438  0.39796  0.54520  Biso   1.000  H
  C838     1.0000 0.36237  0.41577  0.56039  Biso   1.000  C
  H849     1.0000 0.30441  0.39803  0.54520  Biso   1.000  H
  C839     1.0000 0.28999  0.50052  0.56702  Biso   1.000  C
  H850     1.0000 0.15928  0.44458  0.56190  Biso   1.000  H
  H851     1.0000 0.22698  0.48399  0.55210  Biso   1.000  H
  C840     1.0000 0.80078  0.80808  0.45779  Biso   1.000  C
  H852     1.0000 0.82878  0.75620  0.47110  Biso   1.000  H
  C841     1.0000 0.76207  0.91951  0.46247  Biso   1.000  C
  H853     1.0000 0.76078  0.93898  0.47870  Biso   1.000  H
  C842     1.0000 0.19917  0.00726  0.54221  Biso   1.000  C
  C843     1.0000 0.19921  0.00733  0.54221  Biso   1.000  C
  H854     1.0000 0.17460  0.94818  0.55780  Biso   1.000  H
  H855     1.0000 0.26139  0.70238  0.56840  Biso   1.000  H
  H856     1.0000 0.19249  0.72432  0.57390  Biso   1.000  H
  C844     1.0000 0.98543  0.18811  0.46898  Biso   1.000  C
  C845     1.0000 0.13479  0.22812  0.47346  Biso   1.000  C
  C846     1.0000 0.26187  0.24919  0.54064  Biso   1.000  C
  H857     1.0000 0.41720  0.42090  0.55760  Biso   1.000  H
  H858     1.0000 0.34782  0.38309  0.56730  Biso   1.000  H
  C847     1.0000 0.37558  0.50999  0.56242  Biso   1.000  C
  H859     1.0000 0.29758  0.55901  0.56840  Biso   1.000  H
  H860     1.0000 0.27567  0.46818  0.57390  Biso   1.000  H
  C848     1.0000 0.81651  0.75500  0.44948  Biso   1.000  C
  C849     1.0000 0.77781  0.86943  0.45462  Biso   1.000  C
  C850     1.0000 0.73812  0.98732  0.45936  Biso   1.000  C
  C851     1.0000 0.18812  0.98539  0.53102  Biso   1.000  C
  C852     1.0000 0.22224  0.09162  0.54538  Biso   1.000  C
  C853     1.0000 0.00730  0.19918  0.45779  Biso   1.000  C
  H861     1.0000 0.92741  0.17117  0.47110  Biso   1.000  H
  C854     1.0000 0.15742  0.23792  0.46247  Biso   1.000  C
  H862     1.0000 0.17821  0.23919  0.47870  Biso   1.000  H
  C855     1.0000 0.23790  0.15737  0.53753  Biso   1.000  C
  H863     1.0000 0.26999  0.28947  0.53510  Biso   1.000  H
  H864     1.0000 0.42400  0.54227  0.56760  Biso   1.000  H
  H865     1.0000 0.39068  0.54320  0.55560  Biso   1.000  H
  N107     1.0000 0.81821  0.68551  0.45204  Biso   1.000  N
  H866     1.0000 0.82541  0.77360  0.44220  Biso   1.000  H
  H867     1.0000 0.77238  0.87810  0.44720  Biso   1.000  H
  H868     1.0000 0.72999  0.01947  0.46490  Biso   1.000  H
  N108     1.0000 0.72788  0.00346  0.44950  Biso   1.000  N
  H869     1.0000 0.73002  0.01953  0.46490  Biso   1.000  H
  N109     1.0000 0.72791  0.00353  0.44950  Biso   1.000  N
  C856     1.0000 0.20163  0.04741  0.52311  Biso   1.000  C
  H870     1.0000 0.17118  0.92737  0.52890  Biso   1.000  H
  H871     1.0000 0.22760  0.10569  0.55280  Biso   1.000  H
  C857     1.0000 0.93849  0.18351  0.44948  Biso   1.000  C
  C858     1.0000 0.09157  0.22218  0.45462  Biso   1.000  C
  C859     1.0000 0.24920  0.26186  0.45936  Biso   1.000  C
  C860     1.0000 0.24924  0.26193  0.45936  Biso   1.000  C
  C861     1.0000 0.22810  0.13476  0.52654  Biso   1.000  C
  C862     1.0000 0.22813  0.13483  0.52654  Biso   1.000  C
  C863     1.0000 0.84209  0.64190  0.44352  Biso   1.000  C
  C864     1.0000 0.71180  0.07768  0.44778  Biso   1.000  C
  C865     1.0000 0.18768  0.02400  0.51131  Biso   1.000  C
  N110     1.0000 0.86728  0.18177  0.45204  Biso   1.000  N
  H872     1.0000 0.94817  0.17457  0.44220  Biso   1.000  H
  H873     1.0000 0.10571  0.22759  0.44720  Biso   1.000  H
  N111     1.0000 0.27556  0.27206  0.44950  Biso   1.000  N
  N112     1.0000 0.27559  0.27213  0.44950  Biso   1.000  N
  H874     1.0000 0.28948  0.27000  0.46490  Biso   1.000  H
  H875     1.0000 0.23918  0.17817  0.52130  Biso   1.000  H
  C866     1.0000 0.76346  0.54968  0.44112  Biso   1.000  C
  C867     1.0000 0.92233  0.63410  0.44778  Biso   1.000  C
  H876     1.0000 0.85932  0.67798  0.43680  Biso   1.000  H
  H877     1.0000 0.69563  0.09362  0.45480  Biso   1.000  H
  C868     1.0000 0.63758  0.05341  0.43961  Biso   1.000  C
  C869     1.0000 0.79979  0.15790  0.44352  Biso   1.000  C
  C870     1.0000 0.19804  0.95452  0.50734  Biso   1.000  C
  C871     1.0000 0.10791  0.95872  0.50711  Biso   1.000  C
  C872     1.0000 0.25479  0.07288  0.50359  Biso   1.000  C
  C873     1.0000 0.15942  0.06508  0.50385  Biso   1.000  C
  C874     1.0000 0.36592  0.28820  0.44778  Biso   1.000  C
  H878     1.0000 0.71470  0.55541  0.43810  Biso   1.000  H
  H879     1.0000 0.74299  0.51600  0.44790  Biso   1.000  H
  C875     1.0000 0.78946  0.49946  0.43298  Biso   1.000  C
  C876     1.0000 0.78950  0.49953  0.43298  Biso   1.000  C
  H880     1.0000 0.90641  0.60202  0.45480  Biso   1.000  H
  C877     1.0000 0.94659  0.58422  0.43961  Biso   1.000  C
  N113     1.0000 0.99652  0.72439  0.44950  Biso   1.000  N
  H881     1.0000 0.58280  0.00366  0.44240  Biso   1.000  H
  H882     1.0000 0.65219  0.03527  0.43270  Biso   1.000  H
  C878     1.0000 0.62435  0.13436  0.43758  Biso   1.000  C
  H883     1.0000 0.58283  0.00373  0.44240  Biso   1.000  H
  C879     1.0000 0.62439  0.13443  0.43758  Biso   1.000  C
  C880     1.0000 0.78620  0.23652  0.44112  Biso   1.000  C
  H884     1.0000 0.81867  0.14070  0.43680  Biso   1.000  H
  C881     1.0000 0.18191  0.92711  0.49641  Biso   1.000  C
  H885     1.0000 0.21631  0.92511  0.51220  Biso   1.000  H
  C882     1.0000 0.09433  0.93491  0.49615  Biso   1.000  C
  H886     1.0000 0.06032  0.92891  0.51190  Biso   1.000  H
  C883     1.0000 0.24351  0.04547  0.49266  Biso   1.000  C
  H887     1.0000 0.30688  0.12369  0.50580  Biso   1.000  H
  C884     1.0000 0.14919  0.04127  0.49289  Biso   1.000  C
  H888     1.0000 0.14698  0.10882  0.50620  Biso   1.000  H
  C885     1.0000 0.35812  0.20018  0.44352  Biso   1.000  C
  H889     1.0000 0.39799  0.30441  0.45480  Biso   1.000  H
  C886     1.0000 0.41579  0.36242  0.43961  Biso   1.000  C
  C887     1.0000 0.86558  0.48999  0.43758  Biso   1.000  C
  H890     1.0000 0.73857  0.44098  0.43160  Biso   1.000  H
  H891     1.0000 0.80748  0.53181  0.42610  Biso   1.000  H
  H892     1.0000 0.99629  0.57908  0.44240  Biso   1.000  H
  H893     1.0000 0.96472  0.61689  0.43270  Biso   1.000  H
  C888     1.0000 0.01267  0.75080  0.45936  Biso   1.000  C
  H894     1.0000 0.57601  0.11829  0.43240  Biso   1.000  H
  H895     1.0000 0.60928  0.15250  0.44440  Biso   1.000  H
  C889     1.0000 0.71002  0.21052  0.43298  Biso   1.000  C
  H896     1.0000 0.84066  0.28527  0.43810  Biso   1.000  H
  H897     1.0000 0.77299  0.25699  0.44790  Biso   1.000  H
  C890     1.0000 0.16367  0.97599  0.48869  Biso   1.000  C
  H898     1.0000 0.18318  0.87629  0.49420  Biso   1.000  H
  H899     1.0000 0.03816  0.89117  0.49380  Biso   1.000  H
  H900     1.0000 0.29119  0.07488  0.48780  Biso   1.000  H
  H901     1.0000 0.13140  0.07108  0.48810  Biso   1.000  H
  N114     1.0000 0.31450  0.13269  0.45204  Biso   1.000  N
  C891     1.0000 0.45027  0.21378  0.44112  Biso   1.000  C
  H902     1.0000 0.32200  0.18131  0.43680  Biso   1.000  H
  H903     1.0000 0.42087  0.41717  0.44240  Biso   1.000  H
  H904     1.0000 0.38314  0.34782  0.43270  Biso   1.000  H
  C892     1.0000 0.51000  0.37562  0.43758  Biso   1.000  C
  H905     1.0000 0.88172  0.45772  0.43240  Biso   1.000  H
  H906     1.0000 0.84747  0.45679  0.44440  Biso   1.000  H
  H907     1.0000 0.98052  0.71052  0.46490  Biso   1.000  H
  C893     1.0000 0.08053  0.84262  0.46247  Biso   1.000  C
  H908     1.0000 0.70242  0.26139  0.43160  Biso   1.000  H
  H909     1.0000 0.72429  0.19251  0.42610  Biso   1.000  H
  C894     1.0000 0.15422  0.95258  0.47689  Biso   1.000  C
  C895     1.0000 0.24499  0.06148  0.44948  Biso   1.000  C
  C896     1.0000 0.50051  0.29000  0.43298  Biso   1.000  C
  H910     1.0000 0.44457  0.15930  0.43810  Biso   1.000  H
  H911     1.0000 0.48402  0.22699  0.44790  Biso   1.000  H
  H912     1.0000 0.54226  0.42397  0.43240  Biso   1.000  H
  H913     1.0000 0.54318  0.39070  0.44440  Biso   1.000  H
  C897     1.0000 0.13061  0.90837  0.45462  Biso   1.000  C
  C898     1.0000 0.09333  0.86523  0.47346  Biso   1.000  C
  C899     1.0000 0.20272  0.01460  0.46898  Biso   1.000  C
  C900     1.0000 0.19190  0.99273  0.45779  Biso   1.000  C
  H914     1.0000 0.22641  0.05181  0.44220  Biso   1.000  H
  H915     1.0000 0.55900  0.29760  0.43160  Biso   1.000  H
  H916     1.0000 0.46816  0.27567  0.42610  Biso   1.000  H
  H917     1.0000 0.46820  0.27573  0.42610  Biso   1.000  H
  H918     1.0000 0.12190  0.89430  0.44720  Biso   1.000  H
  H919     1.0000 0.06100  0.82181  0.47870  Biso   1.000  H
  H920     1.0000 0.24380  0.07261  0.47110  Biso   1.000  H
  C901     1.0000 0.49949  0.78947  0.56702  Biso   1.000  C
  C902     1.0000 0.54967  0.76347  0.55888  Biso   1.000  C
  C903     1.0000 0.54970  0.76353  0.55888  Biso   1.000  C
  C904     1.0000 0.48999  0.86563  0.56242  Biso   1.000  C
  H921     1.0000 0.44102  0.73859  0.56840  Biso   1.000  H
  H922     1.0000 0.53177  0.80748  0.57390  Biso   1.000  H
  C905     1.0000 0.64188  0.84209  0.55648  Biso   1.000  C
  H923     1.0000 0.55538  0.71472  0.56190  Biso   1.000  H
  H924     1.0000 0.51599  0.74299  0.55210  Biso   1.000  H
  C906     1.0000 0.58417  0.94658  0.56039  Biso   1.000  C
  H925     1.0000 0.45771  0.88170  0.56760  Biso   1.000  H
  H926     1.0000 0.45678  0.84749  0.55560  Biso   1.000  H
  N115     1.0000 0.68550  0.81821  0.54796  Biso   1.000  N
  C907     1.0000 0.63411  0.92231  0.55222  Biso   1.000  C
  H927     1.0000 0.67797  0.85929  0.56320  Biso   1.000  H
  H928     1.0000 0.57913  0.99633  0.55760  Biso   1.000  H
  H929     1.0000 0.61692  0.96472  0.56730  Biso   1.000  H
  C908     1.0000 0.75497  0.81648  0.55052  Biso   1.000  C
  H930     1.0000 0.60201  0.90637  0.54520  Biso   1.000  H
  N116     1.0000 0.72441  0.99653  0.55050  Biso   1.000  N
  C909     1.0000 0.80812  0.80081  0.54221  Biso   1.000  C
  H931     1.0000 0.77359  0.82541  0.55780  Biso   1.000  H
  C910     1.0000 0.75079  0.01266  0.54064  Biso   1.000  C
  C911     1.0000 0.75082  0.01273  0.54064  Biso   1.000  C
  C912     1.0000 0.79731  0.81188  0.53102  Biso   1.000  C
  C913     1.0000 0.86938  0.77780  0.54538  Biso   1.000  C
  H932     1.0000 0.71052  0.98052  0.53510  Biso   1.000  H
  C914     1.0000 0.84256  0.08048  0.53753  Biso   1.000  C
  C915     1.0000 0.84579  0.79841  0.52311  Biso   1.000  C
  H933     1.0000 0.75623  0.82882  0.52890  Biso   1.000  H
  C916     1.0000 0.91949  0.76207  0.53753  Biso   1.000  C
  C917     1.0000 0.91953  0.76213  0.53753  Biso   1.000  C
  H934     1.0000 0.87812  0.77240  0.55280  Biso   1.000  H
  C918     1.0000 0.86519  0.09328  0.52654  Biso   1.000  C
  C919     1.0000 0.90837  0.13056  0.54538  Biso   1.000  C
  C920     1.0000 0.90841  0.13063  0.54538  Biso   1.000  C
  C921     1.0000 0.83626  0.81228  0.51131  Biso   1.000  C
  C922     1.0000 0.90667  0.77187  0.52654  Biso   1.000  C
  C923     1.0000 0.98733  0.73813  0.54064  Biso   1.000  C
  C924     1.0000 0.95257  0.15417  0.52311  Biso   1.000  C
  H935     1.0000 0.82180  0.06101  0.52130  Biso   1.000  H
  C925     1.0000 0.99270  0.19191  0.54221  Biso   1.000  C
  H936     1.0000 0.89428  0.12189  0.55280  Biso   1.000  H
  C926     1.0000 0.75651  0.80201  0.50734  Biso   1.000  C
  C927     1.0000 0.81808  0.74519  0.50359  Biso   1.000  C
  C928     1.0000 0.90570  0.84062  0.50385  Biso   1.000  C
  C929     1.0000 0.85082  0.89210  0.50711  Biso   1.000  C
  H937     1.0000 0.93902  0.76080  0.52130  Biso   1.000  H
  H938     1.0000 0.01948  0.72999  0.53510  Biso   1.000  H
  N117     1.0000 0.00349  0.72792  0.55050  Biso   1.000  N
  C930     1.0000 0.97600  0.16370  0.51131  Biso   1.000  C
  C931     1.0000 0.01462  0.20271  0.53102  Biso   1.000  C
  C932     1.0000 0.06151  0.24499  0.55052  Biso   1.000  C
  C933     1.0000 0.74520  0.81808  0.49641  Biso   1.000  C
  H939     1.0000 0.70877  0.78367  0.51220  Biso   1.000  H
  C934     1.0000 0.80200  0.75646  0.49266  Biso   1.000  C
  C935     1.0000 0.80204  0.75653  0.49266  Biso   1.000  C
  H940     1.0000 0.81682  0.69311  0.50580  Biso   1.000  H
  C936     1.0000 0.89209  0.85082  0.49289  Biso   1.000  C
  H941     1.0000 0.96180  0.85302  0.50620  Biso   1.000  H
  C937     1.0000 0.84059  0.90570  0.49615  Biso   1.000  C
  H942     1.0000 0.86862  0.93971  0.51190  Biso   1.000  H
  C938     1.0000 0.07771  0.71179  0.55222  Biso   1.000  C
  C939     1.0000 0.92712  0.18191  0.50359  Biso   1.000  C
  C940     1.0000 0.93488  0.09428  0.50385  Biso   1.000  C
  C941     1.0000 0.04553  0.24352  0.50734  Biso   1.000  C
  C942     1.0000 0.04129  0.14923  0.50711  Biso   1.000  C
  H943     1.0000 0.07258  0.24379  0.52890  Biso   1.000  H
  N118     1.0000 0.13269  0.31448  0.54796  Biso   1.000  N
  H944     1.0000 0.05180  0.22639  0.55780  Biso   1.000  H
  C943     1.0000 0.81229  0.83628  0.48869  Biso   1.000  C
  H945     1.0000 0.69311  0.81681  0.49420  Biso   1.000  H
  H946     1.0000 0.78371  0.70878  0.48780  Biso   1.000  H
  H947     1.0000 0.93974  0.86863  0.48810  Biso   1.000  H
  H948     1.0000 0.85298  0.96178  0.49380  Biso   1.000  H
  C944     1.0000 0.15793  0.79981  0.55648  Biso   1.000  C
  H949     1.0000 0.09357  0.69558  0.54520  Biso   1.000  H
  C945     1.0000 0.05336  0.63757  0.56039  Biso   1.000  C
  C946     1.0000 0.05340  0.63763  0.56039  Biso   1.000  C
  C947     1.0000 0.95450  0.19798  0.49266  Biso   1.000  C
  H950     1.0000 0.87630  0.18317  0.50580  Biso   1.000  H
  C948     1.0000 0.95871  0.10789  0.49289  Biso   1.000  C
  H951     1.0000 0.89119  0.03820  0.50620  Biso   1.000  H
  C949     1.0000 0.07288  0.25479  0.49641  Biso   1.000  C
  H952     1.0000 0.07492  0.29120  0.51220  Biso   1.000  H
  C950     1.0000 0.06507  0.15937  0.49615  Biso   1.000  C
  H953     1.0000 0.07114  0.13143  0.51190  Biso   1.000  H
  C951     1.0000 0.20018  0.35809  0.55648  Biso   1.000  C
  C952     1.0000 0.79840  0.84582  0.47689  Biso   1.000  C
  N119     1.0000 0.18180  0.86729  0.54796  Biso   1.000  N
  C953     1.0000 0.23648  0.78620  0.55888  Biso   1.000  C
  H954     1.0000 0.14069  0.81868  0.56320  Biso   1.000  H
  H955     1.0000 0.00370  0.58282  0.55760  Biso   1.000  H
  H956     1.0000 0.03531  0.65217  0.56730  Biso   1.000  H
  C954     1.0000 0.13437  0.62436  0.56242  Biso   1.000  C
  C955     1.0000 0.13440  0.62443  0.56242  Biso   1.000  C
  C956     1.0000 0.02398  0.18771  0.48869  Biso   1.000  C
  H957     1.0000 0.92509  0.21632  0.48780  Biso   1.000  H
  H958     1.0000 0.92890  0.06028  0.48810  Biso   1.000  H
  H959     1.0000 0.12370  0.30687  0.49420  Biso   1.000  H
  H960     1.0000 0.10880  0.14703  0.49380  Biso   1.000  H
  C957     1.0000 0.28822  0.36589  0.55222  Biso   1.000  C
  C958     1.0000 0.21378  0.45031  0.55888  Biso   1.000  C
  H961     1.0000 0.18133  0.32201  0.56320  Biso   1.000  H
  C959     1.0000 0.81190  0.79727  0.46898  Biso   1.000  C
  C960     1.0000 0.77190  0.90670  0.47346  Biso   1.000  C
  C961     1.0000 0.18351  0.93851  0.55052  Biso   1.000  C
  C962     1.0000 0.21050  0.70998  0.56702  Biso   1.000  C
  H962     1.0000 0.28527  0.84069  0.56190  Biso   1.000  H
  H963     1.0000 0.25702  0.77300  0.55210  Biso   1.000  H
  H964     1.0000 0.11828  0.57602  0.56760  Biso   1.000  H
  H965     1.0000 0.15247  0.60929  0.55560  Biso   1.000  H
  C963     1.0000 0.04737  0.20158  0.47689  Biso   1.000  C
  N120     1.0000 0.27213  0.27560  0.55050  Biso   1.000  N
  H966     1.0000 0.30438  0.39796  0.54520  Biso   1.000  H
  C964     1.0000 0.36237  0.41577  0.56039  Biso   1.000  C
  H967     1.0000 0.30441  0.39803  0.54520  Biso   1.000  H
  C965     1.0000 0.28999  0.50052  0.56702  Biso   1.000  C
  H968     1.0000 0.15928  0.44458  0.56190  Biso   1.000  H
  H969     1.0000 0.22698  0.48399  0.55210  Biso   1.000  H
  C966     1.0000 0.80078  0.80808  0.45779  Biso   1.000  C
  H970     1.0000 0.82878  0.75620  0.47110  Biso   1.000  H
  C967     1.0000 0.76207  0.91951  0.46247  Biso   1.000  C
  H971     1.0000 0.76078  0.93898  0.47870  Biso   1.000  H
  C968     1.0000 0.19917  0.00726  0.54221  Biso   1.000  C
  C969     1.0000 0.19921  0.00733  0.54221  Biso   1.000  C
  H972     1.0000 0.17460  0.94818  0.55780  Biso   1.000  H
  H973     1.0000 0.26139  0.70238  0.56840  Biso   1.000  H
  H974     1.0000 0.19249  0.72432  0.57390  Biso   1.000  H
  C970     1.0000 0.98543  0.18811  0.46898  Biso   1.000  C
  C971     1.0000 0.13479  0.22812  0.47346  Biso   1.000  C
  C972     1.0000 0.26187  0.24919  0.54064  Biso   1.000  C
  H975     1.0000 0.41720  0.42090  0.55760  Biso   1.000  H
  H976     1.0000 0.34782  0.38309  0.56730  Biso   1.000  H
  C973     1.0000 0.37558  0.50999  0.56242  Biso   1.000  C
  H977     1.0000 0.29758  0.55901  0.56840  Biso   1.000  H
  H978     1.0000 0.27567  0.46818  0.57390  Biso   1.000  H
  C974     1.0000 0.81651  0.75500  0.44948  Biso   1.000  C
  C975     1.0000 0.77781  0.86943  0.45462  Biso   1.000  C
  C976     1.0000 0.73812  0.98732  0.45936  Biso   1.000  C
  C977     1.0000 0.18812  0.98539  0.53102  Biso   1.000  C
  C978     1.0000 0.22224  0.09162  0.54538  Biso   1.000  C
  C979     1.0000 0.00730  0.19918  0.45779  Biso   1.000  C
  H979     1.0000 0.92741  0.17117  0.47110  Biso   1.000  H
  C980     1.0000 0.15742  0.23792  0.46247  Biso   1.000  C
  H980     1.0000 0.17821  0.23919  0.47870  Biso   1.000  H
  C981     1.0000 0.23790  0.15737  0.53753  Biso   1.000  C
  H981     1.0000 0.26999  0.28947  0.53510  Biso   1.000  H
  H982     1.0000 0.42400  0.54227  0.56760  Biso   1.000  H
  H983     1.0000 0.39068  0.54320  0.55560  Biso   1.000  H
  N121     1.0000 0.81821  0.68551  0.45204  Biso   1.000  N
  H984     1.0000 0.82541  0.77360  0.44220  Biso   1.000  H
  H985     1.0000 0.77238  0.87810  0.44720  Biso   1.000  H
  H986     1.0000 0.72999  0.01947  0.46490  Biso   1.000  H
  N122     1.0000 0.72788  0.00346  0.44950  Biso   1.000  N
  H987     1.0000 0.73002  0.01953  0.46490  Biso   1.000  H
  N123     1.0000 0.72791  0.00353  0.44950  Biso   1.000  N
  C982     1.0000 0.20163  0.04741  0.52311  Biso   1.000  C
  H988     1.0000 0.17118  0.92737  0.52890  Biso   1.000  H
  H989     1.0000 0.22760  0.10569  0.55280  Biso   1.000  H
  C983     1.0000 0.93849  0.18351  0.44948  Biso   1.000  C
  C984     1.0000 0.09157  0.22218  0.45462  Biso   1.000  C
  C985     1.0000 0.24920  0.26186  0.45936  Biso   1.000  C
  C986     1.0000 0.24924  0.26193  0.45936  Biso   1.000  C
  C987     1.0000 0.22810  0.13476  0.52654  Biso   1.000  C
  C988     1.0000 0.22813  0.13483  0.52654  Biso   1.000  C
  C989     1.0000 0.84209  0.64190  0.44352  Biso   1.000  C
  C990     1.0000 0.71180  0.07768  0.44778  Biso   1.000  C
  C991     1.0000 0.18768  0.02400  0.51131  Biso   1.000  C
  N124     1.0000 0.86728  0.18177  0.45204  Biso   1.000  N
  H990     1.0000 0.94817  0.17457  0.44220  Biso   1.000  H
  H991     1.0000 0.10571  0.22759  0.44720  Biso   1.000  H
  N125     1.0000 0.27556  0.27206  0.44950  Biso   1.000  N
  N126     1.0000 0.27559  0.27213  0.44950  Biso   1.000  N
  H992     1.0000 0.28948  0.27000  0.46490  Biso   1.000  H
  H993     1.0000 0.23918  0.17817  0.52130  Biso   1.000  H
  C992     1.0000 0.76346  0.54968  0.44112  Biso   1.000  C
  C993     1.0000 0.92233  0.63410  0.44778  Biso   1.000  C
  H994     1.0000 0.85932  0.67798  0.43680  Biso   1.000  H
  H995     1.0000 0.69563  0.09362  0.45480  Biso   1.000  H
  C994     1.0000 0.63758  0.05341  0.43961  Biso   1.000  C
  C995     1.0000 0.79979  0.15790  0.44352  Biso   1.000  C
  C996     1.0000 0.19804  0.95452  0.50734  Biso   1.000  C
  C997     1.0000 0.10791  0.95872  0.50711  Biso   1.000  C
  C998     1.0000 0.25479  0.07288  0.50359  Biso   1.000  C
  C999     1.0000 0.15942  0.06508  0.50385  Biso   1.000  C
  C1000    1.0000 0.36592  0.28820  0.44778  Biso   1.000  C
  H996     1.0000 0.71470  0.55541  0.43810  Biso   1.000  H
  H997     1.0000 0.74299  0.51600  0.44790  Biso   1.000  H
  C1001    1.0000 0.78946  0.49946  0.43298  Biso   1.000  C
  C1002    1.0000 0.78950  0.49953  0.43298  Biso   1.000  C
  H998     1.0000 0.90641  0.60202  0.45480  Biso   1.000  H
  C1003    1.0000 0.94659  0.58422  0.43961  Biso   1.000  C
  N127     1.0000 0.99652  0.72439  0.44950  Biso   1.000  N
  H999     1.0000 0.58280  0.00366  0.44240  Biso   1.000  H
  H1000    1.0000 0.65219  0.03527  0.43270  Biso   1.000  H
  C1004    1.0000 0.62435  0.13436  0.43758  Biso   1.000  C
  H1001    1.0000 0.58283  0.00373  0.44240  Biso   1.000  H
  C1005    1.0000 0.62439  0.13443  0.43758  Biso   1.000  C
  C1006    1.0000 0.78620  0.23652  0.44112  Biso   1.000  C
  H1002    1.0000 0.81867  0.14070  0.43680  Biso   1.000  H
  C1007    1.0000 0.18191  0.92711  0.49641  Biso   1.000  C
  H1003    1.0000 0.21631  0.92511  0.51220  Biso   1.000  H
  C1008    1.0000 0.09433  0.93491  0.49615  Biso   1.000  C
  H1004    1.0000 0.06032  0.92891  0.51190  Biso   1.000  H
  C1009    1.0000 0.24351  0.04547  0.49266  Biso   1.000  C
  H1005    1.0000 0.30688  0.12369  0.50580  Biso   1.000  H
  C1010    1.0000 0.14919  0.04127  0.49289  Biso   1.000  C
  H1006    1.0000 0.14698  0.10882  0.50620  Biso   1.000  H
  C1011    1.0000 0.35812  0.20018  0.44352  Biso   1.000  C
  H1007    1.0000 0.39799  0.30441  0.45480  Biso   1.000  H
  C1012    1.0000 0.41579  0.36242  0.43961  Biso   1.000  C
  C1013    1.0000 0.86558  0.48999  0.43758  Biso   1.000  C
  H1008    1.0000 0.73857  0.44098  0.43160  Biso   1.000  H
  H1009    1.0000 0.80748  0.53181  0.42610  Biso   1.000  H
  H1010    1.0000 0.99629  0.57908  0.44240  Biso   1.000  H
  H1011    1.0000 0.96472  0.61689  0.43270  Biso   1.000  H
  C1014    1.0000 0.01267  0.75080  0.45936  Biso   1.000  C
  H1012    1.0000 0.57601  0.11829  0.43240  Biso   1.000  H
  H1013    1.0000 0.60928  0.15250  0.44440  Biso   1.000  H
  C1015    1.0000 0.71002  0.21052  0.43298  Biso   1.000  C
  H1014    1.0000 0.84066  0.28527  0.43810  Biso   1.000  H
  H1015    1.0000 0.77299  0.25699  0.44790  Biso   1.000  H
  C1016    1.0000 0.16367  0.97599  0.48869  Biso   1.000  C
  H1016    1.0000 0.18318  0.87629  0.49420  Biso   1.000  H
  H1017    1.0000 0.03816  0.89117  0.49380  Biso   1.000  H
  H1018    1.0000 0.29119  0.07488  0.48780  Biso   1.000  H
  H1019    1.0000 0.13140  0.07108  0.48810  Biso   1.000  H
  N128     1.0000 0.31450  0.13269  0.45204  Biso   1.000  N
  C1017    1.0000 0.45027  0.21378  0.44112  Biso   1.000  C
  H1020    1.0000 0.32200  0.18131  0.43680  Biso   1.000  H
  H1021    1.0000 0.42087  0.41717  0.44240  Biso   1.000  H
  H1022    1.0000 0.38314  0.34782  0.43270  Biso   1.000  H
  C1018    1.0000 0.51000  0.37562  0.43758  Biso   1.000  C
  H1023    1.0000 0.88172  0.45772  0.43240  Biso   1.000  H
  H1024    1.0000 0.84747  0.45679  0.44440  Biso   1.000  H
  H1025    1.0000 0.98052  0.71052  0.46490  Biso   1.000  H
  C1019    1.0000 0.08053  0.84262  0.46247  Biso   1.000  C
  H1026    1.0000 0.70242  0.26139  0.43160  Biso   1.000  H
  H1027    1.0000 0.72429  0.19251  0.42610  Biso   1.000  H
  C1020    1.0000 0.15422  0.95258  0.47689  Biso   1.000  C
  C1021    1.0000 0.24499  0.06148  0.44948  Biso   1.000  C
  C1022    1.0000 0.50051  0.29000  0.43298  Biso   1.000  C
  H1028    1.0000 0.44457  0.15930  0.43810  Biso   1.000  H
  H1029    1.0000 0.48402  0.22699  0.44790  Biso   1.000  H
  H1030    1.0000 0.54226  0.42397  0.43240  Biso   1.000  H
  H1031    1.0000 0.54318  0.39070  0.44440  Biso   1.000  H
  C1023    1.0000 0.13061  0.90837  0.45462  Biso   1.000  C
  C1024    1.0000 0.09333  0.86523  0.47346  Biso   1.000  C
  C1025    1.0000 0.20272  0.01460  0.46898  Biso   1.000  C
  C1026    1.0000 0.19190  0.99273  0.45779  Biso   1.000  C
  H1032    1.0000 0.22641  0.05181  0.44220  Biso   1.000  H
  H1033    1.0000 0.55900  0.29760  0.43160  Biso   1.000  H
  H1034    1.0000 0.46816  0.27567  0.42610  Biso   1.000  H
  H1035    1.0000 0.46820  0.27573  0.42610  Biso   1.000  H
  H1036    1.0000 0.12190  0.89430  0.44720  Biso   1.000  H
  H1037    1.0000 0.06100  0.82181  0.47870  Biso   1.000  H
  H1038    1.0000 0.24380  0.07261  0.47110  Biso   1.000  H
  C1027    1.0000 0.81848  0.81621  0.81386  Biso   1.000  C
  C1028    1.0000 0.75067  0.75360  0.82229  Biso   1.000  C
  C1029    1.0000 0.91079  0.85289  0.81855  Biso   1.000  C
  H1039    1.0000 0.81298  0.78407  0.80710  Biso   1.000  H
  H1040    1.0000 0.80749  0.86469  0.81220  Biso   1.000  H
  C1030    1.0000 0.76680  0.67878  0.82586  Biso   1.000  C
  H1041    1.0000 0.75291  0.78787  0.82870  Biso   1.000  H
  H1042    1.0000 0.69140  0.72792  0.81920  Biso   1.000  H
  C1031    1.0000 0.92957  0.77967  0.82197  Biso   1.000  C
  H1043    1.0000 0.91731  0.88983  0.82490  Biso   1.000  H
  H1044    1.0000 0.95434  0.89043  0.81310  Biso   1.000  H
  N129     1.0000 0.70289  0.62570  0.83442  Biso   1.000  N
  C1032    1.0000 0.86078  0.71659  0.83034  Biso   1.000  C
  H1045    1.0000 0.75901  0.64057  0.81950  Biso   1.000  H
  H1046    1.0000 0.98881  0.80621  0.82520  Biso   1.000  H
  H1047    1.0000 0.92838  0.74599  0.81550  Biso   1.000  H
  C1033    1.0000 0.64180  0.54648  0.83210  Biso   1.000  C
  H1048    1.0000 0.86699  0.74853  0.83720  Biso   1.000  H
  N130     1.0000 0.87782  0.64210  0.83229  Biso   1.000  N
  C1034    1.0000 0.57494  0.49233  0.84026  Biso   1.000  C
  H1049    1.0000 0.63998  0.52320  0.82520  Biso   1.000  H
  C1035    1.0000 0.89567  0.63150  0.84181  Biso   1.000  C
  C1036    1.0000 0.50763  0.40831  0.83725  Biso   1.000  C
  C1037    1.0000 0.57659  0.52220  0.85093  Biso   1.000  C
  C1038    1.0000 0.91342  0.55981  0.84504  Biso   1.000  C
  H1050    1.0000 0.89799  0.67077  0.84720  Biso   1.000  H
  C1039    1.0000 0.44021  0.35363  0.84504  Biso   1.000  C
  H1051    1.0000 0.50608  0.38730  0.83020  Biso   1.000  H
  C1040    1.0000 0.51149  0.47192  0.85853  Biso   1.000  C
  H1052    1.0000 0.62311  0.57782  0.85300  Biso   1.000  H
  C1041    1.0000 0.90068  0.49239  0.83725  Biso   1.000  C
  C1042    1.0000 0.94223  0.55621  0.85537  Biso   1.000  C
  C1043    1.0000 0.36853  0.26420  0.84181  Biso   1.000  C
  C1044    1.0000 0.44379  0.38597  0.85537  Biso   1.000  C
  C1045    1.0000 0.51364  0.50833  0.86947  Biso   1.000  C
  C1046    1.0000 0.91739  0.42511  0.84026  Biso   1.000  C
  H1053    1.0000 0.88123  0.49393  0.83020  Biso   1.000  H
  C1047    1.0000 0.96042  0.48853  0.85853  Biso   1.000  C
  H1054    1.0000 0.95013  0.59962  0.86050  Biso   1.000  H
  N131     1.0000 0.35793  0.23573  0.83229  Biso   1.000  N
  H1055    1.0000 0.32918  0.22719  0.84720  Biso   1.000  H
  H1056    1.0000 0.40041  0.35049  0.86050  Biso   1.000  H
  H1057    1.0000 0.56480  0.56088  0.87140  Biso   1.000  H
  N132     1.0000 0.45142  0.47399  0.87642  Biso   1.000  N
  C1048    1.0000 0.90469  0.35823  0.83210  Biso   1.000  C
  C1049    1.0000 0.94558  0.42338  0.85093  Biso   1.000  C
  C1050    1.0000 0.99470  0.48639  0.86947  Biso   1.000  C
  C1051    1.0000 0.28339  0.14417  0.83034  Biso   1.000  C
  C1052    1.0000 0.46360  0.52180  0.88682  Biso   1.000  C
  N133     1.0000 0.92279  0.29708  0.83442  Biso   1.000  N
  H1058    1.0000 0.88324  0.36003  0.82520  Biso   1.000  H
  H1059    1.0000 0.95468  0.37690  0.85300  Biso   1.000  H
  H1060    1.0000 0.99612  0.43518  0.87140  Biso   1.000  H
  N134     1.0000 0.02263  0.54861  0.87642  Biso   1.000  N
  C1053    1.0000 0.22031  0.14991  0.82197  Biso   1.000  C
  C1054    1.0000 0.32121  0.08802  0.82586  Biso   1.000  C
  H1061    1.0000 0.25150  0.11850  0.83720  Biso   1.000  H
  C1055    1.0000 0.46339  0.46479  0.89623  Biso   1.000  C
  C1056    1.0000 0.38640  0.54007  0.88821  Biso   1.000  C
  H1062    1.0000 0.52032  0.57828  0.88670  Biso   1.000  H
  C1057    1.0000 0.91199  0.23319  0.82586  Biso   1.000  C
  C1058    1.0000 0.05822  0.53641  0.88682  Biso   1.000  C
  C1059    1.0000 0.14710  0.05788  0.81855  Biso   1.000  C
  H1063    1.0000 0.19380  0.18258  0.82520  Biso   1.000  H
  H1064    1.0000 0.25399  0.18238  0.81550  Biso   1.000  H
  C1060    1.0000 0.24643  0.99713  0.82229  Biso   1.000  C
  H1065    1.0000 0.35940  0.11843  0.81950  Biso   1.000  H
  N135     1.0000 0.37431  0.07722  0.83442  Biso   1.000  N
  H1066    1.0000 0.40931  0.40617  0.89590  Biso   1.000  H
  C1061    1.0000 0.46689  0.50793  0.90718  Biso   1.000  C
  N136     1.0000 0.54012  0.45412  0.89542  Biso   1.000  N
  C1062    1.0000 0.39340  0.58329  0.89948  Biso   1.000  C
  H1067    1.0000 0.33009  0.48473  0.88770  Biso   1.000  H
  H1068    1.0000 0.38848  0.57968  0.88240  Biso   1.000  H
  C1063    1.0000 0.85579  0.13917  0.83034  Biso   1.000  C
  H1069    1.0000 0.88159  0.24100  0.81950  Biso   1.000  H
  C1064    1.0000 0.00293  0.24933  0.82229  Biso   1.000  C
  C1065    1.0000 0.00138  0.53661  0.89623  Biso   1.000  C
  C1066    1.0000 0.15372  0.61363  0.88821  Biso   1.000  C
  H1070    1.0000 0.05801  0.47972  0.88670  Biso   1.000  H
  C1067    1.0000 0.18380  0.00227  0.81386  Biso   1.000  C
  H1071    1.0000 0.11018  0.02747  0.82490  Biso   1.000  H
  H1072    1.0000 0.10962  0.06388  0.81310  Biso   1.000  H
  H1073    1.0000 0.21211  0.96499  0.82870  Biso   1.000  H
  H1074    1.0000 0.27213  0.96352  0.81920  Biso   1.000  H
  C1068    1.0000 0.45351  0.09529  0.83210  Biso   1.000  C
  H1075    1.0000 0.46464  0.46912  0.91310  Biso   1.000  H
  H1076    1.0000 0.52289  0.56368  0.90780  Biso   1.000  H
  C1069    1.0000 0.39190  0.52520  0.90838  Biso   1.000  C
  C1070    1.0000 0.52532  0.37450  0.89479  Biso   1.000  C
  H1077    1.0000 0.44844  0.64023  0.89980  Biso   1.000  H
  H1078    1.0000 0.34400  0.59422  0.90040  Biso   1.000  H
  N137     1.0000 0.76434  0.12223  0.83229  Biso   1.000  N
  H1079    1.0000 0.88151  0.13297  0.83720  Biso   1.000  H
  C1071    1.0000 0.85012  0.07042  0.82197  Biso   1.000  C
  C1072    1.0000 0.99772  0.18151  0.81386  Biso   1.000  C
  H1080    1.0000 0.03503  0.24713  0.82870  Biso   1.000  H
  H1081    1.0000 0.03650  0.30861  0.81920  Biso   1.000  H
  N138     1.0000 0.91401  0.45992  0.89542  Biso   1.000  N
  H1082    1.0000 0.99689  0.59069  0.89590  Biso   1.000  H
  C1073    1.0000 0.04096  0.53307  0.90718  Biso   1.000  C
  C1074    1.0000 0.18989  0.60662  0.89948  Biso   1.000  C
  H1083    1.0000 0.15460  0.66991  0.88770  Biso   1.000  H
  H1084    1.0000 0.19117  0.61149  0.88240  Biso   1.000  H
  H1085    1.0000 0.21587  0.02887  0.80710  Biso   1.000  H
  H1086    1.0000 0.13529  0.94279  0.81220  Biso   1.000  H
  C1075    1.0000 0.50770  0.08262  0.84026  Biso   1.000  C
  H1087    1.0000 0.47681  0.11683  0.82520  Biso   1.000  H
  H1088    1.0000 0.33589  0.46919  0.90820  Biso   1.000  H
  H1089    1.0000 0.39628  0.55348  0.91540  Biso   1.000  H
  C1076    1.0000 0.59780  0.35349  0.89467  Biso   1.000  C
  H1090    1.0000 0.46661  0.32789  0.89440  Biso   1.000  H
  C1077    1.0000 0.73579  0.10429  0.84181  Biso   1.000  C
  H1091    1.0000 0.81739  0.01120  0.82520  Biso   1.000  H
  H1092    1.0000 0.81763  0.07162  0.81550  Biso   1.000  H
  C1078    1.0000 0.94211  0.08922  0.81855  Biso   1.000  C
  H1093    1.0000 0.97112  0.18698  0.80710  Biso   1.000  H
  H1094    1.0000 0.05722  0.19252  0.81220  Biso   1.000  H
  C1079    1.0000 0.84922  0.47472  0.89479  Biso   1.000  C
  H1095    1.0000 0.00448  0.53541  0.91310  Biso   1.000  H
  H1096    1.0000 0.04083  0.47712  0.90780  Biso   1.000  H
  C1080    1.0000 0.13328  0.60809  0.90838  Biso   1.000  C
  H1097    1.0000 0.19178  0.55161  0.89980  Biso   1.000  H
  H1098    1.0000 0.25020  0.65597  0.90040  Biso   1.000  H
  C1081    1.0000 0.59169  0.09929  0.83725  Biso   1.000  C
  C1082    1.0000 0.47783  0.05441  0.85093  Biso   1.000  C
  C1083    1.0000 0.57798  0.26487  0.89466  Biso   1.000  C
  C1084    1.0000 0.68691  0.42198  0.89466  Biso   1.000  C
  C1085    1.0000 0.64640  0.08662  0.84504  Biso   1.000  C
  H1099    1.0000 0.77283  0.10203  0.84720  Biso   1.000  H
  H1100    1.0000 0.97251  0.08269  0.82490  Biso   1.000  H
  H1101    1.0000 0.93610  0.04568  0.81310  Biso   1.000  H
  C1086    1.0000 0.75566  0.40217  0.89467  Biso   1.000  C
  H1102    1.0000 0.86130  0.53341  0.89440  Biso   1.000  H
  H1103    1.0000 0.13328  0.66411  0.90820  Biso   1.000  H
  H1104    1.0000 0.15718  0.60369  0.91540  Biso   1.000  H
  H1105    1.0000 0.61272  0.11883  0.83020  Biso   1.000  H
  C1087    1.0000 0.52812  0.03961  0.85853  Biso   1.000  C
  H1106    1.0000 0.42221  0.04528  0.85300  Biso   1.000  H
  C1088    1.0000 0.64654  0.24433  0.89467  Biso   1.000  C
  H1107    1.0000 0.51884  0.21912  0.89460  Biso   1.000  H
  H1108    1.0000 0.70029  0.48119  0.89460  Biso   1.000  H
  C1089    1.0000 0.61403  0.05782  0.85537  Biso   1.000  C
  C1090    1.0000 0.73508  0.31308  0.89466  Biso   1.000  C
  C1091    1.0000 0.49166  0.00527  0.86947  Biso   1.000  C
  C1092    1.0000 0.62551  0.15077  0.89479  Biso   1.000  C
  H1109    1.0000 0.64951  0.04988  0.86050  Biso   1.000  H
  H1110    1.0000 0.78087  0.29968  0.89460  Biso   1.000  H
  H1111    1.0000 0.43910  0.00387  0.87140  Biso   1.000  H
  N139     1.0000 0.52600  0.97739  0.87642  Biso   1.000  N
  N140     1.0000 0.54590  0.08602  0.89542  Biso   1.000  N
  H1112    1.0000 0.67209  0.13870  0.89440  Biso   1.000  H
  C1093    1.0000 0.47817  0.94178  0.88682  Biso   1.000  C
  C1094    1.0000 0.53522  0.99860  0.89623  Biso   1.000  C
  C1095    1.0000 0.45988  0.84629  0.88821  Biso   1.000  C
  H1113    1.0000 0.42167  0.94198  0.88670  Biso   1.000  H
  H1114    1.0000 0.59376  0.00307  0.89590  Biso   1.000  H
  C1096    1.0000 0.49208  0.95899  0.90718  Biso   1.000  C
  C1097    1.0000 0.41671  0.81008  0.89948  Biso   1.000  C
  H1115    1.0000 0.51529  0.84543  0.88770  Biso   1.000  H
  H1116    1.0000 0.42029  0.80882  0.88240  Biso   1.000  H
  H1117    1.0000 0.53091  0.99553  0.91310  Biso   1.000  H
  H1118    1.0000 0.43628  0.95919  0.90780  Biso   1.000  H
  C1098    1.0000 0.47481  0.86670  0.90838  Biso   1.000  C
  H1119    1.0000 0.35981  0.80822  0.89980  Biso   1.000  H
  H1120    1.0000 0.40580  0.74980  0.90040  Biso   1.000  H
  H1121    1.0000 0.53077  0.86670  0.90820  Biso   1.000  H
  H1122    1.0000 0.44653  0.84283  0.91540  Biso   1.000  H
  C1099    1.0000 0.24574  0.76533  0.84459  Biso   1.000  C
  C1100    1.0000 0.31100  0.78740  0.85372  Biso   1.000  C
  H1123    1.0000 0.19708  0.70452  0.84540  Biso   1.000  H
  H1124    1.0000 0.27458  0.77000  0.83760  Biso   1.000  H
  C1101    1.0000 0.20930  0.82908  0.84483  Biso   1.000  C
  C1102    1.0000 0.24571  0.76527  0.84459  Biso   1.000  C
  C1103    1.0000 0.27091  0.78587  0.86481  Biso   1.000  C
  H1125    1.0000 0.36213  0.84622  0.85250  Biso   1.000  H
  H1126    1.0000 0.33191  0.74479  0.85370  Biso   1.000  H
  H1127    1.0000 0.25737  0.88896  0.84330  Biso   1.000  H
  H1128    1.0000 0.16491  0.81261  0.83910  Biso   1.000  H
  C1104    1.0000 0.16769  0.82868  0.85585  Biso   1.000  C
  H1129    1.0000 0.25741  0.88903  0.84330  Biso   1.000  H
  C1105    1.0000 0.23437  0.84989  0.86498  Biso   1.000  C
  H1130    1.0000 0.31608  0.80288  0.87050  Biso   1.000  H
  H1131    1.0000 0.22318  0.72599  0.86640  Biso   1.000  H
  H1132    1.0000 0.11481  0.77027  0.85710  Biso   1.000  H
  N141     1.0000 0.14297  0.89810  0.85582  Biso   1.000  N
  H1133    1.0000 0.28397  0.91097  0.86400  Biso   1.000  H
  N142     1.0000 0.19358  0.84269  0.87569  Biso   1.000  N
  C1106    1.0000 0.06198  0.87389  0.85661  Biso   1.000  C
  C1107    1.0000 0.22529  0.90830  0.88211  Biso   1.000  C
  H1134    1.0000 0.02068  0.81348  0.85720  Biso   1.000  H
  C1108    1.0000 0.02991  0.93958  0.85658  Biso   1.000  C
  C1109    1.0000 0.19108  0.90537  0.89306  Biso   1.000  C
  H1135    1.0000 0.27342  0.96172  0.87970  Biso   1.000  H
  C1110    1.0000 0.94040  0.90990  0.85643  Biso   1.000  C
  C1111    1.0000 0.09008  0.03047  0.85643  Biso   1.000  C
  C1112    1.0000 0.11213  0.82902  0.89673  Biso   1.000  C
  C1113    1.0000 0.23523  0.97532  0.90040  Biso   1.000  C
  C1114    1.0000 0.90970  0.97012  0.85658  Biso   1.000  C
  H1136    1.0000 0.90002  0.84902  0.85620  Biso   1.000  H
  C1115    1.0000 0.06039  0.09028  0.85658  Biso   1.000  C
  H1137    1.0000 0.15099  0.05101  0.85620  Biso   1.000  H
  H1138    1.0000 0.08122  0.78140  0.89190  Biso   1.000  H
  C1116    1.0000 0.08031  0.82381  0.90717  Biso   1.000  C
  C1117    1.0000 0.20347  0.97139  0.91100  Biso   1.000  C
  H1139    1.0000 0.28720  0.02600  0.89820  Biso   1.000  H
  C1118    1.0000 0.81191  0.93798  0.85661  Biso   1.000  C
  C1119    1.0000 0.96951  0.05961  0.85643  Biso   1.000  C
  C1120    1.0000 0.12611  0.18811  0.85661  Biso   1.000  C
  C1121    1.0000 0.12600  0.89557  0.91438  Biso   1.000  C
  C1122    1.0000 0.00040  0.74013  0.91083  Biso   1.000  C
  C1123    1.0000 0.12603  0.89563  0.91438  Biso   1.000  C
  C1124    1.0000 0.25149  0.04421  0.91897  Biso   1.000  C
  H1140    1.0000 0.79279  0.97932  0.85720  Biso   1.000  H
  N143     1.0000 0.75509  0.85702  0.85582  Biso   1.000  N
  H1141    1.0000 0.94900  0.10002  0.85620  Biso   1.000  H
  H1142    1.0000 0.18646  0.20718  0.85720  Biso   1.000  H
  N144     1.0000 0.10190  0.24492  0.85582  Biso   1.000  N
  H1143    1.0000 0.10429  0.89257  0.92150  Biso   1.000  H
  H1144    1.0000 0.10432  0.89263  0.92150  Biso   1.000  H
  H1145    1.0000 0.96739  0.69812  0.90550  Biso   1.000  H
  N145     1.0000 0.97432  0.72179  0.92053  Biso   1.000  N
  H1146    1.0000 0.22799  0.03740  0.92600  Biso   1.000  H
  N146     1.0000 0.32231  0.11482  0.91675  Biso   1.000  N
  C1125    1.0000 0.66100  0.83228  0.85585  Biso   1.000  C
  C1126    1.0000 0.17130  0.33902  0.85585  Biso   1.000  C
  C1127    1.0000 0.89957  0.63410  0.92254  Biso   1.000  C
  C1128    1.0000 0.36237  0.17957  0.92555  Biso   1.000  C
  C1129    1.0000 0.61547  0.76560  0.86498  Biso   1.000  C
  C1130    1.0000 0.61981  0.79067  0.84483  Biso   1.000  C
  H1147    1.0000 0.65551  0.88516  0.85710  Biso   1.000  H
  H1148    1.0000 0.65554  0.88523  0.85710  Biso   1.000  H
  C1131    1.0000 0.15009  0.38449  0.86498  Biso   1.000  C
  C1132    1.0000 0.17094  0.38023  0.84483  Biso   1.000  C
  H1149    1.0000 0.22970  0.34448  0.85710  Biso   1.000  H
  H1150    1.0000 0.88758  0.59822  0.91590  Biso   1.000  H
  C1133    1.0000 0.92351  0.58922  0.93201  Biso   1.000  C
  C1134    1.0000 0.81717  0.63757  0.92555  Biso   1.000  C
  C1135    1.0000 0.81720  0.63763  0.92555  Biso   1.000  C
  C1136    1.0000 0.36587  0.26546  0.92254  Biso   1.000  C
  C1137    1.0000 0.45678  0.19538  0.92800  Biso   1.000  C
  H1151    1.0000 0.32579  0.15550  0.93220  Biso   1.000  H
  C1138    1.0000 0.36590  0.26553  0.92254  Biso   1.000  C
  H1152    1.0000 0.62699  0.71599  0.86400  Biso   1.000  H
  C1139    1.0000 0.51500  0.72912  0.86481  Biso   1.000  C
  N147     1.0000 0.64910  0.80641  0.87569  Biso   1.000  N
  C1140    1.0000 0.51960  0.75426  0.84459  Biso   1.000  C
  H1153    1.0000 0.63158  0.74259  0.84330  Biso   1.000  H
  H1154    1.0000 0.64768  0.83508  0.83910  Biso   1.000  H
  C1141    1.0000 0.51963  0.75433  0.84459  Biso   1.000  C
  H1155    1.0000 0.08903  0.37302  0.86400  Biso   1.000  H
  C1142    1.0000 0.21408  0.48499  0.86481  Biso   1.000  C
  N148     1.0000 0.15731  0.35088  0.87569  Biso   1.000  N
  C1143    1.0000 0.23471  0.48039  0.84459  Biso   1.000  C
  H1156    1.0000 0.11098  0.36842  0.84330  Biso   1.000  H
  H1157    1.0000 0.18740  0.35229  0.83910  Biso   1.000  H
  H1158    1.0000 0.97592  0.58582  0.93000  Biso   1.000  H
  H1159    1.0000 0.93717  0.62510  0.93860  Biso   1.000  H
  C1144    1.0000 0.84670  0.49660  0.93424  Biso   1.000  C
  C1145    1.0000 0.73863  0.54321  0.92800  Biso   1.000  C
  H1160    1.0000 0.82970  0.67418  0.93220  Biso   1.000  H
  N149     1.0000 0.79248  0.67771  0.91675  Biso   1.000  N
  H1161    1.0000 0.40180  0.28940  0.91590  Biso   1.000  H
  C1146    1.0000 0.41079  0.33428  0.93201  Biso   1.000  C
  N150     1.0000 0.27820  0.25253  0.92053  Biso   1.000  N
  C1147    1.0000 0.49989  0.26346  0.93715  Biso   1.000  C
  H1162    1.0000 0.45290  0.13956  0.93020  Biso   1.000  H
  H1163    1.0000 0.49309  0.21672  0.92140  Biso   1.000  H
  C1148    1.0000 0.49992  0.26353  0.93715  Biso   1.000  C
  H1164    1.0000 0.45293  0.13963  0.93020  Biso   1.000  H
  H1165    1.0000 0.48679  0.68391  0.87050  Biso   1.000  H
  H1166    1.0000 0.50280  0.77680  0.86640  Biso   1.000  H
  C1149    1.0000 0.47639  0.68898  0.85372  Biso   1.000  C
  C1150    1.0000 0.68296  0.77467  0.88211  Biso   1.000  C
  H1167    1.0000 0.50741  0.80288  0.84540  Biso   1.000  H
  H1168    1.0000 0.49540  0.72539  0.83760  Biso   1.000  H
  H1169    1.0000 0.19711  0.51319  0.87050  Biso   1.000  H
  H1170    1.0000 0.27400  0.49719  0.86640  Biso   1.000  H
  C1151    1.0000 0.21260  0.52360  0.85372  Biso   1.000  C
  C1152    1.0000 0.09169  0.31701  0.88211  Biso   1.000  C
  H1171    1.0000 0.29550  0.49259  0.84540  Biso   1.000  H
  H1172    1.0000 0.23000  0.50459  0.83760  Biso   1.000  H
  H1173    1.0000 0.86210  0.46999  0.94030  Biso   1.000  H
  H1174    1.0000 0.83548  0.45959  0.92780  Biso   1.000  H
  C1153    1.0000 0.76360  0.50006  0.93715  Biso   1.000  C
  C1154    1.0000 0.76364  0.50013  0.93715  Biso   1.000  C
  H1175    1.0000 0.68668  0.54708  0.93020  Biso   1.000  H
  H1176    1.0000 0.72358  0.50687  0.92140  Biso   1.000  H
  H1177    1.0000 0.72361  0.50693  0.92140  Biso   1.000  H
  C1155    1.0000 0.79269  0.74846  0.91897  Biso   1.000  C
  C1156    1.0000 0.79272  0.74853  0.91897  Biso   1.000  C
  H1178    1.0000 0.41421  0.39010  0.93000  Biso   1.000  H
  H1179    1.0000 0.37491  0.31207  0.93860  Biso   1.000  H
  C1157    1.0000 0.50341  0.35008  0.93424  Biso   1.000  C
  C1158    1.0000 0.25990  0.26026  0.91083  Biso   1.000  C
  C1159    1.0000 0.25993  0.26033  0.91083  Biso   1.000  C
  H1180    1.0000 0.46623  0.23992  0.94390  Biso   1.000  H
  H1181    1.0000 0.55991  0.27460  0.93840  Biso   1.000  H
  H1182    1.0000 0.48411  0.63790  0.85250  Biso   1.000  H
  H1183    1.0000 0.41288  0.66811  0.85370  Biso   1.000  H
  C1160    1.0000 0.71427  0.80888  0.89306  Biso   1.000  C
  H1184    1.0000 0.68831  0.72659  0.87970  Biso   1.000  H
  H1185    1.0000 0.15381  0.51586  0.85250  Biso   1.000  H
  H1186    1.0000 0.25519  0.58708  0.85370  Biso   1.000  H
  H1187    1.0000 0.15384  0.51593  0.85250  Biso   1.000  H
  C1161    1.0000 0.09461  0.28567  0.89306  Biso   1.000  C
  H1188    1.0000 0.03832  0.31167  0.87970  Biso   1.000  H
  H1189    1.0000 0.77372  0.53381  0.94390  Biso   1.000  H
  H1190    1.0000 0.71469  0.44011  0.93840  Biso   1.000  H
  H1191    1.0000 0.80942  0.77200  0.92600  Biso   1.000  H
  C1162    1.0000 0.76790  0.79647  0.91100  Biso   1.000  C
  H1192    1.0000 0.53002  0.39210  0.94030  Biso   1.000  H
  H1193    1.0000 0.54039  0.37589  0.92780  Biso   1.000  H
  C1163    1.0000 0.17616  0.25646  0.90717  Biso   1.000  C
  H1194    1.0000 0.30188  0.26926  0.90550  Biso   1.000  H
  C1164    1.0000 0.17620  0.25653  0.90717  Biso   1.000  C
  H1195    1.0000 0.30191  0.26933  0.90550  Biso   1.000  H
  C1165    1.0000 0.74010  0.76480  0.90040  Biso   1.000  C
  C1166    1.0000 0.71688  0.88790  0.89673  Biso   1.000  C
  C1167    1.0000 0.02465  0.25986  0.90040  Biso   1.000  C
  C1168    1.0000 0.17099  0.28307  0.89673  Biso   1.000  C
  C1169    1.0000 0.02469  0.25993  0.90040  Biso   1.000  C
  C1170    1.0000 0.76956  0.87396  0.91438  Biso   1.000  C
  C1171    1.0000 0.76960  0.87403  0.91438  Biso   1.000  C
  C1172    1.0000 0.10439  0.23039  0.91438  Biso   1.000  C
  H1196    1.0000 0.73881  0.71279  0.89820  Biso   1.000  H
  H1197    1.0000 0.70020  0.91877  0.89190  Biso   1.000  H
  C1173    1.0000 0.74352  0.91971  0.90717  Biso   1.000  C
  H1198    1.0000 0.97398  0.26119  0.89820  Biso   1.000  H
  C1174    1.0000 0.02863  0.23212  0.91100  Biso   1.000  C
  H1199    1.0000 0.21863  0.29980  0.89190  Biso   1.000  H
  H1200    1.0000 0.78829  0.89570  0.92150  Biso   1.000  H
  H1201    1.0000 0.10742  0.21172  0.92150  Biso   1.000  H
  C1175    1.0000 0.73969  0.99959  0.91083  Biso   1.000  C
  C1176    1.0000 0.95582  0.20731  0.91897  Biso   1.000  C
  H1202    1.0000 0.73073  0.03260  0.90550  Biso   1.000  H
  N151     1.0000 0.74747  0.02567  0.92053  Biso   1.000  N
  H1203    1.0000 0.96258  0.19058  0.92600  Biso   1.000  H
  N152     1.0000 0.88523  0.20751  0.91675  Biso   1.000  N
  C1177    1.0000 0.73449  0.10042  0.92254  Biso   1.000  C
  C1178    1.0000 0.82037  0.18277  0.92555  Biso   1.000  C
  H1204    1.0000 0.71064  0.11242  0.91590  Biso   1.000  H
  C1179    1.0000 0.66569  0.07648  0.93201  Biso   1.000  C
  C1180    1.0000 0.80458  0.26139  0.92800  Biso   1.000  C
  H1205    1.0000 0.84451  0.17030  0.93220  Biso   1.000  H
  H1206    1.0000 0.60986  0.02407  0.93000  Biso   1.000  H
  H1207    1.0000 0.68791  0.06281  0.93860  Biso   1.000  H
  C1181    1.0000 0.64988  0.15330  0.93424  Biso   1.000  C
  H1208    1.0000 0.60990  0.02413  0.93000  Biso   1.000  H
  C1182    1.0000 0.73647  0.23639  0.93715  Biso   1.000  C
  H1209    1.0000 0.86038  0.31328  0.93020  Biso   1.000  H
  H1210    1.0000 0.78333  0.27640  0.92140  Biso   1.000  H
  H1211    1.0000 0.60787  0.13790  0.94030  Biso   1.000  H
  H1212    1.0000 0.62412  0.16450  0.92780  Biso   1.000  H
  H1213    1.0000 0.76013  0.22632  0.94390  Biso   1.000  H
  H1214    1.0000 0.72539  0.28527  0.93840  Biso   1.000  H
  C1183    1.0000 0.24574  0.76533  0.84459  Biso   1.000  C
  C1184    1.0000 0.31100  0.78740  0.85372  Biso   1.000  C
  H1215    1.0000 0.19708  0.70452  0.84540  Biso   1.000  H
  H1216    1.0000 0.27458  0.77000  0.83760  Biso   1.000  H
  C1185    1.0000 0.20930  0.82908  0.84483  Biso   1.000  C
  C1186    1.0000 0.24571  0.76527  0.84459  Biso   1.000  C
  C1187    1.0000 0.27091  0.78587  0.86481  Biso   1.000  C
  H1217    1.0000 0.36213  0.84622  0.85250  Biso   1.000  H
  H1218    1.0000 0.33191  0.74479  0.85370  Biso   1.000  H
  H1219    1.0000 0.16491  0.81261  0.83910  Biso   1.000  H
  C1188    1.0000 0.16769  0.82868  0.85585  Biso   1.000  C
  H1220    1.0000 0.25737  0.88896  0.84330  Biso   1.000  H
  H1221    1.0000 0.25741  0.88903  0.84330  Biso   1.000  H
  C1189    1.0000 0.23437  0.84989  0.86498  Biso   1.000  C
  H1222    1.0000 0.31608  0.80288  0.87050  Biso   1.000  H
  H1223    1.0000 0.22318  0.72599  0.86640  Biso   1.000  H
  H1224    1.0000 0.11481  0.77027  0.85710  Biso   1.000  H
  N153     1.0000 0.14297  0.89810  0.85582  Biso   1.000  N
  H1225    1.0000 0.28397  0.91097  0.86400  Biso   1.000  H
  N154     1.0000 0.19358  0.84269  0.87569  Biso   1.000  N
  C1190    1.0000 0.06198  0.87389  0.85661  Biso   1.000  C
  C1191    1.0000 0.22529  0.90830  0.88211  Biso   1.000  C
  H1226    1.0000 0.02068  0.81348  0.85720  Biso   1.000  H
  C1192    1.0000 0.02991  0.93958  0.85658  Biso   1.000  C
  C1193    1.0000 0.19108  0.90537  0.89306  Biso   1.000  C
  H1227    1.0000 0.27342  0.96172  0.87970  Biso   1.000  H
  C1194    1.0000 0.94040  0.90990  0.85643  Biso   1.000  C
  C1195    1.0000 0.09008  0.03047  0.85643  Biso   1.000  C
  C1196    1.0000 0.11213  0.82902  0.89673  Biso   1.000  C
  C1197    1.0000 0.23523  0.97532  0.90040  Biso   1.000  C
  C1198    1.0000 0.90970  0.97012  0.85658  Biso   1.000  C
  H1228    1.0000 0.90002  0.84902  0.85620  Biso   1.000  H
  C1199    1.0000 0.06039  0.09028  0.85658  Biso   1.000  C
  H1229    1.0000 0.15099  0.05101  0.85620  Biso   1.000  H
  H1230    1.0000 0.08122  0.78140  0.89190  Biso   1.000  H
  C1200    1.0000 0.08031  0.82381  0.90717  Biso   1.000  C
  C1201    1.0000 0.20347  0.97139  0.91100  Biso   1.000  C
  H1231    1.0000 0.28720  0.02600  0.89820  Biso   1.000  H
  C1202    1.0000 0.81191  0.93798  0.85661  Biso   1.000  C
  C1203    1.0000 0.96951  0.05961  0.85643  Biso   1.000  C
  C1204    1.0000 0.12611  0.18811  0.85661  Biso   1.000  C
  C1205    1.0000 0.00040  0.74013  0.91083  Biso   1.000  C
  C1206    1.0000 0.12600  0.89557  0.91438  Biso   1.000  C
  C1207    1.0000 0.12603  0.89563  0.91438  Biso   1.000  C
  C1208    1.0000 0.25149  0.04421  0.91897  Biso   1.000  C
  H1232    1.0000 0.79279  0.97932  0.85720  Biso   1.000  H
  N155     1.0000 0.75509  0.85702  0.85582  Biso   1.000  N
  H1233    1.0000 0.94900  0.10002  0.85620  Biso   1.000  H
  H1234    1.0000 0.18646  0.20718  0.85720  Biso   1.000  H
  N156     1.0000 0.10190  0.24492  0.85582  Biso   1.000  N
  H1235    1.0000 0.96739  0.69812  0.90550  Biso   1.000  H
  N157     1.0000 0.97432  0.72179  0.92053  Biso   1.000  N
  H1236    1.0000 0.10429  0.89257  0.92150  Biso   1.000  H
  H1237    1.0000 0.10432  0.89263  0.92150  Biso   1.000  H
  H1238    1.0000 0.22799  0.03740  0.92600  Biso   1.000  H
  N158     1.0000 0.32231  0.11482  0.91675  Biso   1.000  N
  C1209    1.0000 0.66100  0.83228  0.85585  Biso   1.000  C
  C1210    1.0000 0.17130  0.33902  0.85585  Biso   1.000  C
  C1211    1.0000 0.89957  0.63410  0.92254  Biso   1.000  C
  C1212    1.0000 0.36237  0.17957  0.92555  Biso   1.000  C
  C1213    1.0000 0.61547  0.76560  0.86498  Biso   1.000  C
  C1214    1.0000 0.61981  0.79067  0.84483  Biso   1.000  C
  H1239    1.0000 0.65551  0.88516  0.85710  Biso   1.000  H
  H1240    1.0000 0.65554  0.88523  0.85710  Biso   1.000  H
  C1215    1.0000 0.15009  0.38449  0.86498  Biso   1.000  C
  C1216    1.0000 0.17094  0.38023  0.84483  Biso   1.000  C
  H1241    1.0000 0.22970  0.34448  0.85710  Biso   1.000  H
  H1242    1.0000 0.88758  0.59822  0.91590  Biso   1.000  H
  C1217    1.0000 0.92351  0.58922  0.93201  Biso   1.000  C
  C1218    1.0000 0.81717  0.63757  0.92555  Biso   1.000  C
  C1219    1.0000 0.81720  0.63763  0.92555  Biso   1.000  C
  C1220    1.0000 0.36587  0.26546  0.92254  Biso   1.000  C
  C1221    1.0000 0.45678  0.19538  0.92800  Biso   1.000  C
  H1243    1.0000 0.32579  0.15550  0.93220  Biso   1.000  H
  C1222    1.0000 0.36590  0.26553  0.92254  Biso   1.000  C
  H1244    1.0000 0.62699  0.71599  0.86400  Biso   1.000  H
  C1223    1.0000 0.51500  0.72912  0.86481  Biso   1.000  C
  N159     1.0000 0.64910  0.80641  0.87569  Biso   1.000  N
  C1224    1.0000 0.51960  0.75426  0.84459  Biso   1.000  C
  H1245    1.0000 0.63158  0.74259  0.84330  Biso   1.000  H
  H1246    1.0000 0.64768  0.83508  0.83910  Biso   1.000  H
  C1225    1.0000 0.51963  0.75433  0.84459  Biso   1.000  C
  H1247    1.0000 0.08903  0.37302  0.86400  Biso   1.000  H
  C1226    1.0000 0.21408  0.48499  0.86481  Biso   1.000  C
  N160     1.0000 0.15731  0.35088  0.87569  Biso   1.000  N
  C1227    1.0000 0.23471  0.48039  0.84459  Biso   1.000  C
  H1248    1.0000 0.11098  0.36842  0.84330  Biso   1.000  H
  H1249    1.0000 0.18740  0.35229  0.83910  Biso   1.000  H
  H1250    1.0000 0.97592  0.58582  0.93000  Biso   1.000  H
  H1251    1.0000 0.93717  0.62510  0.93860  Biso   1.000  H
  C1228    1.0000 0.84670  0.49660  0.93424  Biso   1.000  C
  C1229    1.0000 0.73863  0.54321  0.92800  Biso   1.000  C
  H1252    1.0000 0.82970  0.67418  0.93220  Biso   1.000  H
  N161     1.0000 0.79248  0.67771  0.91675  Biso   1.000  N
  H1253    1.0000 0.40180  0.28940  0.91590  Biso   1.000  H
  C1230    1.0000 0.41079  0.33428  0.93201  Biso   1.000  C
  N162     1.0000 0.27820  0.25253  0.92053  Biso   1.000  N
  C1231    1.0000 0.49989  0.26346  0.93715  Biso   1.000  C
  H1254    1.0000 0.45290  0.13956  0.93020  Biso   1.000  H
  H1255    1.0000 0.49309  0.21672  0.92140  Biso   1.000  H
  C1232    1.0000 0.49992  0.26353  0.93715  Biso   1.000  C
  H1256    1.0000 0.45293  0.13963  0.93020  Biso   1.000  H
  H1257    1.0000 0.48679  0.68391  0.87050  Biso   1.000  H
  H1258    1.0000 0.50280  0.77680  0.86640  Biso   1.000  H
  C1233    1.0000 0.47639  0.68898  0.85372  Biso   1.000  C
  C1234    1.0000 0.68296  0.77467  0.88211  Biso   1.000  C
  H1259    1.0000 0.50741  0.80288  0.84540  Biso   1.000  H
  H1260    1.0000 0.49540  0.72539  0.83760  Biso   1.000  H
  H1261    1.0000 0.19711  0.51319  0.87050  Biso   1.000  H
  H1262    1.0000 0.27400  0.49719  0.86640  Biso   1.000  H
  C1235    1.0000 0.21260  0.52360  0.85372  Biso   1.000  C
  C1236    1.0000 0.09169  0.31701  0.88211  Biso   1.000  C
  H1263    1.0000 0.29550  0.49259  0.84540  Biso   1.000  H
  H1264    1.0000 0.23000  0.50459  0.83760  Biso   1.000  H
  H1265    1.0000 0.86210  0.46999  0.94030  Biso   1.000  H
  H1266    1.0000 0.83548  0.45959  0.92780  Biso   1.000  H
  C1237    1.0000 0.76360  0.50006  0.93715  Biso   1.000  C
  C1238    1.0000 0.76364  0.50013  0.93715  Biso   1.000  C
  H1267    1.0000 0.68668  0.54708  0.93020  Biso   1.000  H
  H1268    1.0000 0.72358  0.50687  0.92140  Biso   1.000  H
  H1269    1.0000 0.72361  0.50693  0.92140  Biso   1.000  H
  C1239    1.0000 0.79269  0.74846  0.91897  Biso   1.000  C
  C1240    1.0000 0.79272  0.74853  0.91897  Biso   1.000  C
  H1270    1.0000 0.41421  0.39010  0.93000  Biso   1.000  H
  H1271    1.0000 0.37491  0.31207  0.93860  Biso   1.000  H
  C1241    1.0000 0.50341  0.35008  0.93424  Biso   1.000  C
  C1242    1.0000 0.25990  0.26026  0.91083  Biso   1.000  C
  C1243    1.0000 0.25993  0.26033  0.91083  Biso   1.000  C
  H1272    1.0000 0.46623  0.23992  0.94390  Biso   1.000  H
  H1273    1.0000 0.55991  0.27460  0.93840  Biso   1.000  H
  H1274    1.0000 0.48411  0.63790  0.85250  Biso   1.000  H
  H1275    1.0000 0.41288  0.66811  0.85370  Biso   1.000  H
  C1244    1.0000 0.71427  0.80888  0.89306  Biso   1.000  C
  H1276    1.0000 0.68831  0.72659  0.87970  Biso   1.000  H
  H1277    1.0000 0.15381  0.51586  0.85250  Biso   1.000  H
  H1278    1.0000 0.25519  0.58708  0.85370  Biso   1.000  H
  H1279    1.0000 0.15384  0.51593  0.85250  Biso   1.000  H
  C1245    1.0000 0.09461  0.28567  0.89306  Biso   1.000  C
  H1280    1.0000 0.03832  0.31167  0.87970  Biso   1.000  H
  H1281    1.0000 0.77372  0.53381  0.94390  Biso   1.000  H
  H1282    1.0000 0.71469  0.44011  0.93840  Biso   1.000  H
  H1283    1.0000 0.80942  0.77200  0.92600  Biso   1.000  H
  C1246    1.0000 0.76790  0.79647  0.91100  Biso   1.000  C
  H1284    1.0000 0.53002  0.39210  0.94030  Biso   1.000  H
  H1285    1.0000 0.54039  0.37589  0.92780  Biso   1.000  H
  C1247    1.0000 0.17616  0.25646  0.90717  Biso   1.000  C
  H1286    1.0000 0.30188  0.26926  0.90550  Biso   1.000  H
  C1248    1.0000 0.17620  0.25653  0.90717  Biso   1.000  C
  H1287    1.0000 0.30191  0.26933  0.90550  Biso   1.000  H
  C1249    1.0000 0.74010  0.76480  0.90040  Biso   1.000  C
  C1250    1.0000 0.71688  0.88790  0.89673  Biso   1.000  C
  C1251    1.0000 0.02465  0.25986  0.90040  Biso   1.000  C
  C1252    1.0000 0.17099  0.28307  0.89673  Biso   1.000  C
  C1253    1.0000 0.02469  0.25993  0.90040  Biso   1.000  C
  C1254    1.0000 0.76956  0.87396  0.91438  Biso   1.000  C
  C1255    1.0000 0.76960  0.87403  0.91438  Biso   1.000  C
  C1256    1.0000 0.10439  0.23039  0.91438  Biso   1.000  C
  H1288    1.0000 0.73881  0.71279  0.89820  Biso   1.000  H
  H1289    1.0000 0.70020  0.91877  0.89190  Biso   1.000  H
  C1257    1.0000 0.74352  0.91971  0.90717  Biso   1.000  C
  H1290    1.0000 0.97398  0.26119  0.89820  Biso   1.000  H
  C1258    1.0000 0.02863  0.23212  0.91100  Biso   1.000  C
  H1291    1.0000 0.21863  0.29980  0.89190  Biso   1.000  H
  H1292    1.0000 0.78829  0.89570  0.92150  Biso   1.000  H
  H1293    1.0000 0.10742  0.21172  0.92150  Biso   1.000  H
  C1259    1.0000 0.73969  0.99959  0.91083  Biso   1.000  C
  C1260    1.0000 0.95582  0.20731  0.91897  Biso   1.000  C
  H1294    1.0000 0.73073  0.03260  0.90550  Biso   1.000  H
  N163     1.0000 0.74747  0.02567  0.92053  Biso   1.000  N
  H1295    1.0000 0.96258  0.19058  0.92600  Biso   1.000  H
  N164     1.0000 0.88523  0.20751  0.91675  Biso   1.000  N
  C1261    1.0000 0.73449  0.10042  0.92254  Biso   1.000  C
  C1262    1.0000 0.82037  0.18277  0.92555  Biso   1.000  C
  H1296    1.0000 0.71064  0.11242  0.91590  Biso   1.000  H
  C1263    1.0000 0.66569  0.07648  0.93201  Biso   1.000  C
  C1264    1.0000 0.80458  0.26139  0.92800  Biso   1.000  C
  H1297    1.0000 0.84451  0.17030  0.93220  Biso   1.000  H
  H1298    1.0000 0.60986  0.02407  0.93000  Biso   1.000  H
  H1299    1.0000 0.68791  0.06281  0.93860  Biso   1.000  H
  C1265    1.0000 0.64988  0.15330  0.93424  Biso   1.000  C
  H1300    1.0000 0.60990  0.02413  0.93000  Biso   1.000  H
  C1266    1.0000 0.73647  0.23639  0.93715  Biso   1.000  C
  H1301    1.0000 0.86038  0.31328  0.93020  Biso   1.000  H
  H1302    1.0000 0.78333  0.27640  0.92140  Biso   1.000  H
  H1303    1.0000 0.60787  0.13790  0.94030  Biso   1.000  H
  H1304    1.0000 0.62412  0.16450  0.92780  Biso   1.000  H
  H1305    1.0000 0.76013  0.22632  0.94390  Biso   1.000  H
  H1306    1.0000 0.72539  0.28527  0.93840  Biso   1.000  H
  C1267    1.0000 0.24574  0.76533  0.84459  Biso   1.000  C
  C1268    1.0000 0.20930  0.82908  0.84483  Biso   1.000  C
  C1269    1.0000 0.31100  0.78740  0.85372  Biso   1.000  C
  H1307    1.0000 0.19708  0.70452  0.84540  Biso   1.000  H
  H1308    1.0000 0.27458  0.77000  0.83760  Biso   1.000  H
  H1309    1.0000 0.16491  0.81261  0.83910  Biso   1.000  H
  C1270    1.0000 0.16769  0.82868  0.85585  Biso   1.000  C
  C1271    1.0000 0.24571  0.76527  0.84459  Biso   1.000  C
  H1310    1.0000 0.25737  0.88896  0.84330  Biso   1.000  H
  H1311    1.0000 0.25741  0.88903  0.84330  Biso   1.000  H
  C1272    1.0000 0.27091  0.78587  0.86481  Biso   1.000  C
  H1312    1.0000 0.36213  0.84622  0.85250  Biso   1.000  H
  H1313    1.0000 0.33191  0.74479  0.85370  Biso   1.000  H
  C1273    1.0000 0.23437  0.84989  0.86498  Biso   1.000  C
  H1314    1.0000 0.11481  0.77027  0.85710  Biso   1.000  H
  N165     1.0000 0.14297  0.89810  0.85582  Biso   1.000  N
  H1315    1.0000 0.31608  0.80288  0.87050  Biso   1.000  H
  H1316    1.0000 0.22318  0.72599  0.86640  Biso   1.000  H
  H1317    1.0000 0.28397  0.91097  0.86400  Biso   1.000  H
  N166     1.0000 0.19358  0.84269  0.87569  Biso   1.000  N
  C1274    1.0000 0.06198  0.87389  0.85661  Biso   1.000  C
  C1275    1.0000 0.22529  0.90830  0.88211  Biso   1.000  C
  H1318    1.0000 0.02068  0.81348  0.85720  Biso   1.000  H
  C1276    1.0000 0.02991  0.93958  0.85658  Biso   1.000  C
  C1277    1.0000 0.19108  0.90537  0.89306  Biso   1.000  C
  H1319    1.0000 0.27342  0.96172  0.87970  Biso   1.000  H
  C1278    1.0000 0.94040  0.90990  0.85643  Biso   1.000  C
  C1279    1.0000 0.09008  0.03047  0.85643  Biso   1.000  C
  C1280    1.0000 0.11213  0.82902  0.89673  Biso   1.000  C
  C1281    1.0000 0.23523  0.97532  0.90040  Biso   1.000  C
  C1282    1.0000 0.90970  0.97012  0.85658  Biso   1.000  C
  H1320    1.0000 0.90002  0.84902  0.85620  Biso   1.000  H
  C1283    1.0000 0.06039  0.09028  0.85658  Biso   1.000  C
  H1321    1.0000 0.15099  0.05101  0.85620  Biso   1.000  H
  H1322    1.0000 0.08122  0.78140  0.89190  Biso   1.000  H
  C1284    1.0000 0.08031  0.82381  0.90717  Biso   1.000  C
  C1285    1.0000 0.20347  0.97139  0.91100  Biso   1.000  C
  H1323    1.0000 0.28720  0.02600  0.89820  Biso   1.000  H
  C1286    1.0000 0.81191  0.93798  0.85661  Biso   1.000  C
  C1287    1.0000 0.96951  0.05961  0.85643  Biso   1.000  C
  C1288    1.0000 0.12611  0.18811  0.85661  Biso   1.000  C
  C1289    1.0000 0.00040  0.74013  0.91083  Biso   1.000  C
  C1290    1.0000 0.12600  0.89557  0.91438  Biso   1.000  C
  C1291    1.0000 0.12603  0.89563  0.91438  Biso   1.000  C
  C1292    1.0000 0.25149  0.04421  0.91897  Biso   1.000  C
  H1324    1.0000 0.79279  0.97932  0.85720  Biso   1.000  H
  N167     1.0000 0.75509  0.85702  0.85582  Biso   1.000  N
  H1325    1.0000 0.94900  0.10002  0.85620  Biso   1.000  H
  H1326    1.0000 0.18646  0.20718  0.85720  Biso   1.000  H
  N168     1.0000 0.10190  0.24492  0.85582  Biso   1.000  N
  H1327    1.0000 0.96739  0.69812  0.90550  Biso   1.000  H
  N169     1.0000 0.97432  0.72179  0.92053  Biso   1.000  N
  H1328    1.0000 0.10429  0.89257  0.92150  Biso   1.000  H
  H1329    1.0000 0.10432  0.89263  0.92150  Biso   1.000  H
  H1330    1.0000 0.22799  0.03740  0.92600  Biso   1.000  H
  N170     1.0000 0.32231  0.11482  0.91675  Biso   1.000  N
  C1293    1.0000 0.66100  0.83228  0.85585  Biso   1.000  C
  C1294    1.0000 0.17130  0.33902  0.85585  Biso   1.000  C
  C1295    1.0000 0.89957  0.63410  0.92254  Biso   1.000  C
  C1296    1.0000 0.36237  0.17957  0.92555  Biso   1.000  C
  C1297    1.0000 0.61547  0.76560  0.86498  Biso   1.000  C
  C1298    1.0000 0.61981  0.79067  0.84483  Biso   1.000  C
  H1331    1.0000 0.65551  0.88516  0.85710  Biso   1.000  H
  H1332    1.0000 0.65554  0.88523  0.85710  Biso   1.000  H
  C1299    1.0000 0.15009  0.38449  0.86498  Biso   1.000  C
  C1300    1.0000 0.17094  0.38023  0.84483  Biso   1.000  C
  H1333    1.0000 0.22970  0.34448  0.85710  Biso   1.000  H
  H1334    1.0000 0.88758  0.59822  0.91590  Biso   1.000  H
  C1301    1.0000 0.92351  0.58922  0.93201  Biso   1.000  C
  C1302    1.0000 0.81717  0.63757  0.92555  Biso   1.000  C
  C1303    1.0000 0.81720  0.63763  0.92555  Biso   1.000  C
  C1304    1.0000 0.36587  0.26546  0.92254  Biso   1.000  C
  C1305    1.0000 0.45678  0.19538  0.92800  Biso   1.000  C
  H1335    1.0000 0.32579  0.15550  0.93220  Biso   1.000  H
  C1306    1.0000 0.36590  0.26553  0.92254  Biso   1.000  C
  H1336    1.0000 0.62699  0.71599  0.86400  Biso   1.000  H
  C1307    1.0000 0.51500  0.72912  0.86481  Biso   1.000  C
  N171     1.0000 0.64910  0.80641  0.87569  Biso   1.000  N
  C1308    1.0000 0.51960  0.75426  0.84459  Biso   1.000  C
  H1337    1.0000 0.63158  0.74259  0.84330  Biso   1.000  H
  H1338    1.0000 0.64768  0.83508  0.83910  Biso   1.000  H
  C1309    1.0000 0.51963  0.75433  0.84459  Biso   1.000  C
  H1339    1.0000 0.08903  0.37302  0.86400  Biso   1.000  H
  C1310    1.0000 0.21408  0.48499  0.86481  Biso   1.000  C
  N172     1.0000 0.15731  0.35088  0.87569  Biso   1.000  N
  C1311    1.0000 0.23471  0.48039  0.84459  Biso   1.000  C
  H1340    1.0000 0.11098  0.36842  0.84330  Biso   1.000  H
  H1341    1.0000 0.18740  0.35229  0.83910  Biso   1.000  H
  H1342    1.0000 0.97592  0.58582  0.93000  Biso   1.000  H
  H1343    1.0000 0.93717  0.62510  0.93860  Biso   1.000  H
  C1312    1.0000 0.84670  0.49660  0.93424  Biso   1.000  C
  C1313    1.0000 0.73863  0.54321  0.92800  Biso   1.000  C
  H1344    1.0000 0.82970  0.67418  0.93220  Biso   1.000  H
  N173     1.0000 0.79248  0.67771  0.91675  Biso   1.000  N
  H1345    1.0000 0.40180  0.28940  0.91590  Biso   1.000  H
  C1314    1.0000 0.41079  0.33428  0.93201  Biso   1.000  C
  N174     1.0000 0.27820  0.25253  0.92053  Biso   1.000  N
  C1315    1.0000 0.49989  0.26346  0.93715  Biso   1.000  C
  H1346    1.0000 0.45290  0.13956  0.93020  Biso   1.000  H
  H1347    1.0000 0.49309  0.21672  0.92140  Biso   1.000  H
  C1316    1.0000 0.49992  0.26353  0.93715  Biso   1.000  C
  H1348    1.0000 0.45293  0.13963  0.93020  Biso   1.000  H
  H1349    1.0000 0.48679  0.68391  0.87050  Biso   1.000  H
  H1350    1.0000 0.50280  0.77680  0.86640  Biso   1.000  H
  C1317    1.0000 0.47639  0.68898  0.85372  Biso   1.000  C
  C1318    1.0000 0.68296  0.77467  0.88211  Biso   1.000  C
  H1351    1.0000 0.50741  0.80288  0.84540  Biso   1.000  H
  H1352    1.0000 0.49540  0.72539  0.83760  Biso   1.000  H
  H1353    1.0000 0.19711  0.51319  0.87050  Biso   1.000  H
  H1354    1.0000 0.27400  0.49719  0.86640  Biso   1.000  H
  C1319    1.0000 0.21260  0.52360  0.85372  Biso   1.000  C
  C1320    1.0000 0.09169  0.31701  0.88211  Biso   1.000  C
  H1355    1.0000 0.29550  0.49259  0.84540  Biso   1.000  H
  H1356    1.0000 0.23000  0.50459  0.83760  Biso   1.000  H
  H1357    1.0000 0.86210  0.46999  0.94030  Biso   1.000  H
  H1358    1.0000 0.83548  0.45959  0.92780  Biso   1.000  H
  C1321    1.0000 0.76360  0.50006  0.93715  Biso   1.000  C
  C1322    1.0000 0.76364  0.50013  0.93715  Biso   1.000  C
  H1359    1.0000 0.68668  0.54708  0.93020  Biso   1.000  H
  H1360    1.0000 0.72358  0.50687  0.92140  Biso   1.000  H
  H1361    1.0000 0.72361  0.50693  0.92140  Biso   1.000  H
  C1323    1.0000 0.79269  0.74846  0.91897  Biso   1.000  C
  C1324    1.0000 0.79272  0.74853  0.91897  Biso   1.000  C
  H1362    1.0000 0.41421  0.39010  0.93000  Biso   1.000  H
  H1363    1.0000 0.37491  0.31207  0.93860  Biso   1.000  H
  C1325    1.0000 0.50341  0.35008  0.93424  Biso   1.000  C
  C1326    1.0000 0.25990  0.26026  0.91083  Biso   1.000  C
  C1327    1.0000 0.25993  0.26033  0.91083  Biso   1.000  C
  H1364    1.0000 0.46623  0.23992  0.94390  Biso   1.000  H
  H1365    1.0000 0.55991  0.27460  0.93840  Biso   1.000  H
  H1366    1.0000 0.48411  0.63790  0.85250  Biso   1.000  H
  H1367    1.0000 0.41288  0.66811  0.85370  Biso   1.000  H
  C1328    1.0000 0.71427  0.80888  0.89306  Biso   1.000  C
  H1368    1.0000 0.68831  0.72659  0.87970  Biso   1.000  H
  H1369    1.0000 0.15381  0.51586  0.85250  Biso   1.000  H
  H1370    1.0000 0.25519  0.58708  0.85370  Biso   1.000  H
  H1371    1.0000 0.15384  0.51593  0.85250  Biso   1.000  H
  C1329    1.0000 0.09461  0.28567  0.89306  Biso   1.000  C
  H1372    1.0000 0.03832  0.31167  0.87970  Biso   1.000  H
  H1373    1.0000 0.77372  0.53381  0.94390  Biso   1.000  H
  H1374    1.0000 0.71469  0.44011  0.93840  Biso   1.000  H
  H1375    1.0000 0.80942  0.77200  0.92600  Biso   1.000  H
  C1330    1.0000 0.76790  0.79647  0.91100  Biso   1.000  C
  H1376    1.0000 0.53002  0.39210  0.94030  Biso   1.000  H
  H1377    1.0000 0.54039  0.37589  0.92780  Biso   1.000  H
  C1331    1.0000 0.17616  0.25646  0.90717  Biso   1.000  C
  H1378    1.0000 0.30188  0.26926  0.90550  Biso   1.000  H
  C1332    1.0000 0.17620  0.25653  0.90717  Biso   1.000  C
  H1379    1.0000 0.30191  0.26933  0.90550  Biso   1.000  H
  C1333    1.0000 0.74010  0.76480  0.90040  Biso   1.000  C
  C1334    1.0000 0.71688  0.88790  0.89673  Biso   1.000  C
  C1335    1.0000 0.02465  0.25986  0.90040  Biso   1.000  C
  C1336    1.0000 0.17099  0.28307  0.89673  Biso   1.000  C
  C1337    1.0000 0.02469  0.25993  0.90040  Biso   1.000  C
  C1338    1.0000 0.76956  0.87396  0.91438  Biso   1.000  C
  C1339    1.0000 0.76960  0.87403  0.91438  Biso   1.000  C
  C1340    1.0000 0.10439  0.23039  0.91438  Biso   1.000  C
  H1380    1.0000 0.73881  0.71279  0.89820  Biso   1.000  H
  H1381    1.0000 0.70020  0.91877  0.89190  Biso   1.000  H
  C1341    1.0000 0.74352  0.91971  0.90717  Biso   1.000  C
  H1382    1.0000 0.97398  0.26119  0.89820  Biso   1.000  H
  C1342    1.0000 0.02863  0.23212  0.91100  Biso   1.000  C
  H1383    1.0000 0.21863  0.29980  0.89190  Biso   1.000  H
  H1384    1.0000 0.78829  0.89570  0.92150  Biso   1.000  H
  H1385    1.0000 0.10742  0.21172  0.92150  Biso   1.000  H
  C1343    1.0000 0.73969  0.99959  0.91083  Biso   1.000  C
  C1344    1.0000 0.95582  0.20731  0.91897  Biso   1.000  C
  H1386    1.0000 0.73073  0.03260  0.90550  Biso   1.000  H
  N175     1.0000 0.74747  0.02567  0.92053  Biso   1.000  N
  H1387    1.0000 0.96258  0.19058  0.92600  Biso   1.000  H
  N176     1.0000 0.88523  0.20751  0.91675  Biso   1.000  N
  C1345    1.0000 0.73449  0.10042  0.92254  Biso   1.000  C
  C1346    1.0000 0.82037  0.18277  0.92555  Biso   1.000  C
  H1388    1.0000 0.71064  0.11242  0.91590  Biso   1.000  H
  C1347    1.0000 0.66569  0.07648  0.93201  Biso   1.000  C
  C1348    1.0000 0.80458  0.26139  0.92800  Biso   1.000  C
  H1389    1.0000 0.84451  0.17030  0.93220  Biso   1.000  H
  H1390    1.0000 0.60986  0.02407  0.93000  Biso   1.000  H
  H1391    1.0000 0.68791  0.06281  0.93860  Biso   1.000  H
  C1349    1.0000 0.64988  0.15330  0.93424  Biso   1.000  C
  H1392    1.0000 0.60990  0.02413  0.93000  Biso   1.000  H
  C1350    1.0000 0.73647  0.23639  0.93715  Biso   1.000  C
  H1393    1.0000 0.86038  0.31328  0.93020  Biso   1.000  H
  H1394    1.0000 0.78333  0.27640  0.92140  Biso   1.000  H
  H1395    1.0000 0.60787  0.13790  0.94030  Biso   1.000  H
  H1396    1.0000 0.62412  0.16450  0.92780  Biso   1.000  H
  H1397    1.0000 0.76013  0.22632  0.94390  Biso   1.000  H
  H1398    1.0000 0.72539  0.28527  0.93840  Biso   1.000  H
  C1351    1.0000 0.24574  0.76533  0.84459  Biso   1.000  C
  C1352    1.0000 0.20930  0.82908  0.84483  Biso   1.000  C
  C1353    1.0000 0.31100  0.78740  0.85372  Biso   1.000  C
  H1399    1.0000 0.19708  0.70452  0.84540  Biso   1.000  H
  H1400    1.0000 0.27458  0.77000  0.83760  Biso   1.000  H
  H1401    1.0000 0.16491  0.81261  0.83910  Biso   1.000  H
  C1354    1.0000 0.16769  0.82868  0.85585  Biso   1.000  C
  C1355    1.0000 0.24571  0.76527  0.84459  Biso   1.000  C
  H1402    1.0000 0.25737  0.88896  0.84330  Biso   1.000  H
  H1403    1.0000 0.25741  0.88903  0.84330  Biso   1.000  H
  C1356    1.0000 0.27091  0.78587  0.86481  Biso   1.000  C
  H1404    1.0000 0.36213  0.84622  0.85250  Biso   1.000  H
  H1405    1.0000 0.33191  0.74479  0.85370  Biso   1.000  H
  C1357    1.0000 0.23437  0.84989  0.86498  Biso   1.000  C
  H1406    1.0000 0.11481  0.77027  0.85710  Biso   1.000  H
  N177     1.0000 0.14297  0.89810  0.85582  Biso   1.000  N
  H1407    1.0000 0.31608  0.80288  0.87050  Biso   1.000  H
  H1408    1.0000 0.22318  0.72599  0.86640  Biso   1.000  H
  H1409    1.0000 0.28397  0.91097  0.86400  Biso   1.000  H
  N178     1.0000 0.19358  0.84269  0.87569  Biso   1.000  N
  C1358    1.0000 0.06198  0.87389  0.85661  Biso   1.000  C
  C1359    1.0000 0.22529  0.90830  0.88211  Biso   1.000  C
  H1410    1.0000 0.02068  0.81348  0.85720  Biso   1.000  H
  C1360    1.0000 0.02991  0.93958  0.85658  Biso   1.000  C
  C1361    1.0000 0.19108  0.90537  0.89306  Biso   1.000  C
  H1411    1.0000 0.27342  0.96172  0.87970  Biso   1.000  H
  C1362    1.0000 0.94040  0.90990  0.85643  Biso   1.000  C
  C1363    1.0000 0.09008  0.03047  0.85643  Biso   1.000  C
  C1364    1.0000 0.11213  0.82902  0.89673  Biso   1.000  C
  C1365    1.0000 0.23523  0.97532  0.90040  Biso   1.000  C
  C1366    1.0000 0.90970  0.97012  0.85658  Biso   1.000  C
  H1412    1.0000 0.90002  0.84902  0.85620  Biso   1.000  H
  C1367    1.0000 0.06039  0.09028  0.85658  Biso   1.000  C
  H1413    1.0000 0.15099  0.05101  0.85620  Biso   1.000  H
  H1414    1.0000 0.08122  0.78140  0.89190  Biso   1.000  H
  C1368    1.0000 0.08031  0.82381  0.90717  Biso   1.000  C
  C1369    1.0000 0.20347  0.97139  0.91100  Biso   1.000  C
  H1415    1.0000 0.28720  0.02600  0.89820  Biso   1.000  H
  C1370    1.0000 0.81191  0.93798  0.85661  Biso   1.000  C
  C1371    1.0000 0.96951  0.05961  0.85643  Biso   1.000  C
  C1372    1.0000 0.12611  0.18811  0.85661  Biso   1.000  C
  C1373    1.0000 0.00040  0.74013  0.91083  Biso   1.000  C
  C1374    1.0000 0.12600  0.89557  0.91438  Biso   1.000  C
  C1375    1.0000 0.12603  0.89563  0.91438  Biso   1.000  C
  C1376    1.0000 0.25149  0.04421  0.91897  Biso   1.000  C
  H1416    1.0000 0.79279  0.97932  0.85720  Biso   1.000  H
  N179     1.0000 0.75509  0.85702  0.85582  Biso   1.000  N
  H1417    1.0000 0.94900  0.10002  0.85620  Biso   1.000  H
  H1418    1.0000 0.18646  0.20718  0.85720  Biso   1.000  H
  N180     1.0000 0.10190  0.24492  0.85582  Biso   1.000  N
  H1419    1.0000 0.96739  0.69812  0.90550  Biso   1.000  H
  N181     1.0000 0.97432  0.72179  0.92053  Biso   1.000  N
  H1420    1.0000 0.10429  0.89257  0.92150  Biso   1.000  H
  H1421    1.0000 0.10432  0.89263  0.92150  Biso   1.000  H
  H1422    1.0000 0.22799  0.03740  0.92600  Biso   1.000  H
  N182     1.0000 0.32231  0.11482  0.91675  Biso   1.000  N
  C1377    1.0000 0.66100  0.83228  0.85585  Biso   1.000  C
  C1378    1.0000 0.17130  0.33902  0.85585  Biso   1.000  C
  C1379    1.0000 0.89957  0.63410  0.92254  Biso   1.000  C
  C1380    1.0000 0.36237  0.17957  0.92555  Biso   1.000  C
  C1381    1.0000 0.61547  0.76560  0.86498  Biso   1.000  C
  C1382    1.0000 0.61981  0.79067  0.84483  Biso   1.000  C
  H1423    1.0000 0.65551  0.88516  0.85710  Biso   1.000  H
  H1424    1.0000 0.65554  0.88523  0.85710  Biso   1.000  H
  C1383    1.0000 0.15009  0.38449  0.86498  Biso   1.000  C
  C1384    1.0000 0.17094  0.38023  0.84483  Biso   1.000  C
  H1425    1.0000 0.22970  0.34448  0.85710  Biso   1.000  H
  H1426    1.0000 0.88758  0.59822  0.91590  Biso   1.000  H
  C1385    1.0000 0.92351  0.58922  0.93201  Biso   1.000  C
  C1386    1.0000 0.81717  0.63757  0.92555  Biso   1.000  C
  C1387    1.0000 0.81720  0.63763  0.92555  Biso   1.000  C
  C1388    1.0000 0.36587  0.26546  0.92254  Biso   1.000  C
  C1389    1.0000 0.45678  0.19538  0.92800  Biso   1.000  C
  H1427    1.0000 0.32579  0.15550  0.93220  Biso   1.000  H
  C1390    1.0000 0.36590  0.26553  0.92254  Biso   1.000  C
  H1428    1.0000 0.62699  0.71599  0.86400  Biso   1.000  H
  C1391    1.0000 0.51500  0.72912  0.86481  Biso   1.000  C
  N183     1.0000 0.64910  0.80641  0.87569  Biso   1.000  N
  C1392    1.0000 0.51960  0.75426  0.84459  Biso   1.000  C
  H1429    1.0000 0.63158  0.74259  0.84330  Biso   1.000  H
  H1430    1.0000 0.64768  0.83508  0.83910  Biso   1.000  H
  C1393    1.0000 0.51963  0.75433  0.84459  Biso   1.000  C
  H1431    1.0000 0.08903  0.37302  0.86400  Biso   1.000  H
  C1394    1.0000 0.21408  0.48499  0.86481  Biso   1.000  C
  N184     1.0000 0.15731  0.35088  0.87569  Biso   1.000  N
  C1395    1.0000 0.23471  0.48039  0.84459  Biso   1.000  C
  H1432    1.0000 0.11098  0.36842  0.84330  Biso   1.000  H
  H1433    1.0000 0.18740  0.35229  0.83910  Biso   1.000  H
  H1434    1.0000 0.97592  0.58582  0.93000  Biso   1.000  H
  H1435    1.0000 0.93717  0.62510  0.93860  Biso   1.000  H
  C1396    1.0000 0.84670  0.49660  0.93424  Biso   1.000  C
  C1397    1.0000 0.73863  0.54321  0.92800  Biso   1.000  C
  H1436    1.0000 0.82970  0.67418  0.93220  Biso   1.000  H
  N185     1.0000 0.79248  0.67771  0.91675  Biso   1.000  N
  H1437    1.0000 0.40180  0.28940  0.91590  Biso   1.000  H
  C1398    1.0000 0.41079  0.33428  0.93201  Biso   1.000  C
  N186     1.0000 0.27820  0.25253  0.92053  Biso   1.000  N
  C1399    1.0000 0.49989  0.26346  0.93715  Biso   1.000  C
  H1438    1.0000 0.45290  0.13956  0.93020  Biso   1.000  H
  H1439    1.0000 0.49309  0.21672  0.92140  Biso   1.000  H
  C1400    1.0000 0.49992  0.26353  0.93715  Biso   1.000  C
  H1440    1.0000 0.45293  0.13963  0.93020  Biso   1.000  H
  H1441    1.0000 0.48679  0.68391  0.87050  Biso   1.000  H
  H1442    1.0000 0.50280  0.77680  0.86640  Biso   1.000  H
  C1401    1.0000 0.47639  0.68898  0.85372  Biso   1.000  C
  C1402    1.0000 0.68296  0.77467  0.88211  Biso   1.000  C
  H1443    1.0000 0.50741  0.80288  0.84540  Biso   1.000  H
  H1444    1.0000 0.49540  0.72539  0.83760  Biso   1.000  H
  H1445    1.0000 0.19711  0.51319  0.87050  Biso   1.000  H
  H1446    1.0000 0.27400  0.49719  0.86640  Biso   1.000  H
  C1403    1.0000 0.21260  0.52360  0.85372  Biso   1.000  C
  C1404    1.0000 0.09169  0.31701  0.88211  Biso   1.000  C
  H1447    1.0000 0.29550  0.49259  0.84540  Biso   1.000  H
  H1448    1.0000 0.23000  0.50459  0.83760  Biso   1.000  H
  H1449    1.0000 0.86210  0.46999  0.94030  Biso   1.000  H
  H1450    1.0000 0.83548  0.45959  0.92780  Biso   1.000  H
  C1405    1.0000 0.76360  0.50006  0.93715  Biso   1.000  C
  C1406    1.0000 0.76364  0.50013  0.93715  Biso   1.000  C
  H1451    1.0000 0.68668  0.54708  0.93020  Biso   1.000  H
  H1452    1.0000 0.72358  0.50687  0.92140  Biso   1.000  H
  H1453    1.0000 0.72361  0.50693  0.92140  Biso   1.000  H
  C1407    1.0000 0.79269  0.74846  0.91897  Biso   1.000  C
  C1408    1.0000 0.79272  0.74853  0.91897  Biso   1.000  C
  H1454    1.0000 0.41421  0.39010  0.93000  Biso   1.000  H
  H1455    1.0000 0.37491  0.31207  0.93860  Biso   1.000  H
  C1409    1.0000 0.50341  0.35008  0.93424  Biso   1.000  C
  C1410    1.0000 0.25990  0.26026  0.91083  Biso   1.000  C
  C1411    1.0000 0.25993  0.26033  0.91083  Biso   1.000  C
  H1456    1.0000 0.46623  0.23992  0.94390  Biso   1.000  H
  H1457    1.0000 0.55991  0.27460  0.93840  Biso   1.000  H
  H1458    1.0000 0.48411  0.63790  0.85250  Biso   1.000  H
  H1459    1.0000 0.41288  0.66811  0.85370  Biso   1.000  H
  C1412    1.0000 0.71427  0.80888  0.89306  Biso   1.000  C
  H1460    1.0000 0.68831  0.72659  0.87970  Biso   1.000  H
  H1461    1.0000 0.15381  0.51586  0.85250  Biso   1.000  H
  H1462    1.0000 0.25519  0.58708  0.85370  Biso   1.000  H
  H1463    1.0000 0.15384  0.51593  0.85250  Biso   1.000  H
  C1413    1.0000 0.09461  0.28567  0.89306  Biso   1.000  C
  H1464    1.0000 0.03832  0.31167  0.87970  Biso   1.000  H
  H1465    1.0000 0.77372  0.53381  0.94390  Biso   1.000  H
  H1466    1.0000 0.71469  0.44011  0.93840  Biso   1.000  H
  H1467    1.0000 0.80942  0.77200  0.92600  Biso   1.000  H
  C1414    1.0000 0.76790  0.79647  0.91100  Biso   1.000  C
  H1468    1.0000 0.53002  0.39210  0.94030  Biso   1.000  H
  H1469    1.0000 0.54039  0.37589  0.92780  Biso   1.000  H
  C1415    1.0000 0.17616  0.25646  0.90717  Biso   1.000  C
  H1470    1.0000 0.30188  0.26926  0.90550  Biso   1.000  H
  C1416    1.0000 0.17620  0.25653  0.90717  Biso   1.000  C
  H1471    1.0000 0.30191  0.26933  0.90550  Biso   1.000  H
  C1417    1.0000 0.74010  0.76480  0.90040  Biso   1.000  C
  C1418    1.0000 0.71688  0.88790  0.89673  Biso   1.000  C
  C1419    1.0000 0.02465  0.25986  0.90040  Biso   1.000  C
  C1420    1.0000 0.17099  0.28307  0.89673  Biso   1.000  C
  C1421    1.0000 0.02469  0.25993  0.90040  Biso   1.000  C
  C1422    1.0000 0.76956  0.87396  0.91438  Biso   1.000  C
  C1423    1.0000 0.76960  0.87403  0.91438  Biso   1.000  C
  C1424    1.0000 0.10439  0.23039  0.91438  Biso   1.000  C
  H1472    1.0000 0.73881  0.71279  0.89820  Biso   1.000  H
  H1473    1.0000 0.70020  0.91877  0.89190  Biso   1.000  H
  C1425    1.0000 0.74352  0.91971  0.90717  Biso   1.000  C
  H1474    1.0000 0.97398  0.26119  0.89820  Biso   1.000  H
  C1426    1.0000 0.02863  0.23212  0.91100  Biso   1.000  C
  H1475    1.0000 0.21863  0.29980  0.89190  Biso   1.000  H
  H1476    1.0000 0.78829  0.89570  0.92150  Biso   1.000  H
  H1477    1.0000 0.10742  0.21172  0.92150  Biso   1.000  H
  C1427    1.0000 0.73969  0.99959  0.91083  Biso   1.000  C
  C1428    1.0000 0.95582  0.20731  0.91897  Biso   1.000  C
  H1478    1.0000 0.73073  0.03260  0.90550  Biso   1.000  H
  N187     1.0000 0.74747  0.02567  0.92053  Biso   1.000  N
  H1479    1.0000 0.96258  0.19058  0.92600  Biso   1.000  H
  N188     1.0000 0.88523  0.20751  0.91675  Biso   1.000  N
  C1429    1.0000 0.73449  0.10042  0.92254  Biso   1.000  C
  C1430    1.0000 0.82037  0.18277  0.92555  Biso   1.000  C
  H1480    1.0000 0.71064  0.11242  0.91590  Biso   1.000  H
  C1431    1.0000 0.66569  0.07648  0.93201  Biso   1.000  C
  C1432    1.0000 0.80458  0.26139  0.92800  Biso   1.000  C
  H1481    1.0000 0.84451  0.17030  0.93220  Biso   1.000  H
  H1482    1.0000 0.60986  0.02407  0.93000  Biso   1.000  H
  H1483    1.0000 0.68791  0.06281  0.93860  Biso   1.000  H
  C1433    1.0000 0.64988  0.15330  0.93424  Biso   1.000  C
  H1484    1.0000 0.60990  0.02413  0.93000  Biso   1.000  H
  C1434    1.0000 0.73647  0.23639  0.93715  Biso   1.000  C
  H1485    1.0000 0.86038  0.31328  0.93020  Biso   1.000  H
  H1486    1.0000 0.78333  0.27640  0.92140  Biso   1.000  H
  H1487    1.0000 0.60787  0.13790  0.94030  Biso   1.000  H
  H1488    1.0000 0.62412  0.16450  0.92780  Biso   1.000  H
  H1489    1.0000 0.76013  0.22632  0.94390  Biso   1.000  H
  H1490    1.0000 0.72539  0.28527  0.93840  Biso   1.000  H
  C1435    1.0000 0.50011  0.73653  0.43715  Biso   1.000  C
  C1436    1.0000 0.49658  0.64990  0.43424  Biso   1.000  C
  C1437    1.0000 0.54321  0.80461  0.42800  Biso   1.000  C
  H1491    1.0000 0.53376  0.76006  0.44390  Biso   1.000  H
  H1492    1.0000 0.44008  0.72539  0.43840  Biso   1.000  H
  H1493    1.0000 0.53380  0.76013  0.44390  Biso   1.000  H
  C1438    1.0000 0.58921  0.66571  0.43201  Biso   1.000  C
  H1494    1.0000 0.46998  0.60789  0.44030  Biso   1.000  H
  H1495    1.0000 0.45960  0.62410  0.42780  Biso   1.000  H
  C1439    1.0000 0.63763  0.82041  0.42555  Biso   1.000  C
  H1496    1.0000 0.54710  0.86042  0.43020  Biso   1.000  H
  H1497    1.0000 0.50690  0.78327  0.42140  Biso   1.000  H
  C1440    1.0000 0.63413  0.73452  0.42254  Biso   1.000  C
  H1498    1.0000 0.58578  0.60989  0.43000  Biso   1.000  H
  H1499    1.0000 0.62508  0.68791  0.43860  Biso   1.000  H
  H1500    1.0000 0.67421  0.84449  0.43220  Biso   1.000  H
  N189     1.0000 0.67768  0.88516  0.41675  Biso   1.000  N
  N190     1.0000 0.67772  0.88523  0.41675  Biso   1.000  N
  N191     1.0000 0.72179  0.74746  0.42053  Biso   1.000  N
  N192     1.0000 0.72182  0.74753  0.42053  Biso   1.000  N
  H1501    1.0000 0.59819  0.71058  0.41590  Biso   1.000  H
  C1441    1.0000 0.74851  0.95578  0.41897  Biso   1.000  C
  C1442    1.0000 0.74010  0.73973  0.41083  Biso   1.000  C
  H1502    1.0000 0.77201  0.96258  0.42600  Biso   1.000  H
  C1443    1.0000 0.79653  0.02860  0.41100  Biso   1.000  C
  C1444    1.0000 0.82383  0.74353  0.40717  Biso   1.000  C
  H1503    1.0000 0.69812  0.73072  0.40550  Biso   1.000  H
  C1445    1.0000 0.76476  0.02467  0.40040  Biso   1.000  C
  C1446    1.0000 0.87399  0.10442  0.41438  Biso   1.000  C
  C1447    1.0000 0.82901  0.71692  0.39673  Biso   1.000  C
  C1448    1.0000 0.89560  0.76960  0.41438  Biso   1.000  C
  C1449    1.0000 0.80892  0.09462  0.39306  Biso   1.000  C
  H1504    1.0000 0.71280  0.97399  0.39820  Biso   1.000  H
  C1450    1.0000 0.91969  0.17617  0.40717  Biso   1.000  C
  H1505    1.0000 0.89571  0.10742  0.42150  Biso   1.000  H
  C1451    1.0000 0.90538  0.71432  0.39306  Biso   1.000  C
  H1506    1.0000 0.78137  0.70018  0.39190  Biso   1.000  H
  C1452    1.0000 0.97137  0.76787  0.41100  Biso   1.000  C
  C1453    1.0000 0.97140  0.76793  0.41100  Biso   1.000  C
  H1507    1.0000 0.89258  0.78827  0.42150  Biso   1.000  H
  C1454    1.0000 0.77471  0.09168  0.38211  Biso   1.000  C
  C1455    1.0000 0.88787  0.17097  0.39673  Biso   1.000  C
  C1456    1.0000 0.99959  0.25986  0.41083  Biso   1.000  C
  C1457    1.0000 0.99962  0.25993  0.41083  Biso   1.000  C
  C1458    1.0000 0.90831  0.68298  0.38211  Biso   1.000  C
  C1459    1.0000 0.97534  0.74013  0.40040  Biso   1.000  C
  C1460    1.0000 0.04418  0.79267  0.41897  Biso   1.000  C
  N193     1.0000 0.80642  0.15730  0.37569  Biso   1.000  N
  H1508    1.0000 0.72657  0.03827  0.37970  Biso   1.000  H
  H1509    1.0000 0.91877  0.21858  0.39190  Biso   1.000  H
  H1510    1.0000 0.03261  0.30187  0.40550  Biso   1.000  H
  N194     1.0000 0.02568  0.27820  0.42053  Biso   1.000  N
  N195     1.0000 0.84268  0.64910  0.37569  Biso   1.000  N
  H1511    1.0000 0.96168  0.68831  0.37970  Biso   1.000  H
  H1512    1.0000 0.02601  0.73879  0.39820  Biso   1.000  H
  H1513    1.0000 0.03741  0.80941  0.42600  Biso   1.000  H
  N196     1.0000 0.11476  0.79247  0.41675  Biso   1.000  N
  C1461    1.0000 0.76562  0.15010  0.36498  Biso   1.000  C
  C1462    1.0000 0.10042  0.36589  0.42254  Biso   1.000  C
  C1463    1.0000 0.84990  0.61549  0.36498  Biso   1.000  C
  C1464    1.0000 0.17963  0.81721  0.42555  Biso   1.000  C
  C1465    1.0000 0.83230  0.17130  0.35585  Biso   1.000  C
  H1514    1.0000 0.71603  0.08902  0.36400  Biso   1.000  H
  C1466    1.0000 0.72908  0.21412  0.36481  Biso   1.000  C
  C1467    1.0000 0.18283  0.36242  0.42555  Biso   1.000  C
  H1515    1.0000 0.11241  0.40176  0.41590  Biso   1.000  H
  C1468    1.0000 0.07649  0.41077  0.43201  Biso   1.000  C
  H1516    1.0000 0.11244  0.40183  0.41590  Biso   1.000  H
  C1469    1.0000 0.78591  0.51500  0.36481  Biso   1.000  C
  C1470    1.0000 0.82870  0.66097  0.35585  Biso   1.000  C
  H1517    1.0000 0.91096  0.62696  0.36400  Biso   1.000  H
  H1518    1.0000 0.91100  0.62703  0.36400  Biso   1.000  H
  C1471    1.0000 0.26550  0.89957  0.42254  Biso   1.000  C
  C1472    1.0000 0.19541  0.73859  0.42800  Biso   1.000  C
  H1519    1.0000 0.15549  0.82968  0.43220  Biso   1.000  H
  N197     1.0000 0.85702  0.10189  0.35582  Biso   1.000  N
  C1473    1.0000 0.79070  0.17090  0.34483  Biso   1.000  C
  H1520    1.0000 0.88519  0.22972  0.35710  Biso   1.000  H
  H1521    1.0000 0.68391  0.19711  0.37050  Biso   1.000  H
  H1522    1.0000 0.77681  0.27400  0.36640  Biso   1.000  H
  C1474    1.0000 0.68899  0.21258  0.35372  Biso   1.000  C
  N198     1.0000 0.20751  0.32228  0.41675  Biso   1.000  N
  C1475    1.0000 0.26136  0.45678  0.42800  Biso   1.000  C
  H1523    1.0000 0.17030  0.32581  0.43220  Biso   1.000  H
  H1524    1.0000 0.02407  0.41417  0.43000  Biso   1.000  H
  H1525    1.0000 0.06282  0.37489  0.43860  Biso   1.000  H
  C1476    1.0000 0.15329  0.50339  0.43424  Biso   1.000  C
  C1477    1.0000 0.78740  0.47639  0.35372  Biso   1.000  C
  H1526    1.0000 0.80288  0.48679  0.37050  Biso   1.000  H
  H1527    1.0000 0.72599  0.50280  0.36640  Biso   1.000  H
  C1478    1.0000 0.82905  0.61976  0.34483  Biso   1.000  C
  C1479    1.0000 0.82909  0.61983  0.34483  Biso   1.000  C
  H1528    1.0000 0.77029  0.65550  0.35710  Biso   1.000  H
  N199     1.0000 0.89809  0.75506  0.35582  Biso   1.000  N
  N200     1.0000 0.89812  0.75513  0.35582  Biso   1.000  N
  H1529    1.0000 0.28936  0.88756  0.41590  Biso   1.000  H
  C1480    1.0000 0.33430  0.92351  0.43201  Biso   1.000  C
  N201     1.0000 0.25252  0.97432  0.42053  Biso   1.000  N
  H1530    1.0000 0.28939  0.88763  0.41590  Biso   1.000  H
  C1481    1.0000 0.26353  0.76360  0.43715  Biso   1.000  C
  H1531    1.0000 0.13961  0.68671  0.43020  Biso   1.000  H
  H1532    1.0000 0.21667  0.72359  0.42140  Biso   1.000  H
  C1482    1.0000 0.93802  0.12609  0.35661  Biso   1.000  C
  C1483    1.0000 0.75429  0.23472  0.34459  Biso   1.000  C
  H1533    1.0000 0.74262  0.11102  0.34330  Biso   1.000  H
  H1534    1.0000 0.83508  0.18738  0.33910  Biso   1.000  H
  H1535    1.0000 0.63787  0.15377  0.35250  Biso   1.000  H
  H1536    1.0000 0.66808  0.25519  0.35370  Biso   1.000  H
  C1484    1.0000 0.20731  0.25153  0.41897  Biso   1.000  C
  C1485    1.0000 0.23639  0.49992  0.43715  Biso   1.000  C
  H1537    1.0000 0.31331  0.45291  0.43020  Biso   1.000  H
  H1538    1.0000 0.27642  0.49312  0.42140  Biso   1.000  H
  H1539    1.0000 0.13789  0.53000  0.44030  Biso   1.000  H
  H1540    1.0000 0.16452  0.54040  0.42780  Biso   1.000  H
  C1486    1.0000 0.76529  0.51960  0.34459  Biso   1.000  C
  H1541    1.0000 0.84619  0.48413  0.35250  Biso   1.000  H
  H1542    1.0000 0.74480  0.41291  0.35370  Biso   1.000  H
  H1543    1.0000 0.88901  0.63156  0.34330  Biso   1.000  H
  H1544    1.0000 0.81259  0.64770  0.33910  Biso   1.000  H
  H1545    1.0000 0.88904  0.63163  0.34330  Biso   1.000  H
  C1487    1.0000 0.87389  0.81188  0.35661  Biso   1.000  C
  H1546    1.0000 0.39013  0.97592  0.43000  Biso   1.000  H
  H1547    1.0000 0.31209  0.93718  0.43860  Biso   1.000  H
  C1488    1.0000 0.35012  0.84669  0.43424  Biso   1.000  C
  C1489    1.0000 0.26030  0.00039  0.41083  Biso   1.000  C
  H1548    1.0000 0.23986  0.77367  0.44390  Biso   1.000  H
  H1549    1.0000 0.27460  0.71472  0.43840  Biso   1.000  H
  C1490    1.0000 0.97009  0.06041  0.35658  Biso   1.000  C
  H1550    1.0000 0.97931  0.18651  0.35720  Biso   1.000  H
  H1551    1.0000 0.80291  0.29547  0.34540  Biso   1.000  H
  H1552    1.0000 0.72541  0.22999  0.33760  Biso   1.000  H
  C1491    1.0000 0.23210  0.20351  0.41100  Biso   1.000  C
  H1553    1.0000 0.19057  0.22799  0.42600  Biso   1.000  H
  H1554    1.0000 0.22628  0.46618  0.44390  Biso   1.000  H
  H1555    1.0000 0.28531  0.55987  0.43840  Biso   1.000  H
  H1556    1.0000 0.70450  0.50740  0.34540  Biso   1.000  H
  H1557    1.0000 0.76999  0.49540  0.33760  Biso   1.000  H
  H1558    1.0000 0.81353  0.79281  0.35720  Biso   1.000  H
  C1492    1.0000 0.93961  0.90970  0.35658  Biso   1.000  C
  H1559    1.0000 0.39212  0.86209  0.44030  Biso   1.000  H
  H1560    1.0000 0.37587  0.83548  0.42780  Biso   1.000  H
  H1561    1.0000 0.26927  0.96739  0.40550  Biso   1.000  H
  C1493    1.0000 0.25647  0.08028  0.40717  Biso   1.000  C
  C1494    1.0000 0.90992  0.96952  0.35643  Biso   1.000  C
  C1495    1.0000 0.05959  0.09008  0.35643  Biso   1.000  C
  C1496    1.0000 0.25989  0.23519  0.40040  Biso   1.000  C
  C1497    1.0000 0.23043  0.12603  0.41438  Biso   1.000  C
  C1498    1.0000 0.03048  0.94038  0.35643  Biso   1.000  C
  C1499    1.0000 0.28312  0.11209  0.39673  Biso   1.000  C
  H1562    1.0000 0.84900  0.94898  0.35620  Biso   1.000  H
  C1500    1.0000 0.09030  0.02987  0.35658  Biso   1.000  C
  H1563    1.0000 0.09997  0.15097  0.35620  Biso   1.000  H
  H1564    1.0000 0.10000  0.15103  0.35620  Biso   1.000  H
  C1501    1.0000 0.28573  0.19111  0.39306  Biso   1.000  C
  H1565    1.0000 0.26118  0.28720  0.39820  Biso   1.000  H
  H1566    1.0000 0.21171  0.10429  0.42150  Biso   1.000  H
  H1567    1.0000 0.05099  0.89997  0.35620  Biso   1.000  H
  H1568    1.0000 0.29979  0.08121  0.39190  Biso   1.000  H
  C1502    1.0000 0.18809  0.06201  0.35661  Biso   1.000  C
  C1503    1.0000 0.31704  0.22532  0.38211  Biso   1.000  C
  H1569    1.0000 0.20720  0.02067  0.35720  Biso   1.000  H
  N202     1.0000 0.24491  0.14296  0.35582  Biso   1.000  N
  H1570    1.0000 0.20724  0.02073  0.35720  Biso   1.000  H
  N203     1.0000 0.24494  0.14303  0.35582  Biso   1.000  N
  N204     1.0000 0.35089  0.19358  0.37569  Biso   1.000  N
  H1571    1.0000 0.31168  0.27340  0.37970  Biso   1.000  H
  C1504    1.0000 0.33899  0.16770  0.35585  Biso   1.000  C
  C1505    1.0000 0.38452  0.23439  0.36498  Biso   1.000  C
  C1506    1.0000 0.38018  0.20931  0.34483  Biso   1.000  C
  H1572    1.0000 0.34449  0.11482  0.35710  Biso   1.000  H
  H1573    1.0000 0.37300  0.28400  0.36400  Biso   1.000  H
  C1507    1.0000 0.48499  0.27086  0.36481  Biso   1.000  C
  C1508    1.0000 0.48503  0.27093  0.36481  Biso   1.000  C
  C1509    1.0000 0.48039  0.24572  0.34459  Biso   1.000  C
  H1574    1.0000 0.36842  0.25739  0.34330  Biso   1.000  H
  H1575    1.0000 0.35232  0.16490  0.33910  Biso   1.000  H
  H1576    1.0000 0.51320  0.31608  0.37050  Biso   1.000  H
  H1577    1.0000 0.49719  0.22319  0.36640  Biso   1.000  H
  C1510    1.0000 0.52360  0.31101  0.35372  Biso   1.000  C
  H1578    1.0000 0.49258  0.19711  0.34540  Biso   1.000  H
  H1579    1.0000 0.50459  0.27460  0.33760  Biso   1.000  H
  H1580    1.0000 0.51588  0.36209  0.35250  Biso   1.000  H
  H1581    1.0000 0.58711  0.33188  0.35370  Biso   1.000  H
  C1511    1.0000 0.50011  0.73653  0.43715  Biso   1.000  C
  C1512    1.0000 0.49658  0.64990  0.43424  Biso   1.000  C
  C1513    1.0000 0.54321  0.80461  0.42800  Biso   1.000  C
  H1582    1.0000 0.44008  0.72539  0.43840  Biso   1.000  H
  H1583    1.0000 0.53376  0.76006  0.44390  Biso   1.000  H
  H1584    1.0000 0.53380  0.76013  0.44390  Biso   1.000  H
  C1514    1.0000 0.58921  0.66571  0.43201  Biso   1.000  C
  H1585    1.0000 0.46998  0.60789  0.44030  Biso   1.000  H
  H1586    1.0000 0.45960  0.62410  0.42780  Biso   1.000  H
  C1515    1.0000 0.63763  0.82041  0.42555  Biso   1.000  C
  H1587    1.0000 0.54710  0.86042  0.43020  Biso   1.000  H
  H1588    1.0000 0.50690  0.78327  0.42140  Biso   1.000  H
  C1516    1.0000 0.63413  0.73452  0.42254  Biso   1.000  C
  H1589    1.0000 0.58578  0.60989  0.43000  Biso   1.000  H
  H1590    1.0000 0.62508  0.68791  0.43860  Biso   1.000  H
  H1591    1.0000 0.67421  0.84449  0.43220  Biso   1.000  H
  N205     1.0000 0.67768  0.88516  0.41675  Biso   1.000  N
  N206     1.0000 0.67772  0.88523  0.41675  Biso   1.000  N
  N207     1.0000 0.72179  0.74746  0.42053  Biso   1.000  N
  N208     1.0000 0.72182  0.74753  0.42053  Biso   1.000  N
  H1592    1.0000 0.59819  0.71058  0.41590  Biso   1.000  H
  C1517    1.0000 0.74851  0.95578  0.41897  Biso   1.000  C
  C1518    1.0000 0.74010  0.73973  0.41083  Biso   1.000  C
  H1593    1.0000 0.77201  0.96258  0.42600  Biso   1.000  H
  C1519    1.0000 0.79653  0.02860  0.41100  Biso   1.000  C
  C1520    1.0000 0.82383  0.74353  0.40717  Biso   1.000  C
  H1594    1.0000 0.69812  0.73072  0.40550  Biso   1.000  H
  C1521    1.0000 0.76476  0.02467  0.40040  Biso   1.000  C
  C1522    1.0000 0.87399  0.10442  0.41438  Biso   1.000  C
  C1523    1.0000 0.82901  0.71692  0.39673  Biso   1.000  C
  C1524    1.0000 0.89560  0.76960  0.41438  Biso   1.000  C
  C1525    1.0000 0.80892  0.09462  0.39306  Biso   1.000  C
  H1595    1.0000 0.71280  0.97399  0.39820  Biso   1.000  H
  C1526    1.0000 0.91969  0.17617  0.40717  Biso   1.000  C
  H1596    1.0000 0.89571  0.10742  0.42150  Biso   1.000  H
  C1527    1.0000 0.90538  0.71432  0.39306  Biso   1.000  C
  H1597    1.0000 0.78137  0.70018  0.39190  Biso   1.000  H
  C1528    1.0000 0.97137  0.76787  0.41100  Biso   1.000  C
  C1529    1.0000 0.97140  0.76793  0.41100  Biso   1.000  C
  H1598    1.0000 0.89258  0.78827  0.42150  Biso   1.000  H
  C1530    1.0000 0.77471  0.09168  0.38211  Biso   1.000  C
  C1531    1.0000 0.88787  0.17097  0.39673  Biso   1.000  C
  C1532    1.0000 0.99959  0.25986  0.41083  Biso   1.000  C
  C1533    1.0000 0.99962  0.25993  0.41083  Biso   1.000  C
  C1534    1.0000 0.90831  0.68298  0.38211  Biso   1.000  C
  C1535    1.0000 0.97534  0.74013  0.40040  Biso   1.000  C
  C1536    1.0000 0.04418  0.79267  0.41897  Biso   1.000  C
  N209     1.0000 0.80642  0.15730  0.37569  Biso   1.000  N
  H1599    1.0000 0.72657  0.03827  0.37970  Biso   1.000  H
  H1600    1.0000 0.91877  0.21858  0.39190  Biso   1.000  H
  H1601    1.0000 0.03261  0.30187  0.40550  Biso   1.000  H
  N210     1.0000 0.02568  0.27820  0.42053  Biso   1.000  N
  N211     1.0000 0.84268  0.64910  0.37569  Biso   1.000  N
  H1602    1.0000 0.96168  0.68831  0.37970  Biso   1.000  H
  H1603    1.0000 0.02601  0.73879  0.39820  Biso   1.000  H
  H1604    1.0000 0.03741  0.80941  0.42600  Biso   1.000  H
  N212     1.0000 0.11476  0.79247  0.41675  Biso   1.000  N
  C1537    1.0000 0.76562  0.15010  0.36498  Biso   1.000  C
  C1538    1.0000 0.10042  0.36589  0.42254  Biso   1.000  C
  C1539    1.0000 0.84990  0.61549  0.36498  Biso   1.000  C
  C1540    1.0000 0.17963  0.81721  0.42555  Biso   1.000  C
  C1541    1.0000 0.83230  0.17130  0.35585  Biso   1.000  C
  H1605    1.0000 0.71603  0.08902  0.36400  Biso   1.000  H
  C1542    1.0000 0.72908  0.21412  0.36481  Biso   1.000  C
  C1543    1.0000 0.18283  0.36242  0.42555  Biso   1.000  C
  H1606    1.0000 0.11241  0.40176  0.41590  Biso   1.000  H
  C1544    1.0000 0.07649  0.41077  0.43201  Biso   1.000  C
  H1607    1.0000 0.11244  0.40183  0.41590  Biso   1.000  H
  C1545    1.0000 0.78591  0.51500  0.36481  Biso   1.000  C
  C1546    1.0000 0.82870  0.66097  0.35585  Biso   1.000  C
  H1608    1.0000 0.91096  0.62696  0.36400  Biso   1.000  H
  H1609    1.0000 0.91100  0.62703  0.36400  Biso   1.000  H
  C1547    1.0000 0.26550  0.89957  0.42254  Biso   1.000  C
  C1548    1.0000 0.19541  0.73859  0.42800  Biso   1.000  C
  H1610    1.0000 0.15549  0.82968  0.43220  Biso   1.000  H
  N213     1.0000 0.85702  0.10189  0.35582  Biso   1.000  N
  C1549    1.0000 0.79070  0.17090  0.34483  Biso   1.000  C
  H1611    1.0000 0.88519  0.22972  0.35710  Biso   1.000  H
  H1612    1.0000 0.68391  0.19711  0.37050  Biso   1.000  H
  H1613    1.0000 0.77681  0.27400  0.36640  Biso   1.000  H
  C1550    1.0000 0.68899  0.21258  0.35372  Biso   1.000  C
  N214     1.0000 0.20751  0.32228  0.41675  Biso   1.000  N
  C1551    1.0000 0.26136  0.45678  0.42800  Biso   1.000  C
  H1614    1.0000 0.17030  0.32581  0.43220  Biso   1.000  H
  H1615    1.0000 0.02407  0.41417  0.43000  Biso   1.000  H
  H1616    1.0000 0.06282  0.37489  0.43860  Biso   1.000  H
  C1552    1.0000 0.15329  0.50339  0.43424  Biso   1.000  C
  C1553    1.0000 0.78740  0.47639  0.35372  Biso   1.000  C
  H1617    1.0000 0.80288  0.48679  0.37050  Biso   1.000  H
  H1618    1.0000 0.72599  0.50280  0.36640  Biso   1.000  H
  C1554    1.0000 0.82905  0.61976  0.34483  Biso   1.000  C
  C1555    1.0000 0.82909  0.61983  0.34483  Biso   1.000  C
  H1619    1.0000 0.77029  0.65550  0.35710  Biso   1.000  H
  N215     1.0000 0.89809  0.75506  0.35582  Biso   1.000  N
  N216     1.0000 0.89812  0.75513  0.35582  Biso   1.000  N
  H1620    1.0000 0.28936  0.88756  0.41590  Biso   1.000  H
  C1556    1.0000 0.33430  0.92351  0.43201  Biso   1.000  C
  N217     1.0000 0.25252  0.97432  0.42053  Biso   1.000  N
  H1621    1.0000 0.28939  0.88763  0.41590  Biso   1.000  H
  C1557    1.0000 0.26353  0.76360  0.43715  Biso   1.000  C
  H1622    1.0000 0.13961  0.68671  0.43020  Biso   1.000  H
  H1623    1.0000 0.21667  0.72359  0.42140  Biso   1.000  H
  C1558    1.0000 0.93802  0.12609  0.35661  Biso   1.000  C
  C1559    1.0000 0.75429  0.23472  0.34459  Biso   1.000  C
  H1624    1.0000 0.74262  0.11102  0.34330  Biso   1.000  H
  H1625    1.0000 0.83508  0.18738  0.33910  Biso   1.000  H
  H1626    1.0000 0.63787  0.15377  0.35250  Biso   1.000  H
  H1627    1.0000 0.66808  0.25519  0.35370  Biso   1.000  H
  C1560    1.0000 0.20731  0.25153  0.41897  Biso   1.000  C
  C1561    1.0000 0.23639  0.49992  0.43715  Biso   1.000  C
  H1628    1.0000 0.31331  0.45291  0.43020  Biso   1.000  H
  H1629    1.0000 0.27642  0.49312  0.42140  Biso   1.000  H
  H1630    1.0000 0.13789  0.53000  0.44030  Biso   1.000  H
  H1631    1.0000 0.16452  0.54040  0.42780  Biso   1.000  H
  C1562    1.0000 0.76529  0.51960  0.34459  Biso   1.000  C
  H1632    1.0000 0.84619  0.48413  0.35250  Biso   1.000  H
  H1633    1.0000 0.74480  0.41291  0.35370  Biso   1.000  H
  H1634    1.0000 0.81259  0.64770  0.33910  Biso   1.000  H
  H1635    1.0000 0.88901  0.63156  0.34330  Biso   1.000  H
  H1636    1.0000 0.88904  0.63163  0.34330  Biso   1.000  H
  C1563    1.0000 0.87389  0.81188  0.35661  Biso   1.000  C
  H1637    1.0000 0.39013  0.97592  0.43000  Biso   1.000  H
  H1638    1.0000 0.31209  0.93718  0.43860  Biso   1.000  H
  C1564    1.0000 0.35012  0.84669  0.43424  Biso   1.000  C
  C1565    1.0000 0.26030  0.00039  0.41083  Biso   1.000  C
  H1639    1.0000 0.23986  0.77367  0.44390  Biso   1.000  H
  H1640    1.0000 0.27460  0.71472  0.43840  Biso   1.000  H
  C1566    1.0000 0.97009  0.06041  0.35658  Biso   1.000  C
  H1641    1.0000 0.97931  0.18651  0.35720  Biso   1.000  H
  H1642    1.0000 0.80291  0.29547  0.34540  Biso   1.000  H
  H1643    1.0000 0.72541  0.22999  0.33760  Biso   1.000  H
  C1567    1.0000 0.23210  0.20351  0.41100  Biso   1.000  C
  H1644    1.0000 0.19057  0.22799  0.42600  Biso   1.000  H
  H1645    1.0000 0.22628  0.46618  0.44390  Biso   1.000  H
  H1646    1.0000 0.28531  0.55987  0.43840  Biso   1.000  H
  H1647    1.0000 0.70450  0.50740  0.34540  Biso   1.000  H
  H1648    1.0000 0.76999  0.49540  0.33760  Biso   1.000  H
  H1649    1.0000 0.81353  0.79281  0.35720  Biso   1.000  H
  C1568    1.0000 0.93961  0.90970  0.35658  Biso   1.000  C
  H1650    1.0000 0.39212  0.86209  0.44030  Biso   1.000  H
  H1651    1.0000 0.37587  0.83548  0.42780  Biso   1.000  H
  H1652    1.0000 0.26927  0.96739  0.40550  Biso   1.000  H
  C1569    1.0000 0.25647  0.08028  0.40717  Biso   1.000  C
  C1570    1.0000 0.90992  0.96952  0.35643  Biso   1.000  C
  C1571    1.0000 0.05959  0.09008  0.35643  Biso   1.000  C
  C1572    1.0000 0.25989  0.23519  0.40040  Biso   1.000  C
  C1573    1.0000 0.23043  0.12603  0.41438  Biso   1.000  C
  C1574    1.0000 0.03048  0.94038  0.35643  Biso   1.000  C
  C1575    1.0000 0.28312  0.11209  0.39673  Biso   1.000  C
  H1653    1.0000 0.84900  0.94898  0.35620  Biso   1.000  H
  C1576    1.0000 0.09030  0.02987  0.35658  Biso   1.000  C
  H1654    1.0000 0.09997  0.15097  0.35620  Biso   1.000  H
  H1655    1.0000 0.10000  0.15103  0.35620  Biso   1.000  H
  C1577    1.0000 0.28573  0.19111  0.39306  Biso   1.000  C
  H1656    1.0000 0.26118  0.28720  0.39820  Biso   1.000  H
  H1657    1.0000 0.21171  0.10429  0.42150  Biso   1.000  H
  H1658    1.0000 0.05099  0.89997  0.35620  Biso   1.000  H
  H1659    1.0000 0.29979  0.08121  0.39190  Biso   1.000  H
  C1578    1.0000 0.18809  0.06201  0.35661  Biso   1.000  C
  C1579    1.0000 0.31704  0.22532  0.38211  Biso   1.000  C
  H1660    1.0000 0.20720  0.02067  0.35720  Biso   1.000  H
  N218     1.0000 0.24491  0.14296  0.35582  Biso   1.000  N
  H1661    1.0000 0.20724  0.02073  0.35720  Biso   1.000  H
  N219     1.0000 0.24494  0.14303  0.35582  Biso   1.000  N
  N220     1.0000 0.35089  0.19358  0.37569  Biso   1.000  N
  H1662    1.0000 0.31168  0.27340  0.37970  Biso   1.000  H
  C1580    1.0000 0.33899  0.16770  0.35585  Biso   1.000  C
  C1581    1.0000 0.38452  0.23439  0.36498  Biso   1.000  C
  C1582    1.0000 0.38018  0.20931  0.34483  Biso   1.000  C
  H1663    1.0000 0.34449  0.11482  0.35710  Biso   1.000  H
  H1664    1.0000 0.37300  0.28400  0.36400  Biso   1.000  H
  C1583    1.0000 0.48499  0.27086  0.36481  Biso   1.000  C
  C1584    1.0000 0.48503  0.27093  0.36481  Biso   1.000  C
  C1585    1.0000 0.48039  0.24572  0.34459  Biso   1.000  C
  H1665    1.0000 0.36842  0.25739  0.34330  Biso   1.000  H
  H1666    1.0000 0.35232  0.16490  0.33910  Biso   1.000  H
  H1667    1.0000 0.51320  0.31608  0.37050  Biso   1.000  H
  H1668    1.0000 0.49719  0.22319  0.36640  Biso   1.000  H
  C1586    1.0000 0.52360  0.31101  0.35372  Biso   1.000  C
  H1669    1.0000 0.49258  0.19711  0.34540  Biso   1.000  H
  H1670    1.0000 0.50459  0.27460  0.33760  Biso   1.000  H
  H1671    1.0000 0.51588  0.36209  0.35250  Biso   1.000  H
  H1672    1.0000 0.58711  0.33188  0.35370  Biso   1.000  H
  C1587    1.0000 0.50011  0.73653  0.43715  Biso   1.000  C
  C1588    1.0000 0.49658  0.64990  0.43424  Biso   1.000  C
  C1589    1.0000 0.54321  0.80461  0.42800  Biso   1.000  C
  H1673    1.0000 0.44008  0.72539  0.43840  Biso   1.000  H
  H1674    1.0000 0.53376  0.76006  0.44390  Biso   1.000  H
  H1675    1.0000 0.53380  0.76013  0.44390  Biso   1.000  H
  C1590    1.0000 0.58921  0.66571  0.43201  Biso   1.000  C
  H1676    1.0000 0.46998  0.60789  0.44030  Biso   1.000  H
  H1677    1.0000 0.45960  0.62410  0.42780  Biso   1.000  H
  C1591    1.0000 0.63763  0.82041  0.42555  Biso   1.000  C
  H1678    1.0000 0.54710  0.86042  0.43020  Biso   1.000  H
  H1679    1.0000 0.50690  0.78327  0.42140  Biso   1.000  H
  C1592    1.0000 0.63413  0.73452  0.42254  Biso   1.000  C
  H1680    1.0000 0.58578  0.60989  0.43000  Biso   1.000  H
  H1681    1.0000 0.62508  0.68791  0.43860  Biso   1.000  H
  H1682    1.0000 0.67421  0.84449  0.43220  Biso   1.000  H
  N221     1.0000 0.67768  0.88516  0.41675  Biso   1.000  N
  N222     1.0000 0.67772  0.88523  0.41675  Biso   1.000  N
  N223     1.0000 0.72179  0.74746  0.42053  Biso   1.000  N
  N224     1.0000 0.72182  0.74753  0.42053  Biso   1.000  N
  H1683    1.0000 0.59819  0.71058  0.41590  Biso   1.000  H
  C1593    1.0000 0.74851  0.95578  0.41897  Biso   1.000  C
  C1594    1.0000 0.74010  0.73973  0.41083  Biso   1.000  C
  H1684    1.0000 0.77201  0.96258  0.42600  Biso   1.000  H
  C1595    1.0000 0.79653  0.02860  0.41100  Biso   1.000  C
  C1596    1.0000 0.82383  0.74353  0.40717  Biso   1.000  C
  H1685    1.0000 0.69812  0.73072  0.40550  Biso   1.000  H
  C1597    1.0000 0.76476  0.02467  0.40040  Biso   1.000  C
  C1598    1.0000 0.87399  0.10442  0.41438  Biso   1.000  C
  C1599    1.0000 0.82901  0.71692  0.39673  Biso   1.000  C
  C1600    1.0000 0.89560  0.76960  0.41438  Biso   1.000  C
  C1601    1.0000 0.80892  0.09462  0.39306  Biso   1.000  C
  H1686    1.0000 0.71280  0.97399  0.39820  Biso   1.000  H
  C1602    1.0000 0.91969  0.17617  0.40717  Biso   1.000  C
  H1687    1.0000 0.89571  0.10742  0.42150  Biso   1.000  H
  C1603    1.0000 0.90538  0.71432  0.39306  Biso   1.000  C
  H1688    1.0000 0.78137  0.70018  0.39190  Biso   1.000  H
  C1604    1.0000 0.97137  0.76787  0.41100  Biso   1.000  C
  C1605    1.0000 0.97140  0.76793  0.41100  Biso   1.000  C
  H1689    1.0000 0.89258  0.78827  0.42150  Biso   1.000  H
  C1606    1.0000 0.77471  0.09168  0.38211  Biso   1.000  C
  C1607    1.0000 0.88787  0.17097  0.39673  Biso   1.000  C
  C1608    1.0000 0.99959  0.25986  0.41083  Biso   1.000  C
  C1609    1.0000 0.99962  0.25993  0.41083  Biso   1.000  C
  C1610    1.0000 0.90831  0.68298  0.38211  Biso   1.000  C
  C1611    1.0000 0.97534  0.74013  0.40040  Biso   1.000  C
  C1612    1.0000 0.04418  0.79267  0.41897  Biso   1.000  C
  N225     1.0000 0.80642  0.15730  0.37569  Biso   1.000  N
  H1690    1.0000 0.72657  0.03827  0.37970  Biso   1.000  H
  H1691    1.0000 0.91877  0.21858  0.39190  Biso   1.000  H
  H1692    1.0000 0.03261  0.30187  0.40550  Biso   1.000  H
  N226     1.0000 0.02568  0.27820  0.42053  Biso   1.000  N
  N227     1.0000 0.84268  0.64910  0.37569  Biso   1.000  N
  H1693    1.0000 0.96168  0.68831  0.37970  Biso   1.000  H
  H1694    1.0000 0.02601  0.73879  0.39820  Biso   1.000  H
  H1695    1.0000 0.03741  0.80941  0.42600  Biso   1.000  H
  N228     1.0000 0.11476  0.79247  0.41675  Biso   1.000  N
  C1613    1.0000 0.76562  0.15010  0.36498  Biso   1.000  C
  C1614    1.0000 0.10042  0.36589  0.42254  Biso   1.000  C
  C1615    1.0000 0.84990  0.61549  0.36498  Biso   1.000  C
  C1616    1.0000 0.17963  0.81721  0.42555  Biso   1.000  C
  C1617    1.0000 0.83230  0.17130  0.35585  Biso   1.000  C
  H1696    1.0000 0.71603  0.08902  0.36400  Biso   1.000  H
  C1618    1.0000 0.72908  0.21412  0.36481  Biso   1.000  C
  C1619    1.0000 0.18283  0.36242  0.42555  Biso   1.000  C
  H1697    1.0000 0.11241  0.40176  0.41590  Biso   1.000  H
  C1620    1.0000 0.07649  0.41077  0.43201  Biso   1.000  C
  H1698    1.0000 0.11244  0.40183  0.41590  Biso   1.000  H
  C1621    1.0000 0.78591  0.51500  0.36481  Biso   1.000  C
  C1622    1.0000 0.82870  0.66097  0.35585  Biso   1.000  C
  H1699    1.0000 0.91096  0.62696  0.36400  Biso   1.000  H
  H1700    1.0000 0.91100  0.62703  0.36400  Biso   1.000  H
  C1623    1.0000 0.26550  0.89957  0.42254  Biso   1.000  C
  C1624    1.0000 0.19541  0.73859  0.42800  Biso   1.000  C
  H1701    1.0000 0.15549  0.82968  0.43220  Biso   1.000  H
  N229     1.0000 0.85702  0.10189  0.35582  Biso   1.000  N
  C1625    1.0000 0.79070  0.17090  0.34483  Biso   1.000  C
  H1702    1.0000 0.88519  0.22972  0.35710  Biso   1.000  H
  H1703    1.0000 0.68391  0.19711  0.37050  Biso   1.000  H
  H1704    1.0000 0.77681  0.27400  0.36640  Biso   1.000  H
  C1626    1.0000 0.68899  0.21258  0.35372  Biso   1.000  C
  N230     1.0000 0.20751  0.32228  0.41675  Biso   1.000  N
  C1627    1.0000 0.26136  0.45678  0.42800  Biso   1.000  C
  H1705    1.0000 0.17030  0.32581  0.43220  Biso   1.000  H
  H1706    1.0000 0.02407  0.41417  0.43000  Biso   1.000  H
  H1707    1.0000 0.06282  0.37489  0.43860  Biso   1.000  H
  C1628    1.0000 0.15329  0.50339  0.43424  Biso   1.000  C
  C1629    1.0000 0.78740  0.47639  0.35372  Biso   1.000  C
  H1708    1.0000 0.80288  0.48679  0.37050  Biso   1.000  H
  H1709    1.0000 0.72599  0.50280  0.36640  Biso   1.000  H
  C1630    1.0000 0.82905  0.61976  0.34483  Biso   1.000  C
  C1631    1.0000 0.82909  0.61983  0.34483  Biso   1.000  C
  H1710    1.0000 0.77029  0.65550  0.35710  Biso   1.000  H
  N231     1.0000 0.89809  0.75506  0.35582  Biso   1.000  N
  N232     1.0000 0.89812  0.75513  0.35582  Biso   1.000  N
  H1711    1.0000 0.28936  0.88756  0.41590  Biso   1.000  H
  C1632    1.0000 0.33430  0.92351  0.43201  Biso   1.000  C
  N233     1.0000 0.25252  0.97432  0.42053  Biso   1.000  N
  H1712    1.0000 0.28939  0.88763  0.41590  Biso   1.000  H
  C1633    1.0000 0.26353  0.76360  0.43715  Biso   1.000  C
  H1713    1.0000 0.13961  0.68671  0.43020  Biso   1.000  H
  H1714    1.0000 0.21667  0.72359  0.42140  Biso   1.000  H
  C1634    1.0000 0.93802  0.12609  0.35661  Biso   1.000  C
  C1635    1.0000 0.75429  0.23472  0.34459  Biso   1.000  C
  H1715    1.0000 0.74262  0.11102  0.34330  Biso   1.000  H
  H1716    1.0000 0.83508  0.18738  0.33910  Biso   1.000  H
  H1717    1.0000 0.63787  0.15377  0.35250  Biso   1.000  H
  H1718    1.0000 0.66808  0.25519  0.35370  Biso   1.000  H
  C1636    1.0000 0.20731  0.25153  0.41897  Biso   1.000  C
  C1637    1.0000 0.23639  0.49992  0.43715  Biso   1.000  C
  H1719    1.0000 0.31331  0.45291  0.43020  Biso   1.000  H
  H1720    1.0000 0.27642  0.49312  0.42140  Biso   1.000  H
  H1721    1.0000 0.13789  0.53000  0.44030  Biso   1.000  H
  H1722    1.0000 0.16452  0.54040  0.42780  Biso   1.000  H
  C1638    1.0000 0.76529  0.51960  0.34459  Biso   1.000  C
  H1723    1.0000 0.84619  0.48413  0.35250  Biso   1.000  H
  H1724    1.0000 0.74480  0.41291  0.35370  Biso   1.000  H
  H1725    1.0000 0.81259  0.64770  0.33910  Biso   1.000  H
  H1726    1.0000 0.88901  0.63156  0.34330  Biso   1.000  H
  H1727    1.0000 0.88904  0.63163  0.34330  Biso   1.000  H
  C1639    1.0000 0.87389  0.81188  0.35661  Biso   1.000  C
  H1728    1.0000 0.39013  0.97592  0.43000  Biso   1.000  H
  H1729    1.0000 0.31209  0.93718  0.43860  Biso   1.000  H
  C1640    1.0000 0.35012  0.84669  0.43424  Biso   1.000  C
  C1641    1.0000 0.26030  0.00039  0.41083  Biso   1.000  C
  H1730    1.0000 0.23986  0.77367  0.44390  Biso   1.000  H
  H1731    1.0000 0.27460  0.71472  0.43840  Biso   1.000  H
  C1642    1.0000 0.97009  0.06041  0.35658  Biso   1.000  C
  H1732    1.0000 0.97931  0.18651  0.35720  Biso   1.000  H
  H1733    1.0000 0.80291  0.29547  0.34540  Biso   1.000  H
  H1734    1.0000 0.72541  0.22999  0.33760  Biso   1.000  H
  C1643    1.0000 0.23210  0.20351  0.41100  Biso   1.000  C
  H1735    1.0000 0.19057  0.22799  0.42600  Biso   1.000  H
  H1736    1.0000 0.22628  0.46618  0.44390  Biso   1.000  H
  H1737    1.0000 0.28531  0.55987  0.43840  Biso   1.000  H
  H1738    1.0000 0.70450  0.50740  0.34540  Biso   1.000  H
  H1739    1.0000 0.76999  0.49540  0.33760  Biso   1.000  H
  H1740    1.0000 0.81353  0.79281  0.35720  Biso   1.000  H
  C1644    1.0000 0.93961  0.90970  0.35658  Biso   1.000  C
  H1741    1.0000 0.39212  0.86209  0.44030  Biso   1.000  H
  H1742    1.0000 0.37587  0.83548  0.42780  Biso   1.000  H
  H1743    1.0000 0.26927  0.96739  0.40550  Biso   1.000  H
  C1645    1.0000 0.25647  0.08028  0.40717  Biso   1.000  C
  C1646    1.0000 0.90992  0.96952  0.35643  Biso   1.000  C
  C1647    1.0000 0.05959  0.09008  0.35643  Biso   1.000  C
  C1648    1.0000 0.25989  0.23519  0.40040  Biso   1.000  C
  C1649    1.0000 0.23043  0.12603  0.41438  Biso   1.000  C
  C1650    1.0000 0.03048  0.94038  0.35643  Biso   1.000  C
  C1651    1.0000 0.28312  0.11209  0.39673  Biso   1.000  C
  H1744    1.0000 0.84900  0.94898  0.35620  Biso   1.000  H
  C1652    1.0000 0.09030  0.02987  0.35658  Biso   1.000  C
  H1745    1.0000 0.09997  0.15097  0.35620  Biso   1.000  H
  H1746    1.0000 0.10000  0.15103  0.35620  Biso   1.000  H
  C1653    1.0000 0.28573  0.19111  0.39306  Biso   1.000  C
  H1747    1.0000 0.26118  0.28720  0.39820  Biso   1.000  H
  H1748    1.0000 0.21171  0.10429  0.42150  Biso   1.000  H
  H1749    1.0000 0.05099  0.89997  0.35620  Biso   1.000  H
  H1750    1.0000 0.29979  0.08121  0.39190  Biso   1.000  H
  C1654    1.0000 0.18809  0.06201  0.35661  Biso   1.000  C
  C1655    1.0000 0.31704  0.22532  0.38211  Biso   1.000  C
  H1751    1.0000 0.20720  0.02067  0.35720  Biso   1.000  H
  N234     1.0000 0.24491  0.14296  0.35582  Biso   1.000  N
  H1752    1.0000 0.20724  0.02073  0.35720  Biso   1.000  H
  N235     1.0000 0.24494  0.14303  0.35582  Biso   1.000  N
  N236     1.0000 0.35089  0.19358  0.37569  Biso   1.000  N
  H1753    1.0000 0.31168  0.27340  0.37970  Biso   1.000  H
  C1656    1.0000 0.33899  0.16770  0.35585  Biso   1.000  C
  C1657    1.0000 0.38452  0.23439  0.36498  Biso   1.000  C
  C1658    1.0000 0.38018  0.20931  0.34483  Biso   1.000  C
  H1754    1.0000 0.34449  0.11482  0.35710  Biso   1.000  H
  H1755    1.0000 0.37300  0.28400  0.36400  Biso   1.000  H
  C1659    1.0000 0.48499  0.27086  0.36481  Biso   1.000  C
  C1660    1.0000 0.48503  0.27093  0.36481  Biso   1.000  C
  C1661    1.0000 0.48039  0.24572  0.34459  Biso   1.000  C
  H1756    1.0000 0.36842  0.25739  0.34330  Biso   1.000  H
  H1757    1.0000 0.35232  0.16490  0.33910  Biso   1.000  H
  H1758    1.0000 0.51320  0.31608  0.37050  Biso   1.000  H
  H1759    1.0000 0.49719  0.22319  0.36640  Biso   1.000  H
  C1662    1.0000 0.52360  0.31101  0.35372  Biso   1.000  C
  H1760    1.0000 0.49258  0.19711  0.34540  Biso   1.000  H
  H1761    1.0000 0.50459  0.27460  0.33760  Biso   1.000  H
  H1762    1.0000 0.51588  0.36209  0.35250  Biso   1.000  H
  H1763    1.0000 0.58711  0.33188  0.35370  Biso   1.000  H
  C1663    1.0000 0.50011  0.73653  0.43715  Biso   1.000  C
  C1664    1.0000 0.49658  0.64990  0.43424  Biso   1.000  C
  C1665    1.0000 0.54321  0.80461  0.42800  Biso   1.000  C
  H1764    1.0000 0.44008  0.72539  0.43840  Biso   1.000  H
  H1765    1.0000 0.53376  0.76006  0.44390  Biso   1.000  H
  H1766    1.0000 0.53380  0.76013  0.44390  Biso   1.000  H
  C1666    1.0000 0.58921  0.66571  0.43201  Biso   1.000  C
  H1767    1.0000 0.46998  0.60789  0.44030  Biso   1.000  H
  H1768    1.0000 0.45960  0.62410  0.42780  Biso   1.000  H
  C1667    1.0000 0.63763  0.82041  0.42555  Biso   1.000  C
  H1769    1.0000 0.54710  0.86042  0.43020  Biso   1.000  H
  H1770    1.0000 0.50690  0.78327  0.42140  Biso   1.000  H
  C1668    1.0000 0.63413  0.73452  0.42254  Biso   1.000  C
  H1771    1.0000 0.58578  0.60989  0.43000  Biso   1.000  H
  H1772    1.0000 0.62508  0.68791  0.43860  Biso   1.000  H
  H1773    1.0000 0.67421  0.84449  0.43220  Biso   1.000  H
  N237     1.0000 0.67768  0.88516  0.41675  Biso   1.000  N
  N238     1.0000 0.67772  0.88523  0.41675  Biso   1.000  N
  N239     1.0000 0.72179  0.74746  0.42053  Biso   1.000  N
  N240     1.0000 0.72182  0.74753  0.42053  Biso   1.000  N
  H1774    1.0000 0.59819  0.71058  0.41590  Biso   1.000  H
  C1669    1.0000 0.74851  0.95578  0.41897  Biso   1.000  C
  C1670    1.0000 0.74010  0.73973  0.41083  Biso   1.000  C
  H1775    1.0000 0.77201  0.96258  0.42600  Biso   1.000  H
  C1671    1.0000 0.79653  0.02860  0.41100  Biso   1.000  C
  C1672    1.0000 0.82383  0.74353  0.40717  Biso   1.000  C
  H1776    1.0000 0.69812  0.73072  0.40550  Biso   1.000  H
  C1673    1.0000 0.76476  0.02467  0.40040  Biso   1.000  C
  C1674    1.0000 0.87399  0.10442  0.41438  Biso   1.000  C
  C1675    1.0000 0.82901  0.71692  0.39673  Biso   1.000  C
  C1676    1.0000 0.89560  0.76960  0.41438  Biso   1.000  C
  C1677    1.0000 0.80892  0.09462  0.39306  Biso   1.000  C
  H1777    1.0000 0.71280  0.97399  0.39820  Biso   1.000  H
  C1678    1.0000 0.91969  0.17617  0.40717  Biso   1.000  C
  H1778    1.0000 0.89571  0.10742  0.42150  Biso   1.000  H
  C1679    1.0000 0.90538  0.71432  0.39306  Biso   1.000  C
  H1779    1.0000 0.78137  0.70018  0.39190  Biso   1.000  H
  C1680    1.0000 0.97137  0.76787  0.41100  Biso   1.000  C
  C1681    1.0000 0.97140  0.76793  0.41100  Biso   1.000  C
  H1780    1.0000 0.89258  0.78827  0.42150  Biso   1.000  H
  C1682    1.0000 0.77471  0.09168  0.38211  Biso   1.000  C
  C1683    1.0000 0.88787  0.17097  0.39673  Biso   1.000  C
  C1684    1.0000 0.99959  0.25986  0.41083  Biso   1.000  C
  C1685    1.0000 0.99962  0.25993  0.41083  Biso   1.000  C
  C1686    1.0000 0.90831  0.68298  0.38211  Biso   1.000  C
  C1687    1.0000 0.97534  0.74013  0.40040  Biso   1.000  C
  C1688    1.0000 0.04418  0.79267  0.41897  Biso   1.000  C
  N241     1.0000 0.80642  0.15730  0.37569  Biso   1.000  N
  H1781    1.0000 0.72657  0.03827  0.37970  Biso   1.000  H
  H1782    1.0000 0.91877  0.21858  0.39190  Biso   1.000  H
  H1783    1.0000 0.03261  0.30187  0.40550  Biso   1.000  H
  N242     1.0000 0.02568  0.27820  0.42053  Biso   1.000  N
  N243     1.0000 0.84268  0.64910  0.37569  Biso   1.000  N
  H1784    1.0000 0.96168  0.68831  0.37970  Biso   1.000  H
  H1785    1.0000 0.02601  0.73879  0.39820  Biso   1.000  H
  H1786    1.0000 0.03741  0.80941  0.42600  Biso   1.000  H
  N244     1.0000 0.11476  0.79247  0.41675  Biso   1.000  N
  C1689    1.0000 0.76562  0.15010  0.36498  Biso   1.000  C
  C1690    1.0000 0.10042  0.36589  0.42254  Biso   1.000  C
  C1691    1.0000 0.84990  0.61549  0.36498  Biso   1.000  C
  C1692    1.0000 0.17963  0.81721  0.42555  Biso   1.000  C
  C1693    1.0000 0.83230  0.17130  0.35585  Biso   1.000  C
  H1787    1.0000 0.71603  0.08902  0.36400  Biso   1.000  H
  C1694    1.0000 0.72908  0.21412  0.36481  Biso   1.000  C
  C1695    1.0000 0.18283  0.36242  0.42555  Biso   1.000  C
  H1788    1.0000 0.11241  0.40176  0.41590  Biso   1.000  H
  C1696    1.0000 0.07649  0.41077  0.43201  Biso   1.000  C
  H1789    1.0000 0.11244  0.40183  0.41590  Biso   1.000  H
  C1697    1.0000 0.78591  0.51500  0.36481  Biso   1.000  C
  C1698    1.0000 0.82870  0.66097  0.35585  Biso   1.000  C
  H1790    1.0000 0.91096  0.62696  0.36400  Biso   1.000  H
  H1791    1.0000 0.91100  0.62703  0.36400  Biso   1.000  H
  C1699    1.0000 0.26550  0.89957  0.42254  Biso   1.000  C
  C1700    1.0000 0.19541  0.73859  0.42800  Biso   1.000  C
  H1792    1.0000 0.15549  0.82968  0.43220  Biso   1.000  H
  N245     1.0000 0.85702  0.10189  0.35582  Biso   1.000  N
  C1701    1.0000 0.79070  0.17090  0.34483  Biso   1.000  C
  H1793    1.0000 0.88519  0.22972  0.35710  Biso   1.000  H
  H1794    1.0000 0.68391  0.19711  0.37050  Biso   1.000  H
  H1795    1.0000 0.77681  0.27400  0.36640  Biso   1.000  H
  C1702    1.0000 0.68899  0.21258  0.35372  Biso   1.000  C
  N246     1.0000 0.20751  0.32228  0.41675  Biso   1.000  N
  C1703    1.0000 0.26136  0.45678  0.42800  Biso   1.000  C
  H1796    1.0000 0.17030  0.32581  0.43220  Biso   1.000  H
  H1797    1.0000 0.02407  0.41417  0.43000  Biso   1.000  H
  H1798    1.0000 0.06282  0.37489  0.43860  Biso   1.000  H
  C1704    1.0000 0.15329  0.50339  0.43424  Biso   1.000  C
  C1705    1.0000 0.78740  0.47639  0.35372  Biso   1.000  C
  H1799    1.0000 0.80288  0.48679  0.37050  Biso   1.000  H
  H1800    1.0000 0.72599  0.50280  0.36640  Biso   1.000  H
  C1706    1.0000 0.82905  0.61976  0.34483  Biso   1.000  C
  C1707    1.0000 0.82909  0.61983  0.34483  Biso   1.000  C
  H1801    1.0000 0.77029  0.65550  0.35710  Biso   1.000  H
  N247     1.0000 0.89809  0.75506  0.35582  Biso   1.000  N
  N248     1.0000 0.89812  0.75513  0.35582  Biso   1.000  N
  H1802    1.0000 0.28936  0.88756  0.41590  Biso   1.000  H
  C1708    1.0000 0.33430  0.92351  0.43201  Biso   1.000  C
  N249     1.0000 0.25252  0.97432  0.42053  Biso   1.000  N
  H1803    1.0000 0.28939  0.88763  0.41590  Biso   1.000  H
  C1709    1.0000 0.26353  0.76360  0.43715  Biso   1.000  C
  H1804    1.0000 0.13961  0.68671  0.43020  Biso   1.000  H
  H1805    1.0000 0.21667  0.72359  0.42140  Biso   1.000  H
  C1710    1.0000 0.93802  0.12609  0.35661  Biso   1.000  C
  C1711    1.0000 0.75429  0.23472  0.34459  Biso   1.000  C
  H1806    1.0000 0.74262  0.11102  0.34330  Biso   1.000  H
  H1807    1.0000 0.83508  0.18738  0.33910  Biso   1.000  H
  H1808    1.0000 0.63787  0.15377  0.35250  Biso   1.000  H
  H1809    1.0000 0.66808  0.25519  0.35370  Biso   1.000  H
  C1712    1.0000 0.20731  0.25153  0.41897  Biso   1.000  C
  C1713    1.0000 0.23639  0.49992  0.43715  Biso   1.000  C
  H1810    1.0000 0.31331  0.45291  0.43020  Biso   1.000  H
  H1811    1.0000 0.27642  0.49312  0.42140  Biso   1.000  H
  H1812    1.0000 0.13789  0.53000  0.44030  Biso   1.000  H
  H1813    1.0000 0.16452  0.54040  0.42780  Biso   1.000  H
  C1714    1.0000 0.76529  0.51960  0.34459  Biso   1.000  C
  H1814    1.0000 0.84619  0.48413  0.35250  Biso   1.000  H
  H1815    1.0000 0.74480  0.41291  0.35370  Biso   1.000  H
  H1816    1.0000 0.81259  0.64770  0.33910  Biso   1.000  H
  H1817    1.0000 0.88901  0.63156  0.34330  Biso   1.000  H
  H1818    1.0000 0.88904  0.63163  0.34330  Biso   1.000  H
  C1715    1.0000 0.87389  0.81188  0.35661  Biso   1.000  C
  H1819    1.0000 0.39013  0.97592  0.43000  Biso   1.000  H
  H1820    1.0000 0.31209  0.93718  0.43860  Biso   1.000  H
  C1716    1.0000 0.35012  0.84669  0.43424  Biso   1.000  C
  C1717    1.0000 0.26030  0.00039  0.41083  Biso   1.000  C
  H1821    1.0000 0.23986  0.77367  0.44390  Biso   1.000  H
  H1822    1.0000 0.27460  0.71472  0.43840  Biso   1.000  H
  C1718    1.0000 0.97009  0.06041  0.35658  Biso   1.000  C
  H1823    1.0000 0.97931  0.18651  0.35720  Biso   1.000  H
  H1824    1.0000 0.80291  0.29547  0.34540  Biso   1.000  H
  H1825    1.0000 0.72541  0.22999  0.33760  Biso   1.000  H
  C1719    1.0000 0.23210  0.20351  0.41100  Biso   1.000  C
  H1826    1.0000 0.19057  0.22799  0.42600  Biso   1.000  H
  H1827    1.0000 0.22628  0.46618  0.44390  Biso   1.000  H
  H1828    1.0000 0.28531  0.55987  0.43840  Biso   1.000  H
  H1829    1.0000 0.70450  0.50740  0.34540  Biso   1.000  H
  H1830    1.0000 0.76999  0.49540  0.33760  Biso   1.000  H
  H1831    1.0000 0.81353  0.79281  0.35720  Biso   1.000  H
  C1720    1.0000 0.93961  0.90970  0.35658  Biso   1.000  C
  H1832    1.0000 0.39212  0.86209  0.44030  Biso   1.000  H
  H1833    1.0000 0.37587  0.83548  0.42780  Biso   1.000  H
  H1834    1.0000 0.26927  0.96739  0.40550  Biso   1.000  H
  C1721    1.0000 0.25647  0.08028  0.40717  Biso   1.000  C
  C1722    1.0000 0.90992  0.96952  0.35643  Biso   1.000  C
  C1723    1.0000 0.05959  0.09008  0.35643  Biso   1.000  C
  C1724    1.0000 0.25989  0.23519  0.40040  Biso   1.000  C
  C1725    1.0000 0.23043  0.12603  0.41438  Biso   1.000  C
  C1726    1.0000 0.03048  0.94038  0.35643  Biso   1.000  C
  C1727    1.0000 0.28312  0.11209  0.39673  Biso   1.000  C
  H1835    1.0000 0.84900  0.94898  0.35620  Biso   1.000  H
  C1728    1.0000 0.09030  0.02987  0.35658  Biso   1.000  C
  H1836    1.0000 0.09997  0.15097  0.35620  Biso   1.000  H
  H1837    1.0000 0.10000  0.15103  0.35620  Biso   1.000  H
  C1729    1.0000 0.28573  0.19111  0.39306  Biso   1.000  C
  H1838    1.0000 0.26118  0.28720  0.39820  Biso   1.000  H
  H1839    1.0000 0.21171  0.10429  0.42150  Biso   1.000  H
  H1840    1.0000 0.05099  0.89997  0.35620  Biso   1.000  H
  H1841    1.0000 0.29979  0.08121  0.39190  Biso   1.000  H
  C1730    1.0000 0.18809  0.06201  0.35661  Biso   1.000  C
  C1731    1.0000 0.31704  0.22532  0.38211  Biso   1.000  C
  H1842    1.0000 0.20720  0.02067  0.35720  Biso   1.000  H
  N250     1.0000 0.24491  0.14296  0.35582  Biso   1.000  N
  H1843    1.0000 0.20724  0.02073  0.35720  Biso   1.000  H
  N251     1.0000 0.24494  0.14303  0.35582  Biso   1.000  N
  N252     1.0000 0.35089  0.19358  0.37569  Biso   1.000  N
  H1844    1.0000 0.31168  0.27340  0.37970  Biso   1.000  H
  C1732    1.0000 0.33899  0.16770  0.35585  Biso   1.000  C
  C1733    1.0000 0.38452  0.23439  0.36498  Biso   1.000  C
  C1734    1.0000 0.38018  0.20931  0.34483  Biso   1.000  C
  H1845    1.0000 0.34449  0.11482  0.35710  Biso   1.000  H
  H1846    1.0000 0.37300  0.28400  0.36400  Biso   1.000  H
  C1735    1.0000 0.48499  0.27086  0.36481  Biso   1.000  C
  C1736    1.0000 0.48503  0.27093  0.36481  Biso   1.000  C
  C1737    1.0000 0.48039  0.24572  0.34459  Biso   1.000  C
  H1847    1.0000 0.36842  0.25739  0.34330  Biso   1.000  H
  H1848    1.0000 0.35232  0.16490  0.33910  Biso   1.000  H
  H1849    1.0000 0.51320  0.31608  0.37050  Biso   1.000  H
  H1850    1.0000 0.49719  0.22319  0.36640  Biso   1.000  H
  C1738    1.0000 0.52360  0.31101  0.35372  Biso   1.000  C
  H1851    1.0000 0.49258  0.19711  0.34540  Biso   1.000  H
  H1852    1.0000 0.50459  0.27460  0.33760  Biso   1.000  H
  H1853    1.0000 0.51588  0.36209  0.35250  Biso   1.000  H
  H1854    1.0000 0.58711  0.33188  0.35370  Biso   1.000  H
  C1739    1.0000 0.60809  0.47479  0.40838  Biso   1.000  C
  C1740    1.0000 0.53314  0.49213  0.40718  Biso   1.000  C
  C1741    1.0000 0.60660  0.41671  0.39948  Biso   1.000  C
  H1855    1.0000 0.66411  0.53080  0.40820  Biso   1.000  H
  H1856    1.0000 0.60372  0.44652  0.41540  Biso   1.000  H
  C1742    1.0000 0.53660  0.53521  0.39623  Biso   1.000  C
  H1857    1.0000 0.53536  0.53087  0.41310  Biso   1.000  H
  H1858    1.0000 0.47711  0.43631  0.40780  Biso   1.000  H
  C1743    1.0000 0.61359  0.45992  0.38821  Biso   1.000  C
  H1859    1.0000 0.55159  0.35983  0.39980  Biso   1.000  H
  H1860    1.0000 0.65599  0.40577  0.40040  Biso   1.000  H
  C1744    1.0000 0.53639  0.47819  0.38682  Biso   1.000  C
  H1861    1.0000 0.59069  0.59382  0.39590  Biso   1.000  H
  N253     1.0000 0.45987  0.54588  0.39542  Biso   1.000  N
  H1862    1.0000 0.66991  0.51527  0.38770  Biso   1.000  H
  H1863    1.0000 0.61152  0.42031  0.38240  Biso   1.000  H
  N254     1.0000 0.54858  0.52600  0.37642  Biso   1.000  N
  H1864    1.0000 0.47968  0.42171  0.38670  Biso   1.000  H
  C1745    1.0000 0.47468  0.62550  0.39479  Biso   1.000  C
  C1746    1.0000 0.48639  0.49173  0.36947  Biso   1.000  C
  C1747    1.0000 0.40220  0.64650  0.39467  Biso   1.000  C
  H1865    1.0000 0.53339  0.67211  0.39440  Biso   1.000  H
  C1748    1.0000 0.48851  0.52807  0.35853  Biso   1.000  C
  H1866    1.0000 0.43520  0.43911  0.37140  Biso   1.000  H
  C1749    1.0000 0.42202  0.73512  0.39466  Biso   1.000  C
  C1750    1.0000 0.31309  0.57802  0.39466  Biso   1.000  C
  C1751    1.0000 0.42341  0.47779  0.35093  Biso   1.000  C
  C1752    1.0000 0.55620  0.61403  0.35537  Biso   1.000  C
  C1753    1.0000 0.35349  0.75573  0.39467  Biso   1.000  C
  H1867    1.0000 0.48116  0.78087  0.39460  Biso   1.000  H
  C1754    1.0000 0.24434  0.59782  0.39467  Biso   1.000  C
  H1868    1.0000 0.29971  0.51880  0.39460  Biso   1.000  H
  C1755    1.0000 0.42509  0.50773  0.34026  Biso   1.000  C
  H1869    1.0000 0.37689  0.42218  0.35300  Biso   1.000  H
  C1756    1.0000 0.55979  0.64637  0.34504  Biso   1.000  C
  H1870    1.0000 0.59958  0.64950  0.36050  Biso   1.000  H
  C1757    1.0000 0.26492  0.68691  0.39466  Biso   1.000  C
  C1758    1.0000 0.37448  0.84922  0.39479  Biso   1.000  C
  C1759    1.0000 0.15077  0.52527  0.39479  Biso   1.000  C
  C1760    1.0000 0.35820  0.45352  0.33210  Biso   1.000  C
  C1761    1.0000 0.49237  0.59169  0.33725  Biso   1.000  C
  C1762    1.0000 0.63147  0.73579  0.34181  Biso   1.000  C
  H1871    1.0000 0.21912  0.70032  0.39460  Biso   1.000  H
  H1872    1.0000 0.32791  0.86129  0.39440  Biso   1.000  H
  N255     1.0000 0.45410  0.91397  0.39542  Biso   1.000  N
  N256     1.0000 0.08599  0.54007  0.39542  Biso   1.000  N
  H1873    1.0000 0.13870  0.46659  0.39440  Biso   1.000  H
  N257     1.0000 0.29710  0.37430  0.33442  Biso   1.000  N
  H1874    1.0000 0.36002  0.47679  0.32520  Biso   1.000  H
  H1875    1.0000 0.49392  0.61269  0.33020  Biso   1.000  H
  H1876    1.0000 0.67082  0.77280  0.34720  Biso   1.000  H
  N258     1.0000 0.64210  0.76433  0.33229  Biso   1.000  N
  C1763    1.0000 0.46478  0.00139  0.39623  Biso   1.000  C
  C1764    1.0000 0.99861  0.46339  0.39623  Biso   1.000  C
  C1765    1.0000 0.23320  0.32122  0.32586  Biso   1.000  C
  C1766    1.0000 0.71660  0.85582  0.33034  Biso   1.000  C
  C1767    1.0000 0.52183  0.05821  0.38682  Biso   1.000  C
  H1877    1.0000 0.40624  0.99693  0.39590  Biso   1.000  H
  C1768    1.0000 0.50791  0.04100  0.40718  Biso   1.000  C
  C1769    1.0000 0.94177  0.46359  0.38682  Biso   1.000  C
  H1878    1.0000 0.00311  0.40931  0.39590  Biso   1.000  H
  C1770    1.0000 0.95903  0.46692  0.40718  Biso   1.000  C
  C1771    1.0000 0.24932  0.24640  0.32229  Biso   1.000  C
  C1772    1.0000 0.13922  0.28341  0.33034  Biso   1.000  C
  H1879    1.0000 0.24099  0.35943  0.31950  Biso   1.000  H
  H1880    1.0000 0.74850  0.88150  0.33720  Biso   1.000  H
  C1773    1.0000 0.77969  0.85009  0.32197  Biso   1.000  C
  C1774    1.0000 0.67879  0.91197  0.32586  Biso   1.000  C
  N259     1.0000 0.47399  0.02260  0.37642  Biso   1.000  N
  C1775    1.0000 0.54012  0.15370  0.38821  Biso   1.000  C
  H1881    1.0000 0.57832  0.05801  0.38670  Biso   1.000  H
  H1882    1.0000 0.46912  0.00453  0.41310  Biso   1.000  H
  H1883    1.0000 0.56371  0.04080  0.40780  Biso   1.000  H
  C1776    1.0000 0.52518  0.13329  0.40838  Biso   1.000  C
  N260     1.0000 0.97737  0.45138  0.37642  Biso   1.000  N
  C1777    1.0000 0.84628  0.38637  0.38821  Biso   1.000  C
  H1884    1.0000 0.94199  0.52027  0.38670  Biso   1.000  H
  H1885    1.0000 0.99552  0.46459  0.41310  Biso   1.000  H
  H1886    1.0000 0.95917  0.52287  0.40780  Biso   1.000  H
  C1778    1.0000 0.86672  0.39190  0.40838  Biso   1.000  C
  C1779    1.0000 0.18152  0.18378  0.31386  Biso   1.000  C
  H1887    1.0000 0.24709  0.21212  0.32870  Biso   1.000  H
  H1888    1.0000 0.30859  0.27207  0.31920  Biso   1.000  H
  C1780    1.0000 0.07043  0.22032  0.32197  Biso   1.000  C
  H1889    1.0000 0.13304  0.25153  0.33720  Biso   1.000  H
  N261     1.0000 0.12218  0.35789  0.33229  Biso   1.000  N
  H1890    1.0000 0.80620  0.81741  0.32520  Biso   1.000  H
  H1891    1.0000 0.74601  0.81761  0.31550  Biso   1.000  H
  C1781    1.0000 0.85290  0.94211  0.31855  Biso   1.000  C
  H1892    1.0000 0.64063  0.88163  0.31950  Biso   1.000  H
  N262     1.0000 0.62569  0.92277  0.33442  Biso   1.000  N
  C1782    1.0000 0.75360  0.00293  0.32229  Biso   1.000  C
  C1783    1.0000 0.50834  0.99473  0.36947  Biso   1.000  C
  C1784    1.0000 0.58329  0.18991  0.39948  Biso   1.000  C
  H1893    1.0000 0.48471  0.15457  0.38770  Biso   1.000  H
  H1894    1.0000 0.57971  0.19118  0.38240  Biso   1.000  H
  H1895    1.0000 0.46922  0.13329  0.40820  Biso   1.000  H
  H1896    1.0000 0.55346  0.15717  0.41540  Biso   1.000  H
  C1785    1.0000 0.00530  0.51360  0.36947  Biso   1.000  C
  C1786    1.0000 0.81011  0.39337  0.39948  Biso   1.000  C
  H1897    1.0000 0.84540  0.33009  0.38770  Biso   1.000  H
  H1898    1.0000 0.80883  0.38850  0.38240  Biso   1.000  H
  H1899    1.0000 0.86672  0.33589  0.40820  Biso   1.000  H
  H1900    1.0000 0.84282  0.39630  0.41540  Biso   1.000  H
  C1787    1.0000 0.08920  0.14710  0.31855  Biso   1.000  C
  H1901    1.0000 0.18702  0.21592  0.30710  Biso   1.000  H
  H1902    1.0000 0.19251  0.13530  0.31220  Biso   1.000  H
  H1903    1.0000 0.01119  0.19378  0.32520  Biso   1.000  H
  H1904    1.0000 0.07162  0.25400  0.31550  Biso   1.000  H
  C1788    1.0000 0.10432  0.36850  0.34181  Biso   1.000  C
  H1905    1.0000 0.88982  0.97252  0.32490  Biso   1.000  H
  H1906    1.0000 0.89038  0.93611  0.31310  Biso   1.000  H
  C1789    1.0000 0.81620  0.99773  0.31386  Biso   1.000  C
  C1790    1.0000 0.54648  0.90470  0.33210  Biso   1.000  C
  H1907    1.0000 0.78789  0.03500  0.32870  Biso   1.000  H
  H1908    1.0000 0.72787  0.03647  0.31920  Biso   1.000  H
  C1791    1.0000 0.47188  0.96038  0.35853  Biso   1.000  C
  H1909    1.0000 0.56090  0.99613  0.37140  Biso   1.000  H
  H1910    1.0000 0.64018  0.19178  0.39980  Biso   1.000  H
  H1911    1.0000 0.59420  0.25019  0.40040  Biso   1.000  H
  C1792    1.0000 0.03961  0.51153  0.35853  Biso   1.000  C
  H1912    1.0000 0.00388  0.56481  0.37140  Biso   1.000  H
  H1913    1.0000 0.80822  0.44838  0.39980  Biso   1.000  H
  H1914    1.0000 0.74980  0.34402  0.40040  Biso   1.000  H
  H1915    1.0000 0.08272  0.11023  0.32490  Biso   1.000  H
  H1916    1.0000 0.04569  0.10963  0.31310  Biso   1.000  H
  C1793    1.0000 0.08657  0.44018  0.34504  Biso   1.000  C
  H1917    1.0000 0.10201  0.32922  0.34720  Biso   1.000  H
  H1918    1.0000 0.78413  0.97112  0.30710  Biso   1.000  H
  H1919    1.0000 0.86471  0.05721  0.31220  Biso   1.000  H
  C1794    1.0000 0.49230  0.91737  0.34026  Biso   1.000  C
  H1920    1.0000 0.52322  0.88323  0.32520  Biso   1.000  H
  C1795    1.0000 0.52217  0.94558  0.35093  Biso   1.000  C
  C1796    1.0000 0.38597  0.94218  0.35537  Biso   1.000  C
  C1797    1.0000 0.05777  0.44378  0.35537  Biso   1.000  C
  C1798    1.0000 0.05442  0.57662  0.35093  Biso   1.000  C
  C1799    1.0000 0.09932  0.50760  0.33725  Biso   1.000  C
  C1800    1.0000 0.40831  0.90070  0.33725  Biso   1.000  C
  H1921    1.0000 0.57778  0.95472  0.35300  Biso   1.000  H
  C1801    1.0000 0.35360  0.91337  0.34504  Biso   1.000  C
  H1922    1.0000 0.35049  0.95011  0.36050  Biso   1.000  H
  H1923    1.0000 0.04986  0.40037  0.36050  Biso   1.000  H
  C1802    1.0000 0.08260  0.57488  0.34026  Biso   1.000  C
  H1924    1.0000 0.04532  0.62310  0.35300  Biso   1.000  H
  H1925    1.0000 0.11880  0.50613  0.33020  Biso   1.000  H
  H1926    1.0000 0.38731  0.88123  0.33020  Biso   1.000  H
  C1803    1.0000 0.26420  0.89570  0.34181  Biso   1.000  C
  C1804    1.0000 0.09531  0.64177  0.33210  Biso   1.000  C
  N263     1.0000 0.23569  0.87783  0.33229  Biso   1.000  N
  H1927    1.0000 0.22717  0.89797  0.34720  Biso   1.000  H
  N264     1.0000 0.07720  0.70292  0.33442  Biso   1.000  N
  H1928    1.0000 0.11679  0.64003  0.32520  Biso   1.000  H
  C1805    1.0000 0.14420  0.86082  0.33034  Biso   1.000  C
  C1806    1.0000 0.08801  0.76680  0.32586  Biso   1.000  C
  H1929    1.0000 0.11849  0.86703  0.33720  Biso   1.000  H
  C1807    1.0000 0.14988  0.92958  0.32197  Biso   1.000  C
  H1930    1.0000 0.11841  0.75900  0.31950  Biso   1.000  H
  C1808    1.0000 0.99710  0.75073  0.32229  Biso   1.000  C
  H1931    1.0000 0.18260  0.98879  0.32520  Biso   1.000  H
  H1932    1.0000 0.18237  0.92837  0.31550  Biso   1.000  H
  C1809    1.0000 0.05789  0.91077  0.31855  Biso   1.000  C
  C1810    1.0000 0.00228  0.81848  0.31386  Biso   1.000  C
  H1933    1.0000 0.96500  0.75293  0.32870  Biso   1.000  H
  H1934    1.0000 0.96350  0.69138  0.31920  Biso   1.000  H
  H1935    1.0000 0.02749  0.91731  0.32490  Biso   1.000  H
  H1936    1.0000 0.06390  0.95432  0.31310  Biso   1.000  H
  H1937    1.0000 0.02888  0.81301  0.30710  Biso   1.000  H
  H1938    1.0000 0.94278  0.80748  0.31220  Biso   1.000  H
  C1811    1.0000 0.49948  0.70998  0.93298  Biso   1.000  C
  C1812    1.0000 0.48999  0.62436  0.93758  Biso   1.000  C
  H1939    1.0000 0.44099  0.70238  0.93160  Biso   1.000  H
  H1940    1.0000 0.53183  0.72432  0.92610  Biso   1.000  H
  C1813    1.0000 0.54972  0.78620  0.94112  Biso   1.000  C
  C1814    1.0000 0.49003  0.62443  0.93758  Biso   1.000  C
  C1815    1.0000 0.58420  0.63757  0.93961  Biso   1.000  C
  H1941    1.0000 0.45774  0.57602  0.93240  Biso   1.000  H
  H1942    1.0000 0.45682  0.60929  0.94440  Biso   1.000  H
  C1816    1.0000 0.58424  0.63763  0.93961  Biso   1.000  C
  H1943    1.0000 0.55542  0.84069  0.93810  Biso   1.000  H
  H1944    1.0000 0.51598  0.77300  0.94790  Biso   1.000  H
  C1817    1.0000 0.64188  0.79981  0.94352  Biso   1.000  C
  C1818    1.0000 0.63407  0.71179  0.94778  Biso   1.000  C
  H1945    1.0000 0.57912  0.58282  0.94240  Biso   1.000  H
  H1946    1.0000 0.61686  0.65217  0.93270  Biso   1.000  H
  H1947    1.0000 0.67799  0.81868  0.93680  Biso   1.000  H
  N265     1.0000 0.68549  0.86729  0.95204  Biso   1.000  N
  H1948    1.0000 0.60201  0.69558  0.95480  Biso   1.000  H
  N266     1.0000 0.72444  0.72792  0.94950  Biso   1.000  N
  C1819    1.0000 0.75500  0.93851  0.94948  Biso   1.000  C
  C1820    1.0000 0.75079  0.73813  0.95936  Biso   1.000  C
  H1949    1.0000 0.77358  0.94818  0.94220  Biso   1.000  H
  C1821    1.0000 0.80809  0.00726  0.95779  Biso   1.000  C
  C1822    1.0000 0.80812  0.00733  0.95779  Biso   1.000  C
  H1950    1.0000 0.71051  0.72999  0.96490  Biso   1.000  H
  C1823    1.0000 0.84257  0.76207  0.96247  Biso   1.000  C
  C1824    1.0000 0.84260  0.76213  0.96247  Biso   1.000  C
  C1825    1.0000 0.79727  0.98539  0.96898  Biso   1.000  C
  C1826    1.0000 0.86938  0.09162  0.95462  Biso   1.000  C
  C1827    1.0000 0.90842  0.77780  0.95462  Biso   1.000  C
  C1828    1.0000 0.86520  0.77187  0.97346  Biso   1.000  C
  H1951    1.0000 0.75619  0.92737  0.97110  Biso   1.000  H
  C1829    1.0000 0.84578  0.04741  0.97689  Biso   1.000  C
  H1952    1.0000 0.87809  0.10569  0.94720  Biso   1.000  H
  C1830    1.0000 0.91947  0.15737  0.96247  Biso   1.000  C
  C1831    1.0000 0.99269  0.80081  0.95779  Biso   1.000  C
  H1953    1.0000 0.89429  0.77240  0.94720  Biso   1.000  H
  H1954    1.0000 0.82178  0.76080  0.97870  Biso   1.000  H
  C1832    1.0000 0.95262  0.79841  0.97689  Biso   1.000  C
  C1833    1.0000 0.90666  0.13476  0.97346  Biso   1.000  C
  C1834    1.0000 0.83632  0.02400  0.98869  Biso   1.000  C
  C1835    1.0000 0.90670  0.13483  0.97346  Biso   1.000  C
  C1836    1.0000 0.98732  0.24919  0.95936  Biso   1.000  C
  C1837    1.0000 0.06151  0.81648  0.94948  Biso   1.000  C
  C1838    1.0000 0.01457  0.81188  0.96898  Biso   1.000  C
  C1839    1.0000 0.97602  0.81228  0.98869  Biso   1.000  C
  H1955    1.0000 0.93899  0.17817  0.97870  Biso   1.000  H
  C1840    1.0000 0.75648  0.95452  0.99266  Biso   1.000  C
  C1841    1.0000 0.85081  0.95872  0.99289  Biso   1.000  C
  C1842    1.0000 0.81809  0.07288  0.99641  Biso   1.000  C
  C1843    1.0000 0.90566  0.06508  0.99615  Biso   1.000  C
  H1956    1.0000 0.01947  0.28947  0.96490  Biso   1.000  H
  N267     1.0000 0.00347  0.27560  0.94950  Biso   1.000  N
  H1957    1.0000 0.05183  0.82541  0.94220  Biso   1.000  H
  N268     1.0000 0.13271  0.81821  0.95204  Biso   1.000  N
  H1958    1.0000 0.07259  0.82882  0.97110  Biso   1.000  H
  C1844    1.0000 0.92711  0.74519  0.99641  Biso   1.000  C
  C1845    1.0000 0.93492  0.84062  0.99615  Biso   1.000  C
  C1846    1.0000 0.04550  0.80201  0.99266  Biso   1.000  C
  C1847    1.0000 0.04128  0.89210  0.99289  Biso   1.000  C
  H1959    1.0000 0.70880  0.92511  0.98780  Biso   1.000  H
  C1848    1.0000 0.74520  0.92711  0.00359  Biso   1.000  C
  H1960    1.0000 0.86859  0.92891  0.98810  Biso   1.000  H
  C1849    1.0000 0.84058  0.93491  0.00385  Biso   1.000  C
  H1961    1.0000 0.81681  0.12369  0.99420  Biso   1.000  H
  C1850    1.0000 0.80196  0.04547  0.00734  Biso   1.000  C
  H1962    1.0000 0.96184  0.10882  0.99380  Biso   1.000  H
  C1851    1.0000 0.89208  0.04127  0.00711  Biso   1.000  C
  C1852    1.0000 0.07767  0.36589  0.94778  Biso   1.000  C
  C1853    1.0000 0.20021  0.84209  0.94352  Biso   1.000  C
  H1963    1.0000 0.87630  0.69311  0.99420  Biso   1.000  H
  C1854    1.0000 0.95446  0.75646  0.00734  Biso   1.000  C
  C1855    1.0000 0.95450  0.75653  0.00734  Biso   1.000  C
  H1964    1.0000 0.89123  0.85302  0.99380  Biso   1.000  H
  C1856    1.0000 0.95873  0.85082  0.00711  Biso   1.000  C
  H1965    1.0000 0.07490  0.78367  0.98780  Biso   1.000  H
  C1857    1.0000 0.07288  0.81808  0.00359  Biso   1.000  C
  H1966    1.0000 0.07109  0.93971  0.98810  Biso   1.000  H
  C1858    1.0000 0.06512  0.90570  0.00385  Biso   1.000  C
  C1859    1.0000 0.81232  0.97599  0.01131  Biso   1.000  C
  H1967    1.0000 0.69311  0.87629  0.00580  Biso   1.000  H
  H1968    1.0000 0.85301  0.89117  0.00620  Biso   1.000  H
  H1969    1.0000 0.78369  0.07488  0.01220  Biso   1.000  H
  H1970    1.0000 0.93967  0.07108  0.01190  Biso   1.000  H
  H1971    1.0000 0.09359  0.39796  0.95480  Biso   1.000  H
  C1860    1.0000 0.05340  0.41577  0.93961  Biso   1.000  C
  C1861    1.0000 0.15791  0.35809  0.94352  Biso   1.000  C
  H1972    1.0000 0.09362  0.39803  0.95480  Biso   1.000  H
  C1862    1.0000 0.28819  0.92231  0.94778  Biso   1.000  C
  C1863    1.0000 0.21380  0.76347  0.94112  Biso   1.000  C
  H1973    1.0000 0.18132  0.85929  0.93680  Biso   1.000  H
  C1864    1.0000 0.21383  0.76353  0.94112  Biso   1.000  C
  H1974    1.0000 0.92508  0.70878  0.01220  Biso   1.000  H
  C1865    1.0000 0.02400  0.83628  0.01131  Biso   1.000  C
  H1975    1.0000 0.92888  0.86863  0.01190  Biso   1.000  H
  H1976    1.0000 0.12370  0.81681  0.00580  Biso   1.000  H
  H1977    1.0000 0.10881  0.96178  0.00620  Biso   1.000  H
  C1866    1.0000 0.79836  0.95258  0.02311  Biso   1.000  C
  H1978    1.0000 0.00371  0.42090  0.94240  Biso   1.000  H
  H1979    1.0000 0.03528  0.38309  0.93270  Biso   1.000  H
  C1867    1.0000 0.13441  0.50999  0.93758  Biso   1.000  C
  C1868    1.0000 0.23653  0.45031  0.94112  Biso   1.000  C
  H1980    1.0000 0.14068  0.32201  0.93680  Biso   1.000  H
  N269     1.0000 0.18178  0.31448  0.95204  Biso   1.000  N
  H1981    1.0000 0.30436  0.90637  0.95480  Biso   1.000  H
  C1869    1.0000 0.36241  0.94658  0.93961  Biso   1.000  C
  N270     1.0000 0.27211  0.99653  0.94950  Biso   1.000  N
  C1870    1.0000 0.28998  0.78947  0.93298  Biso   1.000  C
  H1982    1.0000 0.15933  0.71472  0.93810  Biso   1.000  H
  H1983    1.0000 0.22701  0.74299  0.94790  Biso   1.000  H
  C1871    1.0000 0.04742  0.84582  0.02311  Biso   1.000  C
  C1872    1.0000 0.77189  0.86523  0.02654  Biso   1.000  C
  C1873    1.0000 0.81187  0.01460  0.03102  Biso   1.000  C
  H1984    1.0000 0.11827  0.54227  0.93240  Biso   1.000  H
  H1985    1.0000 0.15252  0.54320  0.94440  Biso   1.000  H
  C1874    1.0000 0.21053  0.50052  0.93298  Biso   1.000  C
  H1986    1.0000 0.28529  0.44458  0.93810  Biso   1.000  H
  H1987    1.0000 0.25701  0.48399  0.94790  Biso   1.000  H
  C1875    1.0000 0.18348  0.24499  0.94948  Biso   1.000  C
  H1988    1.0000 0.41720  0.99633  0.94240  Biso   1.000  H
  H1989    1.0000 0.34780  0.96472  0.93270  Biso   1.000  H
  C1876    1.0000 0.37564  0.86563  0.93758  Biso   1.000  C
  C1877    1.0000 0.26188  0.01266  0.95936  Biso   1.000  C
  C1878    1.0000 0.26191  0.01273  0.95936  Biso   1.000  C
  H1990    1.0000 0.29757  0.73859  0.93160  Biso   1.000  H
  H1991    1.0000 0.27571  0.80748  0.92610  Biso   1.000  H
  C1879    1.0000 0.98538  0.79727  0.03102  Biso   1.000  C
  C1880    1.0000 0.13480  0.90670  0.02654  Biso   1.000  C
  C1881    1.0000 0.76209  0.84262  0.03753  Biso   1.000  C
  H1992    1.0000 0.76081  0.82181  0.02130  Biso   1.000  H
  C1882    1.0000 0.80082  0.99273  0.04221  Biso   1.000  C
  H1993    1.0000 0.82881  0.07261  0.02890  Biso   1.000  H
  H1994    1.0000 0.26143  0.55901  0.93160  Biso   1.000  H
  H1995    1.0000 0.19251  0.46818  0.92610  Biso   1.000  H
  H1996    1.0000 0.17458  0.22639  0.94220  Biso   1.000  H
  C1883    1.0000 0.19921  0.19191  0.95779  Biso   1.000  C
  H1997    1.0000 0.42399  0.88170  0.93240  Biso   1.000  H
  H1998    1.0000 0.39071  0.84749  0.94440  Biso   1.000  H
  H1999    1.0000 0.27000  0.98052  0.96490  Biso   1.000  H
  C1884    1.0000 0.23792  0.08048  0.96247  Biso   1.000  C
  H2000    1.0000 0.92742  0.75620  0.02890  Biso   1.000  H
  C1885    1.0000 0.00730  0.80808  0.04221  Biso   1.000  C
  C1886    1.0000 0.15743  0.91951  0.03753  Biso   1.000  C
  H2001    1.0000 0.17820  0.93898  0.02130  Biso   1.000  H
  C1887    1.0000 0.77776  0.90837  0.04538  Biso   1.000  C
  C1888    1.0000 0.73813  0.75080  0.04064  Biso   1.000  C
  C1889    1.0000 0.81649  0.06148  0.05052  Biso   1.000  C
  C1890    1.0000 0.22219  0.13056  0.95462  Biso   1.000  C
  C1891    1.0000 0.18810  0.20271  0.96898  Biso   1.000  C
  C1892    1.0000 0.22222  0.13063  0.95462  Biso   1.000  C
  C1893    1.0000 0.22809  0.09328  0.97346  Biso   1.000  C
  C1894    1.0000 0.93848  0.75500  0.05052  Biso   1.000  C
  C1895    1.0000 0.09162  0.86943  0.04538  Biso   1.000  C
  C1896    1.0000 0.24921  0.98732  0.04064  Biso   1.000  C
  H2002    1.0000 0.77240  0.89430  0.05280  Biso   1.000  H
  H2003    1.0000 0.73000  0.71052  0.03510  Biso   1.000  H
  N271     1.0000 0.72787  0.72439  0.05050  Biso   1.000  N
  H2004    1.0000 0.82540  0.05181  0.05780  Biso   1.000  H
  N272     1.0000 0.81820  0.13269  0.04796  Biso   1.000  N
  H2005    1.0000 0.22761  0.12189  0.94720  Biso   1.000  H
  C1897    1.0000 0.20159  0.15417  0.97689  Biso   1.000  C
  H2006    1.0000 0.17121  0.24379  0.97110  Biso   1.000  H
  H2007    1.0000 0.23921  0.06101  0.97870  Biso   1.000  H
  H2008    1.0000 0.94819  0.77360  0.05780  Biso   1.000  H
  N273     1.0000 0.86730  0.68551  0.04796  Biso   1.000  N
  H2009    1.0000 0.10571  0.87810  0.05280  Biso   1.000  H
  H2010    1.0000 0.28947  0.01947  0.03510  Biso   1.000  H
  N274     1.0000 0.27558  0.00346  0.05050  Biso   1.000  N
  H2011    1.0000 0.28951  0.01953  0.03510  Biso   1.000  H
  N275     1.0000 0.27561  0.00353  0.05050  Biso   1.000  N
  C1898    1.0000 0.71177  0.63410  0.05222  Biso   1.000  C
  C1899    1.0000 0.84206  0.20018  0.05648  Biso   1.000  C
  C1900    1.0000 0.18771  0.16370  0.98869  Biso   1.000  C
  C1901    1.0000 0.79981  0.64190  0.05648  Biso   1.000  C
  C1902    1.0000 0.36588  0.07768  0.05222  Biso   1.000  C
  H2012    1.0000 0.69562  0.60202  0.04520  Biso   1.000  H
  C1903    1.0000 0.63763  0.58422  0.06039  Biso   1.000  C
  C1904    1.0000 0.92228  0.28820  0.05222  Biso   1.000  C
  C1905    1.0000 0.76351  0.21378  0.05888  Biso   1.000  C
  H2013    1.0000 0.85931  0.18131  0.06320  Biso   1.000  H
  C1906    1.0000 0.25479  0.18191  0.99641  Biso   1.000  C
  C1907    1.0000 0.19799  0.24352  0.99266  Biso   1.000  C
  C1908    1.0000 0.10794  0.14923  0.99289  Biso   1.000  C
  C1909    1.0000 0.15941  0.09428  0.99615  Biso   1.000  C
  C1910    1.0000 0.78621  0.54968  0.05888  Biso   1.000  C
  H2014    1.0000 0.81866  0.67798  0.06320  Biso   1.000  H
  H2015    1.0000 0.39799  0.09362  0.04520  Biso   1.000  H
  C1911    1.0000 0.41582  0.05341  0.06039  Biso   1.000  C
  C1912    1.0000 0.35811  0.15790  0.05648  Biso   1.000  C
  H2016    1.0000 0.58280  0.57908  0.05760  Biso   1.000  H
  H2017    1.0000 0.65218  0.61689  0.06730  Biso   1.000  H
  C1913    1.0000 0.62441  0.48999  0.06242  Biso   1.000  C
  H2018    1.0000 0.90642  0.30441  0.04520  Biso   1.000  H
  C1914    1.0000 0.94663  0.36242  0.06039  Biso   1.000  C
  N276     1.0000 0.99651  0.27206  0.05050  Biso   1.000  N
  N277     1.0000 0.99654  0.27213  0.05050  Biso   1.000  N
  C1915    1.0000 0.78949  0.29000  0.06702  Biso   1.000  C
  H2019    1.0000 0.71473  0.15930  0.06190  Biso   1.000  H
  H2020    1.0000 0.74297  0.22699  0.05210  Biso   1.000  H
  H2021    1.0000 0.30688  0.18317  0.99420  Biso   1.000  H
  C1916    1.0000 0.24348  0.19798  0.00734  Biso   1.000  C
  H2022    1.0000 0.21629  0.29120  0.98780  Biso   1.000  H
  C1917    1.0000 0.18191  0.25479  0.00359  Biso   1.000  C
  H2023    1.0000 0.06029  0.13143  0.98810  Biso   1.000  H
  C1918    1.0000 0.09429  0.15937  0.00385  Biso   1.000  C
  H2024    1.0000 0.14702  0.03820  0.99380  Biso   1.000  H
  C1919    1.0000 0.14917  0.10789  0.00711  Biso   1.000  C
  C1920    1.0000 0.71000  0.49946  0.06702  Biso   1.000  C
  H2025    1.0000 0.84071  0.55541  0.06190  Biso   1.000  H
  H2026    1.0000 0.77302  0.51600  0.05210  Biso   1.000  H
  C1921    1.0000 0.71003  0.49953  0.06702  Biso   1.000  C
  H2027    1.0000 0.42087  0.00366  0.05760  Biso   1.000  H
  H2028    1.0000 0.38308  0.03527  0.06730  Biso   1.000  H
  C1922    1.0000 0.51001  0.13436  0.06242  Biso   1.000  C
  H2029    1.0000 0.42090  0.00373  0.05760  Biso   1.000  H
  C1923    1.0000 0.51004  0.13443  0.06242  Biso   1.000  C
  C1924    1.0000 0.45032  0.23652  0.05888  Biso   1.000  C
  H2030    1.0000 0.32202  0.14070  0.06320  Biso   1.000  H
  N278     1.0000 0.31450  0.18177  0.04796  Biso   1.000  N
  H2031    1.0000 0.57600  0.45772  0.06760  Biso   1.000  H
  H2032    1.0000 0.60931  0.45679  0.05560  Biso   1.000  H
  H2033    1.0000 0.99630  0.41717  0.05760  Biso   1.000  H
  H2034    1.0000 0.96468  0.34782  0.06730  Biso   1.000  H
  C1925    1.0000 0.86562  0.37562  0.06242  Biso   1.000  C
  C1926    1.0000 0.01266  0.26186  0.04064  Biso   1.000  C
  C1927    1.0000 0.01269  0.26193  0.04064  Biso   1.000  C
  H2035    1.0000 0.73860  0.29760  0.06840  Biso   1.000  H
  H2036    1.0000 0.80750  0.27567  0.07390  Biso   1.000  H
  H2037    1.0000 0.80754  0.27573  0.07390  Biso   1.000  H
  C1928    1.0000 0.16373  0.18771  0.01131  Biso   1.000  C
  H2038    1.0000 0.29123  0.21632  0.01220  Biso   1.000  H
  H2039    1.0000 0.18318  0.30687  0.00580  Biso   1.000  H
  H2040    1.0000 0.03823  0.14703  0.00620  Biso   1.000  H
  H2041    1.0000 0.13137  0.06028  0.01190  Biso   1.000  H
  H2042    1.0000 0.70241  0.44098  0.06840  Biso   1.000  H
  H2043    1.0000 0.72432  0.53181  0.07390  Biso   1.000  H
  H2044    1.0000 0.54228  0.11829  0.06760  Biso   1.000  H
  H2045    1.0000 0.54322  0.15250  0.05560  Biso   1.000  H
  C1929    1.0000 0.50050  0.21052  0.06702  Biso   1.000  C
  H2046    1.0000 0.44461  0.28527  0.06190  Biso   1.000  H
  H2047    1.0000 0.48401  0.25699  0.05210  Biso   1.000  H
  C1930    1.0000 0.24502  0.18351  0.05052  Biso   1.000  C
  H2048    1.0000 0.88171  0.42397  0.06760  Biso   1.000  H
  H2049    1.0000 0.84752  0.39070  0.05560  Biso   1.000  H
  H2050    1.0000 0.98052  0.27000  0.03510  Biso   1.000  H
  C1931    1.0000 0.08050  0.23792  0.03753  Biso   1.000  C
  C1932    1.0000 0.15421  0.20158  0.02311  Biso   1.000  C
  H2051    1.0000 0.55897  0.26139  0.06840  Biso   1.000  H
  H2052    1.0000 0.46822  0.19251  0.07390  Biso   1.000  H
  H2053    1.0000 0.22641  0.17457  0.05780  Biso   1.000  H
  C1933    1.0000 0.19187  0.19918  0.04221  Biso   1.000  C
  C1934    1.0000 0.13061  0.22218  0.04538  Biso   1.000  C
  C1935    1.0000 0.09333  0.22812  0.02654  Biso   1.000  C
  C1936    1.0000 0.20268  0.18811  0.03102  Biso   1.000  C
  H2054    1.0000 0.12188  0.22759  0.05280  Biso   1.000  H
  H2055    1.0000 0.06098  0.23919  0.02130  Biso   1.000  H
  H2056    1.0000 0.24376  0.17117  0.02890  Biso   1.000  H
  C1937    1.0000 0.49948  0.70998  0.93298  Biso   1.000  C
  C1938    1.0000 0.48999  0.62436  0.93758  Biso   1.000  C
  H2057    1.0000 0.44099  0.70238  0.93160  Biso   1.000  H
  H2058    1.0000 0.53183  0.72432  0.92610  Biso   1.000  H
  C1939    1.0000 0.54972  0.78620  0.94112  Biso   1.000  C
  C1940    1.0000 0.49003  0.62443  0.93758  Biso   1.000  C
  C1941    1.0000 0.58420  0.63757  0.93961  Biso   1.000  C
  H2059    1.0000 0.45774  0.57602  0.93240  Biso   1.000  H
  H2060    1.0000 0.45682  0.60929  0.94440  Biso   1.000  H
  C1942    1.0000 0.58424  0.63763  0.93961  Biso   1.000  C
  H2061    1.0000 0.55542  0.84069  0.93810  Biso   1.000  H
  H2062    1.0000 0.51598  0.77300  0.94790  Biso   1.000  H
  C1943    1.0000 0.64188  0.79981  0.94352  Biso   1.000  C
  C1944    1.0000 0.63407  0.71179  0.94778  Biso   1.000  C
  H2063    1.0000 0.57912  0.58282  0.94240  Biso   1.000  H
  H2064    1.0000 0.61686  0.65217  0.93270  Biso   1.000  H
  H2065    1.0000 0.67799  0.81868  0.93680  Biso   1.000  H
  N279     1.0000 0.68549  0.86729  0.95204  Biso   1.000  N
  H2066    1.0000 0.60201  0.69558  0.95480  Biso   1.000  H
  N280     1.0000 0.72444  0.72792  0.94950  Biso   1.000  N
  C1945    1.0000 0.75500  0.93851  0.94948  Biso   1.000  C
  C1946    1.0000 0.75079  0.73813  0.95936  Biso   1.000  C
  H2067    1.0000 0.77358  0.94818  0.94220  Biso   1.000  H
  C1947    1.0000 0.80809  0.00726  0.95779  Biso   1.000  C
  C1948    1.0000 0.80812  0.00733  0.95779  Biso   1.000  C
  H2068    1.0000 0.71051  0.72999  0.96490  Biso   1.000  H
  C1949    1.0000 0.84257  0.76207  0.96247  Biso   1.000  C
  C1950    1.0000 0.84260  0.76213  0.96247  Biso   1.000  C
  C1951    1.0000 0.79727  0.98539  0.96898  Biso   1.000  C
  C1952    1.0000 0.86938  0.09162  0.95462  Biso   1.000  C
  C1953    1.0000 0.90842  0.77780  0.95462  Biso   1.000  C
  C1954    1.0000 0.86520  0.77187  0.97346  Biso   1.000  C
  H2069    1.0000 0.75619  0.92737  0.97110  Biso   1.000  H
  C1955    1.0000 0.84578  0.04741  0.97689  Biso   1.000  C
  H2070    1.0000 0.87809  0.10569  0.94720  Biso   1.000  H
  C1956    1.0000 0.91947  0.15737  0.96247  Biso   1.000  C
  C1957    1.0000 0.99269  0.80081  0.95779  Biso   1.000  C
  H2071    1.0000 0.89429  0.77240  0.94720  Biso   1.000  H
  H2072    1.0000 0.82178  0.76080  0.97870  Biso   1.000  H
  C1958    1.0000 0.95262  0.79841  0.97689  Biso   1.000  C
  C1959    1.0000 0.90666  0.13476  0.97346  Biso   1.000  C
  C1960    1.0000 0.83632  0.02400  0.98869  Biso   1.000  C
  C1961    1.0000 0.90670  0.13483  0.97346  Biso   1.000  C
  C1962    1.0000 0.98732  0.24919  0.95936  Biso   1.000  C
  C1963    1.0000 0.06151  0.81648  0.94948  Biso   1.000  C
  C1964    1.0000 0.01457  0.81188  0.96898  Biso   1.000  C
  C1965    1.0000 0.97602  0.81228  0.98869  Biso   1.000  C
  H2073    1.0000 0.93899  0.17817  0.97870  Biso   1.000  H
  C1966    1.0000 0.75648  0.95452  0.99266  Biso   1.000  C
  C1967    1.0000 0.85081  0.95872  0.99289  Biso   1.000  C
  C1968    1.0000 0.81809  0.07288  0.99641  Biso   1.000  C
  C1969    1.0000 0.90566  0.06508  0.99615  Biso   1.000  C
  H2074    1.0000 0.01947  0.28947  0.96490  Biso   1.000  H
  N281     1.0000 0.00347  0.27560  0.94950  Biso   1.000  N
  H2075    1.0000 0.05183  0.82541  0.94220  Biso   1.000  H
  N282     1.0000 0.13271  0.81821  0.95204  Biso   1.000  N
  H2076    1.0000 0.07259  0.82882  0.97110  Biso   1.000  H
  C1970    1.0000 0.92711  0.74519  0.99641  Biso   1.000  C
  C1971    1.0000 0.93492  0.84062  0.99615  Biso   1.000  C
  C1972    1.0000 0.04550  0.80201  0.99266  Biso   1.000  C
  C1973    1.0000 0.04128  0.89210  0.99289  Biso   1.000  C
  H2077    1.0000 0.70880  0.92511  0.98780  Biso   1.000  H
  C1974    1.0000 0.74520  0.92711  0.00359  Biso   1.000  C
  H2078    1.0000 0.86859  0.92891  0.98810  Biso   1.000  H
  C1975    1.0000 0.84058  0.93491  0.00385  Biso   1.000  C
  H2079    1.0000 0.81681  0.12369  0.99420  Biso   1.000  H
  C1976    1.0000 0.80196  0.04547  0.00734  Biso   1.000  C
  H2080    1.0000 0.96184  0.10882  0.99380  Biso   1.000  H
  C1977    1.0000 0.89208  0.04127  0.00711  Biso   1.000  C
  C1978    1.0000 0.07767  0.36589  0.94778  Biso   1.000  C
  C1979    1.0000 0.20021  0.84209  0.94352  Biso   1.000  C
  H2081    1.0000 0.87630  0.69311  0.99420  Biso   1.000  H
  C1980    1.0000 0.95446  0.75646  0.00734  Biso   1.000  C
  C1981    1.0000 0.95450  0.75653  0.00734  Biso   1.000  C
  H2082    1.0000 0.89123  0.85302  0.99380  Biso   1.000  H
  C1982    1.0000 0.95873  0.85082  0.00711  Biso   1.000  C
  H2083    1.0000 0.07490  0.78367  0.98780  Biso   1.000  H
  C1983    1.0000 0.07288  0.81808  0.00359  Biso   1.000  C
  H2084    1.0000 0.07109  0.93971  0.98810  Biso   1.000  H
  C1984    1.0000 0.06512  0.90570  0.00385  Biso   1.000  C
  C1985    1.0000 0.81232  0.97599  0.01131  Biso   1.000  C
  H2085    1.0000 0.69311  0.87629  0.00580  Biso   1.000  H
  H2086    1.0000 0.85301  0.89117  0.00620  Biso   1.000  H
  H2087    1.0000 0.78369  0.07488  0.01220  Biso   1.000  H
  H2088    1.0000 0.93967  0.07108  0.01190  Biso   1.000  H
  H2089    1.0000 0.09359  0.39796  0.95480  Biso   1.000  H
  C1986    1.0000 0.05340  0.41577  0.93961  Biso   1.000  C
  C1987    1.0000 0.15791  0.35809  0.94352  Biso   1.000  C
  H2090    1.0000 0.09362  0.39803  0.95480  Biso   1.000  H
  C1988    1.0000 0.28819  0.92231  0.94778  Biso   1.000  C
  C1989    1.0000 0.21380  0.76347  0.94112  Biso   1.000  C
  H2091    1.0000 0.18132  0.85929  0.93680  Biso   1.000  H
  C1990    1.0000 0.21383  0.76353  0.94112  Biso   1.000  C
  H2092    1.0000 0.92508  0.70878  0.01220  Biso   1.000  H
  C1991    1.0000 0.02400  0.83628  0.01131  Biso   1.000  C
  H2093    1.0000 0.92888  0.86863  0.01190  Biso   1.000  H
  H2094    1.0000 0.12370  0.81681  0.00580  Biso   1.000  H
  H2095    1.0000 0.10881  0.96178  0.00620  Biso   1.000  H
  C1992    1.0000 0.79836  0.95258  0.02311  Biso   1.000  C
  H2096    1.0000 0.00371  0.42090  0.94240  Biso   1.000  H
  H2097    1.0000 0.03528  0.38309  0.93270  Biso   1.000  H
  C1993    1.0000 0.13441  0.50999  0.93758  Biso   1.000  C
  C1994    1.0000 0.23653  0.45031  0.94112  Biso   1.000  C
  H2098    1.0000 0.14068  0.32201  0.93680  Biso   1.000  H
  N283     1.0000 0.18178  0.31448  0.95204  Biso   1.000  N
  H2099    1.0000 0.30436  0.90637  0.95480  Biso   1.000  H
  C1995    1.0000 0.36241  0.94658  0.93961  Biso   1.000  C
  N284     1.0000 0.27211  0.99653  0.94950  Biso   1.000  N
  C1996    1.0000 0.28998  0.78947  0.93298  Biso   1.000  C
  H2100    1.0000 0.15933  0.71472  0.93810  Biso   1.000  H
  H2101    1.0000 0.22701  0.74299  0.94790  Biso   1.000  H
  C1997    1.0000 0.04742  0.84582  0.02311  Biso   1.000  C
  C1998    1.0000 0.77189  0.86523  0.02654  Biso   1.000  C
  C1999    1.0000 0.81187  0.01460  0.03102  Biso   1.000  C
  H2102    1.0000 0.11827  0.54227  0.93240  Biso   1.000  H
  H2103    1.0000 0.15252  0.54320  0.94440  Biso   1.000  H
  C2000    1.0000 0.21053  0.50052  0.93298  Biso   1.000  C
  H2104    1.0000 0.28529  0.44458  0.93810  Biso   1.000  H
  H2105    1.0000 0.25701  0.48399  0.94790  Biso   1.000  H
  C2001    1.0000 0.18348  0.24499  0.94948  Biso   1.000  C
  H2106    1.0000 0.41720  0.99633  0.94240  Biso   1.000  H
  H2107    1.0000 0.34780  0.96472  0.93270  Biso   1.000  H
  C2002    1.0000 0.37564  0.86563  0.93758  Biso   1.000  C
  C2003    1.0000 0.26188  0.01266  0.95936  Biso   1.000  C
  C2004    1.0000 0.26191  0.01273  0.95936  Biso   1.000  C
  H2108    1.0000 0.29757  0.73859  0.93160  Biso   1.000  H
  H2109    1.0000 0.27571  0.80748  0.92610  Biso   1.000  H
  C2005    1.0000 0.98538  0.79727  0.03102  Biso   1.000  C
  C2006    1.0000 0.13480  0.90670  0.02654  Biso   1.000  C
  C2007    1.0000 0.76209  0.84262  0.03753  Biso   1.000  C
  H2110    1.0000 0.76081  0.82181  0.02130  Biso   1.000  H
  C2008    1.0000 0.80082  0.99273  0.04221  Biso   1.000  C
  H2111    1.0000 0.82881  0.07261  0.02890  Biso   1.000  H
  H2112    1.0000 0.26143  0.55901  0.93160  Biso   1.000  H
  H2113    1.0000 0.19251  0.46818  0.92610  Biso   1.000  H
  H2114    1.0000 0.17458  0.22639  0.94220  Biso   1.000  H
  C2009    1.0000 0.19921  0.19191  0.95779  Biso   1.000  C
  H2115    1.0000 0.42399  0.88170  0.93240  Biso   1.000  H
  H2116    1.0000 0.39071  0.84749  0.94440  Biso   1.000  H
  H2117    1.0000 0.27000  0.98052  0.96490  Biso   1.000  H
  C2010    1.0000 0.23792  0.08048  0.96247  Biso   1.000  C
  H2118    1.0000 0.92742  0.75620  0.02890  Biso   1.000  H
  C2011    1.0000 0.00730  0.80808  0.04221  Biso   1.000  C
  C2012    1.0000 0.15743  0.91951  0.03753  Biso   1.000  C
  H2119    1.0000 0.17820  0.93898  0.02130  Biso   1.000  H
  C2013    1.0000 0.77776  0.90837  0.04538  Biso   1.000  C
  C2014    1.0000 0.73813  0.75080  0.04064  Biso   1.000  C
  C2015    1.0000 0.81649  0.06148  0.05052  Biso   1.000  C
  C2016    1.0000 0.22219  0.13056  0.95462  Biso   1.000  C
  C2017    1.0000 0.18810  0.20271  0.96898  Biso   1.000  C
  C2018    1.0000 0.22222  0.13063  0.95462  Biso   1.000  C
  C2019    1.0000 0.22809  0.09328  0.97346  Biso   1.000  C
  C2020    1.0000 0.93848  0.75500  0.05052  Biso   1.000  C
  C2021    1.0000 0.09162  0.86943  0.04538  Biso   1.000  C
  C2022    1.0000 0.24921  0.98732  0.04064  Biso   1.000  C
  H2120    1.0000 0.77240  0.89430  0.05280  Biso   1.000  H
  H2121    1.0000 0.73000  0.71052  0.03510  Biso   1.000  H
  N285     1.0000 0.72787  0.72439  0.05050  Biso   1.000  N
  H2122    1.0000 0.82540  0.05181  0.05780  Biso   1.000  H
  N286     1.0000 0.81820  0.13269  0.04796  Biso   1.000  N
  H2123    1.0000 0.22761  0.12189  0.94720  Biso   1.000  H
  C2023    1.0000 0.20159  0.15417  0.97689  Biso   1.000  C
  H2124    1.0000 0.17121  0.24379  0.97110  Biso   1.000  H
  H2125    1.0000 0.23921  0.06101  0.97870  Biso   1.000  H
  H2126    1.0000 0.94819  0.77360  0.05780  Biso   1.000  H
  N287     1.0000 0.86730  0.68551  0.04796  Biso   1.000  N
  H2127    1.0000 0.10571  0.87810  0.05280  Biso   1.000  H
  H2128    1.0000 0.28947  0.01947  0.03510  Biso   1.000  H
  N288     1.0000 0.27558  0.00346  0.05050  Biso   1.000  N
  H2129    1.0000 0.28951  0.01953  0.03510  Biso   1.000  H
  N289     1.0000 0.27561  0.00353  0.05050  Biso   1.000  N
  C2024    1.0000 0.71177  0.63410  0.05222  Biso   1.000  C
  C2025    1.0000 0.84206  0.20018  0.05648  Biso   1.000  C
  C2026    1.0000 0.18771  0.16370  0.98869  Biso   1.000  C
  C2027    1.0000 0.79981  0.64190  0.05648  Biso   1.000  C
  C2028    1.0000 0.36588  0.07768  0.05222  Biso   1.000  C
  H2130    1.0000 0.69562  0.60202  0.04520  Biso   1.000  H
  C2029    1.0000 0.63763  0.58422  0.06039  Biso   1.000  C
  C2030    1.0000 0.92228  0.28820  0.05222  Biso   1.000  C
  C2031    1.0000 0.76351  0.21378  0.05888  Biso   1.000  C
  H2131    1.0000 0.85931  0.18131  0.06320  Biso   1.000  H
  C2032    1.0000 0.25479  0.18191  0.99641  Biso   1.000  C
  C2033    1.0000 0.19799  0.24352  0.99266  Biso   1.000  C
  C2034    1.0000 0.10794  0.14923  0.99289  Biso   1.000  C
  C2035    1.0000 0.15941  0.09428  0.99615  Biso   1.000  C
  C2036    1.0000 0.78621  0.54968  0.05888  Biso   1.000  C
  H2132    1.0000 0.81866  0.67798  0.06320  Biso   1.000  H
  H2133    1.0000 0.39799  0.09362  0.04520  Biso   1.000  H
  C2037    1.0000 0.41582  0.05341  0.06039  Biso   1.000  C
  C2038    1.0000 0.35811  0.15790  0.05648  Biso   1.000  C
  H2134    1.0000 0.58280  0.57908  0.05760  Biso   1.000  H
  H2135    1.0000 0.65218  0.61689  0.06730  Biso   1.000  H
  C2039    1.0000 0.62441  0.48999  0.06242  Biso   1.000  C
  H2136    1.0000 0.90642  0.30441  0.04520  Biso   1.000  H
  C2040    1.0000 0.94663  0.36242  0.06039  Biso   1.000  C
  N290     1.0000 0.99651  0.27206  0.05050  Biso   1.000  N
  N291     1.0000 0.99654  0.27213  0.05050  Biso   1.000  N
  C2041    1.0000 0.78949  0.29000  0.06702  Biso   1.000  C
  H2137    1.0000 0.71473  0.15930  0.06190  Biso   1.000  H
  H2138    1.0000 0.74297  0.22699  0.05210  Biso   1.000  H
  H2139    1.0000 0.30688  0.18317  0.99420  Biso   1.000  H
  C2042    1.0000 0.24348  0.19798  0.00734  Biso   1.000  C
  H2140    1.0000 0.21629  0.29120  0.98780  Biso   1.000  H
  C2043    1.0000 0.18191  0.25479  0.00359  Biso   1.000  C
  H2141    1.0000 0.06029  0.13143  0.98810  Biso   1.000  H
  C2044    1.0000 0.09429  0.15937  0.00385  Biso   1.000  C
  H2142    1.0000 0.14702  0.03820  0.99380  Biso   1.000  H
  C2045    1.0000 0.14917  0.10789  0.00711  Biso   1.000  C
  C2046    1.0000 0.71000  0.49946  0.06702  Biso   1.000  C
  H2143    1.0000 0.84071  0.55541  0.06190  Biso   1.000  H
  H2144    1.0000 0.77302  0.51600  0.05210  Biso   1.000  H
  C2047    1.0000 0.71003  0.49953  0.06702  Biso   1.000  C
  H2145    1.0000 0.42087  0.00366  0.05760  Biso   1.000  H
  H2146    1.0000 0.38308  0.03527  0.06730  Biso   1.000  H
  C2048    1.0000 0.51001  0.13436  0.06242  Biso   1.000  C
  H2147    1.0000 0.42090  0.00373  0.05760  Biso   1.000  H
  C2049    1.0000 0.51004  0.13443  0.06242  Biso   1.000  C
  C2050    1.0000 0.45032  0.23652  0.05888  Biso   1.000  C
  H2148    1.0000 0.32202  0.14070  0.06320  Biso   1.000  H
  N292     1.0000 0.31450  0.18177  0.04796  Biso   1.000  N
  H2149    1.0000 0.57600  0.45772  0.06760  Biso   1.000  H
  H2150    1.0000 0.60931  0.45679  0.05560  Biso   1.000  H
  H2151    1.0000 0.99630  0.41717  0.05760  Biso   1.000  H
  H2152    1.0000 0.96468  0.34782  0.06730  Biso   1.000  H
  C2051    1.0000 0.86562  0.37562  0.06242  Biso   1.000  C
  C2052    1.0000 0.01266  0.26186  0.04064  Biso   1.000  C
  C2053    1.0000 0.01269  0.26193  0.04064  Biso   1.000  C
  H2153    1.0000 0.73860  0.29760  0.06840  Biso   1.000  H
  H2154    1.0000 0.80750  0.27567  0.07390  Biso   1.000  H
  H2155    1.0000 0.80754  0.27573  0.07390  Biso   1.000  H
  C2054    1.0000 0.16373  0.18771  0.01131  Biso   1.000  C
  H2156    1.0000 0.29123  0.21632  0.01220  Biso   1.000  H
  H2157    1.0000 0.18318  0.30687  0.00580  Biso   1.000  H
  H2158    1.0000 0.03823  0.14703  0.00620  Biso   1.000  H
  H2159    1.0000 0.13137  0.06028  0.01190  Biso   1.000  H
  H2160    1.0000 0.70241  0.44098  0.06840  Biso   1.000  H
  H2161    1.0000 0.72432  0.53181  0.07390  Biso   1.000  H
  H2162    1.0000 0.54228  0.11829  0.06760  Biso   1.000  H
  H2163    1.0000 0.54322  0.15250  0.05560  Biso   1.000  H
  C2055    1.0000 0.50050  0.21052  0.06702  Biso   1.000  C
  H2164    1.0000 0.44461  0.28527  0.06190  Biso   1.000  H
  H2165    1.0000 0.48401  0.25699  0.05210  Biso   1.000  H
  C2056    1.0000 0.24502  0.18351  0.05052  Biso   1.000  C
  H2166    1.0000 0.88171  0.42397  0.06760  Biso   1.000  H
  H2167    1.0000 0.84752  0.39070  0.05560  Biso   1.000  H
  H2168    1.0000 0.98052  0.27000  0.03510  Biso   1.000  H
  C2057    1.0000 0.08050  0.23792  0.03753  Biso   1.000  C
  C2058    1.0000 0.15421  0.20158  0.02311  Biso   1.000  C
  H2169    1.0000 0.55897  0.26139  0.06840  Biso   1.000  H
  H2170    1.0000 0.46822  0.19251  0.07390  Biso   1.000  H
  H2171    1.0000 0.22641  0.17457  0.05780  Biso   1.000  H
  C2059    1.0000 0.19187  0.19918  0.04221  Biso   1.000  C
  C2060    1.0000 0.13061  0.22218  0.04538  Biso   1.000  C
  C2061    1.0000 0.09333  0.22812  0.02654  Biso   1.000  C
  C2062    1.0000 0.20268  0.18811  0.03102  Biso   1.000  C
  H2172    1.0000 0.12188  0.22759  0.05280  Biso   1.000  H
  H2173    1.0000 0.06098  0.23919  0.02130  Biso   1.000  H
  H2174    1.0000 0.24376  0.17117  0.02890  Biso   1.000  H
  C2063    1.0000 0.49948  0.70998  0.93298  Biso   1.000  C
  H2175    1.0000 0.44099  0.70238  0.93160  Biso   1.000  H
  H2176    1.0000 0.53183  0.72432  0.92610  Biso   1.000  H
  C2064    1.0000 0.54972  0.78620  0.94112  Biso   1.000  C
  C2065    1.0000 0.48999  0.62436  0.93758  Biso   1.000  C
  C2066    1.0000 0.49003  0.62443  0.93758  Biso   1.000  C
  H2177    1.0000 0.55542  0.84069  0.93810  Biso   1.000  H
  H2178    1.0000 0.51598  0.77300  0.94790  Biso   1.000  H
  C2067    1.0000 0.64188  0.79981  0.94352  Biso   1.000  C
  H2179    1.0000 0.45774  0.57602  0.93240  Biso   1.000  H
  H2180    1.0000 0.45682  0.60929  0.94440  Biso   1.000  H
  C2068    1.0000 0.58420  0.63757  0.93961  Biso   1.000  C
  C2069    1.0000 0.58424  0.63763  0.93961  Biso   1.000  C
  C2070    1.0000 0.63407  0.71179  0.94778  Biso   1.000  C
  H2181    1.0000 0.67799  0.81868  0.93680  Biso   1.000  H
  N293     1.0000 0.68549  0.86729  0.95204  Biso   1.000  N
  H2182    1.0000 0.57912  0.58282  0.94240  Biso   1.000  H
  H2183    1.0000 0.61686  0.65217  0.93270  Biso   1.000  H
  H2184    1.0000 0.60201  0.69558  0.95480  Biso   1.000  H
  N294     1.0000 0.72444  0.72792  0.94950  Biso   1.000  N
  C2071    1.0000 0.75500  0.93851  0.94948  Biso   1.000  C
  C2072    1.0000 0.75079  0.73813  0.95936  Biso   1.000  C
  H2185    1.0000 0.77358  0.94818  0.94220  Biso   1.000  H
  C2073    1.0000 0.80809  0.00726  0.95779  Biso   1.000  C
  C2074    1.0000 0.80812  0.00733  0.95779  Biso   1.000  C
  H2186    1.0000 0.71051  0.72999  0.96490  Biso   1.000  H
  C2075    1.0000 0.84257  0.76207  0.96247  Biso   1.000  C
  C2076    1.0000 0.84260  0.76213  0.96247  Biso   1.000  C
  C2077    1.0000 0.79727  0.98539  0.96898  Biso   1.000  C
  C2078    1.0000 0.86938  0.09162  0.95462  Biso   1.000  C
  C2079    1.0000 0.90842  0.77780  0.95462  Biso   1.000  C
  C2080    1.0000 0.86520  0.77187  0.97346  Biso   1.000  C
  H2187    1.0000 0.75619  0.92737  0.97110  Biso   1.000  H
  C2081    1.0000 0.84578  0.04741  0.97689  Biso   1.000  C
  H2188    1.0000 0.87809  0.10569  0.94720  Biso   1.000  H
  C2082    1.0000 0.91947  0.15737  0.96247  Biso   1.000  C
  C2083    1.0000 0.99269  0.80081  0.95779  Biso   1.000  C
  H2189    1.0000 0.89429  0.77240  0.94720  Biso   1.000  H
  H2190    1.0000 0.82178  0.76080  0.97870  Biso   1.000  H
  C2084    1.0000 0.95262  0.79841  0.97689  Biso   1.000  C
  C2085    1.0000 0.90666  0.13476  0.97346  Biso   1.000  C
  C2086    1.0000 0.83632  0.02400  0.98869  Biso   1.000  C
  C2087    1.0000 0.90670  0.13483  0.97346  Biso   1.000  C
  C2088    1.0000 0.98732  0.24919  0.95936  Biso   1.000  C
  C2089    1.0000 0.06151  0.81648  0.94948  Biso   1.000  C
  C2090    1.0000 0.01457  0.81188  0.96898  Biso   1.000  C
  C2091    1.0000 0.97602  0.81228  0.98869  Biso   1.000  C
  H2191    1.0000 0.93899  0.17817  0.97870  Biso   1.000  H
  C2092    1.0000 0.75648  0.95452  0.99266  Biso   1.000  C
  C2093    1.0000 0.85081  0.95872  0.99289  Biso   1.000  C
  C2094    1.0000 0.81809  0.07288  0.99641  Biso   1.000  C
  C2095    1.0000 0.90566  0.06508  0.99615  Biso   1.000  C
  H2192    1.0000 0.01947  0.28947  0.96490  Biso   1.000  H
  N295     1.0000 0.00347  0.27560  0.94950  Biso   1.000  N
  H2193    1.0000 0.05183  0.82541  0.94220  Biso   1.000  H
  N296     1.0000 0.13271  0.81821  0.95204  Biso   1.000  N
  H2194    1.0000 0.07259  0.82882  0.97110  Biso   1.000  H
  C2096    1.0000 0.92711  0.74519  0.99641  Biso   1.000  C
  C2097    1.0000 0.93492  0.84062  0.99615  Biso   1.000  C
  C2098    1.0000 0.04550  0.80201  0.99266  Biso   1.000  C
  C2099    1.0000 0.04128  0.89210  0.99289  Biso   1.000  C
  H2195    1.0000 0.70880  0.92511  0.98780  Biso   1.000  H
  C2100    1.0000 0.74520  0.92711  0.00359  Biso   1.000  C
  H2196    1.0000 0.86859  0.92891  0.98810  Biso   1.000  H
  C2101    1.0000 0.84058  0.93491  0.00385  Biso   1.000  C
  H2197    1.0000 0.81681  0.12369  0.99420  Biso   1.000  H
  C2102    1.0000 0.80196  0.04547  0.00734  Biso   1.000  C
  H2198    1.0000 0.96184  0.10882  0.99380  Biso   1.000  H
  C2103    1.0000 0.89208  0.04127  0.00711  Biso   1.000  C
  C2104    1.0000 0.07767  0.36589  0.94778  Biso   1.000  C
  C2105    1.0000 0.20021  0.84209  0.94352  Biso   1.000  C
  H2199    1.0000 0.87630  0.69311  0.99420  Biso   1.000  H
  C2106    1.0000 0.95446  0.75646  0.00734  Biso   1.000  C
  C2107    1.0000 0.95450  0.75653  0.00734  Biso   1.000  C
  H2200    1.0000 0.89123  0.85302  0.99380  Biso   1.000  H
  C2108    1.0000 0.95873  0.85082  0.00711  Biso   1.000  C
  H2201    1.0000 0.07490  0.78367  0.98780  Biso   1.000  H
  C2109    1.0000 0.07288  0.81808  0.00359  Biso   1.000  C
  H2202    1.0000 0.07109  0.93971  0.98810  Biso   1.000  H
  C2110    1.0000 0.06512  0.90570  0.00385  Biso   1.000  C
  C2111    1.0000 0.81232  0.97599  0.01131  Biso   1.000  C
  H2203    1.0000 0.69311  0.87629  0.00580  Biso   1.000  H
  H2204    1.0000 0.85301  0.89117  0.00620  Biso   1.000  H
  H2205    1.0000 0.78369  0.07488  0.01220  Biso   1.000  H
  H2206    1.0000 0.93967  0.07108  0.01190  Biso   1.000  H
  H2207    1.0000 0.09359  0.39796  0.95480  Biso   1.000  H
  C2112    1.0000 0.05340  0.41577  0.93961  Biso   1.000  C
  C2113    1.0000 0.15791  0.35809  0.94352  Biso   1.000  C
  H2208    1.0000 0.09362  0.39803  0.95480  Biso   1.000  H
  C2114    1.0000 0.28819  0.92231  0.94778  Biso   1.000  C
  C2115    1.0000 0.21380  0.76347  0.94112  Biso   1.000  C
  H2209    1.0000 0.18132  0.85929  0.93680  Biso   1.000  H
  C2116    1.0000 0.21383  0.76353  0.94112  Biso   1.000  C
  H2210    1.0000 0.92508  0.70878  0.01220  Biso   1.000  H
  C2117    1.0000 0.02400  0.83628  0.01131  Biso   1.000  C
  H2211    1.0000 0.92888  0.86863  0.01190  Biso   1.000  H
  H2212    1.0000 0.12370  0.81681  0.00580  Biso   1.000  H
  H2213    1.0000 0.10881  0.96178  0.00620  Biso   1.000  H
  C2118    1.0000 0.79836  0.95258  0.02311  Biso   1.000  C
  H2214    1.0000 0.00371  0.42090  0.94240  Biso   1.000  H
  H2215    1.0000 0.03528  0.38309  0.93270  Biso   1.000  H
  C2119    1.0000 0.13441  0.50999  0.93758  Biso   1.000  C
  C2120    1.0000 0.23653  0.45031  0.94112  Biso   1.000  C
  H2216    1.0000 0.14068  0.32201  0.93680  Biso   1.000  H
  N297     1.0000 0.18178  0.31448  0.95204  Biso   1.000  N
  H2217    1.0000 0.30436  0.90637  0.95480  Biso   1.000  H
  C2121    1.0000 0.36241  0.94658  0.93961  Biso   1.000  C
  N298     1.0000 0.27211  0.99653  0.94950  Biso   1.000  N
  C2122    1.0000 0.28998  0.78947  0.93298  Biso   1.000  C
  H2218    1.0000 0.15933  0.71472  0.93810  Biso   1.000  H
  H2219    1.0000 0.22701  0.74299  0.94790  Biso   1.000  H
  C2123    1.0000 0.04742  0.84582  0.02311  Biso   1.000  C
  C2124    1.0000 0.77189  0.86523  0.02654  Biso   1.000  C
  C2125    1.0000 0.81187  0.01460  0.03102  Biso   1.000  C
  H2220    1.0000 0.11827  0.54227  0.93240  Biso   1.000  H
  H2221    1.0000 0.15252  0.54320  0.94440  Biso   1.000  H
  C2126    1.0000 0.21053  0.50052  0.93298  Biso   1.000  C
  H2222    1.0000 0.28529  0.44458  0.93810  Biso   1.000  H
  H2223    1.0000 0.25701  0.48399  0.94790  Biso   1.000  H
  C2127    1.0000 0.18348  0.24499  0.94948  Biso   1.000  C
  H2224    1.0000 0.41720  0.99633  0.94240  Biso   1.000  H
  H2225    1.0000 0.34780  0.96472  0.93270  Biso   1.000  H
  C2128    1.0000 0.37564  0.86563  0.93758  Biso   1.000  C
  C2129    1.0000 0.26188  0.01266  0.95936  Biso   1.000  C
  C2130    1.0000 0.26191  0.01273  0.95936  Biso   1.000  C
  H2226    1.0000 0.29757  0.73859  0.93160  Biso   1.000  H
  H2227    1.0000 0.27571  0.80748  0.92610  Biso   1.000  H
  C2131    1.0000 0.98538  0.79727  0.03102  Biso   1.000  C
  C2132    1.0000 0.13480  0.90670  0.02654  Biso   1.000  C
  C2133    1.0000 0.76209  0.84262  0.03753  Biso   1.000  C
  H2228    1.0000 0.76081  0.82181  0.02130  Biso   1.000  H
  C2134    1.0000 0.80082  0.99273  0.04221  Biso   1.000  C
  H2229    1.0000 0.82881  0.07261  0.02890  Biso   1.000  H
  H2230    1.0000 0.26143  0.55901  0.93160  Biso   1.000  H
  H2231    1.0000 0.19251  0.46818  0.92610  Biso   1.000  H
  H2232    1.0000 0.17458  0.22639  0.94220  Biso   1.000  H
  C2135    1.0000 0.19921  0.19191  0.95779  Biso   1.000  C
  H2233    1.0000 0.42399  0.88170  0.93240  Biso   1.000  H
  H2234    1.0000 0.39071  0.84749  0.94440  Biso   1.000  H
  H2235    1.0000 0.27000  0.98052  0.96490  Biso   1.000  H
  C2136    1.0000 0.23792  0.08048  0.96247  Biso   1.000  C
  H2236    1.0000 0.92742  0.75620  0.02890  Biso   1.000  H
  C2137    1.0000 0.00730  0.80808  0.04221  Biso   1.000  C
  C2138    1.0000 0.15743  0.91951  0.03753  Biso   1.000  C
  H2237    1.0000 0.17820  0.93898  0.02130  Biso   1.000  H
  C2139    1.0000 0.77776  0.90837  0.04538  Biso   1.000  C
  C2140    1.0000 0.73813  0.75080  0.04064  Biso   1.000  C
  C2141    1.0000 0.81649  0.06148  0.05052  Biso   1.000  C
  C2142    1.0000 0.22219  0.13056  0.95462  Biso   1.000  C
  C2143    1.0000 0.18810  0.20271  0.96898  Biso   1.000  C
  C2144    1.0000 0.22222  0.13063  0.95462  Biso   1.000  C
  C2145    1.0000 0.22809  0.09328  0.97346  Biso   1.000  C
  C2146    1.0000 0.93848  0.75500  0.05052  Biso   1.000  C
  C2147    1.0000 0.09162  0.86943  0.04538  Biso   1.000  C
  C2148    1.0000 0.24921  0.98732  0.04064  Biso   1.000  C
  H2238    1.0000 0.77240  0.89430  0.05280  Biso   1.000  H
  H2239    1.0000 0.73000  0.71052  0.03510  Biso   1.000  H
  N299     1.0000 0.72787  0.72439  0.05050  Biso   1.000  N
  H2240    1.0000 0.82540  0.05181  0.05780  Biso   1.000  H
  N300     1.0000 0.81820  0.13269  0.04796  Biso   1.000  N
  H2241    1.0000 0.22761  0.12189  0.94720  Biso   1.000  H
  C2149    1.0000 0.20159  0.15417  0.97689  Biso   1.000  C
  H2242    1.0000 0.17121  0.24379  0.97110  Biso   1.000  H
  H2243    1.0000 0.23921  0.06101  0.97870  Biso   1.000  H
  H2244    1.0000 0.94819  0.77360  0.05780  Biso   1.000  H
  N301     1.0000 0.86730  0.68551  0.04796  Biso   1.000  N
  H2245    1.0000 0.10571  0.87810  0.05280  Biso   1.000  H
  H2246    1.0000 0.28947  0.01947  0.03510  Biso   1.000  H
  N302     1.0000 0.27558  0.00346  0.05050  Biso   1.000  N
  H2247    1.0000 0.28951  0.01953  0.03510  Biso   1.000  H
  N303     1.0000 0.27561  0.00353  0.05050  Biso   1.000  N
  C2150    1.0000 0.71177  0.63410  0.05222  Biso   1.000  C
  C2151    1.0000 0.84206  0.20018  0.05648  Biso   1.000  C
  C2152    1.0000 0.18771  0.16370  0.98869  Biso   1.000  C
  C2153    1.0000 0.79981  0.64190  0.05648  Biso   1.000  C
  C2154    1.0000 0.36588  0.07768  0.05222  Biso   1.000  C
  H2248    1.0000 0.69562  0.60202  0.04520  Biso   1.000  H
  C2155    1.0000 0.63763  0.58422  0.06039  Biso   1.000  C
  C2156    1.0000 0.92228  0.28820  0.05222  Biso   1.000  C
  C2157    1.0000 0.76351  0.21378  0.05888  Biso   1.000  C
  H2249    1.0000 0.85931  0.18131  0.06320  Biso   1.000  H
  C2158    1.0000 0.25479  0.18191  0.99641  Biso   1.000  C
  C2159    1.0000 0.19799  0.24352  0.99266  Biso   1.000  C
  C2160    1.0000 0.10794  0.14923  0.99289  Biso   1.000  C
  C2161    1.0000 0.15941  0.09428  0.99615  Biso   1.000  C
  C2162    1.0000 0.78621  0.54968  0.05888  Biso   1.000  C
  H2250    1.0000 0.81866  0.67798  0.06320  Biso   1.000  H
  H2251    1.0000 0.39799  0.09362  0.04520  Biso   1.000  H
  C2163    1.0000 0.41582  0.05341  0.06039  Biso   1.000  C
  C2164    1.0000 0.35811  0.15790  0.05648  Biso   1.000  C
  H2252    1.0000 0.58280  0.57908  0.05760  Biso   1.000  H
  H2253    1.0000 0.65218  0.61689  0.06730  Biso   1.000  H
  C2165    1.0000 0.62441  0.48999  0.06242  Biso   1.000  C
  H2254    1.0000 0.90642  0.30441  0.04520  Biso   1.000  H
  C2166    1.0000 0.94663  0.36242  0.06039  Biso   1.000  C
  N304     1.0000 0.99651  0.27206  0.05050  Biso   1.000  N
  N305     1.0000 0.99654  0.27213  0.05050  Biso   1.000  N
  C2167    1.0000 0.78949  0.29000  0.06702  Biso   1.000  C
  H2255    1.0000 0.71473  0.15930  0.06190  Biso   1.000  H
  H2256    1.0000 0.74297  0.22699  0.05210  Biso   1.000  H
  H2257    1.0000 0.30688  0.18317  0.99420  Biso   1.000  H
  C2168    1.0000 0.24348  0.19798  0.00734  Biso   1.000  C
  H2258    1.0000 0.21629  0.29120  0.98780  Biso   1.000  H
  C2169    1.0000 0.18191  0.25479  0.00359  Biso   1.000  C
  H2259    1.0000 0.06029  0.13143  0.98810  Biso   1.000  H
  C2170    1.0000 0.09429  0.15937  0.00385  Biso   1.000  C
  H2260    1.0000 0.14702  0.03820  0.99380  Biso   1.000  H
  C2171    1.0000 0.14917  0.10789  0.00711  Biso   1.000  C
  C2172    1.0000 0.71000  0.49946  0.06702  Biso   1.000  C
  H2261    1.0000 0.84071  0.55541  0.06190  Biso   1.000  H
  H2262    1.0000 0.77302  0.51600  0.05210  Biso   1.000  H
  C2173    1.0000 0.71003  0.49953  0.06702  Biso   1.000  C
  H2263    1.0000 0.42087  0.00366  0.05760  Biso   1.000  H
  H2264    1.0000 0.38308  0.03527  0.06730  Biso   1.000  H
  C2174    1.0000 0.51001  0.13436  0.06242  Biso   1.000  C
  H2265    1.0000 0.42090  0.00373  0.05760  Biso   1.000  H
  C2175    1.0000 0.51004  0.13443  0.06242  Biso   1.000  C
  C2176    1.0000 0.45032  0.23652  0.05888  Biso   1.000  C
  H2266    1.0000 0.32202  0.14070  0.06320  Biso   1.000  H
  N306     1.0000 0.31450  0.18177  0.04796  Biso   1.000  N
  H2267    1.0000 0.57600  0.45772  0.06760  Biso   1.000  H
  H2268    1.0000 0.60931  0.45679  0.05560  Biso   1.000  H
  H2269    1.0000 0.99630  0.41717  0.05760  Biso   1.000  H
  H2270    1.0000 0.96468  0.34782  0.06730  Biso   1.000  H
  C2177    1.0000 0.86562  0.37562  0.06242  Biso   1.000  C
  C2178    1.0000 0.01266  0.26186  0.04064  Biso   1.000  C
  C2179    1.0000 0.01269  0.26193  0.04064  Biso   1.000  C
  H2271    1.0000 0.73860  0.29760  0.06840  Biso   1.000  H
  H2272    1.0000 0.80750  0.27567  0.07390  Biso   1.000  H
  H2273    1.0000 0.80754  0.27573  0.07390  Biso   1.000  H
  C2180    1.0000 0.16373  0.18771  0.01131  Biso   1.000  C
  H2274    1.0000 0.29123  0.21632  0.01220  Biso   1.000  H
  H2275    1.0000 0.18318  0.30687  0.00580  Biso   1.000  H
  H2276    1.0000 0.03823  0.14703  0.00620  Biso   1.000  H
  H2277    1.0000 0.13137  0.06028  0.01190  Biso   1.000  H
  H2278    1.0000 0.70241  0.44098  0.06840  Biso   1.000  H
  H2279    1.0000 0.72432  0.53181  0.07390  Biso   1.000  H
  H2280    1.0000 0.54228  0.11829  0.06760  Biso   1.000  H
  H2281    1.0000 0.54322  0.15250  0.05560  Biso   1.000  H
  C2181    1.0000 0.50050  0.21052  0.06702  Biso   1.000  C
  H2282    1.0000 0.44461  0.28527  0.06190  Biso   1.000  H
  H2283    1.0000 0.48401  0.25699  0.05210  Biso   1.000  H
  C2182    1.0000 0.24502  0.18351  0.05052  Biso   1.000  C
  H2284    1.0000 0.88171  0.42397  0.06760  Biso   1.000  H
  H2285    1.0000 0.84752  0.39070  0.05560  Biso   1.000  H
  H2286    1.0000 0.98052  0.27000  0.03510  Biso   1.000  H
  C2183    1.0000 0.08050  0.23792  0.03753  Biso   1.000  C
  C2184    1.0000 0.15421  0.20158  0.02311  Biso   1.000  C
  H2287    1.0000 0.55897  0.26139  0.06840  Biso   1.000  H
  H2288    1.0000 0.46822  0.19251  0.07390  Biso   1.000  H
  H2289    1.0000 0.22641  0.17457  0.05780  Biso   1.000  H
  C2185    1.0000 0.19187  0.19918  0.04221  Biso   1.000  C
  C2186    1.0000 0.13061  0.22218  0.04538  Biso   1.000  C
  C2187    1.0000 0.09333  0.22812  0.02654  Biso   1.000  C
  C2188    1.0000 0.20268  0.18811  0.03102  Biso   1.000  C
  H2290    1.0000 0.12188  0.22759  0.05280  Biso   1.000  H
  H2291    1.0000 0.06098  0.23919  0.02130  Biso   1.000  H
  H2292    1.0000 0.24376  0.17117  0.02890  Biso   1.000  H
  C2189    1.0000 0.49948  0.70998  0.93298  Biso   1.000  C
  H2293    1.0000 0.44099  0.70238  0.93160  Biso   1.000  H
  H2294    1.0000 0.53183  0.72432  0.92610  Biso   1.000  H
  C2190    1.0000 0.54972  0.78620  0.94112  Biso   1.000  C
  C2191    1.0000 0.48999  0.62436  0.93758  Biso   1.000  C
  C2192    1.0000 0.49003  0.62443  0.93758  Biso   1.000  C
  H2295    1.0000 0.55542  0.84069  0.93810  Biso   1.000  H
  H2296    1.0000 0.51598  0.77300  0.94790  Biso   1.000  H
  C2193    1.0000 0.64188  0.79981  0.94352  Biso   1.000  C
  H2297    1.0000 0.45774  0.57602  0.93240  Biso   1.000  H
  H2298    1.0000 0.45682  0.60929  0.94440  Biso   1.000  H
  C2194    1.0000 0.58420  0.63757  0.93961  Biso   1.000  C
  C2195    1.0000 0.58424  0.63763  0.93961  Biso   1.000  C
  C2196    1.0000 0.63407  0.71179  0.94778  Biso   1.000  C
  H2299    1.0000 0.67799  0.81868  0.93680  Biso   1.000  H
  N307     1.0000 0.68549  0.86729  0.95204  Biso   1.000  N
  H2300    1.0000 0.57912  0.58282  0.94240  Biso   1.000  H
  H2301    1.0000 0.61686  0.65217  0.93270  Biso   1.000  H
  H2302    1.0000 0.60201  0.69558  0.95480  Biso   1.000  H
  N308     1.0000 0.72444  0.72792  0.94950  Biso   1.000  N
  C2197    1.0000 0.75500  0.93851  0.94948  Biso   1.000  C
  C2198    1.0000 0.75079  0.73813  0.95936  Biso   1.000  C
  H2303    1.0000 0.77358  0.94818  0.94220  Biso   1.000  H
  C2199    1.0000 0.80809  0.00726  0.95779  Biso   1.000  C
  C2200    1.0000 0.80812  0.00733  0.95779  Biso   1.000  C
  H2304    1.0000 0.71051  0.72999  0.96490  Biso   1.000  H
  C2201    1.0000 0.84257  0.76207  0.96247  Biso   1.000  C
  C2202    1.0000 0.84260  0.76213  0.96247  Biso   1.000  C
  C2203    1.0000 0.79727  0.98539  0.96898  Biso   1.000  C
  C2204    1.0000 0.86938  0.09162  0.95462  Biso   1.000  C
  C2205    1.0000 0.90842  0.77780  0.95462  Biso   1.000  C
  C2206    1.0000 0.86520  0.77187  0.97346  Biso   1.000  C
  H2305    1.0000 0.75619  0.92737  0.97110  Biso   1.000  H
  C2207    1.0000 0.84578  0.04741  0.97689  Biso   1.000  C
  H2306    1.0000 0.87809  0.10569  0.94720  Biso   1.000  H
  C2208    1.0000 0.91947  0.15737  0.96247  Biso   1.000  C
  C2209    1.0000 0.99269  0.80081  0.95779  Biso   1.000  C
  H2307    1.0000 0.89429  0.77240  0.94720  Biso   1.000  H
  H2308    1.0000 0.82178  0.76080  0.97870  Biso   1.000  H
  C2210    1.0000 0.95262  0.79841  0.97689  Biso   1.000  C
  C2211    1.0000 0.90666  0.13476  0.97346  Biso   1.000  C
  C2212    1.0000 0.83632  0.02400  0.98869  Biso   1.000  C
  C2213    1.0000 0.90670  0.13483  0.97346  Biso   1.000  C
  C2214    1.0000 0.98732  0.24919  0.95936  Biso   1.000  C
  C2215    1.0000 0.06151  0.81648  0.94948  Biso   1.000  C
  C2216    1.0000 0.01457  0.81188  0.96898  Biso   1.000  C
  C2217    1.0000 0.97602  0.81228  0.98869  Biso   1.000  C
  H2309    1.0000 0.93899  0.17817  0.97870  Biso   1.000  H
  C2218    1.0000 0.75648  0.95452  0.99266  Biso   1.000  C
  C2219    1.0000 0.85081  0.95872  0.99289  Biso   1.000  C
  C2220    1.0000 0.81809  0.07288  0.99641  Biso   1.000  C
  C2221    1.0000 0.90566  0.06508  0.99615  Biso   1.000  C
  H2310    1.0000 0.01947  0.28947  0.96490  Biso   1.000  H
  N309     1.0000 0.00347  0.27560  0.94950  Biso   1.000  N
  H2311    1.0000 0.05183  0.82541  0.94220  Biso   1.000  H
  N310     1.0000 0.13271  0.81821  0.95204  Biso   1.000  N
  H2312    1.0000 0.07259  0.82882  0.97110  Biso   1.000  H
  C2222    1.0000 0.92711  0.74519  0.99641  Biso   1.000  C
  C2223    1.0000 0.93492  0.84062  0.99615  Biso   1.000  C
  C2224    1.0000 0.04550  0.80201  0.99266  Biso   1.000  C
  C2225    1.0000 0.04128  0.89210  0.99289  Biso   1.000  C
  H2313    1.0000 0.70880  0.92511  0.98780  Biso   1.000  H
  C2226    1.0000 0.74520  0.92711  0.00359  Biso   1.000  C
  H2314    1.0000 0.86859  0.92891  0.98810  Biso   1.000  H
  C2227    1.0000 0.84058  0.93491  0.00385  Biso   1.000  C
  H2315    1.0000 0.81681  0.12369  0.99420  Biso   1.000  H
  C2228    1.0000 0.80196  0.04547  0.00734  Biso   1.000  C
  H2316    1.0000 0.96184  0.10882  0.99380  Biso   1.000  H
  C2229    1.0000 0.89208  0.04127  0.00711  Biso   1.000  C
  C2230    1.0000 0.07767  0.36589  0.94778  Biso   1.000  C
  C2231    1.0000 0.20021  0.84209  0.94352  Biso   1.000  C
  H2317    1.0000 0.87630  0.69311  0.99420  Biso   1.000  H
  C2232    1.0000 0.95446  0.75646  0.00734  Biso   1.000  C
  C2233    1.0000 0.95450  0.75653  0.00734  Biso   1.000  C
  H2318    1.0000 0.89123  0.85302  0.99380  Biso   1.000  H
  C2234    1.0000 0.95873  0.85082  0.00711  Biso   1.000  C
  H2319    1.0000 0.07490  0.78367  0.98780  Biso   1.000  H
  C2235    1.0000 0.07288  0.81808  0.00359  Biso   1.000  C
  H2320    1.0000 0.07109  0.93971  0.98810  Biso   1.000  H
  C2236    1.0000 0.06512  0.90570  0.00385  Biso   1.000  C
  C2237    1.0000 0.81232  0.97599  0.01131  Biso   1.000  C
  H2321    1.0000 0.69311  0.87629  0.00580  Biso   1.000  H
  H2322    1.0000 0.85301  0.89117  0.00620  Biso   1.000  H
  H2323    1.0000 0.78369  0.07488  0.01220  Biso   1.000  H
  H2324    1.0000 0.93967  0.07108  0.01190  Biso   1.000  H
  H2325    1.0000 0.09359  0.39796  0.95480  Biso   1.000  H
  C2238    1.0000 0.05340  0.41577  0.93961  Biso   1.000  C
  C2239    1.0000 0.15791  0.35809  0.94352  Biso   1.000  C
  H2326    1.0000 0.09362  0.39803  0.95480  Biso   1.000  H
  C2240    1.0000 0.28819  0.92231  0.94778  Biso   1.000  C
  C2241    1.0000 0.21380  0.76347  0.94112  Biso   1.000  C
  H2327    1.0000 0.18132  0.85929  0.93680  Biso   1.000  H
  C2242    1.0000 0.21383  0.76353  0.94112  Biso   1.000  C
  H2328    1.0000 0.92508  0.70878  0.01220  Biso   1.000  H
  C2243    1.0000 0.02400  0.83628  0.01131  Biso   1.000  C
  H2329    1.0000 0.92888  0.86863  0.01190  Biso   1.000  H
  H2330    1.0000 0.12370  0.81681  0.00580  Biso   1.000  H
  H2331    1.0000 0.10881  0.96178  0.00620  Biso   1.000  H
  C2244    1.0000 0.79836  0.95258  0.02311  Biso   1.000  C
  H2332    1.0000 0.00371  0.42090  0.94240  Biso   1.000  H
  H2333    1.0000 0.03528  0.38309  0.93270  Biso   1.000  H
  C2245    1.0000 0.13441  0.50999  0.93758  Biso   1.000  C
  C2246    1.0000 0.23653  0.45031  0.94112  Biso   1.000  C
  H2334    1.0000 0.14068  0.32201  0.93680  Biso   1.000  H
  N311     1.0000 0.18178  0.31448  0.95204  Biso   1.000  N
  H2335    1.0000 0.30436  0.90637  0.95480  Biso   1.000  H
  C2247    1.0000 0.36241  0.94658  0.93961  Biso   1.000  C
  N312     1.0000 0.27211  0.99653  0.94950  Biso   1.000  N
  C2248    1.0000 0.28998  0.78947  0.93298  Biso   1.000  C
  H2336    1.0000 0.15933  0.71472  0.93810  Biso   1.000  H
  H2337    1.0000 0.22701  0.74299  0.94790  Biso   1.000  H
  C2249    1.0000 0.04742  0.84582  0.02311  Biso   1.000  C
  C2250    1.0000 0.77189  0.86523  0.02654  Biso   1.000  C
  C2251    1.0000 0.81187  0.01460  0.03102  Biso   1.000  C
  H2338    1.0000 0.11827  0.54227  0.93240  Biso   1.000  H
  H2339    1.0000 0.15252  0.54320  0.94440  Biso   1.000  H
  C2252    1.0000 0.21053  0.50052  0.93298  Biso   1.000  C
  H2340    1.0000 0.28529  0.44458  0.93810  Biso   1.000  H
  H2341    1.0000 0.25701  0.48399  0.94790  Biso   1.000  H
  C2253    1.0000 0.18348  0.24499  0.94948  Biso   1.000  C
  H2342    1.0000 0.41720  0.99633  0.94240  Biso   1.000  H
  H2343    1.0000 0.34780  0.96472  0.93270  Biso   1.000  H
  C2254    1.0000 0.37564  0.86563  0.93758  Biso   1.000  C
  C2255    1.0000 0.26188  0.01266  0.95936  Biso   1.000  C
  C2256    1.0000 0.26191  0.01273  0.95936  Biso   1.000  C
  H2344    1.0000 0.29757  0.73859  0.93160  Biso   1.000  H
  H2345    1.0000 0.27571  0.80748  0.92610  Biso   1.000  H
  C2257    1.0000 0.98538  0.79727  0.03102  Biso   1.000  C
  C2258    1.0000 0.13480  0.90670  0.02654  Biso   1.000  C
  C2259    1.0000 0.76209  0.84262  0.03753  Biso   1.000  C
  H2346    1.0000 0.76081  0.82181  0.02130  Biso   1.000  H
  C2260    1.0000 0.80082  0.99273  0.04221  Biso   1.000  C
  H2347    1.0000 0.82881  0.07261  0.02890  Biso   1.000  H
  H2348    1.0000 0.26143  0.55901  0.93160  Biso   1.000  H
  H2349    1.0000 0.19251  0.46818  0.92610  Biso   1.000  H
  H2350    1.0000 0.17458  0.22639  0.94220  Biso   1.000  H
  C2261    1.0000 0.19921  0.19191  0.95779  Biso   1.000  C
  H2351    1.0000 0.42399  0.88170  0.93240  Biso   1.000  H
  H2352    1.0000 0.39071  0.84749  0.94440  Biso   1.000  H
  H2353    1.0000 0.27000  0.98052  0.96490  Biso   1.000  H
  C2262    1.0000 0.23792  0.08048  0.96247  Biso   1.000  C
  H2354    1.0000 0.92742  0.75620  0.02890  Biso   1.000  H
  C2263    1.0000 0.00730  0.80808  0.04221  Biso   1.000  C
  C2264    1.0000 0.15743  0.91951  0.03753  Biso   1.000  C
  H2355    1.0000 0.17820  0.93898  0.02130  Biso   1.000  H
  C2265    1.0000 0.77776  0.90837  0.04538  Biso   1.000  C
  C2266    1.0000 0.73813  0.75080  0.04064  Biso   1.000  C
  C2267    1.0000 0.81649  0.06148  0.05052  Biso   1.000  C
  C2268    1.0000 0.22219  0.13056  0.95462  Biso   1.000  C
  C2269    1.0000 0.18810  0.20271  0.96898  Biso   1.000  C
  C2270    1.0000 0.22222  0.13063  0.95462  Biso   1.000  C
  C2271    1.0000 0.22809  0.09328  0.97346  Biso   1.000  C
  C2272    1.0000 0.93848  0.75500  0.05052  Biso   1.000  C
  C2273    1.0000 0.09162  0.86943  0.04538  Biso   1.000  C
  C2274    1.0000 0.24921  0.98732  0.04064  Biso   1.000  C
  H2356    1.0000 0.77240  0.89430  0.05280  Biso   1.000  H
  H2357    1.0000 0.73000  0.71052  0.03510  Biso   1.000  H
  N313     1.0000 0.72787  0.72439  0.05050  Biso   1.000  N
  H2358    1.0000 0.82540  0.05181  0.05780  Biso   1.000  H
  N314     1.0000 0.81820  0.13269  0.04796  Biso   1.000  N
  H2359    1.0000 0.22761  0.12189  0.94720  Biso   1.000  H
  C2275    1.0000 0.20159  0.15417  0.97689  Biso   1.000  C
  H2360    1.0000 0.17121  0.24379  0.97110  Biso   1.000  H
  H2361    1.0000 0.23921  0.06101  0.97870  Biso   1.000  H
  H2362    1.0000 0.94819  0.77360  0.05780  Biso   1.000  H
  N315     1.0000 0.86730  0.68551  0.04796  Biso   1.000  N
  H2363    1.0000 0.10571  0.87810  0.05280  Biso   1.000  H
  H2364    1.0000 0.28947  0.01947  0.03510  Biso   1.000  H
  N316     1.0000 0.27558  0.00346  0.05050  Biso   1.000  N
  H2365    1.0000 0.28951  0.01953  0.03510  Biso   1.000  H
  N317     1.0000 0.27561  0.00353  0.05050  Biso   1.000  N
  C2276    1.0000 0.71177  0.63410  0.05222  Biso   1.000  C
  C2277    1.0000 0.84206  0.20018  0.05648  Biso   1.000  C
  C2278    1.0000 0.18771  0.16370  0.98869  Biso   1.000  C
  C2279    1.0000 0.79981  0.64190  0.05648  Biso   1.000  C
  C2280    1.0000 0.36588  0.07768  0.05222  Biso   1.000  C
  H2366    1.0000 0.69562  0.60202  0.04520  Biso   1.000  H
  C2281    1.0000 0.63763  0.58422  0.06039  Biso   1.000  C
  C2282    1.0000 0.92228  0.28820  0.05222  Biso   1.000  C
  C2283    1.0000 0.76351  0.21378  0.05888  Biso   1.000  C
  H2367    1.0000 0.85931  0.18131  0.06320  Biso   1.000  H
  C2284    1.0000 0.25479  0.18191  0.99641  Biso   1.000  C
  C2285    1.0000 0.19799  0.24352  0.99266  Biso   1.000  C
  C2286    1.0000 0.10794  0.14923  0.99289  Biso   1.000  C
  C2287    1.0000 0.15941  0.09428  0.99615  Biso   1.000  C
  C2288    1.0000 0.78621  0.54968  0.05888  Biso   1.000  C
  H2368    1.0000 0.81866  0.67798  0.06320  Biso   1.000  H
  H2369    1.0000 0.39799  0.09362  0.04520  Biso   1.000  H
  C2289    1.0000 0.41582  0.05341  0.06039  Biso   1.000  C
  C2290    1.0000 0.35811  0.15790  0.05648  Biso   1.000  C
  H2370    1.0000 0.58280  0.57908  0.05760  Biso   1.000  H
  H2371    1.0000 0.65218  0.61689  0.06730  Biso   1.000  H
  C2291    1.0000 0.62441  0.48999  0.06242  Biso   1.000  C
  H2372    1.0000 0.90642  0.30441  0.04520  Biso   1.000  H
  C2292    1.0000 0.94663  0.36242  0.06039  Biso   1.000  C
  N318     1.0000 0.99651  0.27206  0.05050  Biso   1.000  N
  N319     1.0000 0.99654  0.27213  0.05050  Biso   1.000  N
  C2293    1.0000 0.78949  0.29000  0.06702  Biso   1.000  C
  H2373    1.0000 0.71473  0.15930  0.06190  Biso   1.000  H
  H2374    1.0000 0.74297  0.22699  0.05210  Biso   1.000  H
  H2375    1.0000 0.30688  0.18317  0.99420  Biso   1.000  H
  C2294    1.0000 0.24348  0.19798  0.00734  Biso   1.000  C
  H2376    1.0000 0.21629  0.29120  0.98780  Biso   1.000  H
  C2295    1.0000 0.18191  0.25479  0.00359  Biso   1.000  C
  H2377    1.0000 0.06029  0.13143  0.98810  Biso   1.000  H
  C2296    1.0000 0.09429  0.15937  0.00385  Biso   1.000  C
  H2378    1.0000 0.14702  0.03820  0.99380  Biso   1.000  H
  C2297    1.0000 0.14917  0.10789  0.00711  Biso   1.000  C
  C2298    1.0000 0.71000  0.49946  0.06702  Biso   1.000  C
  H2379    1.0000 0.84071  0.55541  0.06190  Biso   1.000  H
  H2380    1.0000 0.77302  0.51600  0.05210  Biso   1.000  H
  C2299    1.0000 0.71003  0.49953  0.06702  Biso   1.000  C
  H2381    1.0000 0.42087  0.00366  0.05760  Biso   1.000  H
  H2382    1.0000 0.38308  0.03527  0.06730  Biso   1.000  H
  C2300    1.0000 0.51001  0.13436  0.06242  Biso   1.000  C
  H2383    1.0000 0.42090  0.00373  0.05760  Biso   1.000  H
  C2301    1.0000 0.51004  0.13443  0.06242  Biso   1.000  C
  C2302    1.0000 0.45032  0.23652  0.05888  Biso   1.000  C
  H2384    1.0000 0.32202  0.14070  0.06320  Biso   1.000  H
  N320     1.0000 0.31450  0.18177  0.04796  Biso   1.000  N
  H2385    1.0000 0.57600  0.45772  0.06760  Biso   1.000  H
  H2386    1.0000 0.60931  0.45679  0.05560  Biso   1.000  H
  H2387    1.0000 0.99630  0.41717  0.05760  Biso   1.000  H
  H2388    1.0000 0.96468  0.34782  0.06730  Biso   1.000  H
  C2303    1.0000 0.86562  0.37562  0.06242  Biso   1.000  C
  C2304    1.0000 0.01266  0.26186  0.04064  Biso   1.000  C
  C2305    1.0000 0.01269  0.26193  0.04064  Biso   1.000  C
  H2389    1.0000 0.73860  0.29760  0.06840  Biso   1.000  H
  H2390    1.0000 0.80750  0.27567  0.07390  Biso   1.000  H
  H2391    1.0000 0.80754  0.27573  0.07390  Biso   1.000  H
  C2306    1.0000 0.16373  0.18771  0.01131  Biso   1.000  C
  H2392    1.0000 0.29123  0.21632  0.01220  Biso   1.000  H
  H2393    1.0000 0.18318  0.30687  0.00580  Biso   1.000  H
  H2394    1.0000 0.03823  0.14703  0.00620  Biso   1.000  H
  H2395    1.0000 0.13137  0.06028  0.01190  Biso   1.000  H
  H2396    1.0000 0.70241  0.44098  0.06840  Biso   1.000  H
  H2397    1.0000 0.72432  0.53181  0.07390  Biso   1.000  H
  H2398    1.0000 0.54228  0.11829  0.06760  Biso   1.000  H
  H2399    1.0000 0.54322  0.15250  0.05560  Biso   1.000  H
  C2307    1.0000 0.50050  0.21052  0.06702  Biso   1.000  C
  H2400    1.0000 0.44461  0.28527  0.06190  Biso   1.000  H
  H2401    1.0000 0.48401  0.25699  0.05210  Biso   1.000  H
  C2308    1.0000 0.24502  0.18351  0.05052  Biso   1.000  C
  H2402    1.0000 0.88171  0.42397  0.06760  Biso   1.000  H
  H2403    1.0000 0.84752  0.39070  0.05560  Biso   1.000  H
  H2404    1.0000 0.98052  0.27000  0.03510  Biso   1.000  H
  C2309    1.0000 0.08050  0.23792  0.03753  Biso   1.000  C
  C2310    1.0000 0.15421  0.20158  0.02311  Biso   1.000  C
  H2405    1.0000 0.55897  0.26139  0.06840  Biso   1.000  H
  H2406    1.0000 0.46822  0.19251  0.07390  Biso   1.000  H
  H2407    1.0000 0.22641  0.17457  0.05780  Biso   1.000  H
  C2311    1.0000 0.19187  0.19918  0.04221  Biso   1.000  C
  C2312    1.0000 0.13061  0.22218  0.04538  Biso   1.000  C
  C2313    1.0000 0.09333  0.22812  0.02654  Biso   1.000  C
  C2314    1.0000 0.20268  0.18811  0.03102  Biso   1.000  C
  H2408    1.0000 0.12188  0.22759  0.05280  Biso   1.000  H
  H2409    1.0000 0.06098  0.23919  0.02130  Biso   1.000  H
  H2410    1.0000 0.24376  0.17117  0.02890  Biso   1.000  H
  C2315    1.0000 0.49948  0.70998  0.93298  Biso   1.000  C
  H2411    1.0000 0.44099  0.70238  0.93160  Biso   1.000  H
  H2412    1.0000 0.53183  0.72432  0.92610  Biso   1.000  H
  C2316    1.0000 0.54972  0.78620  0.94112  Biso   1.000  C
  C2317    1.0000 0.48999  0.62436  0.93758  Biso   1.000  C
  C2318    1.0000 0.49003  0.62443  0.93758  Biso   1.000  C
  H2413    1.0000 0.55542  0.84069  0.93810  Biso   1.000  H
  H2414    1.0000 0.51598  0.77300  0.94790  Biso   1.000  H
  C2319    1.0000 0.64188  0.79981  0.94352  Biso   1.000  C
  H2415    1.0000 0.45774  0.57602  0.93240  Biso   1.000  H
  H2416    1.0000 0.45682  0.60929  0.94440  Biso   1.000  H
  C2320    1.0000 0.58420  0.63757  0.93961  Biso   1.000  C
  C2321    1.0000 0.58424  0.63763  0.93961  Biso   1.000  C
  C2322    1.0000 0.63407  0.71179  0.94778  Biso   1.000  C
  H2417    1.0000 0.67799  0.81868  0.93680  Biso   1.000  H
  N321     1.0000 0.68549  0.86729  0.95204  Biso   1.000  N
  H2418    1.0000 0.57912  0.58282  0.94240  Biso   1.000  H
  H2419    1.0000 0.61686  0.65217  0.93270  Biso   1.000  H
  H2420    1.0000 0.60201  0.69558  0.95480  Biso   1.000  H
  N322     1.0000 0.72444  0.72792  0.94950  Biso   1.000  N
  C2323    1.0000 0.75500  0.93851  0.94948  Biso   1.000  C
  C2324    1.0000 0.75079  0.73813  0.95936  Biso   1.000  C
  H2421    1.0000 0.77358  0.94818  0.94220  Biso   1.000  H
  C2325    1.0000 0.80809  0.00726  0.95779  Biso   1.000  C
  C2326    1.0000 0.80812  0.00733  0.95779  Biso   1.000  C
  H2422    1.0000 0.71051  0.72999  0.96490  Biso   1.000  H
  C2327    1.0000 0.84257  0.76207  0.96247  Biso   1.000  C
  C2328    1.0000 0.84260  0.76213  0.96247  Biso   1.000  C
  C2329    1.0000 0.79727  0.98539  0.96898  Biso   1.000  C
  C2330    1.0000 0.86938  0.09162  0.95462  Biso   1.000  C
  C2331    1.0000 0.90842  0.77780  0.95462  Biso   1.000  C
  C2332    1.0000 0.86520  0.77187  0.97346  Biso   1.000  C
  H2423    1.0000 0.75619  0.92737  0.97110  Biso   1.000  H
  C2333    1.0000 0.84578  0.04741  0.97689  Biso   1.000  C
  H2424    1.0000 0.87809  0.10569  0.94720  Biso   1.000  H
  C2334    1.0000 0.91947  0.15737  0.96247  Biso   1.000  C
  C2335    1.0000 0.99269  0.80081  0.95779  Biso   1.000  C
  H2425    1.0000 0.89429  0.77240  0.94720  Biso   1.000  H
  H2426    1.0000 0.82178  0.76080  0.97870  Biso   1.000  H
  C2336    1.0000 0.95262  0.79841  0.97689  Biso   1.000  C
  C2337    1.0000 0.90666  0.13476  0.97346  Biso   1.000  C
  C2338    1.0000 0.83632  0.02400  0.98869  Biso   1.000  C
  C2339    1.0000 0.90670  0.13483  0.97346  Biso   1.000  C
  C2340    1.0000 0.98732  0.24919  0.95936  Biso   1.000  C
  C2341    1.0000 0.06151  0.81648  0.94948  Biso   1.000  C
  C2342    1.0000 0.01457  0.81188  0.96898  Biso   1.000  C
  C2343    1.0000 0.97602  0.81228  0.98869  Biso   1.000  C
  H2427    1.0000 0.93899  0.17817  0.97870  Biso   1.000  H
  C2344    1.0000 0.75648  0.95452  0.99266  Biso   1.000  C
  C2345    1.0000 0.85081  0.95872  0.99289  Biso   1.000  C
  C2346    1.0000 0.81809  0.07288  0.99641  Biso   1.000  C
  C2347    1.0000 0.90566  0.06508  0.99615  Biso   1.000  C
  H2428    1.0000 0.01947  0.28947  0.96490  Biso   1.000  H
  N323     1.0000 0.00347  0.27560  0.94950  Biso   1.000  N
  H2429    1.0000 0.05183  0.82541  0.94220  Biso   1.000  H
  N324     1.0000 0.13271  0.81821  0.95204  Biso   1.000  N
  H2430    1.0000 0.07259  0.82882  0.97110  Biso   1.000  H
  C2348    1.0000 0.92711  0.74519  0.99641  Biso   1.000  C
  C2349    1.0000 0.93492  0.84062  0.99615  Biso   1.000  C
  C2350    1.0000 0.04550  0.80201  0.99266  Biso   1.000  C
  C2351    1.0000 0.04128  0.89210  0.99289  Biso   1.000  C
  H2431    1.0000 0.70880  0.92511  0.98780  Biso   1.000  H
  C2352    1.0000 0.74520  0.92711  0.00359  Biso   1.000  C
  H2432    1.0000 0.86859  0.92891  0.98810  Biso   1.000  H
  C2353    1.0000 0.84058  0.93491  0.00385  Biso   1.000  C
  H2433    1.0000 0.81681  0.12369  0.99420  Biso   1.000  H
  C2354    1.0000 0.80196  0.04547  0.00734  Biso   1.000  C
  H2434    1.0000 0.96184  0.10882  0.99380  Biso   1.000  H
  C2355    1.0000 0.89208  0.04127  0.00711  Biso   1.000  C
  C2356    1.0000 0.07767  0.36589  0.94778  Biso   1.000  C
  C2357    1.0000 0.20021  0.84209  0.94352  Biso   1.000  C
  H2435    1.0000 0.87630  0.69311  0.99420  Biso   1.000  H
  C2358    1.0000 0.95446  0.75646  0.00734  Biso   1.000  C
  C2359    1.0000 0.95450  0.75653  0.00734  Biso   1.000  C
  H2436    1.0000 0.89123  0.85302  0.99380  Biso   1.000  H
  C2360    1.0000 0.95873  0.85082  0.00711  Biso   1.000  C
  H2437    1.0000 0.07490  0.78367  0.98780  Biso   1.000  H
  C2361    1.0000 0.07288  0.81808  0.00359  Biso   1.000  C
  H2438    1.0000 0.07109  0.93971  0.98810  Biso   1.000  H
  C2362    1.0000 0.06512  0.90570  0.00385  Biso   1.000  C
  C2363    1.0000 0.81232  0.97599  0.01131  Biso   1.000  C
  H2439    1.0000 0.69311  0.87629  0.00580  Biso   1.000  H
  H2440    1.0000 0.85301  0.89117  0.00620  Biso   1.000  H
  H2441    1.0000 0.78369  0.07488  0.01220  Biso   1.000  H
  H2442    1.0000 0.93967  0.07108  0.01190  Biso   1.000  H
  H2443    1.0000 0.09359  0.39796  0.95480  Biso   1.000  H
  C2364    1.0000 0.05340  0.41577  0.93961  Biso   1.000  C
  C2365    1.0000 0.15791  0.35809  0.94352  Biso   1.000  C
  H2444    1.0000 0.09362  0.39803  0.95480  Biso   1.000  H
  C2366    1.0000 0.28819  0.92231  0.94778  Biso   1.000  C
  C2367    1.0000 0.21380  0.76347  0.94112  Biso   1.000  C
  H2445    1.0000 0.18132  0.85929  0.93680  Biso   1.000  H
  C2368    1.0000 0.21383  0.76353  0.94112  Biso   1.000  C
  H2446    1.0000 0.92508  0.70878  0.01220  Biso   1.000  H
  C2369    1.0000 0.02400  0.83628  0.01131  Biso   1.000  C
  H2447    1.0000 0.92888  0.86863  0.01190  Biso   1.000  H
  H2448    1.0000 0.12370  0.81681  0.00580  Biso   1.000  H
  H2449    1.0000 0.10881  0.96178  0.00620  Biso   1.000  H
  C2370    1.0000 0.79836  0.95258  0.02311  Biso   1.000  C
  H2450    1.0000 0.00371  0.42090  0.94240  Biso   1.000  H
  H2451    1.0000 0.03528  0.38309  0.93270  Biso   1.000  H
  C2371    1.0000 0.13441  0.50999  0.93758  Biso   1.000  C
  C2372    1.0000 0.23653  0.45031  0.94112  Biso   1.000  C
  H2452    1.0000 0.14068  0.32201  0.93680  Biso   1.000  H
  N325     1.0000 0.18178  0.31448  0.95204  Biso   1.000  N
  H2453    1.0000 0.30436  0.90637  0.95480  Biso   1.000  H
  C2373    1.0000 0.36241  0.94658  0.93961  Biso   1.000  C
  N326     1.0000 0.27211  0.99653  0.94950  Biso   1.000  N
  C2374    1.0000 0.28998  0.78947  0.93298  Biso   1.000  C
  H2454    1.0000 0.15933  0.71472  0.93810  Biso   1.000  H
  H2455    1.0000 0.22701  0.74299  0.94790  Biso   1.000  H
  C2375    1.0000 0.04742  0.84582  0.02311  Biso   1.000  C
  C2376    1.0000 0.77189  0.86523  0.02654  Biso   1.000  C
  C2377    1.0000 0.81187  0.01460  0.03102  Biso   1.000  C
  H2456    1.0000 0.11827  0.54227  0.93240  Biso   1.000  H
  H2457    1.0000 0.15252  0.54320  0.94440  Biso   1.000  H
  C2378    1.0000 0.21053  0.50052  0.93298  Biso   1.000  C
  H2458    1.0000 0.28529  0.44458  0.93810  Biso   1.000  H
  H2459    1.0000 0.25701  0.48399  0.94790  Biso   1.000  H
  C2379    1.0000 0.18348  0.24499  0.94948  Biso   1.000  C
  H2460    1.0000 0.41720  0.99633  0.94240  Biso   1.000  H
  H2461    1.0000 0.34780  0.96472  0.93270  Biso   1.000  H
  C2380    1.0000 0.37564  0.86563  0.93758  Biso   1.000  C
  C2381    1.0000 0.26188  0.01266  0.95936  Biso   1.000  C
  C2382    1.0000 0.26191  0.01273  0.95936  Biso   1.000  C
  H2462    1.0000 0.29757  0.73859  0.93160  Biso   1.000  H
  H2463    1.0000 0.27571  0.80748  0.92610  Biso   1.000  H
  C2383    1.0000 0.98538  0.79727  0.03102  Biso   1.000  C
  C2384    1.0000 0.13480  0.90670  0.02654  Biso   1.000  C
  C2385    1.0000 0.76209  0.84262  0.03753  Biso   1.000  C
  H2464    1.0000 0.76081  0.82181  0.02130  Biso   1.000  H
  C2386    1.0000 0.80082  0.99273  0.04221  Biso   1.000  C
  H2465    1.0000 0.82881  0.07261  0.02890  Biso   1.000  H
  H2466    1.0000 0.26143  0.55901  0.93160  Biso   1.000  H
  H2467    1.0000 0.19251  0.46818  0.92610  Biso   1.000  H
  H2468    1.0000 0.17458  0.22639  0.94220  Biso   1.000  H
  C2387    1.0000 0.19921  0.19191  0.95779  Biso   1.000  C
  H2469    1.0000 0.42399  0.88170  0.93240  Biso   1.000  H
  H2470    1.0000 0.39071  0.84749  0.94440  Biso   1.000  H
  H2471    1.0000 0.27000  0.98052  0.96490  Biso   1.000  H
  C2388    1.0000 0.23792  0.08048  0.96247  Biso   1.000  C
  H2472    1.0000 0.92742  0.75620  0.02890  Biso   1.000  H
  C2389    1.0000 0.00730  0.80808  0.04221  Biso   1.000  C
  C2390    1.0000 0.15743  0.91951  0.03753  Biso   1.000  C
  H2473    1.0000 0.17820  0.93898  0.02130  Biso   1.000  H
  C2391    1.0000 0.77776  0.90837  0.04538  Biso   1.000  C
  C2392    1.0000 0.73813  0.75080  0.04064  Biso   1.000  C
  C2393    1.0000 0.81649  0.06148  0.05052  Biso   1.000  C
  C2394    1.0000 0.22219  0.13056  0.95462  Biso   1.000  C
  C2395    1.0000 0.18810  0.20271  0.96898  Biso   1.000  C
  C2396    1.0000 0.22222  0.13063  0.95462  Biso   1.000  C
  C2397    1.0000 0.22809  0.09328  0.97346  Biso   1.000  C
  C2398    1.0000 0.93848  0.75500  0.05052  Biso   1.000  C
  C2399    1.0000 0.09162  0.86943  0.04538  Biso   1.000  C
  C2400    1.0000 0.24921  0.98732  0.04064  Biso   1.000  C
  H2474    1.0000 0.77240  0.89430  0.05280  Biso   1.000  H
  H2475    1.0000 0.73000  0.71052  0.03510  Biso   1.000  H
  N327     1.0000 0.72787  0.72439  0.05050  Biso   1.000  N
  H2476    1.0000 0.82540  0.05181  0.05780  Biso   1.000  H
  N328     1.0000 0.81820  0.13269  0.04796  Biso   1.000  N
  H2477    1.0000 0.22761  0.12189  0.94720  Biso   1.000  H
  C2401    1.0000 0.20159  0.15417  0.97689  Biso   1.000  C
  H2478    1.0000 0.17121  0.24379  0.97110  Biso   1.000  H
  H2479    1.0000 0.23921  0.06101  0.97870  Biso   1.000  H
  H2480    1.0000 0.94819  0.77360  0.05780  Biso   1.000  H
  N329     1.0000 0.86730  0.68551  0.04796  Biso   1.000  N
  H2481    1.0000 0.10571  0.87810  0.05280  Biso   1.000  H
  H2482    1.0000 0.28947  0.01947  0.03510  Biso   1.000  H
  N330     1.0000 0.27558  0.00346  0.05050  Biso   1.000  N
  H2483    1.0000 0.28951  0.01953  0.03510  Biso   1.000  H
  N331     1.0000 0.27561  0.00353  0.05050  Biso   1.000  N
  C2402    1.0000 0.71177  0.63410  0.05222  Biso   1.000  C
  C2403    1.0000 0.84206  0.20018  0.05648  Biso   1.000  C
  C2404    1.0000 0.18771  0.16370  0.98869  Biso   1.000  C
  C2405    1.0000 0.79981  0.64190  0.05648  Biso   1.000  C
  C2406    1.0000 0.36588  0.07768  0.05222  Biso   1.000  C
  H2484    1.0000 0.69562  0.60202  0.04520  Biso   1.000  H
  C2407    1.0000 0.63763  0.58422  0.06039  Biso   1.000  C
  C2408    1.0000 0.92228  0.28820  0.05222  Biso   1.000  C
  C2409    1.0000 0.76351  0.21378  0.05888  Biso   1.000  C
  H2485    1.0000 0.85931  0.18131  0.06320  Biso   1.000  H
  C2410    1.0000 0.25479  0.18191  0.99641  Biso   1.000  C
  C2411    1.0000 0.19799  0.24352  0.99266  Biso   1.000  C
  C2412    1.0000 0.10794  0.14923  0.99289  Biso   1.000  C
  C2413    1.0000 0.15941  0.09428  0.99615  Biso   1.000  C
  C2414    1.0000 0.78621  0.54968  0.05888  Biso   1.000  C
  H2486    1.0000 0.81866  0.67798  0.06320  Biso   1.000  H
  H2487    1.0000 0.39799  0.09362  0.04520  Biso   1.000  H
  C2415    1.0000 0.41582  0.05341  0.06039  Biso   1.000  C
  C2416    1.0000 0.35811  0.15790  0.05648  Biso   1.000  C
  H2488    1.0000 0.58280  0.57908  0.05760  Biso   1.000  H
  H2489    1.0000 0.65218  0.61689  0.06730  Biso   1.000  H
  C2417    1.0000 0.62441  0.48999  0.06242  Biso   1.000  C
  H2490    1.0000 0.90642  0.30441  0.04520  Biso   1.000  H
  C2418    1.0000 0.94663  0.36242  0.06039  Biso   1.000  C
  N332     1.0000 0.99651  0.27206  0.05050  Biso   1.000  N
  N333     1.0000 0.99654  0.27213  0.05050  Biso   1.000  N
  C2419    1.0000 0.78949  0.29000  0.06702  Biso   1.000  C
  H2491    1.0000 0.71473  0.15930  0.06190  Biso   1.000  H
  H2492    1.0000 0.74297  0.22699  0.05210  Biso   1.000  H
  H2493    1.0000 0.30688  0.18317  0.99420  Biso   1.000  H
  C2420    1.0000 0.24348  0.19798  0.00734  Biso   1.000  C
  H2494    1.0000 0.21629  0.29120  0.98780  Biso   1.000  H
  C2421    1.0000 0.18191  0.25479  0.00359  Biso   1.000  C
  H2495    1.0000 0.06029  0.13143  0.98810  Biso   1.000  H
  C2422    1.0000 0.09429  0.15937  0.00385  Biso   1.000  C
  H2496    1.0000 0.14702  0.03820  0.99380  Biso   1.000  H
  C2423    1.0000 0.14917  0.10789  0.00711  Biso   1.000  C
  C2424    1.0000 0.71000  0.49946  0.06702  Biso   1.000  C
  H2497    1.0000 0.84071  0.55541  0.06190  Biso   1.000  H
  H2498    1.0000 0.77302  0.51600  0.05210  Biso   1.000  H
  C2425    1.0000 0.71003  0.49953  0.06702  Biso   1.000  C
  H2499    1.0000 0.42087  0.00366  0.05760  Biso   1.000  H
  H2500    1.0000 0.38308  0.03527  0.06730  Biso   1.000  H
  C2426    1.0000 0.51001  0.13436  0.06242  Biso   1.000  C
  H2501    1.0000 0.42090  0.00373  0.05760  Biso   1.000  H
  C2427    1.0000 0.51004  0.13443  0.06242  Biso   1.000  C
  C2428    1.0000 0.45032  0.23652  0.05888  Biso   1.000  C
  H2502    1.0000 0.32202  0.14070  0.06320  Biso   1.000  H
  N334     1.0000 0.31450  0.18177  0.04796  Biso   1.000  N
  H2503    1.0000 0.57600  0.45772  0.06760  Biso   1.000  H
  H2504    1.0000 0.60931  0.45679  0.05560  Biso   1.000  H
  H2505    1.0000 0.99630  0.41717  0.05760  Biso   1.000  H
  H2506    1.0000 0.96468  0.34782  0.06730  Biso   1.000  H
  C2429    1.0000 0.86562  0.37562  0.06242  Biso   1.000  C
  C2430    1.0000 0.01266  0.26186  0.04064  Biso   1.000  C
  C2431    1.0000 0.01269  0.26193  0.04064  Biso   1.000  C
  H2507    1.0000 0.73860  0.29760  0.06840  Biso   1.000  H
  H2508    1.0000 0.80750  0.27567  0.07390  Biso   1.000  H
  H2509    1.0000 0.80754  0.27573  0.07390  Biso   1.000  H
  C2432    1.0000 0.16373  0.18771  0.01131  Biso   1.000  C
  H2510    1.0000 0.29123  0.21632  0.01220  Biso   1.000  H
  H2511    1.0000 0.18318  0.30687  0.00580  Biso   1.000  H
  H2512    1.0000 0.03823  0.14703  0.00620  Biso   1.000  H
  H2513    1.0000 0.13137  0.06028  0.01190  Biso   1.000  H
  H2514    1.0000 0.70241  0.44098  0.06840  Biso   1.000  H
  H2515    1.0000 0.72432  0.53181  0.07390  Biso   1.000  H
  H2516    1.0000 0.54228  0.11829  0.06760  Biso   1.000  H
  H2517    1.0000 0.54322  0.15250  0.05560  Biso   1.000  H
  C2433    1.0000 0.50050  0.21052  0.06702  Biso   1.000  C
  H2518    1.0000 0.44461  0.28527  0.06190  Biso   1.000  H
  H2519    1.0000 0.48401  0.25699  0.05210  Biso   1.000  H
  C2434    1.0000 0.24502  0.18351  0.05052  Biso   1.000  C
  H2520    1.0000 0.88171  0.42397  0.06760  Biso   1.000  H
  H2521    1.0000 0.84752  0.39070  0.05560  Biso   1.000  H
  H2522    1.0000 0.98052  0.27000  0.03510  Biso   1.000  H
  C2435    1.0000 0.08050  0.23792  0.03753  Biso   1.000  C
  C2436    1.0000 0.15421  0.20158  0.02311  Biso   1.000  C
  H2523    1.0000 0.55897  0.26139  0.06840  Biso   1.000  H
  H2524    1.0000 0.46822  0.19251  0.07390  Biso   1.000  H
  H2525    1.0000 0.22641  0.17457  0.05780  Biso   1.000  H
  C2437    1.0000 0.19187  0.19918  0.04221  Biso   1.000  C
  C2438    1.0000 0.13061  0.22218  0.04538  Biso   1.000  C
  C2439    1.0000 0.09333  0.22812  0.02654  Biso   1.000  C
  C2440    1.0000 0.20268  0.18811  0.03102  Biso   1.000  C
  H2526    1.0000 0.12188  0.22759  0.05280  Biso   1.000  H
  H2527    1.0000 0.06098  0.23919  0.02130  Biso   1.000  H
  H2528    1.0000 0.24376  0.17117  0.02890  Biso   1.000  H
  C2441    1.0000 0.49948  0.70998  0.93298  Biso   1.000  C
  H2529    1.0000 0.44099  0.70238  0.93160  Biso   1.000  H
  H2530    1.0000 0.53183  0.72432  0.92610  Biso   1.000  H
  C2442    1.0000 0.54972  0.78620  0.94112  Biso   1.000  C
  C2443    1.0000 0.48999  0.62436  0.93758  Biso   1.000  C
  C2444    1.0000 0.49003  0.62443  0.93758  Biso   1.000  C
  H2531    1.0000 0.55542  0.84069  0.93810  Biso   1.000  H
  H2532    1.0000 0.51598  0.77300  0.94790  Biso   1.000  H
  C2445    1.0000 0.64188  0.79981  0.94352  Biso   1.000  C
  H2533    1.0000 0.45774  0.57602  0.93240  Biso   1.000  H
  H2534    1.0000 0.45682  0.60929  0.94440  Biso   1.000  H
  C2446    1.0000 0.58420  0.63757  0.93961  Biso   1.000  C
  C2447    1.0000 0.58424  0.63763  0.93961  Biso   1.000  C
  C2448    1.0000 0.63407  0.71179  0.94778  Biso   1.000  C
  H2535    1.0000 0.67799  0.81868  0.93680  Biso   1.000  H
  N335     1.0000 0.68549  0.86729  0.95204  Biso   1.000  N
  H2536    1.0000 0.57912  0.58282  0.94240  Biso   1.000  H
  H2537    1.0000 0.61686  0.65217  0.93270  Biso   1.000  H
  H2538    1.0000 0.60201  0.69558  0.95480  Biso   1.000  H
  N336     1.0000 0.72444  0.72792  0.94950  Biso   1.000  N
  C2449    1.0000 0.75500  0.93851  0.94948  Biso   1.000  C
  C2450    1.0000 0.75079  0.73813  0.95936  Biso   1.000  C
  H2539    1.0000 0.77358  0.94818  0.94220  Biso   1.000  H
  C2451    1.0000 0.80809  0.00726  0.95779  Biso   1.000  C
  C2452    1.0000 0.80812  0.00733  0.95779  Biso   1.000  C
  H2540    1.0000 0.71051  0.72999  0.96490  Biso   1.000  H
  C2453    1.0000 0.84257  0.76207  0.96247  Biso   1.000  C
  C2454    1.0000 0.84260  0.76213  0.96247  Biso   1.000  C
  C2455    1.0000 0.79727  0.98539  0.96898  Biso   1.000  C
  C2456    1.0000 0.86938  0.09162  0.95462  Biso   1.000  C
  C2457    1.0000 0.90842  0.77780  0.95462  Biso   1.000  C
  C2458    1.0000 0.86520  0.77187  0.97346  Biso   1.000  C
  H2541    1.0000 0.75619  0.92737  0.97110  Biso   1.000  H
  C2459    1.0000 0.84578  0.04741  0.97689  Biso   1.000  C
  H2542    1.0000 0.87809  0.10569  0.94720  Biso   1.000  H
  C2460    1.0000 0.91947  0.15737  0.96247  Biso   1.000  C
  C2461    1.0000 0.99269  0.80081  0.95779  Biso   1.000  C
  H2543    1.0000 0.89429  0.77240  0.94720  Biso   1.000  H
  H2544    1.0000 0.82178  0.76080  0.97870  Biso   1.000  H
  C2462    1.0000 0.95262  0.79841  0.97689  Biso   1.000  C
  C2463    1.0000 0.90666  0.13476  0.97346  Biso   1.000  C
  C2464    1.0000 0.83632  0.02400  0.98869  Biso   1.000  C
  C2465    1.0000 0.90670  0.13483  0.97346  Biso   1.000  C
  C2466    1.0000 0.98732  0.24919  0.95936  Biso   1.000  C
  C2467    1.0000 0.06151  0.81648  0.94948  Biso   1.000  C
  C2468    1.0000 0.01457  0.81188  0.96898  Biso   1.000  C
  C2469    1.0000 0.97602  0.81228  0.98869  Biso   1.000  C
  H2545    1.0000 0.93899  0.17817  0.97870  Biso   1.000  H
  C2470    1.0000 0.75648  0.95452  0.99266  Biso   1.000  C
  C2471    1.0000 0.85081  0.95872  0.99289  Biso   1.000  C
  C2472    1.0000 0.81809  0.07288  0.99641  Biso   1.000  C
  C2473    1.0000 0.90566  0.06508  0.99615  Biso   1.000  C
  H2546    1.0000 0.01947  0.28947  0.96490  Biso   1.000  H
  N337     1.0000 0.00347  0.27560  0.94950  Biso   1.000  N
  H2547    1.0000 0.05183  0.82541  0.94220  Biso   1.000  H
  N338     1.0000 0.13271  0.81821  0.95204  Biso   1.000  N
  H2548    1.0000 0.07259  0.82882  0.97110  Biso   1.000  H
  C2474    1.0000 0.92711  0.74519  0.99641  Biso   1.000  C
  C2475    1.0000 0.93492  0.84062  0.99615  Biso   1.000  C
  C2476    1.0000 0.04550  0.80201  0.99266  Biso   1.000  C
  C2477    1.0000 0.04128  0.89210  0.99289  Biso   1.000  C
  H2549    1.0000 0.70880  0.92511  0.98780  Biso   1.000  H
  C2478    1.0000 0.74520  0.92711  0.00359  Biso   1.000  C
  H2550    1.0000 0.86859  0.92891  0.98810  Biso   1.000  H
  C2479    1.0000 0.84058  0.93491  0.00385  Biso   1.000  C
  H2551    1.0000 0.81681  0.12369  0.99420  Biso   1.000  H
  C2480    1.0000 0.80196  0.04547  0.00734  Biso   1.000  C
  H2552    1.0000 0.96184  0.10882  0.99380  Biso   1.000  H
  C2481    1.0000 0.89208  0.04127  0.00711  Biso   1.000  C
  C2482    1.0000 0.07767  0.36589  0.94778  Biso   1.000  C
  C2483    1.0000 0.20021  0.84209  0.94352  Biso   1.000  C
  H2553    1.0000 0.87630  0.69311  0.99420  Biso   1.000  H
  C2484    1.0000 0.95446  0.75646  0.00734  Biso   1.000  C
  C2485    1.0000 0.95450  0.75653  0.00734  Biso   1.000  C
  H2554    1.0000 0.89123  0.85302  0.99380  Biso   1.000  H
  C2486    1.0000 0.95873  0.85082  0.00711  Biso   1.000  C
  H2555    1.0000 0.07490  0.78367  0.98780  Biso   1.000  H
  C2487    1.0000 0.07288  0.81808  0.00359  Biso   1.000  C
  H2556    1.0000 0.07109  0.93971  0.98810  Biso   1.000  H
  C2488    1.0000 0.06512  0.90570  0.00385  Biso   1.000  C
  C2489    1.0000 0.81232  0.97599  0.01131  Biso   1.000  C
  H2557    1.0000 0.69311  0.87629  0.00580  Biso   1.000  H
  H2558    1.0000 0.85301  0.89117  0.00620  Biso   1.000  H
  H2559    1.0000 0.78369  0.07488  0.01220  Biso   1.000  H
  H2560    1.0000 0.93967  0.07108  0.01190  Biso   1.000  H
  H2561    1.0000 0.09359  0.39796  0.95480  Biso   1.000  H
  C2490    1.0000 0.05340  0.41577  0.93961  Biso   1.000  C
  C2491    1.0000 0.15791  0.35809  0.94352  Biso   1.000  C
  H2562    1.0000 0.09362  0.39803  0.95480  Biso   1.000  H
  C2492    1.0000 0.28819  0.92231  0.94778  Biso   1.000  C
  C2493    1.0000 0.21380  0.76347  0.94112  Biso   1.000  C
  H2563    1.0000 0.18132  0.85929  0.93680  Biso   1.000  H
  C2494    1.0000 0.21383  0.76353  0.94112  Biso   1.000  C
  H2564    1.0000 0.92508  0.70878  0.01220  Biso   1.000  H
  C2495    1.0000 0.02400  0.83628  0.01131  Biso   1.000  C
  H2565    1.0000 0.92888  0.86863  0.01190  Biso   1.000  H
  H2566    1.0000 0.12370  0.81681  0.00580  Biso   1.000  H
  H2567    1.0000 0.10881  0.96178  0.00620  Biso   1.000  H
  C2496    1.0000 0.79836  0.95258  0.02311  Biso   1.000  C
  H2568    1.0000 0.00371  0.42090  0.94240  Biso   1.000  H
  H2569    1.0000 0.03528  0.38309  0.93270  Biso   1.000  H
  C2497    1.0000 0.13441  0.50999  0.93758  Biso   1.000  C
  C2498    1.0000 0.23653  0.45031  0.94112  Biso   1.000  C
  H2570    1.0000 0.14068  0.32201  0.93680  Biso   1.000  H
  N339     1.0000 0.18178  0.31448  0.95204  Biso   1.000  N
  H2571    1.0000 0.30436  0.90637  0.95480  Biso   1.000  H
  C2499    1.0000 0.36241  0.94658  0.93961  Biso   1.000  C
  N340     1.0000 0.27211  0.99653  0.94950  Biso   1.000  N
  C2500    1.0000 0.28998  0.78947  0.93298  Biso   1.000  C
  H2572    1.0000 0.15933  0.71472  0.93810  Biso   1.000  H
  H2573    1.0000 0.22701  0.74299  0.94790  Biso   1.000  H
  C2501    1.0000 0.04742  0.84582  0.02311  Biso   1.000  C
  C2502    1.0000 0.77189  0.86523  0.02654  Biso   1.000  C
  C2503    1.0000 0.81187  0.01460  0.03102  Biso   1.000  C
  H2574    1.0000 0.11827  0.54227  0.93240  Biso   1.000  H
  H2575    1.0000 0.15252  0.54320  0.94440  Biso   1.000  H
  C2504    1.0000 0.21053  0.50052  0.93298  Biso   1.000  C
  H2576    1.0000 0.28529  0.44458  0.93810  Biso   1.000  H
  H2577    1.0000 0.25701  0.48399  0.94790  Biso   1.000  H
  C2505    1.0000 0.18348  0.24499  0.94948  Biso   1.000  C
  H2578    1.0000 0.41720  0.99633  0.94240  Biso   1.000  H
  H2579    1.0000 0.34780  0.96472  0.93270  Biso   1.000  H
  C2506    1.0000 0.37564  0.86563  0.93758  Biso   1.000  C
  C2507    1.0000 0.26188  0.01266  0.95936  Biso   1.000  C
  C2508    1.0000 0.26191  0.01273  0.95936  Biso   1.000  C
  H2580    1.0000 0.29757  0.73859  0.93160  Biso   1.000  H
  H2581    1.0000 0.27571  0.80748  0.92610  Biso   1.000  H
  C2509    1.0000 0.98538  0.79727  0.03102  Biso   1.000  C
  C2510    1.0000 0.13480  0.90670  0.02654  Biso   1.000  C
  C2511    1.0000 0.76209  0.84262  0.03753  Biso   1.000  C
  H2582    1.0000 0.76081  0.82181  0.02130  Biso   1.000  H
  C2512    1.0000 0.80082  0.99273  0.04221  Biso   1.000  C
  H2583    1.0000 0.82881  0.07261  0.02890  Biso   1.000  H
  H2584    1.0000 0.26143  0.55901  0.93160  Biso   1.000  H
  H2585    1.0000 0.19251  0.46818  0.92610  Biso   1.000  H
  H2586    1.0000 0.17458  0.22639  0.94220  Biso   1.000  H
  C2513    1.0000 0.19921  0.19191  0.95779  Biso   1.000  C
  H2587    1.0000 0.42399  0.88170  0.93240  Biso   1.000  H
  H2588    1.0000 0.39071  0.84749  0.94440  Biso   1.000  H
  H2589    1.0000 0.27000  0.98052  0.96490  Biso   1.000  H
  C2514    1.0000 0.23792  0.08048  0.96247  Biso   1.000  C
  H2590    1.0000 0.92742  0.75620  0.02890  Biso   1.000  H
  C2515    1.0000 0.00730  0.80808  0.04221  Biso   1.000  C
  C2516    1.0000 0.15743  0.91951  0.03753  Biso   1.000  C
  H2591    1.0000 0.17820  0.93898  0.02130  Biso   1.000  H
  C2517    1.0000 0.77776  0.90837  0.04538  Biso   1.000  C
  C2518    1.0000 0.73813  0.75080  0.04064  Biso   1.000  C
  C2519    1.0000 0.81649  0.06148  0.05052  Biso   1.000  C
  C2520    1.0000 0.22219  0.13056  0.95462  Biso   1.000  C
  C2521    1.0000 0.18810  0.20271  0.96898  Biso   1.000  C
  C2522    1.0000 0.22222  0.13063  0.95462  Biso   1.000  C
  C2523    1.0000 0.22809  0.09328  0.97346  Biso   1.000  C
  C2524    1.0000 0.93848  0.75500  0.05052  Biso   1.000  C
  C2525    1.0000 0.09162  0.86943  0.04538  Biso   1.000  C
  C2526    1.0000 0.24921  0.98732  0.04064  Biso   1.000  C
  H2592    1.0000 0.77240  0.89430  0.05280  Biso   1.000  H
  H2593    1.0000 0.73000  0.71052  0.03510  Biso   1.000  H
  N341     1.0000 0.72787  0.72439  0.05050  Biso   1.000  N
  H2594    1.0000 0.82540  0.05181  0.05780  Biso   1.000  H
  N342     1.0000 0.81820  0.13269  0.04796  Biso   1.000  N
  H2595    1.0000 0.22761  0.12189  0.94720  Biso   1.000  H
  C2527    1.0000 0.20159  0.15417  0.97689  Biso   1.000  C
  H2596    1.0000 0.17121  0.24379  0.97110  Biso   1.000  H
  H2597    1.0000 0.23921  0.06101  0.97870  Biso   1.000  H
  H2598    1.0000 0.94819  0.77360  0.05780  Biso   1.000  H
  N343     1.0000 0.86730  0.68551  0.04796  Biso   1.000  N
  H2599    1.0000 0.10571  0.87810  0.05280  Biso   1.000  H
  H2600    1.0000 0.28947  0.01947  0.03510  Biso   1.000  H
  N344     1.0000 0.27558  0.00346  0.05050  Biso   1.000  N
  H2601    1.0000 0.28951  0.01953  0.03510  Biso   1.000  H
  N345     1.0000 0.27561  0.00353  0.05050  Biso   1.000  N
  C2528    1.0000 0.71177  0.63410  0.05222  Biso   1.000  C
  C2529    1.0000 0.84206  0.20018  0.05648  Biso   1.000  C
  C2530    1.0000 0.18771  0.16370  0.98869  Biso   1.000  C
  C2531    1.0000 0.79981  0.64190  0.05648  Biso   1.000  C
  C2532    1.0000 0.36588  0.07768  0.05222  Biso   1.000  C
  H2602    1.0000 0.69562  0.60202  0.04520  Biso   1.000  H
  C2533    1.0000 0.63763  0.58422  0.06039  Biso   1.000  C
  C2534    1.0000 0.92228  0.28820  0.05222  Biso   1.000  C
  C2535    1.0000 0.76351  0.21378  0.05888  Biso   1.000  C
  H2603    1.0000 0.85931  0.18131  0.06320  Biso   1.000  H
  C2536    1.0000 0.25479  0.18191  0.99641  Biso   1.000  C
  C2537    1.0000 0.19799  0.24352  0.99266  Biso   1.000  C
  C2538    1.0000 0.10794  0.14923  0.99289  Biso   1.000  C
  C2539    1.0000 0.15941  0.09428  0.99615  Biso   1.000  C
  C2540    1.0000 0.78621  0.54968  0.05888  Biso   1.000  C
  H2604    1.0000 0.81866  0.67798  0.06320  Biso   1.000  H
  H2605    1.0000 0.39799  0.09362  0.04520  Biso   1.000  H
  C2541    1.0000 0.41582  0.05341  0.06039  Biso   1.000  C
  C2542    1.0000 0.35811  0.15790  0.05648  Biso   1.000  C
  H2606    1.0000 0.58280  0.57908  0.05760  Biso   1.000  H
  H2607    1.0000 0.65218  0.61689  0.06730  Biso   1.000  H
  C2543    1.0000 0.62441  0.48999  0.06242  Biso   1.000  C
  H2608    1.0000 0.90642  0.30441  0.04520  Biso   1.000  H
  C2544    1.0000 0.94663  0.36242  0.06039  Biso   1.000  C
  N346     1.0000 0.99651  0.27206  0.05050  Biso   1.000  N
  N347     1.0000 0.99654  0.27213  0.05050  Biso   1.000  N
  C2545    1.0000 0.78949  0.29000  0.06702  Biso   1.000  C
  H2609    1.0000 0.71473  0.15930  0.06190  Biso   1.000  H
  H2610    1.0000 0.74297  0.22699  0.05210  Biso   1.000  H
  H2611    1.0000 0.30688  0.18317  0.99420  Biso   1.000  H
  C2546    1.0000 0.24348  0.19798  0.00734  Biso   1.000  C
  H2612    1.0000 0.21629  0.29120  0.98780  Biso   1.000  H
  C2547    1.0000 0.18191  0.25479  0.00359  Biso   1.000  C
  H2613    1.0000 0.06029  0.13143  0.98810  Biso   1.000  H
  C2548    1.0000 0.09429  0.15937  0.00385  Biso   1.000  C
  H2614    1.0000 0.14702  0.03820  0.99380  Biso   1.000  H
  C2549    1.0000 0.14917  0.10789  0.00711  Biso   1.000  C
  C2550    1.0000 0.71000  0.49946  0.06702  Biso   1.000  C
  H2615    1.0000 0.84071  0.55541  0.06190  Biso   1.000  H
  H2616    1.0000 0.77302  0.51600  0.05210  Biso   1.000  H
  C2551    1.0000 0.71003  0.49953  0.06702  Biso   1.000  C
  H2617    1.0000 0.42087  0.00366  0.05760  Biso   1.000  H
  H2618    1.0000 0.38308  0.03527  0.06730  Biso   1.000  H
  C2552    1.0000 0.51001  0.13436  0.06242  Biso   1.000  C
  H2619    1.0000 0.42090  0.00373  0.05760  Biso   1.000  H
  C2553    1.0000 0.51004  0.13443  0.06242  Biso   1.000  C
  C2554    1.0000 0.45032  0.23652  0.05888  Biso   1.000  C
  H2620    1.0000 0.32202  0.14070  0.06320  Biso   1.000  H
  N348     1.0000 0.31450  0.18177  0.04796  Biso   1.000  N
  H2621    1.0000 0.57600  0.45772  0.06760  Biso   1.000  H
  H2622    1.0000 0.60931  0.45679  0.05560  Biso   1.000  H
  H2623    1.0000 0.99630  0.41717  0.05760  Biso   1.000  H
  H2624    1.0000 0.96468  0.34782  0.06730  Biso   1.000  H
  C2555    1.0000 0.86562  0.37562  0.06242  Biso   1.000  C
  C2556    1.0000 0.01266  0.26186  0.04064  Biso   1.000  C
  C2557    1.0000 0.01269  0.26193  0.04064  Biso   1.000  C
  H2625    1.0000 0.73860  0.29760  0.06840  Biso   1.000  H
  H2626    1.0000 0.80750  0.27567  0.07390  Biso   1.000  H
  H2627    1.0000 0.80754  0.27573  0.07390  Biso   1.000  H
  C2558    1.0000 0.16373  0.18771  0.01131  Biso   1.000  C
  H2628    1.0000 0.29123  0.21632  0.01220  Biso   1.000  H
  H2629    1.0000 0.18318  0.30687  0.00580  Biso   1.000  H
  H2630    1.0000 0.03823  0.14703  0.00620  Biso   1.000  H
  H2631    1.0000 0.13137  0.06028  0.01190  Biso   1.000  H
  H2632    1.0000 0.70241  0.44098  0.06840  Biso   1.000  H
  H2633    1.0000 0.72432  0.53181  0.07390  Biso   1.000  H
  H2634    1.0000 0.54228  0.11829  0.06760  Biso   1.000  H
  H2635    1.0000 0.54322  0.15250  0.05560  Biso   1.000  H
  C2559    1.0000 0.50050  0.21052  0.06702  Biso   1.000  C
  H2636    1.0000 0.44461  0.28527  0.06190  Biso   1.000  H
  H2637    1.0000 0.48401  0.25699  0.05210  Biso   1.000  H
  C2560    1.0000 0.24502  0.18351  0.05052  Biso   1.000  C
  H2638    1.0000 0.88171  0.42397  0.06760  Biso   1.000  H
  H2639    1.0000 0.84752  0.39070  0.05560  Biso   1.000  H
  H2640    1.0000 0.98052  0.27000  0.03510  Biso   1.000  H
  C2561    1.0000 0.08050  0.23792  0.03753  Biso   1.000  C
  C2562    1.0000 0.15421  0.20158  0.02311  Biso   1.000  C
  H2641    1.0000 0.55897  0.26139  0.06840  Biso   1.000  H
  H2642    1.0000 0.46822  0.19251  0.07390  Biso   1.000  H
  H2643    1.0000 0.22641  0.17457  0.05780  Biso   1.000  H
  C2563    1.0000 0.19187  0.19918  0.04221  Biso   1.000  C
  C2564    1.0000 0.13061  0.22218  0.04538  Biso   1.000  C
  C2565    1.0000 0.09333  0.22812  0.02654  Biso   1.000  C
  C2566    1.0000 0.20268  0.18811  0.03102  Biso   1.000  C
  H2644    1.0000 0.12188  0.22759  0.05280  Biso   1.000  H
  H2645    1.0000 0.06098  0.23919  0.02130  Biso   1.000  H
  H2646    1.0000 0.24376  0.17117  0.02890  Biso   1.000  H
  C2567    1.0000 0.49948  0.70998  0.93298  Biso   1.000  C
  H2647    1.0000 0.44099  0.70238  0.93160  Biso   1.000  H
  H2648    1.0000 0.53183  0.72432  0.92610  Biso   1.000  H
  C2568    1.0000 0.54972  0.78620  0.94112  Biso   1.000  C
  C2569    1.0000 0.48999  0.62436  0.93758  Biso   1.000  C
  C2570    1.0000 0.49003  0.62443  0.93758  Biso   1.000  C
  H2649    1.0000 0.55542  0.84069  0.93810  Biso   1.000  H
  H2650    1.0000 0.51598  0.77300  0.94790  Biso   1.000  H
  C2571    1.0000 0.64188  0.79981  0.94352  Biso   1.000  C
  H2651    1.0000 0.45774  0.57602  0.93240  Biso   1.000  H
  H2652    1.0000 0.45682  0.60929  0.94440  Biso   1.000  H
  C2572    1.0000 0.58420  0.63757  0.93961  Biso   1.000  C
  C2573    1.0000 0.58424  0.63763  0.93961  Biso   1.000  C
  C2574    1.0000 0.63407  0.71179  0.94778  Biso   1.000  C
  H2653    1.0000 0.67799  0.81868  0.93680  Biso   1.000  H
  N349     1.0000 0.68549  0.86729  0.95204  Biso   1.000  N
  H2654    1.0000 0.57912  0.58282  0.94240  Biso   1.000  H
  H2655    1.0000 0.61686  0.65217  0.93270  Biso   1.000  H
  H2656    1.0000 0.60201  0.69558  0.95480  Biso   1.000  H
  N350     1.0000 0.72444  0.72792  0.94950  Biso   1.000  N
  C2575    1.0000 0.75500  0.93851  0.94948  Biso   1.000  C
  C2576    1.0000 0.75079  0.73813  0.95936  Biso   1.000  C
  H2657    1.0000 0.77358  0.94818  0.94220  Biso   1.000  H
  C2577    1.0000 0.80809  0.00726  0.95779  Biso   1.000  C
  C2578    1.0000 0.80812  0.00733  0.95779  Biso   1.000  C
  H2658    1.0000 0.71051  0.72999  0.96490  Biso   1.000  H
  C2579    1.0000 0.84257  0.76207  0.96247  Biso   1.000  C
  C2580    1.0000 0.84260  0.76213  0.96247  Biso   1.000  C
  C2581    1.0000 0.79727  0.98539  0.96898  Biso   1.000  C
  C2582    1.0000 0.86938  0.09162  0.95462  Biso   1.000  C
  C2583    1.0000 0.90842  0.77780  0.95462  Biso   1.000  C
  C2584    1.0000 0.86520  0.77187  0.97346  Biso   1.000  C
  H2659    1.0000 0.75619  0.92737  0.97110  Biso   1.000  H
  C2585    1.0000 0.84578  0.04741  0.97689  Biso   1.000  C
  H2660    1.0000 0.87809  0.10569  0.94720  Biso   1.000  H
  C2586    1.0000 0.91947  0.15737  0.96247  Biso   1.000  C
  C2587    1.0000 0.99269  0.80081  0.95779  Biso   1.000  C
  H2661    1.0000 0.89429  0.77240  0.94720  Biso   1.000  H
  H2662    1.0000 0.82178  0.76080  0.97870  Biso   1.000  H
  C2588    1.0000 0.95262  0.79841  0.97689  Biso   1.000  C
  C2589    1.0000 0.90666  0.13476  0.97346  Biso   1.000  C
  C2590    1.0000 0.83632  0.02400  0.98869  Biso   1.000  C
  C2591    1.0000 0.90670  0.13483  0.97346  Biso   1.000  C
  C2592    1.0000 0.98732  0.24919  0.95936  Biso   1.000  C
  C2593    1.0000 0.06151  0.81648  0.94948  Biso   1.000  C
  C2594    1.0000 0.01457  0.81188  0.96898  Biso   1.000  C
  C2595    1.0000 0.97602  0.81228  0.98869  Biso   1.000  C
  H2663    1.0000 0.93899  0.17817  0.97870  Biso   1.000  H
  C2596    1.0000 0.75648  0.95452  0.99266  Biso   1.000  C
  C2597    1.0000 0.85081  0.95872  0.99289  Biso   1.000  C
  C2598    1.0000 0.81809  0.07288  0.99641  Biso   1.000  C
  C2599    1.0000 0.90566  0.06508  0.99615  Biso   1.000  C
  H2664    1.0000 0.01947  0.28947  0.96490  Biso   1.000  H
  N351     1.0000 0.00347  0.27560  0.94950  Biso   1.000  N
  H2665    1.0000 0.05183  0.82541  0.94220  Biso   1.000  H
  N352     1.0000 0.13271  0.81821  0.95204  Biso   1.000  N
  H2666    1.0000 0.07259  0.82882  0.97110  Biso   1.000  H
  C2600    1.0000 0.92711  0.74519  0.99641  Biso   1.000  C
  C2601    1.0000 0.93492  0.84062  0.99615  Biso   1.000  C
  C2602    1.0000 0.04550  0.80201  0.99266  Biso   1.000  C
  C2603    1.0000 0.04128  0.89210  0.99289  Biso   1.000  C
  H2667    1.0000 0.70880  0.92511  0.98780  Biso   1.000  H
  C2604    1.0000 0.74520  0.92711  0.00359  Biso   1.000  C
  H2668    1.0000 0.86859  0.92891  0.98810  Biso   1.000  H
  C2605    1.0000 0.84058  0.93491  0.00385  Biso   1.000  C
  H2669    1.0000 0.81681  0.12369  0.99420  Biso   1.000  H
  C2606    1.0000 0.80196  0.04547  0.00734  Biso   1.000  C
  H2670    1.0000 0.96184  0.10882  0.99380  Biso   1.000  H
  C2607    1.0000 0.89208  0.04127  0.00711  Biso   1.000  C
  C2608    1.0000 0.07767  0.36589  0.94778  Biso   1.000  C
  C2609    1.0000 0.20021  0.84209  0.94352  Biso   1.000  C
  H2671    1.0000 0.87630  0.69311  0.99420  Biso   1.000  H
  C2610    1.0000 0.95446  0.75646  0.00734  Biso   1.000  C
  C2611    1.0000 0.95450  0.75653  0.00734  Biso   1.000  C
  H2672    1.0000 0.89123  0.85302  0.99380  Biso   1.000  H
  C2612    1.0000 0.95873  0.85082  0.00711  Biso   1.000  C
  H2673    1.0000 0.07490  0.78367  0.98780  Biso   1.000  H
  C2613    1.0000 0.07288  0.81808  0.00359  Biso   1.000  C
  H2674    1.0000 0.07109  0.93971  0.98810  Biso   1.000  H
  C2614    1.0000 0.06512  0.90570  0.00385  Biso   1.000  C
  C2615    1.0000 0.81232  0.97599  0.01131  Biso   1.000  C
  H2675    1.0000 0.69311  0.87629  0.00580  Biso   1.000  H
  H2676    1.0000 0.85301  0.89117  0.00620  Biso   1.000  H
  H2677    1.0000 0.78369  0.07488  0.01220  Biso   1.000  H
  H2678    1.0000 0.93967  0.07108  0.01190  Biso   1.000  H
  H2679    1.0000 0.09359  0.39796  0.95480  Biso   1.000  H
  C2616    1.0000 0.05340  0.41577  0.93961  Biso   1.000  C
  C2617    1.0000 0.15791  0.35809  0.94352  Biso   1.000  C
  H2680    1.0000 0.09362  0.39803  0.95480  Biso   1.000  H
  C2618    1.0000 0.28819  0.92231  0.94778  Biso   1.000  C
  C2619    1.0000 0.21380  0.76347  0.94112  Biso   1.000  C
  H2681    1.0000 0.18132  0.85929  0.93680  Biso   1.000  H
  C2620    1.0000 0.21383  0.76353  0.94112  Biso   1.000  C
  H2682    1.0000 0.92508  0.70878  0.01220  Biso   1.000  H
  C2621    1.0000 0.02400  0.83628  0.01131  Biso   1.000  C
  H2683    1.0000 0.92888  0.86863  0.01190  Biso   1.000  H
  H2684    1.0000 0.12370  0.81681  0.00580  Biso   1.000  H
  H2685    1.0000 0.10881  0.96178  0.00620  Biso   1.000  H
  C2622    1.0000 0.79836  0.95258  0.02311  Biso   1.000  C
  H2686    1.0000 0.00371  0.42090  0.94240  Biso   1.000  H
  H2687    1.0000 0.03528  0.38309  0.93270  Biso   1.000  H
  C2623    1.0000 0.13441  0.50999  0.93758  Biso   1.000  C
  C2624    1.0000 0.23653  0.45031  0.94112  Biso   1.000  C
  H2688    1.0000 0.14068  0.32201  0.93680  Biso   1.000  H
  N353     1.0000 0.18178  0.31448  0.95204  Biso   1.000  N
  H2689    1.0000 0.30436  0.90637  0.95480  Biso   1.000  H
  C2625    1.0000 0.36241  0.94658  0.93961  Biso   1.000  C
  N354     1.0000 0.27211  0.99653  0.94950  Biso   1.000  N
  C2626    1.0000 0.28998  0.78947  0.93298  Biso   1.000  C
  H2690    1.0000 0.15933  0.71472  0.93810  Biso   1.000  H
  H2691    1.0000 0.22701  0.74299  0.94790  Biso   1.000  H
  C2627    1.0000 0.04742  0.84582  0.02311  Biso   1.000  C
  C2628    1.0000 0.77189  0.86523  0.02654  Biso   1.000  C
  C2629    1.0000 0.81187  0.01460  0.03102  Biso   1.000  C
  H2692    1.0000 0.11827  0.54227  0.93240  Biso   1.000  H
  H2693    1.0000 0.15252  0.54320  0.94440  Biso   1.000  H
  C2630    1.0000 0.21053  0.50052  0.93298  Biso   1.000  C
  H2694    1.0000 0.28529  0.44458  0.93810  Biso   1.000  H
  H2695    1.0000 0.25701  0.48399  0.94790  Biso   1.000  H
  C2631    1.0000 0.18348  0.24499  0.94948  Biso   1.000  C
  H2696    1.0000 0.41720  0.99633  0.94240  Biso   1.000  H
  H2697    1.0000 0.34780  0.96472  0.93270  Biso   1.000  H
  C2632    1.0000 0.37564  0.86563  0.93758  Biso   1.000  C
  C2633    1.0000 0.26188  0.01266  0.95936  Biso   1.000  C
  C2634    1.0000 0.26191  0.01273  0.95936  Biso   1.000  C
  H2698    1.0000 0.29757  0.73859  0.93160  Biso   1.000  H
  H2699    1.0000 0.27571  0.80748  0.92610  Biso   1.000  H
  C2635    1.0000 0.98538  0.79727  0.03102  Biso   1.000  C
  C2636    1.0000 0.13480  0.90670  0.02654  Biso   1.000  C
  C2637    1.0000 0.76209  0.84262  0.03753  Biso   1.000  C
  H2700    1.0000 0.76081  0.82181  0.02130  Biso   1.000  H
  C2638    1.0000 0.80082  0.99273  0.04221  Biso   1.000  C
  H2701    1.0000 0.82881  0.07261  0.02890  Biso   1.000  H
  H2702    1.0000 0.26143  0.55901  0.93160  Biso   1.000  H
  H2703    1.0000 0.19251  0.46818  0.92610  Biso   1.000  H
  H2704    1.0000 0.17458  0.22639  0.94220  Biso   1.000  H
  C2639    1.0000 0.19921  0.19191  0.95779  Biso   1.000  C
  H2705    1.0000 0.42399  0.88170  0.93240  Biso   1.000  H
  H2706    1.0000 0.39071  0.84749  0.94440  Biso   1.000  H
  H2707    1.0000 0.27000  0.98052  0.96490  Biso   1.000  H
  C2640    1.0000 0.23792  0.08048  0.96247  Biso   1.000  C
  H2708    1.0000 0.92742  0.75620  0.02890  Biso   1.000  H
  C2641    1.0000 0.00730  0.80808  0.04221  Biso   1.000  C
  C2642    1.0000 0.15743  0.91951  0.03753  Biso   1.000  C
  H2709    1.0000 0.17820  0.93898  0.02130  Biso   1.000  H
  C2643    1.0000 0.77776  0.90837  0.04538  Biso   1.000  C
  C2644    1.0000 0.73813  0.75080  0.04064  Biso   1.000  C
  C2645    1.0000 0.81649  0.06148  0.05052  Biso   1.000  C
  C2646    1.0000 0.22219  0.13056  0.95462  Biso   1.000  C
  C2647    1.0000 0.18810  0.20271  0.96898  Biso   1.000  C
  C2648    1.0000 0.22222  0.13063  0.95462  Biso   1.000  C
  C2649    1.0000 0.22809  0.09328  0.97346  Biso   1.000  C
  C2650    1.0000 0.93848  0.75500  0.05052  Biso   1.000  C
  C2651    1.0000 0.09162  0.86943  0.04538  Biso   1.000  C
  C2652    1.0000 0.24921  0.98732  0.04064  Biso   1.000  C
  H2710    1.0000 0.77240  0.89430  0.05280  Biso   1.000  H
  H2711    1.0000 0.73000  0.71052  0.03510  Biso   1.000  H
  N355     1.0000 0.72787  0.72439  0.05050  Biso   1.000  N
  H2712    1.0000 0.82540  0.05181  0.05780  Biso   1.000  H
  N356     1.0000 0.81820  0.13269  0.04796  Biso   1.000  N
  H2713    1.0000 0.22761  0.12189  0.94720  Biso   1.000  H
  C2653    1.0000 0.20159  0.15417  0.97689  Biso   1.000  C
  H2714    1.0000 0.17121  0.24379  0.97110  Biso   1.000  H
  H2715    1.0000 0.23921  0.06101  0.97870  Biso   1.000  H
  H2716    1.0000 0.94819  0.77360  0.05780  Biso   1.000  H
  N357     1.0000 0.86730  0.68551  0.04796  Biso   1.000  N
  H2717    1.0000 0.10571  0.87810  0.05280  Biso   1.000  H
  H2718    1.0000 0.28947  0.01947  0.03510  Biso   1.000  H
  N358     1.0000 0.27558  0.00346  0.05050  Biso   1.000  N
  H2719    1.0000 0.28951  0.01953  0.03510  Biso   1.000  H
  N359     1.0000 0.27561  0.00353  0.05050  Biso   1.000  N
  C2654    1.0000 0.71177  0.63410  0.05222  Biso   1.000  C
  C2655    1.0000 0.84206  0.20018  0.05648  Biso   1.000  C
  C2656    1.0000 0.18771  0.16370  0.98869  Biso   1.000  C
  C2657    1.0000 0.79981  0.64190  0.05648  Biso   1.000  C
  C2658    1.0000 0.36588  0.07768  0.05222  Biso   1.000  C
  H2720    1.0000 0.69562  0.60202  0.04520  Biso   1.000  H
  C2659    1.0000 0.63763  0.58422  0.06039  Biso   1.000  C
  C2660    1.0000 0.92228  0.28820  0.05222  Biso   1.000  C
  C2661    1.0000 0.76351  0.21378  0.05888  Biso   1.000  C
  H2721    1.0000 0.85931  0.18131  0.06320  Biso   1.000  H
  C2662    1.0000 0.25479  0.18191  0.99641  Biso   1.000  C
  C2663    1.0000 0.19799  0.24352  0.99266  Biso   1.000  C
  C2664    1.0000 0.10794  0.14923  0.99289  Biso   1.000  C
  C2665    1.0000 0.15941  0.09428  0.99615  Biso   1.000  C
  C2666    1.0000 0.78621  0.54968  0.05888  Biso   1.000  C
  H2722    1.0000 0.81866  0.67798  0.06320  Biso   1.000  H
  H2723    1.0000 0.39799  0.09362  0.04520  Biso   1.000  H
  C2667    1.0000 0.41582  0.05341  0.06039  Biso   1.000  C
  C2668    1.0000 0.35811  0.15790  0.05648  Biso   1.000  C
  H2724    1.0000 0.58280  0.57908  0.05760  Biso   1.000  H
  H2725    1.0000 0.65218  0.61689  0.06730  Biso   1.000  H
  C2669    1.0000 0.62441  0.48999  0.06242  Biso   1.000  C
  H2726    1.0000 0.90642  0.30441  0.04520  Biso   1.000  H
  C2670    1.0000 0.94663  0.36242  0.06039  Biso   1.000  C
  N360     1.0000 0.99651  0.27206  0.05050  Biso   1.000  N
  N361     1.0000 0.99654  0.27213  0.05050  Biso   1.000  N
  C2671    1.0000 0.78949  0.29000  0.06702  Biso   1.000  C
  H2727    1.0000 0.71473  0.15930  0.06190  Biso   1.000  H
  H2728    1.0000 0.74297  0.22699  0.05210  Biso   1.000  H
  H2729    1.0000 0.30688  0.18317  0.99420  Biso   1.000  H
  C2672    1.0000 0.24348  0.19798  0.00734  Biso   1.000  C
  H2730    1.0000 0.21629  0.29120  0.98780  Biso   1.000  H
  C2673    1.0000 0.18191  0.25479  0.00359  Biso   1.000  C
  H2731    1.0000 0.06029  0.13143  0.98810  Biso   1.000  H
  C2674    1.0000 0.09429  0.15937  0.00385  Biso   1.000  C
  H2732    1.0000 0.14702  0.03820  0.99380  Biso   1.000  H
  C2675    1.0000 0.14917  0.10789  0.00711  Biso   1.000  C
  C2676    1.0000 0.71000  0.49946  0.06702  Biso   1.000  C
  H2733    1.0000 0.84071  0.55541  0.06190  Biso   1.000  H
  H2734    1.0000 0.77302  0.51600  0.05210  Biso   1.000  H
  C2677    1.0000 0.71003  0.49953  0.06702  Biso   1.000  C
  H2735    1.0000 0.42087  0.00366  0.05760  Biso   1.000  H
  H2736    1.0000 0.38308  0.03527  0.06730  Biso   1.000  H
  C2678    1.0000 0.51001  0.13436  0.06242  Biso   1.000  C
  H2737    1.0000 0.42090  0.00373  0.05760  Biso   1.000  H
  C2679    1.0000 0.51004  0.13443  0.06242  Biso   1.000  C
  C2680    1.0000 0.45032  0.23652  0.05888  Biso   1.000  C
  H2738    1.0000 0.32202  0.14070  0.06320  Biso   1.000  H
  N362     1.0000 0.31450  0.18177  0.04796  Biso   1.000  N
  H2739    1.0000 0.57600  0.45772  0.06760  Biso   1.000  H
  H2740    1.0000 0.60931  0.45679  0.05560  Biso   1.000  H
  H2741    1.0000 0.99630  0.41717  0.05760  Biso   1.000  H
  H2742    1.0000 0.96468  0.34782  0.06730  Biso   1.000  H
  C2681    1.0000 0.86562  0.37562  0.06242  Biso   1.000  C
  C2682    1.0000 0.01266  0.26186  0.04064  Biso   1.000  C
  C2683    1.0000 0.01269  0.26193  0.04064  Biso   1.000  C
  H2743    1.0000 0.73860  0.29760  0.06840  Biso   1.000  H
  H2744    1.0000 0.80750  0.27567  0.07390  Biso   1.000  H
  H2745    1.0000 0.80754  0.27573  0.07390  Biso   1.000  H
  C2684    1.0000 0.16373  0.18771  0.01131  Biso   1.000  C
  H2746    1.0000 0.29123  0.21632  0.01220  Biso   1.000  H
  H2747    1.0000 0.18318  0.30687  0.00580  Biso   1.000  H
  H2748    1.0000 0.03823  0.14703  0.00620  Biso   1.000  H
  H2749    1.0000 0.13137  0.06028  0.01190  Biso   1.000  H
  H2750    1.0000 0.70241  0.44098  0.06840  Biso   1.000  H
  H2751    1.0000 0.72432  0.53181  0.07390  Biso   1.000  H
  H2752    1.0000 0.54228  0.11829  0.06760  Biso   1.000  H
  H2753    1.0000 0.54322  0.15250  0.05560  Biso   1.000  H
  C2685    1.0000 0.50050  0.21052  0.06702  Biso   1.000  C
  H2754    1.0000 0.44461  0.28527  0.06190  Biso   1.000  H
  H2755    1.0000 0.48401  0.25699  0.05210  Biso   1.000  H
  C2686    1.0000 0.24502  0.18351  0.05052  Biso   1.000  C
  H2756    1.0000 0.88171  0.42397  0.06760  Biso   1.000  H
  H2757    1.0000 0.84752  0.39070  0.05560  Biso   1.000  H
  H2758    1.0000 0.98052  0.27000  0.03510  Biso   1.000  H
  C2687    1.0000 0.08050  0.23792  0.03753  Biso   1.000  C
  C2688    1.0000 0.15421  0.20158  0.02311  Biso   1.000  C
  H2759    1.0000 0.55897  0.26139  0.06840  Biso   1.000  H
  H2760    1.0000 0.46822  0.19251  0.07390  Biso   1.000  H
  H2761    1.0000 0.22641  0.17457  0.05780  Biso   1.000  H
  C2689    1.0000 0.19187  0.19918  0.04221  Biso   1.000  C
  C2690    1.0000 0.13061  0.22218  0.04538  Biso   1.000  C
  C2691    1.0000 0.09333  0.22812  0.02654  Biso   1.000  C
  C2692    1.0000 0.20268  0.18811  0.03102  Biso   1.000  C
  H2762    1.0000 0.12188  0.22759  0.05280  Biso   1.000  H
  H2763    1.0000 0.06098  0.23919  0.02130  Biso   1.000  H
  H2764    1.0000 0.24376  0.17117  0.02890  Biso   1.000  H
  C2693    1.0000 0.49948  0.70998  0.93298  Biso   1.000  C
  H2765    1.0000 0.44099  0.70238  0.93160  Biso   1.000  H
  H2766    1.0000 0.53183  0.72432  0.92610  Biso   1.000  H
  C2694    1.0000 0.54972  0.78620  0.94112  Biso   1.000  C
  C2695    1.0000 0.48999  0.62436  0.93758  Biso   1.000  C
  C2696    1.0000 0.49003  0.62443  0.93758  Biso   1.000  C
  H2767    1.0000 0.55542  0.84069  0.93810  Biso   1.000  H
  H2768    1.0000 0.51598  0.77300  0.94790  Biso   1.000  H
  C2697    1.0000 0.64188  0.79981  0.94352  Biso   1.000  C
  H2769    1.0000 0.45774  0.57602  0.93240  Biso   1.000  H
  H2770    1.0000 0.45682  0.60929  0.94440  Biso   1.000  H
  C2698    1.0000 0.58420  0.63757  0.93961  Biso   1.000  C
  C2699    1.0000 0.58424  0.63763  0.93961  Biso   1.000  C
  C2700    1.0000 0.63407  0.71179  0.94778  Biso   1.000  C
  H2771    1.0000 0.67799  0.81868  0.93680  Biso   1.000  H
  N363     1.0000 0.68549  0.86729  0.95204  Biso   1.000  N
  H2772    1.0000 0.57912  0.58282  0.94240  Biso   1.000  H
  H2773    1.0000 0.61686  0.65217  0.93270  Biso   1.000  H
  H2774    1.0000 0.60201  0.69558  0.95480  Biso   1.000  H
  N364     1.0000 0.72444  0.72792  0.94950  Biso   1.000  N
  C2701    1.0000 0.75500  0.93851  0.94948  Biso   1.000  C
  C2702    1.0000 0.75079  0.73813  0.95936  Biso   1.000  C
  H2775    1.0000 0.77358  0.94818  0.94220  Biso   1.000  H
  C2703    1.0000 0.80809  0.00726  0.95779  Biso   1.000  C
  C2704    1.0000 0.80812  0.00733  0.95779  Biso   1.000  C
  H2776    1.0000 0.71051  0.72999  0.96490  Biso   1.000  H
  C2705    1.0000 0.84257  0.76207  0.96247  Biso   1.000  C
  C2706    1.0000 0.84260  0.76213  0.96247  Biso   1.000  C
  C2707    1.0000 0.79727  0.98539  0.96898  Biso   1.000  C
  C2708    1.0000 0.86938  0.09162  0.95462  Biso   1.000  C
  C2709    1.0000 0.90842  0.77780  0.95462  Biso   1.000  C
  C2710    1.0000 0.86520  0.77187  0.97346  Biso   1.000  C
  H2777    1.0000 0.75619  0.92737  0.97110  Biso   1.000  H
  C2711    1.0000 0.84578  0.04741  0.97689  Biso   1.000  C
  H2778    1.0000 0.87809  0.10569  0.94720  Biso   1.000  H
  C2712    1.0000 0.91947  0.15737  0.96247  Biso   1.000  C
  C2713    1.0000 0.99269  0.80081  0.95779  Biso   1.000  C
  H2779    1.0000 0.89429  0.77240  0.94720  Biso   1.000  H
  H2780    1.0000 0.82178  0.76080  0.97870  Biso   1.000  H
  C2714    1.0000 0.95262  0.79841  0.97689  Biso   1.000  C
  C2715    1.0000 0.90666  0.13476  0.97346  Biso   1.000  C
  C2716    1.0000 0.83632  0.02400  0.98869  Biso   1.000  C
  C2717    1.0000 0.90670  0.13483  0.97346  Biso   1.000  C
  C2718    1.0000 0.98732  0.24919  0.95936  Biso   1.000  C
  C2719    1.0000 0.06151  0.81648  0.94948  Biso   1.000  C
  C2720    1.0000 0.01457  0.81188  0.96898  Biso   1.000  C
  C2721    1.0000 0.97602  0.81228  0.98869  Biso   1.000  C
  H2781    1.0000 0.93899  0.17817  0.97870  Biso   1.000  H
  C2722    1.0000 0.75648  0.95452  0.99266  Biso   1.000  C
  C2723    1.0000 0.85081  0.95872  0.99289  Biso   1.000  C
  C2724    1.0000 0.81809  0.07288  0.99641  Biso   1.000  C
  C2725    1.0000 0.90566  0.06508  0.99615  Biso   1.000  C
  H2782    1.0000 0.01947  0.28947  0.96490  Biso   1.000  H
  N365     1.0000 0.00347  0.27560  0.94950  Biso   1.000  N
  H2783    1.0000 0.05183  0.82541  0.94220  Biso   1.000  H
  N366     1.0000 0.13271  0.81821  0.95204  Biso   1.000  N
  H2784    1.0000 0.07259  0.82882  0.97110  Biso   1.000  H
  C2726    1.0000 0.92711  0.74519  0.99641  Biso   1.000  C
  C2727    1.0000 0.93492  0.84062  0.99615  Biso   1.000  C
  C2728    1.0000 0.04550  0.80201  0.99266  Biso   1.000  C
  C2729    1.0000 0.04128  0.89210  0.99289  Biso   1.000  C
  H2785    1.0000 0.70880  0.92511  0.98780  Biso   1.000  H
  C2730    1.0000 0.74520  0.92711  0.00359  Biso   1.000  C
  H2786    1.0000 0.86859  0.92891  0.98810  Biso   1.000  H
  C2731    1.0000 0.84058  0.93491  0.00385  Biso   1.000  C
  H2787    1.0000 0.81681  0.12369  0.99420  Biso   1.000  H
  C2732    1.0000 0.80196  0.04547  0.00734  Biso   1.000  C
  H2788    1.0000 0.96184  0.10882  0.99380  Biso   1.000  H
  C2733    1.0000 0.89208  0.04127  0.00711  Biso   1.000  C
  C2734    1.0000 0.07767  0.36589  0.94778  Biso   1.000  C
  C2735    1.0000 0.20021  0.84209  0.94352  Biso   1.000  C
  H2789    1.0000 0.87630  0.69311  0.99420  Biso   1.000  H
  C2736    1.0000 0.95446  0.75646  0.00734  Biso   1.000  C
  C2737    1.0000 0.95450  0.75653  0.00734  Biso   1.000  C
  H2790    1.0000 0.89123  0.85302  0.99380  Biso   1.000  H
  C2738    1.0000 0.95873  0.85082  0.00711  Biso   1.000  C
  H2791    1.0000 0.07490  0.78367  0.98780  Biso   1.000  H
  C2739    1.0000 0.07288  0.81808  0.00359  Biso   1.000  C
  H2792    1.0000 0.07109  0.93971  0.98810  Biso   1.000  H
  C2740    1.0000 0.06512  0.90570  0.00385  Biso   1.000  C
  C2741    1.0000 0.81232  0.97599  0.01131  Biso   1.000  C
  H2793    1.0000 0.69311  0.87629  0.00580  Biso   1.000  H
  H2794    1.0000 0.85301  0.89117  0.00620  Biso   1.000  H
  H2795    1.0000 0.78369  0.07488  0.01220  Biso   1.000  H
  H2796    1.0000 0.93967  0.07108  0.01190  Biso   1.000  H
  H2797    1.0000 0.09359  0.39796  0.95480  Biso   1.000  H
  C2742    1.0000 0.05340  0.41577  0.93961  Biso   1.000  C
  C2743    1.0000 0.15791  0.35809  0.94352  Biso   1.000  C
  H2798    1.0000 0.09362  0.39803  0.95480  Biso   1.000  H
  C2744    1.0000 0.28819  0.92231  0.94778  Biso   1.000  C
  C2745    1.0000 0.21380  0.76347  0.94112  Biso   1.000  C
  H2799    1.0000 0.18132  0.85929  0.93680  Biso   1.000  H
  C2746    1.0000 0.21383  0.76353  0.94112  Biso   1.000  C
  H2800    1.0000 0.92508  0.70878  0.01220  Biso   1.000  H
  C2747    1.0000 0.02400  0.83628  0.01131  Biso   1.000  C
  H2801    1.0000 0.92888  0.86863  0.01190  Biso   1.000  H
  H2802    1.0000 0.12370  0.81681  0.00580  Biso   1.000  H
  H2803    1.0000 0.10881  0.96178  0.00620  Biso   1.000  H
  C2748    1.0000 0.79836  0.95258  0.02311  Biso   1.000  C
  H2804    1.0000 0.00371  0.42090  0.94240  Biso   1.000  H
  H2805    1.0000 0.03528  0.38309  0.93270  Biso   1.000  H
  C2749    1.0000 0.13441  0.50999  0.93758  Biso   1.000  C
  C2750    1.0000 0.23653  0.45031  0.94112  Biso   1.000  C
  H2806    1.0000 0.14068  0.32201  0.93680  Biso   1.000  H
  N367     1.0000 0.18178  0.31448  0.95204  Biso   1.000  N
  H2807    1.0000 0.30436  0.90637  0.95480  Biso   1.000  H
  C2751    1.0000 0.36241  0.94658  0.93961  Biso   1.000  C
  N368     1.0000 0.27211  0.99653  0.94950  Biso   1.000  N
  C2752    1.0000 0.28998  0.78947  0.93298  Biso   1.000  C
  H2808    1.0000 0.15933  0.71472  0.93810  Biso   1.000  H
  H2809    1.0000 0.22701  0.74299  0.94790  Biso   1.000  H
  C2753    1.0000 0.04742  0.84582  0.02311  Biso   1.000  C
  C2754    1.0000 0.77189  0.86523  0.02654  Biso   1.000  C
  C2755    1.0000 0.81187  0.01460  0.03102  Biso   1.000  C
  H2810    1.0000 0.11827  0.54227  0.93240  Biso   1.000  H
  H2811    1.0000 0.15252  0.54320  0.94440  Biso   1.000  H
  C2756    1.0000 0.21053  0.50052  0.93298  Biso   1.000  C
  H2812    1.0000 0.28529  0.44458  0.93810  Biso   1.000  H
  H2813    1.0000 0.25701  0.48399  0.94790  Biso   1.000  H
  C2757    1.0000 0.18348  0.24499  0.94948  Biso   1.000  C
  H2814    1.0000 0.41720  0.99633  0.94240  Biso   1.000  H
  H2815    1.0000 0.34780  0.96472  0.93270  Biso   1.000  H
  C2758    1.0000 0.37564  0.86563  0.93758  Biso   1.000  C
  C2759    1.0000 0.26188  0.01266  0.95936  Biso   1.000  C
  C2760    1.0000 0.26191  0.01273  0.95936  Biso   1.000  C
  H2816    1.0000 0.29757  0.73859  0.93160  Biso   1.000  H
  H2817    1.0000 0.27571  0.80748  0.92610  Biso   1.000  H
  C2761    1.0000 0.98538  0.79727  0.03102  Biso   1.000  C
  C2762    1.0000 0.13480  0.90670  0.02654  Biso   1.000  C
  C2763    1.0000 0.76209  0.84262  0.03753  Biso   1.000  C
  H2818    1.0000 0.76081  0.82181  0.02130  Biso   1.000  H
  C2764    1.0000 0.80082  0.99273  0.04221  Biso   1.000  C
  H2819    1.0000 0.82881  0.07261  0.02890  Biso   1.000  H
  H2820    1.0000 0.26143  0.55901  0.93160  Biso   1.000  H
  H2821    1.0000 0.19251  0.46818  0.92610  Biso   1.000  H
  H2822    1.0000 0.17458  0.22639  0.94220  Biso   1.000  H
  C2765    1.0000 0.19921  0.19191  0.95779  Biso   1.000  C
  H2823    1.0000 0.42399  0.88170  0.93240  Biso   1.000  H
  H2824    1.0000 0.39071  0.84749  0.94440  Biso   1.000  H
  H2825    1.0000 0.27000  0.98052  0.96490  Biso   1.000  H
  C2766    1.0000 0.23792  0.08048  0.96247  Biso   1.000  C
  H2826    1.0000 0.92742  0.75620  0.02890  Biso   1.000  H
  C2767    1.0000 0.00730  0.80808  0.04221  Biso   1.000  C
  C2768    1.0000 0.15743  0.91951  0.03753  Biso   1.000  C
  H2827    1.0000 0.17820  0.93898  0.02130  Biso   1.000  H
  C2769    1.0000 0.77776  0.90837  0.04538  Biso   1.000  C
  C2770    1.0000 0.73813  0.75080  0.04064  Biso   1.000  C
  C2771    1.0000 0.81649  0.06148  0.05052  Biso   1.000  C
  C2772    1.0000 0.22219  0.13056  0.95462  Biso   1.000  C
  C2773    1.0000 0.18810  0.20271  0.96898  Biso   1.000  C
  C2774    1.0000 0.22222  0.13063  0.95462  Biso   1.000  C
  C2775    1.0000 0.22809  0.09328  0.97346  Biso   1.000  C
  C2776    1.0000 0.93848  0.75500  0.05052  Biso   1.000  C
  C2777    1.0000 0.09162  0.86943  0.04538  Biso   1.000  C
  C2778    1.0000 0.24921  0.98732  0.04064  Biso   1.000  C
  H2828    1.0000 0.77240  0.89430  0.05280  Biso   1.000  H
  H2829    1.0000 0.73000  0.71052  0.03510  Biso   1.000  H
  N369     1.0000 0.72787  0.72439  0.05050  Biso   1.000  N
  H2830    1.0000 0.82540  0.05181  0.05780  Biso   1.000  H
  N370     1.0000 0.81820  0.13269  0.04796  Biso   1.000  N
  H2831    1.0000 0.22761  0.12189  0.94720  Biso   1.000  H
  C2779    1.0000 0.20159  0.15417  0.97689  Biso   1.000  C
  H2832    1.0000 0.17121  0.24379  0.97110  Biso   1.000  H
  H2833    1.0000 0.23921  0.06101  0.97870  Biso   1.000  H
  H2834    1.0000 0.94819  0.77360  0.05780  Biso   1.000  H
  N371     1.0000 0.86730  0.68551  0.04796  Biso   1.000  N
  H2835    1.0000 0.10571  0.87810  0.05280  Biso   1.000  H
  H2836    1.0000 0.28947  0.01947  0.03510  Biso   1.000  H
  N372     1.0000 0.27558  0.00346  0.05050  Biso   1.000  N
  H2837    1.0000 0.28951  0.01953  0.03510  Biso   1.000  H
  N373     1.0000 0.27561  0.00353  0.05050  Biso   1.000  N
  C2780    1.0000 0.71177  0.63410  0.05222  Biso   1.000  C
  C2781    1.0000 0.84206  0.20018  0.05648  Biso   1.000  C
  C2782    1.0000 0.18771  0.16370  0.98869  Biso   1.000  C
  C2783    1.0000 0.79981  0.64190  0.05648  Biso   1.000  C
  C2784    1.0000 0.36588  0.07768  0.05222  Biso   1.000  C
  H2838    1.0000 0.69562  0.60202  0.04520  Biso   1.000  H
  C2785    1.0000 0.63763  0.58422  0.06039  Biso   1.000  C
  C2786    1.0000 0.92228  0.28820  0.05222  Biso   1.000  C
  C2787    1.0000 0.76351  0.21378  0.05888  Biso   1.000  C
  H2839    1.0000 0.85931  0.18131  0.06320  Biso   1.000  H
  C2788    1.0000 0.25479  0.18191  0.99641  Biso   1.000  C
  C2789    1.0000 0.19799  0.24352  0.99266  Biso   1.000  C
  C2790    1.0000 0.10794  0.14923  0.99289  Biso   1.000  C
  C2791    1.0000 0.15941  0.09428  0.99615  Biso   1.000  C
  C2792    1.0000 0.78621  0.54968  0.05888  Biso   1.000  C
  H2840    1.0000 0.81866  0.67798  0.06320  Biso   1.000  H
  H2841    1.0000 0.39799  0.09362  0.04520  Biso   1.000  H
  C2793    1.0000 0.41582  0.05341  0.06039  Biso   1.000  C
  C2794    1.0000 0.35811  0.15790  0.05648  Biso   1.000  C
  H2842    1.0000 0.58280  0.57908  0.05760  Biso   1.000  H
  H2843    1.0000 0.65218  0.61689  0.06730  Biso   1.000  H
  C2795    1.0000 0.62441  0.48999  0.06242  Biso   1.000  C
  H2844    1.0000 0.90642  0.30441  0.04520  Biso   1.000  H
  C2796    1.0000 0.94663  0.36242  0.06039  Biso   1.000  C
  N374     1.0000 0.99651  0.27206  0.05050  Biso   1.000  N
  N375     1.0000 0.99654  0.27213  0.05050  Biso   1.000  N
  C2797    1.0000 0.78949  0.29000  0.06702  Biso   1.000  C
  H2845    1.0000 0.71473  0.15930  0.06190  Biso   1.000  H
  H2846    1.0000 0.74297  0.22699  0.05210  Biso   1.000  H
  H2847    1.0000 0.30688  0.18317  0.99420  Biso   1.000  H
  C2798    1.0000 0.24348  0.19798  0.00734  Biso   1.000  C
  H2848    1.0000 0.21629  0.29120  0.98780  Biso   1.000  H
  C2799    1.0000 0.18191  0.25479  0.00359  Biso   1.000  C
  H2849    1.0000 0.06029  0.13143  0.98810  Biso   1.000  H
  C2800    1.0000 0.09429  0.15937  0.00385  Biso   1.000  C
  H2850    1.0000 0.14702  0.03820  0.99380  Biso   1.000  H
  C2801    1.0000 0.14917  0.10789  0.00711  Biso   1.000  C
  C2802    1.0000 0.71000  0.49946  0.06702  Biso   1.000  C
  H2851    1.0000 0.84071  0.55541  0.06190  Biso   1.000  H
  H2852    1.0000 0.77302  0.51600  0.05210  Biso   1.000  H
  C2803    1.0000 0.71003  0.49953  0.06702  Biso   1.000  C
  H2853    1.0000 0.42087  0.00366  0.05760  Biso   1.000  H
  H2854    1.0000 0.38308  0.03527  0.06730  Biso   1.000  H
  C2804    1.0000 0.51001  0.13436  0.06242  Biso   1.000  C
  H2855    1.0000 0.42090  0.00373  0.05760  Biso   1.000  H
  C2805    1.0000 0.51004  0.13443  0.06242  Biso   1.000  C
  C2806    1.0000 0.45032  0.23652  0.05888  Biso   1.000  C
  H2856    1.0000 0.32202  0.14070  0.06320  Biso   1.000  H
  N376     1.0000 0.31450  0.18177  0.04796  Biso   1.000  N
  H2857    1.0000 0.57600  0.45772  0.06760  Biso   1.000  H
  H2858    1.0000 0.60931  0.45679  0.05560  Biso   1.000  H
  H2859    1.0000 0.99630  0.41717  0.05760  Biso   1.000  H
  H2860    1.0000 0.96468  0.34782  0.06730  Biso   1.000  H
  C2807    1.0000 0.86562  0.37562  0.06242  Biso   1.000  C
  C2808    1.0000 0.01266  0.26186  0.04064  Biso   1.000  C
  C2809    1.0000 0.01269  0.26193  0.04064  Biso   1.000  C
  H2861    1.0000 0.73860  0.29760  0.06840  Biso   1.000  H
  H2862    1.0000 0.80750  0.27567  0.07390  Biso   1.000  H
  H2863    1.0000 0.80754  0.27573  0.07390  Biso   1.000  H
  C2810    1.0000 0.16373  0.18771  0.01131  Biso   1.000  C
  H2864    1.0000 0.29123  0.21632  0.01220  Biso   1.000  H
  H2865    1.0000 0.18318  0.30687  0.00580  Biso   1.000  H
  H2866    1.0000 0.03823  0.14703  0.00620  Biso   1.000  H
  H2867    1.0000 0.13137  0.06028  0.01190  Biso   1.000  H
  H2868    1.0000 0.70241  0.44098  0.06840  Biso   1.000  H
  H2869    1.0000 0.72432  0.53181  0.07390  Biso   1.000  H
  H2870    1.0000 0.54228  0.11829  0.06760  Biso   1.000  H
  H2871    1.0000 0.54322  0.15250  0.05560  Biso   1.000  H
  C2811    1.0000 0.50050  0.21052  0.06702  Biso   1.000  C
  H2872    1.0000 0.44461  0.28527  0.06190  Biso   1.000  H
  H2873    1.0000 0.48401  0.25699  0.05210  Biso   1.000  H
  C2812    1.0000 0.24502  0.18351  0.05052  Biso   1.000  C
  H2874    1.0000 0.88171  0.42397  0.06760  Biso   1.000  H
  H2875    1.0000 0.84752  0.39070  0.05560  Biso   1.000  H
  H2876    1.0000 0.98052  0.27000  0.03510  Biso   1.000  H
  C2813    1.0000 0.08050  0.23792  0.03753  Biso   1.000  C
  C2814    1.0000 0.15421  0.20158  0.02311  Biso   1.000  C
  H2877    1.0000 0.55897  0.26139  0.06840  Biso   1.000  H
  H2878    1.0000 0.46822  0.19251  0.07390  Biso   1.000  H
  H2879    1.0000 0.22641  0.17457  0.05780  Biso   1.000  H
  C2815    1.0000 0.19187  0.19918  0.04221  Biso   1.000  C
  C2816    1.0000 0.13061  0.22218  0.04538  Biso   1.000  C
  C2817    1.0000 0.09333  0.22812  0.02654  Biso   1.000  C
  C2818    1.0000 0.20268  0.18811  0.03102  Biso   1.000  C
  H2880    1.0000 0.12188  0.22759  0.05280  Biso   1.000  H
  H2881    1.0000 0.06098  0.23919  0.02130  Biso   1.000  H
  H2882    1.0000 0.24376  0.17117  0.02890  Biso   1.000  H
  C2819    1.0000 0.69792  0.54981  0.31798  Biso   1.000  C
  C2820    1.0000 0.69509  0.60929  0.30869  Biso   1.000  C
  C2821    1.0000 0.63571  0.45298  0.31558  Biso   1.000  C
  H2883    1.0000 0.75819  0.56028  0.31870  Biso   1.000  H
  H2884    1.0000 0.68118  0.56541  0.32490  Biso   1.000  H
  C2822    1.0000 0.60003  0.59022  0.30690  Biso   1.000  C
  H2885    1.0000 0.73311  0.67157  0.31060  Biso   1.000  H
  H2886    1.0000 0.71762  0.59809  0.30190  Biso   1.000  H
  C2823    1.0000 0.54250  0.43278  0.31323  Biso   1.000  C
  H2887    1.0000 0.63492  0.41791  0.32180  Biso   1.000  H
  H2888    1.0000 0.65799  0.43551  0.30930  Biso   1.000  H
  C2824    1.0000 0.54100  0.49099  0.30395  Biso   1.000  C
  H2889    1.0000 0.57791  0.60349  0.31360  Biso   1.000  H
  N377     1.0000 0.59930  0.64570  0.29797  Biso   1.000  N
  H2890    1.0000 0.51717  0.44298  0.31980  Biso   1.000  H
  H2891    1.0000 0.50611  0.37050  0.31120  Biso   1.000  H
  N378     1.0000 0.44933  0.47212  0.30215  Biso   1.000  N
  H2892    1.0000 0.56339  0.47812  0.29720  Biso   1.000  H
  C2825    1.0000 0.57562  0.70078  0.30033  Biso   1.000  C
  C2826    1.0000 0.42433  0.46092  0.29236  Biso   1.000  C
  C2827    1.0000 0.56591  0.75933  0.29226  Biso   1.000  C
  H2893    1.0000 0.56308  0.70538  0.30770  Biso   1.000  H
  C2828    1.0000 0.33819  0.45218  0.28878  Biso   1.000  C
  H2894    1.0000 0.46140  0.45792  0.28710  Biso   1.000  H
  C2829    1.0000 0.56869  0.74779  0.28123  Biso   1.000  C
  C2830    1.0000 0.55389  0.82908  0.29618  Biso   1.000  C
  C2831    1.0000 0.32328  0.44998  0.27786  Biso   1.000  C
  C2832    1.0000 0.27521  0.44612  0.29618  Biso   1.000  C
  C2833    1.0000 0.55991  0.80161  0.27367  Biso   1.000  C
  H2895    1.0000 0.57689  0.70172  0.27870  Biso   1.000  H
  C2834    1.0000 0.54783  0.88603  0.28878  Biso   1.000  C
  H2896    1.0000 0.55004  0.83662  0.30370  Biso   1.000  H
  C2835    1.0000 0.24171  0.44011  0.27367  Biso   1.000  C
  H2897    1.0000 0.36690  0.45499  0.27300  Biso   1.000  H
  C2836    1.0000 0.19338  0.43411  0.29226  Biso   1.000  C
  H2898    1.0000 0.28661  0.44998  0.30370  Biso   1.000  H
  C2837    1.0000 0.55001  0.87329  0.27786  Biso   1.000  C
  C2838    1.0000 0.55581  0.78740  0.26165  Biso   1.000  C
  C2839    1.0000 0.53910  0.96338  0.29236  Biso   1.000  C
  C2840    1.0000 0.23162  0.44418  0.26165  Biso   1.000  C
  C2841    1.0000 0.17910  0.43131  0.28123  Biso   1.000  C
  C2842    1.0000 0.12522  0.42438  0.30033  Biso   1.000  C
  H2899    1.0000 0.54500  0.91190  0.27300  Biso   1.000  H
  C2843    1.0000 0.60383  0.85942  0.25462  Biso   1.000  C
  C2844    1.0000 0.60783  0.75573  0.25697  Biso   1.000  C
  C2845    1.0000 0.49902  0.70572  0.25640  Biso   1.000  C
  C2846    1.0000 0.49970  0.80628  0.25512  Biso   1.000  C
  N379     1.0000 0.52792  0.97719  0.30215  Biso   1.000  N
  H2900    1.0000 0.54213  0.00353  0.28710  Biso   1.000  H
  C2847    1.0000 0.25560  0.39617  0.25462  Biso   1.000  C
  C2848    1.0000 0.30659  0.50033  0.25512  Biso   1.000  C
  C2849    1.0000 0.14786  0.39217  0.25697  Biso   1.000  C
  C2850    1.0000 0.20672  0.50100  0.25640  Biso   1.000  C
  H2901    1.0000 0.12481  0.42311  0.27870  Biso   1.000  H
  H2902    1.0000 0.14228  0.43691  0.30770  Biso   1.000  H
  N380     1.0000 0.04639  0.40070  0.29797  Biso   1.000  N
  C2851    1.0000 0.60778  0.85209  0.24303  Biso   1.000  C
  H2903    1.0000 0.63516  0.91597  0.25770  Biso   1.000  H
  C2852    1.0000 0.60377  0.74439  0.24538  Biso   1.000  C
  H2904    1.0000 0.64391  0.74219  0.26130  Biso   1.000  H
  C2853    1.0000 0.49967  0.69338  0.24488  Biso   1.000  C
  H2905    1.0000 0.45919  0.65770  0.26070  Biso   1.000  H
  C2854    1.0000 0.49897  0.79327  0.24360  Biso   1.000  C
  H2906    1.0000 0.46428  0.82668  0.25830  Biso   1.000  H
  C2855    1.0000 0.50901  0.05001  0.30395  Biso   1.000  C
  H2907    1.0000 0.28082  0.36483  0.25770  Biso   1.000  H
  C2856    1.0000 0.24431  0.39217  0.24303  Biso   1.000  C
  C2857    1.0000 0.29427  0.50100  0.24360  Biso   1.000  C
  H2908    1.0000 0.36237  0.53567  0.25830  Biso   1.000  H
  C2858    1.0000 0.14057  0.39617  0.24538  Biso   1.000  C
  H2909    1.0000 0.09829  0.35609  0.26130  Biso   1.000  H
  C2859    1.0000 0.19374  0.50033  0.24488  Biso   1.000  C
  H2910    1.0000 0.19850  0.54081  0.26070  Biso   1.000  H
  C2860    1.0000 0.99018  0.39997  0.30690  Biso   1.000  C
  C2861    1.0000 0.55578  0.76840  0.23835  Biso   1.000  C
  H2911    1.0000 0.64391  0.90170  0.23870  Biso   1.000  H
  H2912    1.0000 0.63518  0.71919  0.24230  Biso   1.000  H
  H2913    1.0000 0.46429  0.63763  0.24170  Biso   1.000  H
  H2914    1.0000 0.45918  0.80148  0.23930  Biso   1.000  H
  C2862    1.0000 0.40978  0.00980  0.30690  Biso   1.000  C
  C2863    1.0000 0.56720  0.10969  0.31323  Biso   1.000  C
  H2915    1.0000 0.52191  0.08528  0.29720  Biso   1.000  H
  C2864    1.0000 0.21256  0.44418  0.23835  Biso   1.000  C
  H2916    1.0000 0.25780  0.35609  0.23870  Biso   1.000  H
  H2917    1.0000 0.34230  0.54081  0.23930  Biso   1.000  H
  H2918    1.0000 0.08401  0.36483  0.24230  Biso   1.000  H
  H2919    1.0000 0.17330  0.53567  0.24170  Biso   1.000  H
  H2920    1.0000 0.02562  0.42211  0.31360  Biso   1.000  H
  C2865    1.0000 0.91416  0.30488  0.30869  Biso   1.000  C
  C2866    1.0000 0.94998  0.45899  0.30395  Biso   1.000  C
  C2867    1.0000 0.55992  0.75833  0.22633  Biso   1.000  C
  N381     1.0000 0.35430  0.95358  0.29797  Biso   1.000  N
  H2921    1.0000 0.39647  0.97439  0.31360  Biso   1.000  H
  C2868    1.0000 0.39074  0.08582  0.30869  Biso   1.000  C
  C2869    1.0000 0.54700  0.18271  0.31558  Biso   1.000  C
  H2922    1.0000 0.55703  0.07421  0.31980  Biso   1.000  H
  H2923    1.0000 0.62949  0.13563  0.31120  Biso   1.000  H
  C2870    1.0000 0.19840  0.44011  0.22633  Biso   1.000  C
  H2924    1.0000 0.93847  0.26687  0.31060  Biso   1.000  H
  H2925    1.0000 0.88052  0.28241  0.30190  Biso   1.000  H
  C2871    1.0000 0.85189  0.30208  0.31798  Biso   1.000  C
  N382     1.0000 0.02280  0.55068  0.30215  Biso   1.000  N
  C2872    1.0000 0.89029  0.45752  0.31323  Biso   1.000  C
  H2926    1.0000 0.91470  0.43658  0.29720  Biso   1.000  H
  C2873    1.0000 0.55001  0.67671  0.22214  Biso   1.000  C
  C2874    1.0000 0.56868  0.82088  0.21877  Biso   1.000  C
  C2875    1.0000 0.29922  0.87483  0.30033  Biso   1.000  C
  H2927    1.0000 0.32838  0.06148  0.31060  Biso   1.000  H
  H2928    1.0000 0.40191  0.11949  0.30190  Biso   1.000  H
  C2876    1.0000 0.45018  0.14810  0.31798  Biso   1.000  C
  H2929    1.0000 0.58210  0.21698  0.32180  Biso   1.000  H
  H2930    1.0000 0.56448  0.22252  0.30930  Biso   1.000  H
  C2877    1.0000 0.12670  0.44998  0.22214  Biso   1.000  C
  C2878    1.0000 0.25221  0.43131  0.21877  Biso   1.000  C
  H2931    1.0000 0.80212  0.24180  0.31870  Biso   1.000  H
  H2932    1.0000 0.88423  0.31882  0.32490  Biso   1.000  H
  C2879    1.0000 0.81728  0.36429  0.31558  Biso   1.000  C
  C2880    1.0000 0.03657  0.57568  0.29236  Biso   1.000  C
  H2933    1.0000 0.92579  0.48279  0.31980  Biso   1.000  H
  H2934    1.0000 0.86443  0.49393  0.31120  Biso   1.000  H
  C2881    1.0000 0.54780  0.66177  0.21122  Biso   1.000  C
  H2935    1.0000 0.54501  0.63310  0.22700  Biso   1.000  H
  C2882    1.0000 0.56593  0.80661  0.20774  Biso   1.000  C
  H2936    1.0000 0.57691  0.87523  0.22130  Biso   1.000  H
  C2883    1.0000 0.24068  0.80661  0.29226  Biso   1.000  C
  H2937    1.0000 0.29458  0.85769  0.30770  Biso   1.000  H
  H2938    1.0000 0.43968  0.19791  0.31870  Biso   1.000  H
  H2939    1.0000 0.43462  0.11582  0.32490  Biso   1.000  H
  C2884    1.0000 0.11400  0.45218  0.21122  Biso   1.000  C
  H2940    1.0000 0.08808  0.45499  0.22700  Biso   1.000  H
  H2941    1.0000 0.29830  0.42311  0.22130  Biso   1.000  H
  C2885    1.0000 0.24073  0.43411  0.20774  Biso   1.000  C
  H2942    1.0000 0.78297  0.36510  0.32180  Biso   1.000  H
  H2943    1.0000 0.77750  0.34202  0.30930  Biso   1.000  H
  C2886    1.0000 0.11398  0.66177  0.28878  Biso   1.000  C
  H2944    1.0000 0.99649  0.53861  0.28710  Biso   1.000  H
  C2887    1.0000 0.53911  0.57568  0.20764  Biso   1.000  C
  C2888    1.0000 0.55389  0.72479  0.20382  Biso   1.000  C
  C2889    1.0000 0.57561  0.87483  0.19967  Biso   1.000  C
  C2890    1.0000 0.17090  0.72479  0.29618  Biso   1.000  C
  C2891    1.0000 0.25221  0.82088  0.28123  Biso   1.000  C
  C2892    1.0000 0.03659  0.46092  0.20764  Biso   1.000  C
  C2893    1.0000 0.17091  0.44612  0.20382  Biso   1.000  C
  C2894    1.0000 0.29916  0.42438  0.19967  Biso   1.000  C
  C2895    1.0000 0.12670  0.67671  0.27786  Biso   1.000  C
  N383     1.0000 0.52788  0.55068  0.19785  Biso   1.000  N
  H2945    1.0000 0.54211  0.53861  0.21290  Biso   1.000  H
  H2946    1.0000 0.54998  0.71339  0.19630  Biso   1.000  H
  H2947    1.0000 0.56311  0.85769  0.19230  Biso   1.000  H
  N384     1.0000 0.59928  0.95358  0.20203  Biso   1.000  N
  H2948    1.0000 0.16340  0.71339  0.30370  Biso   1.000  H
  C2896    1.0000 0.19841  0.75833  0.27367  Biso   1.000  C
  H2949    1.0000 0.29832  0.87523  0.27870  Biso   1.000  H
  N385     1.0000 0.02279  0.47212  0.19785  Biso   1.000  N
  H2950    1.0000 0.99652  0.45792  0.21290  Biso   1.000  H
  H2951    1.0000 0.16337  0.44998  0.19630  Biso   1.000  H
  H2952    1.0000 0.29463  0.43691  0.19230  Biso   1.000  H
  N386     1.0000 0.35431  0.40070  0.20203  Biso   1.000  N
  H2953    1.0000 0.08809  0.63310  0.27300  Biso   1.000  H
  C2897    1.0000 0.50900  0.45899  0.19605  Biso   1.000  C
  C2898    1.0000 0.60001  0.00980  0.19310  Biso   1.000  C
  C2899    1.0000 0.21262  0.76840  0.26165  Biso   1.000  C
  C2900    1.0000 0.94999  0.49099  0.19605  Biso   1.000  C
  C2901    1.0000 0.40979  0.39997  0.19310  Biso   1.000  C
  C2902    1.0000 0.56723  0.45752  0.18677  Biso   1.000  C
  H2954    1.0000 0.52188  0.43658  0.20280  Biso   1.000  H
  C2903    1.0000 0.54100  0.05001  0.19605  Biso   1.000  C
  H2955    1.0000 0.57792  0.97439  0.18640  Biso   1.000  H
  C2904    1.0000 0.69508  0.08582  0.19131  Biso   1.000  C
  C2905    1.0000 0.14062  0.74439  0.25462  Biso   1.000  C
  C2906    1.0000 0.24430  0.85209  0.25697  Biso   1.000  C
  C2907    1.0000 0.29430  0.79327  0.25640  Biso   1.000  C
  C2908    1.0000 0.19371  0.69338  0.25512  Biso   1.000  C
  C2909    1.0000 0.99019  0.59022  0.19310  Biso   1.000  C
  C2910    1.0000 0.89028  0.43278  0.18677  Biso   1.000  C
  H2956    1.0000 0.91474  0.47812  0.20280  Biso   1.000  H
  H2957    1.0000 0.39649  0.42211  0.18640  Biso   1.000  H
  C2911    1.0000 0.39072  0.30488  0.19131  Biso   1.000  C
  C2912    1.0000 0.54701  0.36429  0.18442  Biso   1.000  C
  H2958    1.0000 0.55700  0.48279  0.18020  Biso   1.000  H
  H2959    1.0000 0.62950  0.49393  0.18880  Biso   1.000  H
  N387     1.0000 0.44927  0.97719  0.19785  Biso   1.000  N
  C2913    1.0000 0.54249  0.10969  0.18677  Biso   1.000  C
  H2960    1.0000 0.56337  0.08528  0.20280  Biso   1.000  H
  H2961    1.0000 0.73309  0.06148  0.18940  Biso   1.000  H
  H2962    1.0000 0.71758  0.11949  0.19810  Biso   1.000  H
  C2914    1.0000 0.69792  0.14810  0.18202  Biso   1.000  C
  C2915    1.0000 0.14790  0.75573  0.24303  Biso   1.000  C
  H2963    1.0000 0.08401  0.71919  0.25770  Biso   1.000  H
  C2916    1.0000 0.25560  0.85942  0.24538  Biso   1.000  C
  H2964    1.0000 0.25779  0.90170  0.26130  Biso   1.000  H
  C2917    1.0000 0.30658  0.80628  0.24488  Biso   1.000  C
  H2965    1.0000 0.34229  0.80148  0.26070  Biso   1.000  H
  C2918    1.0000 0.20669  0.70572  0.24360  Biso   1.000  C
  H2966    1.0000 0.17334  0.63763  0.25830  Biso   1.000  H
  H2967    1.0000 0.02558  0.60349  0.18640  Biso   1.000  H
  N388     1.0000 0.04640  0.64570  0.20203  Biso   1.000  N
  C2919    1.0000 0.91420  0.60929  0.19131  Biso   1.000  C
  C2920    1.0000 0.81728  0.45298  0.18442  Biso   1.000  C
  H2968    1.0000 0.92581  0.44298  0.18020  Biso   1.000  H
  H2969    1.0000 0.86439  0.37050  0.18880  Biso   1.000  H
  H2970    1.0000 0.32840  0.26687  0.18940  Biso   1.000  H
  H2971    1.0000 0.40189  0.28241  0.19810  Biso   1.000  H
  C2921    1.0000 0.45018  0.30208  0.18202  Biso   1.000  C
  H2972    1.0000 0.58212  0.36510  0.17820  Biso   1.000  H
  H2973    1.0000 0.56452  0.34202  0.19070  Biso   1.000  H
  C2922    1.0000 0.42429  0.96338  0.20764  Biso   1.000  C
  C2923    1.0000 0.63571  0.18271  0.18442  Biso   1.000  C
  H2974    1.0000 0.51718  0.07421  0.18020  Biso   1.000  H
  H2975    1.0000 0.50614  0.13563  0.18880  Biso   1.000  H
  H2976    1.0000 0.75823  0.19791  0.18130  Biso   1.000  H
  H2977    1.0000 0.68121  0.11582  0.17510  Biso   1.000  H
  C2924    1.0000 0.23160  0.78740  0.23835  Biso   1.000  C
  H2978    1.0000 0.09829  0.74219  0.23870  Biso   1.000  H
  H2979    1.0000 0.28081  0.91597  0.24230  Biso   1.000  H
  H2980    1.0000 0.36241  0.82668  0.24170  Biso   1.000  H
  H2981    1.0000 0.19851  0.65770  0.23930  Biso   1.000  H
  C2925    1.0000 0.12517  0.70078  0.19967  Biso   1.000  C
  H2982    1.0000 0.93847  0.67157  0.18940  Biso   1.000  H
  H2983    1.0000 0.88047  0.59809  0.19810  Biso   1.000  H
  C2926    1.0000 0.85189  0.54981  0.18202  Biso   1.000  C
  H2984    1.0000 0.78299  0.41791  0.17820  Biso   1.000  H
  H2985    1.0000 0.77753  0.43551  0.19070  Biso   1.000  H
  H2986    1.0000 0.43968  0.24180  0.18130  Biso   1.000  H
  H2987    1.0000 0.43459  0.31882  0.17510  Biso   1.000  H
  C2927    1.0000 0.33820  0.88603  0.21122  Biso   1.000  C
  H2988    1.0000 0.46140  0.00353  0.21290  Biso   1.000  H
  H2989    1.0000 0.63488  0.21698  0.17820  Biso   1.000  H
  H2990    1.0000 0.65804  0.22252  0.19070  Biso   1.000  H
  C2928    1.0000 0.24170  0.80161  0.22633  Biso   1.000  C
  C2929    1.0000 0.19342  0.75933  0.20774  Biso   1.000  C
  H2991    1.0000 0.14231  0.70538  0.19230  Biso   1.000  H
  H2992    1.0000 0.80208  0.56028  0.18130  Biso   1.000  H
  H2993    1.0000 0.88423  0.56541  0.17510  Biso   1.000  H
  C2930    1.0000 0.27519  0.82908  0.20382  Biso   1.000  C
  C2931    1.0000 0.32328  0.87329  0.22214  Biso   1.000  C
  C2932    1.0000 0.17911  0.74779  0.21877  Biso   1.000  C
  H2994    1.0000 0.28658  0.83662  0.19630  Biso   1.000  H
  H2995    1.0000 0.36690  0.91190  0.22700  Biso   1.000  H
  H2996    1.0000 0.12482  0.70172  0.22130  Biso   1.000  H
  C2933    1.0000 0.81620  0.81848  0.18614  Biso   1.000  C
  C2934    1.0000 0.75363  0.75073  0.17771  Biso   1.000  C
  C2935    1.0000 0.85288  0.91077  0.18145  Biso   1.000  C
  H2997    1.0000 0.78413  0.81301  0.19290  Biso   1.000  H
  H2998    1.0000 0.86470  0.80748  0.18780  Biso   1.000  H
  C2936    1.0000 0.67879  0.76680  0.17414  Biso   1.000  C
  H2999    1.0000 0.78793  0.75293  0.17130  Biso   1.000  H
  H3000    1.0000 0.72788  0.69138  0.18080  Biso   1.000  H
  C2937    1.0000 0.77970  0.92958  0.17803  Biso   1.000  C
  H3001    1.0000 0.88981  0.91731  0.17510  Biso   1.000  H
  H3002    1.0000 0.89042  0.95432  0.18690  Biso   1.000  H
  N389     1.0000 0.62571  0.70292  0.16558  Biso   1.000  N
  C2938    1.0000 0.71662  0.86082  0.16966  Biso   1.000  C
  H3003    1.0000 0.64059  0.75900  0.18050  Biso   1.000  H
  H3004    1.0000 0.80619  0.98879  0.17480  Biso   1.000  H
  H3005    1.0000 0.74601  0.92837  0.18450  Biso   1.000  H
  C2939    1.0000 0.54646  0.64177  0.16790  Biso   1.000  C
  H3006    1.0000 0.74854  0.86703  0.16280  Biso   1.000  H
  N390     1.0000 0.64214  0.87783  0.16771  Biso   1.000  N
  C2940    1.0000 0.49228  0.57488  0.15974  Biso   1.000  C
  H3007    1.0000 0.52324  0.64003  0.17480  Biso   1.000  H
  C2941    1.0000 0.63150  0.89570  0.15819  Biso   1.000  C
  C2942    1.0000 0.40828  0.50760  0.16275  Biso   1.000  C
  C2943    1.0000 0.52220  0.57662  0.14907  Biso   1.000  C
  C2944    1.0000 0.55977  0.91337  0.15496  Biso   1.000  C
  H3008    1.0000 0.67080  0.89797  0.15280  Biso   1.000  H
  C2945    1.0000 0.35361  0.44018  0.15496  Biso   1.000  C
  H3009    1.0000 0.38733  0.50613  0.16980  Biso   1.000  H
  C2946    1.0000 0.47193  0.51153  0.14147  Biso   1.000  C
  H3010    1.0000 0.57778  0.62310  0.14700  Biso   1.000  H
  C2947    1.0000 0.49239  0.90070  0.16275  Biso   1.000  C
  C2948    1.0000 0.55621  0.94218  0.14463  Biso   1.000  C
  C2949    1.0000 0.26417  0.36850  0.15819  Biso   1.000  C
  C2950    1.0000 0.38602  0.44378  0.14463  Biso   1.000  C
  C2951    1.0000 0.50830  0.51360  0.13053  Biso   1.000  C
  C2952    1.0000 0.42508  0.91737  0.15974  Biso   1.000  C
  H3011    1.0000 0.49392  0.88123  0.16980  Biso   1.000  H
  C2953    1.0000 0.48851  0.96038  0.14147  Biso   1.000  C
  H3012    1.0000 0.59962  0.95011  0.13950  Biso   1.000  H
  N391     1.0000 0.23571  0.35789  0.16771  Biso   1.000  N
  H3013    1.0000 0.22721  0.32922  0.15280  Biso   1.000  H
  H3014    1.0000 0.35051  0.40037  0.13950  Biso   1.000  H
  H3015    1.0000 0.56094  0.56481  0.12860  Biso   1.000  H
  N392     1.0000 0.47402  0.45138  0.12358  Biso   1.000  N
  C2954    1.0000 0.35822  0.90470  0.16790  Biso   1.000  C
  C2955    1.0000 0.42341  0.94558  0.14907  Biso   1.000  C
  C2956    1.0000 0.48639  0.99473  0.13053  Biso   1.000  C
  C2957    1.0000 0.14419  0.28341  0.16966  Biso   1.000  C
  C2958    1.0000 0.52181  0.46359  0.11318  Biso   1.000  C
  N393     1.0000 0.29709  0.92277  0.16558  Biso   1.000  N
  H3016    1.0000 0.36001  0.88323  0.17480  Biso   1.000  H
  H3017    1.0000 0.37693  0.95472  0.14700  Biso   1.000  H
  H3018    1.0000 0.43523  0.99613  0.12860  Biso   1.000  H
  N394     1.0000 0.54861  0.02260  0.12358  Biso   1.000  N
  C2959    1.0000 0.14989  0.22032  0.17803  Biso   1.000  C
  C2960    1.0000 0.08802  0.32122  0.17414  Biso   1.000  C
  H3019    1.0000 0.11849  0.25153  0.16280  Biso   1.000  H
  C2961    1.0000 0.46477  0.46339  0.10377  Biso   1.000  C
  C2962    1.0000 0.54009  0.38637  0.11179  Biso   1.000  C
  H3020    1.0000 0.57828  0.52027  0.11330  Biso   1.000  H
  C2963    1.0000 0.23319  0.91197  0.17414  Biso   1.000  C
  C2964    1.0000 0.53638  0.05821  0.11318  Biso   1.000  C
  C2965    1.0000 0.05790  0.14710  0.18145  Biso   1.000  C
  H3021    1.0000 0.18259  0.19378  0.17480  Biso   1.000  H
  H3022    1.0000 0.18238  0.25400  0.18450  Biso   1.000  H
  C2966    1.0000 0.99707  0.24640  0.17771  Biso   1.000  C
  H3023    1.0000 0.11844  0.35943  0.18050  Biso   1.000  H
  N395     1.0000 0.07719  0.37430  0.16558  Biso   1.000  N
  H3024    1.0000 0.40620  0.40931  0.10410  Biso   1.000  H
  C2967    1.0000 0.50789  0.46692  0.09282  Biso   1.000  C
  N396     1.0000 0.45409  0.54007  0.10458  Biso   1.000  N
  C2968    1.0000 0.58326  0.39337  0.10052  Biso   1.000  C
  H3025    1.0000 0.48469  0.33009  0.11230  Biso   1.000  H
  H3026    1.0000 0.57967  0.38850  0.11760  Biso   1.000  H
  C2969    1.0000 0.13922  0.85582  0.16966  Biso   1.000  C
  H3027    1.0000 0.24100  0.88163  0.18050  Biso   1.000  H
  C2970    1.0000 0.24933  0.00293  0.17771  Biso   1.000  C
  C2971    1.0000 0.53662  0.00139  0.10377  Biso   1.000  C
  C2972    1.0000 0.61358  0.15370  0.11179  Biso   1.000  C
  H3028    1.0000 0.47969  0.05801  0.11330  Biso   1.000  H
  C2973    1.0000 0.00226  0.18378  0.18614  Biso   1.000  C
  H3029    1.0000 0.02751  0.11023  0.17510  Biso   1.000  H
  H3030    1.0000 0.06394  0.10963  0.18690  Biso   1.000  H
  H3031    1.0000 0.96504  0.21212  0.17130  Biso   1.000  H
  H3032    1.0000 0.96348  0.27207  0.18080  Biso   1.000  H
  C2974    1.0000 0.09532  0.45352  0.16790  Biso   1.000  C
  H3033    1.0000 0.46907  0.46459  0.08690  Biso   1.000  H
  H3034    1.0000 0.56370  0.52287  0.09220  Biso   1.000  H
  C2975    1.0000 0.52518  0.39190  0.09162  Biso   1.000  C
  C2976    1.0000 0.37450  0.52527  0.10521  Biso   1.000  C
  H3035    1.0000 0.64017  0.44838  0.10020  Biso   1.000  H
  H3036    1.0000 0.59422  0.34402  0.09960  Biso   1.000  H
  N397     1.0000 0.12223  0.76433  0.16771  Biso   1.000  N
  H3037    1.0000 0.13300  0.88150  0.16280  Biso   1.000  H
  C2977    1.0000 0.07040  0.85009  0.17803  Biso   1.000  C
  C2978    1.0000 0.18153  0.99773  0.18614  Biso   1.000  C
  H3038    1.0000 0.24712  0.03500  0.17130  Biso   1.000  H
  H3039    1.0000 0.30860  0.03647  0.18080  Biso   1.000  H
  N398     1.0000 0.45987  0.91397  0.10458  Biso   1.000  N
  H3040    1.0000 0.59069  0.99693  0.10410  Biso   1.000  H
  C2979    1.0000 0.53309  0.04100  0.09282  Biso   1.000  C
  C2980    1.0000 0.60662  0.18991  0.10052  Biso   1.000  C
  H3041    1.0000 0.66986  0.15457  0.11230  Biso   1.000  H
  H3042    1.0000 0.61147  0.19118  0.11760  Biso   1.000  H
  H3043    1.0000 0.02890  0.21592  0.19290  Biso   1.000  H
  H3044    1.0000 0.94280  0.13530  0.18780  Biso   1.000  H
  C2981    1.0000 0.08264  0.50773  0.15974  Biso   1.000  C
  H3045    1.0000 0.11677  0.47679  0.17480  Biso   1.000  H
  H3046    1.0000 0.46917  0.33589  0.09180  Biso   1.000  H
  H3047    1.0000 0.55349  0.39630  0.08460  Biso   1.000  H
  C2982    1.0000 0.35348  0.59782  0.10533  Biso   1.000  C
  H3048    1.0000 0.32789  0.46659  0.10560  Biso   1.000  H
  C2983    1.0000 0.10432  0.73579  0.15819  Biso   1.000  C
  H3049    1.0000 0.01121  0.81741  0.17480  Biso   1.000  H
  H3050    1.0000 0.07160  0.81761  0.18450  Biso   1.000  H
  C2984    1.0000 0.08921  0.94211  0.18145  Biso   1.000  C
  H3051    1.0000 0.18699  0.97112  0.19290  Biso   1.000  H
  H3052    1.0000 0.19250  0.05721  0.18780  Biso   1.000  H
  C2985    1.0000 0.47474  0.84922  0.10521  Biso   1.000  C
  H3053    1.0000 0.53541  0.00453  0.08690  Biso   1.000  H
  H3054    1.0000 0.47709  0.04080  0.09220  Biso   1.000  H
  C2986    1.0000 0.60811  0.13329  0.09162  Biso   1.000  C
  H3055    1.0000 0.55159  0.19178  0.10020  Biso   1.000  H
  H3056    1.0000 0.65599  0.25019  0.09960  Biso   1.000  H
  C2987    1.0000 0.09932  0.59169  0.16275  Biso   1.000  C
  C2988    1.0000 0.05438  0.47779  0.14907  Biso   1.000  C
  C2989    1.0000 0.26493  0.57802  0.10534  Biso   1.000  C
  C2990    1.0000 0.42200  0.68691  0.10534  Biso   1.000  C
  C2991    1.0000 0.08658  0.64637  0.15496  Biso   1.000  C
  H3057    1.0000 0.10198  0.77280  0.15280  Biso   1.000  H
  H3058    1.0000 0.08270  0.97252  0.17510  Biso   1.000  H
  H3059    1.0000 0.04573  0.93611  0.18690  Biso   1.000  H
  C2992    1.0000 0.40224  0.75573  0.10533  Biso   1.000  C
  H3060    1.0000 0.53338  0.86129  0.10560  Biso   1.000  H
  H3061    1.0000 0.66407  0.13329  0.09180  Biso   1.000  H
  H3062    1.0000 0.60371  0.15717  0.08460  Biso   1.000  H
  H3063    1.0000 0.11877  0.61269  0.16980  Biso   1.000  H
  C2993    1.0000 0.03956  0.52807  0.14147  Biso   1.000  C
  H3064    1.0000 0.04529  0.42218  0.14700  Biso   1.000  H
  C2994    1.0000 0.24431  0.64650  0.10533  Biso   1.000  C
  H3065    1.0000 0.21909  0.51880  0.10540  Biso   1.000  H
  H3066    1.0000 0.48119  0.70032  0.10540  Biso   1.000  H
  C2995    1.0000 0.05782  0.61403  0.14463  Biso   1.000  C
  C2996    1.0000 0.31310  0.73512  0.10534  Biso   1.000  C
  C2997    1.0000 0.00534  0.49173  0.13053  Biso   1.000  C
  C2998    1.0000 0.15082  0.62550  0.10521  Biso   1.000  C
  H3067    1.0000 0.04992  0.64950  0.13950  Biso   1.000  H
  H3068    1.0000 0.29971  0.78087  0.10540  Biso   1.000  H
  H3069    1.0000 0.00392  0.43911  0.12860  Biso   1.000  H
  N399     1.0000 0.97743  0.52600  0.12358  Biso   1.000  N
  N400     1.0000 0.08600  0.54588  0.10458  Biso   1.000  N
  H3070    1.0000 0.13872  0.67211  0.10560  Biso   1.000  H
  C2999    1.0000 0.94180  0.47819  0.11318  Biso   1.000  C
  C3000    1.0000 0.99860  0.53521  0.10377  Biso   1.000  C
  C3001    1.0000 0.84633  0.45992  0.11179  Biso   1.000  C
  H3071    1.0000 0.94203  0.42171  0.11330  Biso   1.000  H
  H3072    1.0000 0.00314  0.59382  0.10410  Biso   1.000  H
  C3002    1.0000 0.95899  0.49213  0.09282  Biso   1.000  C
  C3003    1.0000 0.81011  0.41671  0.10052  Biso   1.000  C
  H3073    1.0000 0.84536  0.51527  0.11230  Biso   1.000  H
  H3074    1.0000 0.80879  0.42031  0.11760  Biso   1.000  H
  H3075    1.0000 0.99551  0.53087  0.08690  Biso   1.000  H
  H3076    1.0000 0.95921  0.43631  0.09220  Biso   1.000  H
  C3004    1.0000 0.86670  0.47479  0.09162  Biso   1.000  C
  H3077    1.0000 0.80823  0.35983  0.10020  Biso   1.000  H
  H3078    1.0000 0.74978  0.40577  0.09960  Biso   1.000  H
  H3079    1.0000 0.86670  0.53080  0.09180  Biso   1.000  H
  H3080    1.0000 0.84280  0.44652  0.08460  Biso   1.000  H
  C3005    1.0000 0.79074  0.61983  0.15517  Biso   1.000  C
  C3006    1.0000 0.75431  0.51960  0.15541  Biso   1.000  C
  H3081    1.0000 0.74256  0.63156  0.15670  Biso   1.000  H
  H3082    1.0000 0.83511  0.64770  0.16090  Biso   1.000  H
  C3007    1.0000 0.83228  0.66097  0.14415  Biso   1.000  C
  H3083    1.0000 0.74259  0.63163  0.15670  Biso   1.000  H
  C3008    1.0000 0.68899  0.47639  0.14628  Biso   1.000  C
  H3084    1.0000 0.80290  0.50740  0.15460  Biso   1.000  H
  H3085    1.0000 0.72541  0.49540  0.16240  Biso   1.000  H
  C3009    1.0000 0.79071  0.61976  0.15517  Biso   1.000  C
  C3010    1.0000 0.76559  0.61549  0.13502  Biso   1.000  C
  H3086    1.0000 0.88521  0.65550  0.14290  Biso   1.000  H
  N401     1.0000 0.85697  0.75506  0.14418  Biso   1.000  N
  N402     1.0000 0.85701  0.75513  0.14418  Biso   1.000  N
  C3011    1.0000 0.72909  0.51500  0.13519  Biso   1.000  C
  H3087    1.0000 0.63794  0.48413  0.14750  Biso   1.000  H
  H3088    1.0000 0.66811  0.41291  0.14630  Biso   1.000  H
  H3089    1.0000 0.71600  0.62696  0.13600  Biso   1.000  H
  N403     1.0000 0.80642  0.64910  0.12431  Biso   1.000  N
  H3090    1.0000 0.71603  0.62703  0.13600  Biso   1.000  H
  C3012    1.0000 0.93799  0.81188  0.14339  Biso   1.000  C
  H3091    1.0000 0.68391  0.48679  0.12950  Biso   1.000  H
  H3092    1.0000 0.77681  0.50280  0.13360  Biso   1.000  H
  C3013    1.0000 0.77467  0.68298  0.11789  Biso   1.000  C
  H3093    1.0000 0.97927  0.79281  0.14280  Biso   1.000  H
  C3014    1.0000 0.97010  0.90970  0.14342  Biso   1.000  C
  C3015    1.0000 0.80894  0.71432  0.10694  Biso   1.000  C
  H3094    1.0000 0.72663  0.68831  0.12030  Biso   1.000  H
  C3016    1.0000 0.90990  0.94038  0.14357  Biso   1.000  C
  C3017    1.0000 0.05960  0.96952  0.14357  Biso   1.000  C
  C3018    1.0000 0.76478  0.74013  0.09960  Biso   1.000  C
  C3019    1.0000 0.88791  0.71692  0.10327  Biso   1.000  C
  H3095    1.0000 0.84898  0.89997  0.14380  Biso   1.000  H
  C3020    1.0000 0.93957  0.02987  0.14342  Biso   1.000  C
  H3096    1.0000 0.09998  0.94898  0.14380  Biso   1.000  H
  C3021    1.0000 0.09032  0.06041  0.14342  Biso   1.000  C
  C3022    1.0000 0.79650  0.76787  0.08900  Biso   1.000  C
  H3097    1.0000 0.71278  0.73879  0.10180  Biso   1.000  H
  C3023    1.0000 0.79653  0.76793  0.08900  Biso   1.000  C
  H3098    1.0000 0.91881  0.70018  0.10810  Biso   1.000  H
  C3024    1.0000 0.91970  0.74353  0.09283  Biso   1.000  C
  C3025    1.0000 0.87392  0.06201  0.14339  Biso   1.000  C
  C3026    1.0000 0.03049  0.09008  0.14357  Biso   1.000  C
  C3027    1.0000 0.18808  0.12609  0.14339  Biso   1.000  C
  C3028    1.0000 0.74850  0.79267  0.08103  Biso   1.000  C
  C3029    1.0000 0.87400  0.76960  0.08562  Biso   1.000  C
  C3030    1.0000 0.99963  0.73973  0.08917  Biso   1.000  C
  H3099    1.0000 0.81346  0.02067  0.14280  Biso   1.000  H
  N404     1.0000 0.89806  0.14296  0.14418  Biso   1.000  N
  H3100    1.0000 0.81350  0.02073  0.14280  Biso   1.000  H
  N405     1.0000 0.89809  0.14303  0.14418  Biso   1.000  N
  H3101    1.0000 0.05100  0.15097  0.14380  Biso   1.000  H
  H3102    1.0000 0.05103  0.15103  0.14380  Biso   1.000  H
  H3103    1.0000 0.20720  0.18651  0.14280  Biso   1.000  H
  N406     1.0000 0.24487  0.10189  0.14418  Biso   1.000  N
  H3104    1.0000 0.77200  0.80941  0.07400  Biso   1.000  H
  N407     1.0000 0.67771  0.79247  0.08325  Biso   1.000  N
  H3105    1.0000 0.89570  0.78827  0.07850  Biso   1.000  H
  H3106    1.0000 0.03261  0.73072  0.09450  Biso   1.000  H
  N408     1.0000 0.02567  0.74746  0.07947  Biso   1.000  N
  N409     1.0000 0.02570  0.74753  0.07947  Biso   1.000  N
  C3031    1.0000 0.82871  0.16770  0.14415  Biso   1.000  C
  C3032    1.0000 0.33900  0.17130  0.14415  Biso   1.000  C
  C3033    1.0000 0.63759  0.81721  0.07445  Biso   1.000  C
  C3034    1.0000 0.10040  0.73452  0.07746  Biso   1.000  C
  C3035    1.0000 0.84987  0.23439  0.13502  Biso   1.000  C
  C3036    1.0000 0.82913  0.20931  0.15517  Biso   1.000  C
  H3107    1.0000 0.77034  0.11482  0.14290  Biso   1.000  H
  C3037    1.0000 0.38447  0.15010  0.13502  Biso   1.000  C
  C3038    1.0000 0.38021  0.17090  0.15517  Biso   1.000  C
  H3108    1.0000 0.34453  0.22972  0.14290  Biso   1.000  H
  C3039    1.0000 0.63406  0.89957  0.07746  Biso   1.000  C
  C3040    1.0000 0.54318  0.73859  0.07200  Biso   1.000  C
  H3109    1.0000 0.67420  0.82968  0.06780  Biso   1.000  H
  H3110    1.0000 0.11240  0.71058  0.08410  Biso   1.000  H
  C3041    1.0000 0.07650  0.66571  0.06799  Biso   1.000  C
  C3042    1.0000 0.18279  0.82041  0.07445  Biso   1.000  C
  H3111    1.0000 0.91100  0.28400  0.13600  Biso   1.000  H
  C3043    1.0000 0.78587  0.27086  0.13519  Biso   1.000  C
  N410     1.0000 0.84269  0.19358  0.12431  Biso   1.000  N
  C3044    1.0000 0.78590  0.27093  0.13519  Biso   1.000  C
  C3045    1.0000 0.76533  0.24572  0.15541  Biso   1.000  C
  H3112    1.0000 0.88898  0.25739  0.15670  Biso   1.000  H
  H3113    1.0000 0.81259  0.16490  0.16090  Biso   1.000  H
  H3114    1.0000 0.37299  0.08902  0.13600  Biso   1.000  H
  C3046    1.0000 0.48503  0.21412  0.13519  Biso   1.000  C
  N411     1.0000 0.35088  0.15730  0.12431  Biso   1.000  N
  C3047    1.0000 0.48044  0.23472  0.15541  Biso   1.000  C
  H3115    1.0000 0.36840  0.11102  0.15670  Biso   1.000  H
  H3116    1.0000 0.35229  0.18738  0.16090  Biso   1.000  H
  H3117    1.0000 0.59821  0.88756  0.08410  Biso   1.000  H
  C3048    1.0000 0.58921  0.92351  0.06799  Biso   1.000  C
  N412     1.0000 0.72180  0.97432  0.07947  Biso   1.000  N
  H3118    1.0000 0.59824  0.88763  0.08410  Biso   1.000  H
  C3049    1.0000 0.50007  0.76360  0.06285  Biso   1.000  C
  H3119    1.0000 0.54710  0.68671  0.06980  Biso   1.000  H
  H3120    1.0000 0.50692  0.72359  0.07860  Biso   1.000  H
  H3121    1.0000 0.02411  0.60989  0.07000  Biso   1.000  H
  H3122    1.0000 0.06283  0.68791  0.06140  Biso   1.000  H
  C3050    1.0000 0.15332  0.64990  0.06576  Biso   1.000  C
  C3051    1.0000 0.26139  0.80461  0.07200  Biso   1.000  C
  H3123    1.0000 0.17028  0.84449  0.06780  Biso   1.000  H
  N413     1.0000 0.20748  0.88516  0.08325  Biso   1.000  N
  N414     1.0000 0.20751  0.88523  0.08325  Biso   1.000  N
  H3124    1.0000 0.80288  0.31608  0.12950  Biso   1.000  H
  H3125    1.0000 0.72600  0.22319  0.13360  Biso   1.000  H
  C3052    1.0000 0.78741  0.31101  0.14628  Biso   1.000  C
  C3053    1.0000 0.90828  0.22532  0.11789  Biso   1.000  C
  H3126    1.0000 0.70453  0.19711  0.15460  Biso   1.000  H
  H3127    1.0000 0.77001  0.27460  0.16240  Biso   1.000  H
  H3128    1.0000 0.51320  0.19711  0.12950  Biso   1.000  H
  H3129    1.0000 0.49719  0.27400  0.13360  Biso   1.000  H
  C3054    1.0000 0.52359  0.21258  0.14628  Biso   1.000  C
  C3055    1.0000 0.31698  0.09168  0.11789  Biso   1.000  C
  H3130    1.0000 0.49256  0.29547  0.15460  Biso   1.000  H
  H3131    1.0000 0.50458  0.22999  0.16240  Biso   1.000  H
  H3132    1.0000 0.58579  0.97592  0.07000  Biso   1.000  H
  H3133    1.0000 0.62509  0.93718  0.06140  Biso   1.000  H
  C3056    1.0000 0.49657  0.84669  0.06576  Biso   1.000  C
  C3057    1.0000 0.74009  0.00039  0.08917  Biso   1.000  C
  H3134    1.0000 0.53381  0.77367  0.05610  Biso   1.000  H
  H3135    1.0000 0.44012  0.71472  0.06160  Biso   1.000  H
  H3136    1.0000 0.13791  0.60789  0.05970  Biso   1.000  H
  H3137    1.0000 0.16450  0.62410  0.07220  Biso   1.000  H
  C3058    1.0000 0.23642  0.73653  0.06285  Biso   1.000  C
  H3138    1.0000 0.31333  0.86042  0.06980  Biso   1.000  H
  H3139    1.0000 0.27637  0.78327  0.07860  Biso   1.000  H
  C3059    1.0000 0.20727  0.95578  0.08103  Biso   1.000  C
  H3140    1.0000 0.84621  0.36209  0.14750  Biso   1.000  H
  H3141    1.0000 0.74477  0.33188  0.14630  Biso   1.000  H
  C3060    1.0000 0.90538  0.19111  0.10694  Biso   1.000  C
  H3142    1.0000 0.96172  0.27340  0.12030  Biso   1.000  H
  H3143    1.0000 0.51590  0.15377  0.14750  Biso   1.000  H
  H3144    1.0000 0.58711  0.25519  0.14630  Biso   1.000  H
  C3061    1.0000 0.28570  0.09462  0.10694  Biso   1.000  C
  H3145    1.0000 0.31170  0.03827  0.12030  Biso   1.000  H
  H3146    1.0000 0.46997  0.86209  0.05970  Biso   1.000  H
  H3147    1.0000 0.45961  0.83548  0.07220  Biso   1.000  H
  H3148    1.0000 0.69812  0.96739  0.09450  Biso   1.000  H
  C3062    1.0000 0.82381  0.08028  0.09283  Biso   1.000  C
  H3149    1.0000 0.22630  0.76006  0.05610  Biso   1.000  H
  H3150    1.0000 0.28531  0.72539  0.06160  Biso   1.000  H
  H3151    1.0000 0.22633  0.76013  0.05610  Biso   1.000  H
  H3152    1.0000 0.19058  0.96258  0.07400  Biso   1.000  H
  C3063    1.0000 0.23208  0.02860  0.08900  Biso   1.000  C
  C3064    1.0000 0.97530  0.23519  0.09960  Biso   1.000  C
  C3065    1.0000 0.82897  0.11209  0.10327  Biso   1.000  C
  C3066    1.0000 0.28311  0.17097  0.10327  Biso   1.000  C
  C3067    1.0000 0.25991  0.02467  0.09960  Biso   1.000  C
  C3068    1.0000 0.89560  0.12603  0.08562  Biso   1.000  C
  C3069    1.0000 0.23043  0.10442  0.08562  Biso   1.000  C
  C3070    1.0000 0.97141  0.20351  0.08900  Biso   1.000  C
  H3153    1.0000 0.02602  0.28720  0.10180  Biso   1.000  H
  H3154    1.0000 0.78143  0.08121  0.10810  Biso   1.000  H
  H3155    1.0000 0.29981  0.21858  0.10810  Biso   1.000  H
  C3071    1.0000 0.25649  0.17617  0.09283  Biso   1.000  C
  H3156    1.0000 0.26119  0.97399  0.10180  Biso   1.000  H
  H3157    1.0000 0.89258  0.10429  0.07850  Biso   1.000  H
  H3158    1.0000 0.21171  0.10742  0.07850  Biso   1.000  H
  C3072    1.0000 0.04422  0.25153  0.08103  Biso   1.000  C
  C3073    1.0000 0.26027  0.25986  0.08917  Biso   1.000  C
  C3074    1.0000 0.26031  0.25993  0.08917  Biso   1.000  C
  H3159    1.0000 0.03742  0.22799  0.07400  Biso   1.000  H
  N415     1.0000 0.11477  0.32228  0.08325  Biso   1.000  N
  H3160    1.0000 0.26927  0.30187  0.09450  Biso   1.000  H
  N416     1.0000 0.25252  0.27820  0.07947  Biso   1.000  N
  C3075    1.0000 0.17959  0.36242  0.07445  Biso   1.000  C
  C3076    1.0000 0.26547  0.36589  0.07746  Biso   1.000  C
  C3077    1.0000 0.19541  0.45678  0.07200  Biso   1.000  C
  H3161    1.0000 0.15551  0.32581  0.06780  Biso   1.000  H
  H3162    1.0000 0.28936  0.40176  0.08410  Biso   1.000  H
  C3078    1.0000 0.33428  0.41077  0.06799  Biso   1.000  C
  H3163    1.0000 0.28939  0.40183  0.08410  Biso   1.000  H
  C3079    1.0000 0.26353  0.49992  0.06285  Biso   1.000  C
  H3164    1.0000 0.13960  0.45291  0.06980  Biso   1.000  H
  H3165    1.0000 0.21670  0.49312  0.07860  Biso   1.000  H
  H3166    1.0000 0.39009  0.41417  0.07000  Biso   1.000  H
  H3167    1.0000 0.31207  0.37489  0.06140  Biso   1.000  H
  C3080    1.0000 0.35010  0.50339  0.06576  Biso   1.000  C
  H3168    1.0000 0.23991  0.46618  0.05610  Biso   1.000  H
  H3169    1.0000 0.27457  0.55987  0.06160  Biso   1.000  H
  H3170    1.0000 0.39211  0.53000  0.05970  Biso   1.000  H
  H3171    1.0000 0.37588  0.54040  0.07220  Biso   1.000  H
  C3081    1.0000 0.79074  0.61983  0.15517  Biso   1.000  C
  C3082    1.0000 0.75431  0.51960  0.15541  Biso   1.000  C
  H3172    1.0000 0.83511  0.64770  0.16090  Biso   1.000  H
  C3083    1.0000 0.83228  0.66097  0.14415  Biso   1.000  C
  H3173    1.0000 0.74256  0.63156  0.15670  Biso   1.000  H
  H3174    1.0000 0.74259  0.63163  0.15670  Biso   1.000  H
  C3084    1.0000 0.68899  0.47639  0.14628  Biso   1.000  C
  H3175    1.0000 0.80290  0.50740  0.15460  Biso   1.000  H
  H3176    1.0000 0.72541  0.49540  0.16240  Biso   1.000  H
  C3085    1.0000 0.79071  0.61976  0.15517  Biso   1.000  C
  C3086    1.0000 0.76559  0.61549  0.13502  Biso   1.000  C
  H3177    1.0000 0.88521  0.65550  0.14290  Biso   1.000  H
  N417     1.0000 0.85697  0.75506  0.14418  Biso   1.000  N
  N418     1.0000 0.85701  0.75513  0.14418  Biso   1.000  N
  C3087    1.0000 0.72909  0.51500  0.13519  Biso   1.000  C
  H3178    1.0000 0.63794  0.48413  0.14750  Biso   1.000  H
  H3179    1.0000 0.66811  0.41291  0.14630  Biso   1.000  H
  N419     1.0000 0.80642  0.64910  0.12431  Biso   1.000  N
  H3180    1.0000 0.71600  0.62696  0.13600  Biso   1.000  H
  H3181    1.0000 0.71603  0.62703  0.13600  Biso   1.000  H
  C3088    1.0000 0.93799  0.81188  0.14339  Biso   1.000  C
  H3182    1.0000 0.68391  0.48679  0.12950  Biso   1.000  H
  H3183    1.0000 0.77681  0.50280  0.13360  Biso   1.000  H
  C3089    1.0000 0.77467  0.68298  0.11789  Biso   1.000  C
  H3184    1.0000 0.97927  0.79281  0.14280  Biso   1.000  H
  C3090    1.0000 0.97010  0.90970  0.14342  Biso   1.000  C
  C3091    1.0000 0.80894  0.71432  0.10694  Biso   1.000  C
  H3185    1.0000 0.72663  0.68831  0.12030  Biso   1.000  H
  C3092    1.0000 0.90990  0.94038  0.14357  Biso   1.000  C
  C3093    1.0000 0.05960  0.96952  0.14357  Biso   1.000  C
  C3094    1.0000 0.76478  0.74013  0.09960  Biso   1.000  C
  C3095    1.0000 0.88791  0.71692  0.10327  Biso   1.000  C
  H3186    1.0000 0.84898  0.89997  0.14380  Biso   1.000  H
  C3096    1.0000 0.93957  0.02987  0.14342  Biso   1.000  C
  H3187    1.0000 0.09998  0.94898  0.14380  Biso   1.000  H
  C3097    1.0000 0.09032  0.06041  0.14342  Biso   1.000  C
  H3188    1.0000 0.71278  0.73879  0.10180  Biso   1.000  H
  C3098    1.0000 0.79650  0.76787  0.08900  Biso   1.000  C
  C3099    1.0000 0.79653  0.76793  0.08900  Biso   1.000  C
  H3189    1.0000 0.91881  0.70018  0.10810  Biso   1.000  H
  C3100    1.0000 0.91970  0.74353  0.09283  Biso   1.000  C
  C3101    1.0000 0.87392  0.06201  0.14339  Biso   1.000  C
  C3102    1.0000 0.03049  0.09008  0.14357  Biso   1.000  C
  C3103    1.0000 0.18808  0.12609  0.14339  Biso   1.000  C
  C3104    1.0000 0.74850  0.79267  0.08103  Biso   1.000  C
  C3105    1.0000 0.87400  0.76960  0.08562  Biso   1.000  C
  C3106    1.0000 0.99963  0.73973  0.08917  Biso   1.000  C
  H3190    1.0000 0.81346  0.02067  0.14280  Biso   1.000  H
  N420     1.0000 0.89806  0.14296  0.14418  Biso   1.000  N
  H3191    1.0000 0.81350  0.02073  0.14280  Biso   1.000  H
  N421     1.0000 0.89809  0.14303  0.14418  Biso   1.000  N
  H3192    1.0000 0.05100  0.15097  0.14380  Biso   1.000  H
  H3193    1.0000 0.05103  0.15103  0.14380  Biso   1.000  H
  H3194    1.0000 0.20720  0.18651  0.14280  Biso   1.000  H
  N422     1.0000 0.24487  0.10189  0.14418  Biso   1.000  N
  H3195    1.0000 0.77200  0.80941  0.07400  Biso   1.000  H
  N423     1.0000 0.67771  0.79247  0.08325  Biso   1.000  N
  H3196    1.0000 0.89570  0.78827  0.07850  Biso   1.000  H
  H3197    1.0000 0.03261  0.73072  0.09450  Biso   1.000  H
  N424     1.0000 0.02567  0.74746  0.07947  Biso   1.000  N
  N425     1.0000 0.02570  0.74753  0.07947  Biso   1.000  N
  C3107    1.0000 0.82871  0.16770  0.14415  Biso   1.000  C
  C3108    1.0000 0.33900  0.17130  0.14415  Biso   1.000  C
  C3109    1.0000 0.63759  0.81721  0.07445  Biso   1.000  C
  C3110    1.0000 0.10040  0.73452  0.07746  Biso   1.000  C
  C3111    1.0000 0.84987  0.23439  0.13502  Biso   1.000  C
  C3112    1.0000 0.82913  0.20931  0.15517  Biso   1.000  C
  H3198    1.0000 0.77034  0.11482  0.14290  Biso   1.000  H
  C3113    1.0000 0.38447  0.15010  0.13502  Biso   1.000  C
  C3114    1.0000 0.38021  0.17090  0.15517  Biso   1.000  C
  H3199    1.0000 0.34453  0.22972  0.14290  Biso   1.000  H
  C3115    1.0000 0.63406  0.89957  0.07746  Biso   1.000  C
  C3116    1.0000 0.54318  0.73859  0.07200  Biso   1.000  C
  H3200    1.0000 0.67420  0.82968  0.06780  Biso   1.000  H
  H3201    1.0000 0.11240  0.71058  0.08410  Biso   1.000  H
  C3117    1.0000 0.07650  0.66571  0.06799  Biso   1.000  C
  C3118    1.0000 0.18279  0.82041  0.07445  Biso   1.000  C
  H3202    1.0000 0.91100  0.28400  0.13600  Biso   1.000  H
  C3119    1.0000 0.78587  0.27086  0.13519  Biso   1.000  C
  N426     1.0000 0.84269  0.19358  0.12431  Biso   1.000  N
  C3120    1.0000 0.78590  0.27093  0.13519  Biso   1.000  C
  C3121    1.0000 0.76533  0.24572  0.15541  Biso   1.000  C
  H3203    1.0000 0.88898  0.25739  0.15670  Biso   1.000  H
  H3204    1.0000 0.81259  0.16490  0.16090  Biso   1.000  H
  H3205    1.0000 0.37299  0.08902  0.13600  Biso   1.000  H
  C3122    1.0000 0.48503  0.21412  0.13519  Biso   1.000  C
  N427     1.0000 0.35088  0.15730  0.12431  Biso   1.000  N
  C3123    1.0000 0.48044  0.23472  0.15541  Biso   1.000  C
  H3206    1.0000 0.36840  0.11102  0.15670  Biso   1.000  H
  H3207    1.0000 0.35229  0.18738  0.16090  Biso   1.000  H
  C3124    1.0000 0.58921  0.92351  0.06799  Biso   1.000  C
  N428     1.0000 0.72180  0.97432  0.07947  Biso   1.000  N
  H3208    1.0000 0.59821  0.88756  0.08410  Biso   1.000  H
  H3209    1.0000 0.59824  0.88763  0.08410  Biso   1.000  H
  C3125    1.0000 0.50007  0.76360  0.06285  Biso   1.000  C
  H3210    1.0000 0.54710  0.68671  0.06980  Biso   1.000  H
  H3211    1.0000 0.50692  0.72359  0.07860  Biso   1.000  H
  H3212    1.0000 0.02411  0.60989  0.07000  Biso   1.000  H
  H3213    1.0000 0.06283  0.68791  0.06140  Biso   1.000  H
  C3126    1.0000 0.15332  0.64990  0.06576  Biso   1.000  C
  C3127    1.0000 0.26139  0.80461  0.07200  Biso   1.000  C
  H3214    1.0000 0.17028  0.84449  0.06780  Biso   1.000  H
  N429     1.0000 0.20748  0.88516  0.08325  Biso   1.000  N
  N430     1.0000 0.20751  0.88523  0.08325  Biso   1.000  N
  H3215    1.0000 0.80288  0.31608  0.12950  Biso   1.000  H
  H3216    1.0000 0.72600  0.22319  0.13360  Biso   1.000  H
  C3128    1.0000 0.78741  0.31101  0.14628  Biso   1.000  C
  C3129    1.0000 0.90828  0.22532  0.11789  Biso   1.000  C
  H3217    1.0000 0.70453  0.19711  0.15460  Biso   1.000  H
  H3218    1.0000 0.77001  0.27460  0.16240  Biso   1.000  H
  H3219    1.0000 0.51320  0.19711  0.12950  Biso   1.000  H
  H3220    1.0000 0.49719  0.27400  0.13360  Biso   1.000  H
  C3130    1.0000 0.52359  0.21258  0.14628  Biso   1.000  C
  C3131    1.0000 0.31698  0.09168  0.11789  Biso   1.000  C
  H3221    1.0000 0.49256  0.29547  0.15460  Biso   1.000  H
  H3222    1.0000 0.50458  0.22999  0.16240  Biso   1.000  H
  H3223    1.0000 0.58579  0.97592  0.07000  Biso   1.000  H
  H3224    1.0000 0.62509  0.93718  0.06140  Biso   1.000  H
  C3132    1.0000 0.49657  0.84669  0.06576  Biso   1.000  C
  C3133    1.0000 0.74009  0.00039  0.08917  Biso   1.000  C
  H3225    1.0000 0.53381  0.77367  0.05610  Biso   1.000  H
  H3226    1.0000 0.44012  0.71472  0.06160  Biso   1.000  H
  H3227    1.0000 0.13791  0.60789  0.05970  Biso   1.000  H
  H3228    1.0000 0.16450  0.62410  0.07220  Biso   1.000  H
  C3134    1.0000 0.23642  0.73653  0.06285  Biso   1.000  C
  H3229    1.0000 0.31333  0.86042  0.06980  Biso   1.000  H
  H3230    1.0000 0.27637  0.78327  0.07860  Biso   1.000  H
  C3135    1.0000 0.20727  0.95578  0.08103  Biso   1.000  C
  H3231    1.0000 0.84621  0.36209  0.14750  Biso   1.000  H
  H3232    1.0000 0.74477  0.33188  0.14630  Biso   1.000  H
  C3136    1.0000 0.90538  0.19111  0.10694  Biso   1.000  C
  H3233    1.0000 0.96172  0.27340  0.12030  Biso   1.000  H
  H3234    1.0000 0.51590  0.15377  0.14750  Biso   1.000  H
  H3235    1.0000 0.58711  0.25519  0.14630  Biso   1.000  H
  C3137    1.0000 0.28570  0.09462  0.10694  Biso   1.000  C
  H3236    1.0000 0.31170  0.03827  0.12030  Biso   1.000  H
  H3237    1.0000 0.46997  0.86209  0.05970  Biso   1.000  H
  H3238    1.0000 0.45961  0.83548  0.07220  Biso   1.000  H
  H3239    1.0000 0.69812  0.96739  0.09450  Biso   1.000  H
  C3138    1.0000 0.82381  0.08028  0.09283  Biso   1.000  C
  H3240    1.0000 0.22630  0.76006  0.05610  Biso   1.000  H
  H3241    1.0000 0.28531  0.72539  0.06160  Biso   1.000  H
  H3242    1.0000 0.22633  0.76013  0.05610  Biso   1.000  H
  H3243    1.0000 0.19058  0.96258  0.07400  Biso   1.000  H
  C3139    1.0000 0.23208  0.02860  0.08900  Biso   1.000  C
  C3140    1.0000 0.97530  0.23519  0.09960  Biso   1.000  C
  C3141    1.0000 0.82897  0.11209  0.10327  Biso   1.000  C
  C3142    1.0000 0.28311  0.17097  0.10327  Biso   1.000  C
  C3143    1.0000 0.25991  0.02467  0.09960  Biso   1.000  C
  C3144    1.0000 0.89560  0.12603  0.08562  Biso   1.000  C
  C3145    1.0000 0.23043  0.10442  0.08562  Biso   1.000  C
  C3146    1.0000 0.97141  0.20351  0.08900  Biso   1.000  C
  H3244    1.0000 0.02602  0.28720  0.10180  Biso   1.000  H
  H3245    1.0000 0.78143  0.08121  0.10810  Biso   1.000  H
  H3246    1.0000 0.29981  0.21858  0.10810  Biso   1.000  H
  C3147    1.0000 0.25649  0.17617  0.09283  Biso   1.000  C
  H3247    1.0000 0.26119  0.97399  0.10180  Biso   1.000  H
  H3248    1.0000 0.89258  0.10429  0.07850  Biso   1.000  H
  H3249    1.0000 0.21171  0.10742  0.07850  Biso   1.000  H
  C3148    1.0000 0.04422  0.25153  0.08103  Biso   1.000  C
  C3149    1.0000 0.26027  0.25986  0.08917  Biso   1.000  C
  C3150    1.0000 0.26031  0.25993  0.08917  Biso   1.000  C
  H3250    1.0000 0.03742  0.22799  0.07400  Biso   1.000  H
  N431     1.0000 0.11477  0.32228  0.08325  Biso   1.000  N
  H3251    1.0000 0.26927  0.30187  0.09450  Biso   1.000  H
  N432     1.0000 0.25252  0.27820  0.07947  Biso   1.000  N
  C3151    1.0000 0.17959  0.36242  0.07445  Biso   1.000  C
  C3152    1.0000 0.26547  0.36589  0.07746  Biso   1.000  C
  C3153    1.0000 0.19541  0.45678  0.07200  Biso   1.000  C
  H3252    1.0000 0.15551  0.32581  0.06780  Biso   1.000  H
  H3253    1.0000 0.28936  0.40176  0.08410  Biso   1.000  H
  C3154    1.0000 0.33428  0.41077  0.06799  Biso   1.000  C
  H3254    1.0000 0.28939  0.40183  0.08410  Biso   1.000  H
  C3155    1.0000 0.26353  0.49992  0.06285  Biso   1.000  C
  H3255    1.0000 0.13960  0.45291  0.06980  Biso   1.000  H
  H3256    1.0000 0.21670  0.49312  0.07860  Biso   1.000  H
  H3257    1.0000 0.39009  0.41417  0.07000  Biso   1.000  H
  H3258    1.0000 0.31207  0.37489  0.06140  Biso   1.000  H
  C3156    1.0000 0.35010  0.50339  0.06576  Biso   1.000  C
  H3259    1.0000 0.23991  0.46618  0.05610  Biso   1.000  H
  H3260    1.0000 0.27457  0.55987  0.06160  Biso   1.000  H
  H3261    1.0000 0.39211  0.53000  0.05970  Biso   1.000  H
  H3262    1.0000 0.37588  0.54040  0.07220  Biso   1.000  H
  C3157    1.0000 0.79074  0.61983  0.15517  Biso   1.000  C
  C3158    1.0000 0.75431  0.51960  0.15541  Biso   1.000  C
  H3263    1.0000 0.83511  0.64770  0.16090  Biso   1.000  H
  C3159    1.0000 0.83228  0.66097  0.14415  Biso   1.000  C
  H3264    1.0000 0.74256  0.63156  0.15670  Biso   1.000  H
  H3265    1.0000 0.74259  0.63163  0.15670  Biso   1.000  H
  C3160    1.0000 0.68899  0.47639  0.14628  Biso   1.000  C
  H3266    1.0000 0.80290  0.50740  0.15460  Biso   1.000  H
  H3267    1.0000 0.72541  0.49540  0.16240  Biso   1.000  H
  C3161    1.0000 0.79071  0.61976  0.15517  Biso   1.000  C
  C3162    1.0000 0.76559  0.61549  0.13502  Biso   1.000  C
  H3268    1.0000 0.88521  0.65550  0.14290  Biso   1.000  H
  N433     1.0000 0.85697  0.75506  0.14418  Biso   1.000  N
  N434     1.0000 0.85701  0.75513  0.14418  Biso   1.000  N
  C3163    1.0000 0.72909  0.51500  0.13519  Biso   1.000  C
  H3269    1.0000 0.63794  0.48413  0.14750  Biso   1.000  H
  H3270    1.0000 0.66811  0.41291  0.14630  Biso   1.000  H
  N435     1.0000 0.80642  0.64910  0.12431  Biso   1.000  N
  H3271    1.0000 0.71600  0.62696  0.13600  Biso   1.000  H
  H3272    1.0000 0.71603  0.62703  0.13600  Biso   1.000  H
  C3164    1.0000 0.93799  0.81188  0.14339  Biso   1.000  C
  H3273    1.0000 0.68391  0.48679  0.12950  Biso   1.000  H
  H3274    1.0000 0.77681  0.50280  0.13360  Biso   1.000  H
  C3165    1.0000 0.77467  0.68298  0.11789  Biso   1.000  C
  H3275    1.0000 0.97927  0.79281  0.14280  Biso   1.000  H
  C3166    1.0000 0.97010  0.90970  0.14342  Biso   1.000  C
  C3167    1.0000 0.80894  0.71432  0.10694  Biso   1.000  C
  H3276    1.0000 0.72663  0.68831  0.12030  Biso   1.000  H
  C3168    1.0000 0.90990  0.94038  0.14357  Biso   1.000  C
  C3169    1.0000 0.05960  0.96952  0.14357  Biso   1.000  C
  C3170    1.0000 0.76478  0.74013  0.09960  Biso   1.000  C
  C3171    1.0000 0.88791  0.71692  0.10327  Biso   1.000  C
  H3277    1.0000 0.84898  0.89997  0.14380  Biso   1.000  H
  C3172    1.0000 0.93957  0.02987  0.14342  Biso   1.000  C
  H3278    1.0000 0.09998  0.94898  0.14380  Biso   1.000  H
  C3173    1.0000 0.09032  0.06041  0.14342  Biso   1.000  C
  H3279    1.0000 0.71278  0.73879  0.10180  Biso   1.000  H
  C3174    1.0000 0.79650  0.76787  0.08900  Biso   1.000  C
  C3175    1.0000 0.79653  0.76793  0.08900  Biso   1.000  C
  H3280    1.0000 0.91881  0.70018  0.10810  Biso   1.000  H
  C3176    1.0000 0.91970  0.74353  0.09283  Biso   1.000  C
  C3177    1.0000 0.87392  0.06201  0.14339  Biso   1.000  C
  C3178    1.0000 0.03049  0.09008  0.14357  Biso   1.000  C
  C3179    1.0000 0.18808  0.12609  0.14339  Biso   1.000  C
  C3180    1.0000 0.74850  0.79267  0.08103  Biso   1.000  C
  C3181    1.0000 0.87400  0.76960  0.08562  Biso   1.000  C
  C3182    1.0000 0.99963  0.73973  0.08917  Biso   1.000  C
  H3281    1.0000 0.81346  0.02067  0.14280  Biso   1.000  H
  N436     1.0000 0.89806  0.14296  0.14418  Biso   1.000  N
  H3282    1.0000 0.81350  0.02073  0.14280  Biso   1.000  H
  N437     1.0000 0.89809  0.14303  0.14418  Biso   1.000  N
  H3283    1.0000 0.05100  0.15097  0.14380  Biso   1.000  H
  H3284    1.0000 0.05103  0.15103  0.14380  Biso   1.000  H
  H3285    1.0000 0.20720  0.18651  0.14280  Biso   1.000  H
  N438     1.0000 0.24487  0.10189  0.14418  Biso   1.000  N
  H3286    1.0000 0.77200  0.80941  0.07400  Biso   1.000  H
  N439     1.0000 0.67771  0.79247  0.08325  Biso   1.000  N
  H3287    1.0000 0.89570  0.78827  0.07850  Biso   1.000  H
  H3288    1.0000 0.03261  0.73072  0.09450  Biso   1.000  H
  N440     1.0000 0.02567  0.74746  0.07947  Biso   1.000  N
  N441     1.0000 0.02570  0.74753  0.07947  Biso   1.000  N
  C3183    1.0000 0.82871  0.16770  0.14415  Biso   1.000  C
  C3184    1.0000 0.33900  0.17130  0.14415  Biso   1.000  C
  C3185    1.0000 0.63759  0.81721  0.07445  Biso   1.000  C
  C3186    1.0000 0.10040  0.73452  0.07746  Biso   1.000  C
  C3187    1.0000 0.84987  0.23439  0.13502  Biso   1.000  C
  C3188    1.0000 0.82913  0.20931  0.15517  Biso   1.000  C
  H3289    1.0000 0.77034  0.11482  0.14290  Biso   1.000  H
  C3189    1.0000 0.38447  0.15010  0.13502  Biso   1.000  C
  C3190    1.0000 0.38021  0.17090  0.15517  Biso   1.000  C
  H3290    1.0000 0.34453  0.22972  0.14290  Biso   1.000  H
  C3191    1.0000 0.63406  0.89957  0.07746  Biso   1.000  C
  C3192    1.0000 0.54318  0.73859  0.07200  Biso   1.000  C
  H3291    1.0000 0.67420  0.82968  0.06780  Biso   1.000  H
  H3292    1.0000 0.11240  0.71058  0.08410  Biso   1.000  H
  C3193    1.0000 0.07650  0.66571  0.06799  Biso   1.000  C
  C3194    1.0000 0.18279  0.82041  0.07445  Biso   1.000  C
  H3293    1.0000 0.91100  0.28400  0.13600  Biso   1.000  H
  C3195    1.0000 0.78587  0.27086  0.13519  Biso   1.000  C
  N442     1.0000 0.84269  0.19358  0.12431  Biso   1.000  N
  C3196    1.0000 0.78590  0.27093  0.13519  Biso   1.000  C
  C3197    1.0000 0.76533  0.24572  0.15541  Biso   1.000  C
  H3294    1.0000 0.88898  0.25739  0.15670  Biso   1.000  H
  H3295    1.0000 0.81259  0.16490  0.16090  Biso   1.000  H
  H3296    1.0000 0.37299  0.08902  0.13600  Biso   1.000  H
  C3198    1.0000 0.48503  0.21412  0.13519  Biso   1.000  C
  N443     1.0000 0.35088  0.15730  0.12431  Biso   1.000  N
  C3199    1.0000 0.48044  0.23472  0.15541  Biso   1.000  C
  H3297    1.0000 0.36840  0.11102  0.15670  Biso   1.000  H
  H3298    1.0000 0.35229  0.18738  0.16090  Biso   1.000  H
  C3200    1.0000 0.58921  0.92351  0.06799  Biso   1.000  C
  N444     1.0000 0.72180  0.97432  0.07947  Biso   1.000  N
  H3299    1.0000 0.59821  0.88756  0.08410  Biso   1.000  H
  H3300    1.0000 0.59824  0.88763  0.08410  Biso   1.000  H
  C3201    1.0000 0.50007  0.76360  0.06285  Biso   1.000  C
  H3301    1.0000 0.54710  0.68671  0.06980  Biso   1.000  H
  H3302    1.0000 0.50692  0.72359  0.07860  Biso   1.000  H
  H3303    1.0000 0.02411  0.60989  0.07000  Biso   1.000  H
  H3304    1.0000 0.06283  0.68791  0.06140  Biso   1.000  H
  C3202    1.0000 0.15332  0.64990  0.06576  Biso   1.000  C
  C3203    1.0000 0.26139  0.80461  0.07200  Biso   1.000  C
  H3305    1.0000 0.17028  0.84449  0.06780  Biso   1.000  H
  N445     1.0000 0.20748  0.88516  0.08325  Biso   1.000  N
  N446     1.0000 0.20751  0.88523  0.08325  Biso   1.000  N
  H3306    1.0000 0.80288  0.31608  0.12950  Biso   1.000  H
  H3307    1.0000 0.72600  0.22319  0.13360  Biso   1.000  H
  C3204    1.0000 0.78741  0.31101  0.14628  Biso   1.000  C
  C3205    1.0000 0.90828  0.22532  0.11789  Biso   1.000  C
  H3308    1.0000 0.70453  0.19711  0.15460  Biso   1.000  H
  H3309    1.0000 0.77001  0.27460  0.16240  Biso   1.000  H
  H3310    1.0000 0.51320  0.19711  0.12950  Biso   1.000  H
  H3311    1.0000 0.49719  0.27400  0.13360  Biso   1.000  H
  C3206    1.0000 0.52359  0.21258  0.14628  Biso   1.000  C
  C3207    1.0000 0.31698  0.09168  0.11789  Biso   1.000  C
  H3312    1.0000 0.49256  0.29547  0.15460  Biso   1.000  H
  H3313    1.0000 0.50458  0.22999  0.16240  Biso   1.000  H
  H3314    1.0000 0.58579  0.97592  0.07000  Biso   1.000  H
  H3315    1.0000 0.62509  0.93718  0.06140  Biso   1.000  H
  C3208    1.0000 0.49657  0.84669  0.06576  Biso   1.000  C
  C3209    1.0000 0.74009  0.00039  0.08917  Biso   1.000  C
  H3316    1.0000 0.53381  0.77367  0.05610  Biso   1.000  H
  H3317    1.0000 0.44012  0.71472  0.06160  Biso   1.000  H
  H3318    1.0000 0.13791  0.60789  0.05970  Biso   1.000  H
  H3319    1.0000 0.16450  0.62410  0.07220  Biso   1.000  H
  C3210    1.0000 0.23642  0.73653  0.06285  Biso   1.000  C
  H3320    1.0000 0.31333  0.86042  0.06980  Biso   1.000  H
  H3321    1.0000 0.27637  0.78327  0.07860  Biso   1.000  H
  C3211    1.0000 0.20727  0.95578  0.08103  Biso   1.000  C
  H3322    1.0000 0.84621  0.36209  0.14750  Biso   1.000  H
  H3323    1.0000 0.74477  0.33188  0.14630  Biso   1.000  H
  C3212    1.0000 0.90538  0.19111  0.10694  Biso   1.000  C
  H3324    1.0000 0.96172  0.27340  0.12030  Biso   1.000  H
  H3325    1.0000 0.51590  0.15377  0.14750  Biso   1.000  H
  H3326    1.0000 0.58711  0.25519  0.14630  Biso   1.000  H
  C3213    1.0000 0.28570  0.09462  0.10694  Biso   1.000  C
  H3327    1.0000 0.31170  0.03827  0.12030  Biso   1.000  H
  H3328    1.0000 0.46997  0.86209  0.05970  Biso   1.000  H
  H3329    1.0000 0.45961  0.83548  0.07220  Biso   1.000  H
  H3330    1.0000 0.69812  0.96739  0.09450  Biso   1.000  H
  C3214    1.0000 0.82381  0.08028  0.09283  Biso   1.000  C
  H3331    1.0000 0.22630  0.76006  0.05610  Biso   1.000  H
  H3332    1.0000 0.28531  0.72539  0.06160  Biso   1.000  H
  H3333    1.0000 0.22633  0.76013  0.05610  Biso   1.000  H
  H3334    1.0000 0.19058  0.96258  0.07400  Biso   1.000  H
  C3215    1.0000 0.23208  0.02860  0.08900  Biso   1.000  C
  C3216    1.0000 0.97530  0.23519  0.09960  Biso   1.000  C
  C3217    1.0000 0.82897  0.11209  0.10327  Biso   1.000  C
  C3218    1.0000 0.28311  0.17097  0.10327  Biso   1.000  C
  C3219    1.0000 0.25991  0.02467  0.09960  Biso   1.000  C
  C3220    1.0000 0.89560  0.12603  0.08562  Biso   1.000  C
  C3221    1.0000 0.23043  0.10442  0.08562  Biso   1.000  C
  C3222    1.0000 0.97141  0.20351  0.08900  Biso   1.000  C
  H3335    1.0000 0.02602  0.28720  0.10180  Biso   1.000  H
  H3336    1.0000 0.78143  0.08121  0.10810  Biso   1.000  H
  H3337    1.0000 0.29981  0.21858  0.10810  Biso   1.000  H
  C3223    1.0000 0.25649  0.17617  0.09283  Biso   1.000  C
  H3338    1.0000 0.26119  0.97399  0.10180  Biso   1.000  H
  H3339    1.0000 0.89258  0.10429  0.07850  Biso   1.000  H
  H3340    1.0000 0.21171  0.10742  0.07850  Biso   1.000  H
  C3224    1.0000 0.04422  0.25153  0.08103  Biso   1.000  C
  C3225    1.0000 0.26027  0.25986  0.08917  Biso   1.000  C
  C3226    1.0000 0.26031  0.25993  0.08917  Biso   1.000  C
  H3341    1.0000 0.03742  0.22799  0.07400  Biso   1.000  H
  N447     1.0000 0.11477  0.32228  0.08325  Biso   1.000  N
  H3342    1.0000 0.26927  0.30187  0.09450  Biso   1.000  H
  N448     1.0000 0.25252  0.27820  0.07947  Biso   1.000  N
  C3227    1.0000 0.17959  0.36242  0.07445  Biso   1.000  C
  C3228    1.0000 0.26547  0.36589  0.07746  Biso   1.000  C
  C3229    1.0000 0.19541  0.45678  0.07200  Biso   1.000  C
  H3343    1.0000 0.15551  0.32581  0.06780  Biso   1.000  H
  H3344    1.0000 0.28936  0.40176  0.08410  Biso   1.000  H
  C3230    1.0000 0.33428  0.41077  0.06799  Biso   1.000  C
  H3345    1.0000 0.28939  0.40183  0.08410  Biso   1.000  H
  C3231    1.0000 0.26353  0.49992  0.06285  Biso   1.000  C
  H3346    1.0000 0.13960  0.45291  0.06980  Biso   1.000  H
  H3347    1.0000 0.21670  0.49312  0.07860  Biso   1.000  H
  H3348    1.0000 0.39009  0.41417  0.07000  Biso   1.000  H
  H3349    1.0000 0.31207  0.37489  0.06140  Biso   1.000  H
  C3232    1.0000 0.35010  0.50339  0.06576  Biso   1.000  C
  H3350    1.0000 0.23991  0.46618  0.05610  Biso   1.000  H
  H3351    1.0000 0.27457  0.55987  0.06160  Biso   1.000  H
  H3352    1.0000 0.39211  0.53000  0.05970  Biso   1.000  H
  H3353    1.0000 0.37588  0.54040  0.07220  Biso   1.000  H
  C3233    1.0000 0.79074  0.61983  0.15517  Biso   1.000  C
  C3234    1.0000 0.75431  0.51960  0.15541  Biso   1.000  C
  H3354    1.0000 0.83511  0.64770  0.16090  Biso   1.000  H
  C3235    1.0000 0.83228  0.66097  0.14415  Biso   1.000  C
  H3355    1.0000 0.74256  0.63156  0.15670  Biso   1.000  H
  H3356    1.0000 0.74259  0.63163  0.15670  Biso   1.000  H
  C3236    1.0000 0.68899  0.47639  0.14628  Biso   1.000  C
  H3357    1.0000 0.80290  0.50740  0.15460  Biso   1.000  H
  H3358    1.0000 0.72541  0.49540  0.16240  Biso   1.000  H
  C3237    1.0000 0.79071  0.61976  0.15517  Biso   1.000  C
  C3238    1.0000 0.76559  0.61549  0.13502  Biso   1.000  C
  H3359    1.0000 0.88521  0.65550  0.14290  Biso   1.000  H
  N449     1.0000 0.85697  0.75506  0.14418  Biso   1.000  N
  N450     1.0000 0.85701  0.75513  0.14418  Biso   1.000  N
  C3239    1.0000 0.72909  0.51500  0.13519  Biso   1.000  C
  H3360    1.0000 0.63794  0.48413  0.14750  Biso   1.000  H
  H3361    1.0000 0.66811  0.41291  0.14630  Biso   1.000  H
  N451     1.0000 0.80642  0.64910  0.12431  Biso   1.000  N
  H3362    1.0000 0.71600  0.62696  0.13600  Biso   1.000  H
  H3363    1.0000 0.71603  0.62703  0.13600  Biso   1.000  H
  C3240    1.0000 0.93799  0.81188  0.14339  Biso   1.000  C
  H3364    1.0000 0.68391  0.48679  0.12950  Biso   1.000  H
  H3365    1.0000 0.77681  0.50280  0.13360  Biso   1.000  H
  C3241    1.0000 0.77467  0.68298  0.11789  Biso   1.000  C
  H3366    1.0000 0.97927  0.79281  0.14280  Biso   1.000  H
  C3242    1.0000 0.97010  0.90970  0.14342  Biso   1.000  C
  C3243    1.0000 0.80894  0.71432  0.10694  Biso   1.000  C
  H3367    1.0000 0.72663  0.68831  0.12030  Biso   1.000  H
  C3244    1.0000 0.90990  0.94038  0.14357  Biso   1.000  C
  C3245    1.0000 0.05960  0.96952  0.14357  Biso   1.000  C
  C3246    1.0000 0.76478  0.74013  0.09960  Biso   1.000  C
  C3247    1.0000 0.88791  0.71692  0.10327  Biso   1.000  C
  H3368    1.0000 0.84898  0.89997  0.14380  Biso   1.000  H
  C3248    1.0000 0.93957  0.02987  0.14342  Biso   1.000  C
  H3369    1.0000 0.09998  0.94898  0.14380  Biso   1.000  H
  C3249    1.0000 0.09032  0.06041  0.14342  Biso   1.000  C
  H3370    1.0000 0.71278  0.73879  0.10180  Biso   1.000  H
  C3250    1.0000 0.79650  0.76787  0.08900  Biso   1.000  C
  C3251    1.0000 0.79653  0.76793  0.08900  Biso   1.000  C
  H3371    1.0000 0.91881  0.70018  0.10810  Biso   1.000  H
  C3252    1.0000 0.91970  0.74353  0.09283  Biso   1.000  C
  C3253    1.0000 0.87392  0.06201  0.14339  Biso   1.000  C
  C3254    1.0000 0.03049  0.09008  0.14357  Biso   1.000  C
  C3255    1.0000 0.18808  0.12609  0.14339  Biso   1.000  C
  C3256    1.0000 0.74850  0.79267  0.08103  Biso   1.000  C
  C3257    1.0000 0.87400  0.76960  0.08562  Biso   1.000  C
  C3258    1.0000 0.99963  0.73973  0.08917  Biso   1.000  C
  H3372    1.0000 0.81346  0.02067  0.14280  Biso   1.000  H
  N452     1.0000 0.89806  0.14296  0.14418  Biso   1.000  N
  H3373    1.0000 0.81350  0.02073  0.14280  Biso   1.000  H
  N453     1.0000 0.89809  0.14303  0.14418  Biso   1.000  N
  H3374    1.0000 0.05100  0.15097  0.14380  Biso   1.000  H
  H3375    1.0000 0.05103  0.15103  0.14380  Biso   1.000  H
  H3376    1.0000 0.20720  0.18651  0.14280  Biso   1.000  H
  N454     1.0000 0.24487  0.10189  0.14418  Biso   1.000  N
  H3377    1.0000 0.77200  0.80941  0.07400  Biso   1.000  H
  N455     1.0000 0.67771  0.79247  0.08325  Biso   1.000  N
  H3378    1.0000 0.89570  0.78827  0.07850  Biso   1.000  H
  H3379    1.0000 0.03261  0.73072  0.09450  Biso   1.000  H
  N456     1.0000 0.02567  0.74746  0.07947  Biso   1.000  N
  N457     1.0000 0.02570  0.74753  0.07947  Biso   1.000  N
  C3259    1.0000 0.82871  0.16770  0.14415  Biso   1.000  C
  C3260    1.0000 0.33900  0.17130  0.14415  Biso   1.000  C
  C3261    1.0000 0.63759  0.81721  0.07445  Biso   1.000  C
  C3262    1.0000 0.10040  0.73452  0.07746  Biso   1.000  C
  C3263    1.0000 0.84987  0.23439  0.13502  Biso   1.000  C
  C3264    1.0000 0.82913  0.20931  0.15517  Biso   1.000  C
  H3380    1.0000 0.77034  0.11482  0.14290  Biso   1.000  H
  C3265    1.0000 0.38447  0.15010  0.13502  Biso   1.000  C
  C3266    1.0000 0.38021  0.17090  0.15517  Biso   1.000  C
  H3381    1.0000 0.34453  0.22972  0.14290  Biso   1.000  H
  C3267    1.0000 0.63406  0.89957  0.07746  Biso   1.000  C
  C3268    1.0000 0.54318  0.73859  0.07200  Biso   1.000  C
  H3382    1.0000 0.67420  0.82968  0.06780  Biso   1.000  H
  H3383    1.0000 0.11240  0.71058  0.08410  Biso   1.000  H
  C3269    1.0000 0.07650  0.66571  0.06799  Biso   1.000  C
  C3270    1.0000 0.18279  0.82041  0.07445  Biso   1.000  C
  H3384    1.0000 0.91100  0.28400  0.13600  Biso   1.000  H
  C3271    1.0000 0.78587  0.27086  0.13519  Biso   1.000  C
  N458     1.0000 0.84269  0.19358  0.12431  Biso   1.000  N
  C3272    1.0000 0.78590  0.27093  0.13519  Biso   1.000  C
  C3273    1.0000 0.76533  0.24572  0.15541  Biso   1.000  C
  H3385    1.0000 0.88898  0.25739  0.15670  Biso   1.000  H
  H3386    1.0000 0.81259  0.16490  0.16090  Biso   1.000  H
  H3387    1.0000 0.37299  0.08902  0.13600  Biso   1.000  H
  C3274    1.0000 0.48503  0.21412  0.13519  Biso   1.000  C
  N459     1.0000 0.35088  0.15730  0.12431  Biso   1.000  N
  C3275    1.0000 0.48044  0.23472  0.15541  Biso   1.000  C
  H3388    1.0000 0.36840  0.11102  0.15670  Biso   1.000  H
  H3389    1.0000 0.35229  0.18738  0.16090  Biso   1.000  H
  C3276    1.0000 0.58921  0.92351  0.06799  Biso   1.000  C
  N460     1.0000 0.72180  0.97432  0.07947  Biso   1.000  N
  H3390    1.0000 0.59821  0.88756  0.08410  Biso   1.000  H
  H3391    1.0000 0.59824  0.88763  0.08410  Biso   1.000  H
  C3277    1.0000 0.50007  0.76360  0.06285  Biso   1.000  C
  H3392    1.0000 0.54710  0.68671  0.06980  Biso   1.000  H
  H3393    1.0000 0.50692  0.72359  0.07860  Biso   1.000  H
  H3394    1.0000 0.02411  0.60989  0.07000  Biso   1.000  H
  H3395    1.0000 0.06283  0.68791  0.06140  Biso   1.000  H
  C3278    1.0000 0.15332  0.64990  0.06576  Biso   1.000  C
  C3279    1.0000 0.26139  0.80461  0.07200  Biso   1.000  C
  H3396    1.0000 0.17028  0.84449  0.06780  Biso   1.000  H
  N461     1.0000 0.20748  0.88516  0.08325  Biso   1.000  N
  N462     1.0000 0.20751  0.88523  0.08325  Biso   1.000  N
  H3397    1.0000 0.80288  0.31608  0.12950  Biso   1.000  H
  H3398    1.0000 0.72600  0.22319  0.13360  Biso   1.000  H
  C3280    1.0000 0.78741  0.31101  0.14628  Biso   1.000  C
  C3281    1.0000 0.90828  0.22532  0.11789  Biso   1.000  C
  H3399    1.0000 0.70453  0.19711  0.15460  Biso   1.000  H
  H3400    1.0000 0.77001  0.27460  0.16240  Biso   1.000  H
  H3401    1.0000 0.51320  0.19711  0.12950  Biso   1.000  H
  H3402    1.0000 0.49719  0.27400  0.13360  Biso   1.000  H
  C3282    1.0000 0.52359  0.21258  0.14628  Biso   1.000  C
  C3283    1.0000 0.31698  0.09168  0.11789  Biso   1.000  C
  H3403    1.0000 0.49256  0.29547  0.15460  Biso   1.000  H
  H3404    1.0000 0.50458  0.22999  0.16240  Biso   1.000  H
  H3405    1.0000 0.58579  0.97592  0.07000  Biso   1.000  H
  H3406    1.0000 0.62509  0.93718  0.06140  Biso   1.000  H
  C3284    1.0000 0.49657  0.84669  0.06576  Biso   1.000  C
  C3285    1.0000 0.74009  0.00039  0.08917  Biso   1.000  C
  H3407    1.0000 0.53381  0.77367  0.05610  Biso   1.000  H
  H3408    1.0000 0.44012  0.71472  0.06160  Biso   1.000  H
  H3409    1.0000 0.13791  0.60789  0.05970  Biso   1.000  H
  H3410    1.0000 0.16450  0.62410  0.07220  Biso   1.000  H
  C3286    1.0000 0.23642  0.73653  0.06285  Biso   1.000  C
  H3411    1.0000 0.31333  0.86042  0.06980  Biso   1.000  H
  H3412    1.0000 0.27637  0.78327  0.07860  Biso   1.000  H
  C3287    1.0000 0.20727  0.95578  0.08103  Biso   1.000  C
  H3413    1.0000 0.84621  0.36209  0.14750  Biso   1.000  H
  H3414    1.0000 0.74477  0.33188  0.14630  Biso   1.000  H
  C3288    1.0000 0.90538  0.19111  0.10694  Biso   1.000  C
  H3415    1.0000 0.96172  0.27340  0.12030  Biso   1.000  H
  H3416    1.0000 0.51590  0.15377  0.14750  Biso   1.000  H
  H3417    1.0000 0.58711  0.25519  0.14630  Biso   1.000  H
  C3289    1.0000 0.28570  0.09462  0.10694  Biso   1.000  C
  H3418    1.0000 0.31170  0.03827  0.12030  Biso   1.000  H
  H3419    1.0000 0.46997  0.86209  0.05970  Biso   1.000  H
  H3420    1.0000 0.45961  0.83548  0.07220  Biso   1.000  H
  H3421    1.0000 0.69812  0.96739  0.09450  Biso   1.000  H
  C3290    1.0000 0.82381  0.08028  0.09283  Biso   1.000  C
  H3422    1.0000 0.22630  0.76006  0.05610  Biso   1.000  H
  H3423    1.0000 0.28531  0.72539  0.06160  Biso   1.000  H
  H3424    1.0000 0.22633  0.76013  0.05610  Biso   1.000  H
  H3425    1.0000 0.19058  0.96258  0.07400  Biso   1.000  H
  C3291    1.0000 0.23208  0.02860  0.08900  Biso   1.000  C
  C3292    1.0000 0.97530  0.23519  0.09960  Biso   1.000  C
  C3293    1.0000 0.82897  0.11209  0.10327  Biso   1.000  C
  C3294    1.0000 0.28311  0.17097  0.10327  Biso   1.000  C
  C3295    1.0000 0.25991  0.02467  0.09960  Biso   1.000  C
  C3296    1.0000 0.89560  0.12603  0.08562  Biso   1.000  C
  C3297    1.0000 0.23043  0.10442  0.08562  Biso   1.000  C
  C3298    1.0000 0.97141  0.20351  0.08900  Biso   1.000  C
  H3426    1.0000 0.02602  0.28720  0.10180  Biso   1.000  H
  H3427    1.0000 0.78143  0.08121  0.10810  Biso   1.000  H
  H3428    1.0000 0.29981  0.21858  0.10810  Biso   1.000  H
  C3299    1.0000 0.25649  0.17617  0.09283  Biso   1.000  C
  H3429    1.0000 0.26119  0.97399  0.10180  Biso   1.000  H
  H3430    1.0000 0.89258  0.10429  0.07850  Biso   1.000  H
  H3431    1.0000 0.21171  0.10742  0.07850  Biso   1.000  H
  C3300    1.0000 0.04422  0.25153  0.08103  Biso   1.000  C
  C3301    1.0000 0.26027  0.25986  0.08917  Biso   1.000  C
  C3302    1.0000 0.26031  0.25993  0.08917  Biso   1.000  C
  H3432    1.0000 0.03742  0.22799  0.07400  Biso   1.000  H
  N463     1.0000 0.11477  0.32228  0.08325  Biso   1.000  N
  H3433    1.0000 0.26927  0.30187  0.09450  Biso   1.000  H
  N464     1.0000 0.25252  0.27820  0.07947  Biso   1.000  N
  C3303    1.0000 0.17959  0.36242  0.07445  Biso   1.000  C
  C3304    1.0000 0.26547  0.36589  0.07746  Biso   1.000  C
  C3305    1.0000 0.19541  0.45678  0.07200  Biso   1.000  C
  H3434    1.0000 0.15551  0.32581  0.06780  Biso   1.000  H
  H3435    1.0000 0.28936  0.40176  0.08410  Biso   1.000  H
  C3306    1.0000 0.33428  0.41077  0.06799  Biso   1.000  C
  H3436    1.0000 0.28939  0.40183  0.08410  Biso   1.000  H
  C3307    1.0000 0.26353  0.49992  0.06285  Biso   1.000  C
  H3437    1.0000 0.13960  0.45291  0.06980  Biso   1.000  H
  H3438    1.0000 0.21670  0.49312  0.07860  Biso   1.000  H
  H3439    1.0000 0.39009  0.41417  0.07000  Biso   1.000  H
  H3440    1.0000 0.31207  0.37489  0.06140  Biso   1.000  H
  C3308    1.0000 0.35010  0.50339  0.06576  Biso   1.000  C
  H3441    1.0000 0.23991  0.46618  0.05610  Biso   1.000  H
  H3442    1.0000 0.27457  0.55987  0.06160  Biso   1.000  H
  H3443    1.0000 0.39211  0.53000  0.05970  Biso   1.000  H
  H3444    1.0000 0.37588  0.54040  0.07220  Biso   1.000  H
