data_image0
_cell_length_a       17.157
_cell_length_b       17.157
_cell_length_c       121.803
_cell_angle_alpha    90
_cell_angle_beta     90
_cell_angle_gamma    120

_symmetry_space_group_name_H-M    "P 1"
_symmetry_int_tables_number       1

loop_
  _symmetry_equiv_pos_as_xyz
  'x, y, z'

loop_
  _atom_site_label
  _atom_site_occupancy
  _atom_site_fract_x
  _atom_site_fract_y
  _atom_site_fract_z
  _atom_site_thermal_displace_type
  _atom_site_B_iso_or_equiv
  _atom_site_type_symbol
  C1       1.0000 0.68336  0.21173  0.35408  Biso   1.000  C
  C2       1.0000 0.74590  0.23273  0.34442  Biso   1.000  C
  C3       1.0000 0.72930  0.21537  0.36467  Biso   1.000  C
  H1       1.0000 0.66192  0.25548  0.35430  Biso   1.000  H
  H2       1.0000 0.63032  0.15089  0.35310  Biso   1.000  H
  C4       1.0000 0.74587  0.23266  0.34442  Biso   1.000  C
  H3       1.0000 0.66187  0.25548  0.35430  Biso   1.000  H
  H4       1.0000 0.63026  0.15089  0.35310  Biso   1.000  H
  C5       1.0000 0.72924  0.21537  0.36467  Biso   1.000  C
  C6       1.0000 0.68338  0.21166  0.35408  Biso   1.000  C
  H5       1.0000 0.79582  0.29573  0.34490  Biso   1.000  H
  H6       1.0000 0.71268  0.22620  0.33750  Biso   1.000  H
  C7       1.0000 0.78398  0.16947  0.34422  Biso   1.000  C
  C8       1.0000 0.68341  0.21173  0.35408  Biso   1.000  C
  H7       1.0000 0.79576  0.29573  0.34490  Biso   1.000  H
  C9       1.0000 0.78392  0.16947  0.34422  Biso   1.000  C
  C10      1.0000 0.76100  0.14753  0.36467  Biso   1.000  C
  H8       1.0000 0.68711  0.20258  0.37080  Biso   1.000  H
  H9       1.0000 0.78154  0.27661  0.36570  Biso   1.000  H
  H10      1.0000 0.68706  0.20258  0.37080  Biso   1.000  H
  H11      1.0000 0.78148  0.27661  0.36570  Biso   1.000  H
  H12      1.0000 0.73499  0.10762  0.34260  Biso   1.000  H
  H13      1.0000 0.82944  0.18811  0.33830  Biso   1.000  H
  C11      1.0000 0.82708  0.16987  0.35508  Biso   1.000  C
  H14      1.0000 0.82938  0.18811  0.33830  Biso   1.000  H
  C12      1.0000 0.82702  0.16987  0.35508  Biso   1.000  C
  N1       1.0000 0.80890  0.15728  0.37513  Biso   1.000  N
  H15      1.0000 0.70882  0.08500  0.36390  Biso   1.000  H
  H16      1.0000 0.70876  0.08500  0.36390  Biso   1.000  H
  N2       1.0000 0.80884  0.15728  0.37513  Biso   1.000  N
  N3       1.0000 0.85079  0.09698  0.35468  Biso   1.000  N
  H17      1.0000 0.88228  0.22957  0.35630  Biso   1.000  H
  N4       1.0000 0.85073  0.09698  0.35468  Biso   1.000  N
  H18      1.0000 0.88223  0.22957  0.35630  Biso   1.000  H
  C13      1.0000 0.76883  0.09160  0.38206  Biso   1.000  C
  C14      1.0000 0.76877  0.09160  0.38206  Biso   1.000  C
  C15      1.0000 0.93483  0.12471  0.35361  Biso   1.000  C
  C16      1.0000 0.93477  0.12471  0.35361  Biso   1.000  C
  C17      1.0000 0.80399  0.09712  0.39308  Biso   1.000  C
  H19      1.0000 0.71531  0.03877  0.37990  Biso   1.000  H
  H20      1.0000 0.71528  0.03883  0.37990  Biso   1.000  H
  H21      1.0000 0.71525  0.03877  0.37990  Biso   1.000  H
  H22      1.0000 0.97641  0.18737  0.35310  Biso   1.000  H
  C18      1.0000 0.96782  0.05862  0.35314  Biso   1.000  C
  H23      1.0000 0.97636  0.18737  0.35310  Biso   1.000  H
  C19      1.0000 0.96776  0.05862  0.35314  Biso   1.000  C
  C20      1.0000 0.75604  0.02382  0.40055  Biso   1.000  C
  C21      1.0000 0.88102  0.17330  0.39707  Biso   1.000  C
  C22      1.0000 0.75598  0.02382  0.40055  Biso   1.000  C
  C23      1.0000 0.88096  0.17330  0.39707  Biso   1.000  C
  C24      1.0000 0.90604  0.96433  0.35324  Biso   1.000  C
  C25      1.0000 0.90610  0.96433  0.35324  Biso   1.000  C
  C26      1.0000 0.05819  0.09389  0.35324  Biso   1.000  C
  C27      1.0000 0.79019  0.02860  0.41135  Biso   1.000  C
  H24      1.0000 0.70155  0.97220  0.39830  Biso   1.000  H
  H25      1.0000 0.70167  0.97220  0.39830  Biso   1.000  H
  C28      1.0000 0.90911  0.17808  0.40765  Biso   1.000  C
  H26      1.0000 0.91451  0.22290  0.39230  Biso   1.000  H
  C29      1.0000 0.90906  0.17808  0.40765  Biso   1.000  C
  H27      1.0000 0.91445  0.22290  0.39230  Biso   1.000  H
  H28      1.0000 0.84284  0.94098  0.35340  Biso   1.000  H
  C30      1.0000 0.94137  0.90921  0.35314  Biso   1.000  C
  H29      1.0000 0.84296  0.94098  0.35340  Biso   1.000  H
  C31      1.0000 0.09081  0.03217  0.35314  Biso   1.000  C
  H30      1.0000 0.09807  0.15708  0.35340  Biso   1.000  H
  C32      1.0000 0.09075  0.03217  0.35314  Biso   1.000  C
  H31      1.0000 0.09813  0.15708  0.35340  Biso   1.000  H
  C33      1.0000 0.86480  0.10600  0.41453  Biso   1.000  C
  C34      1.0000 0.86474  0.10600  0.41453  Biso   1.000  C
  C35      1.0000 0.74082  0.95329  0.41900  Biso   1.000  C
  C36      1.0000 0.99102  0.26308  0.41144  Biso   1.000  C
  C37      1.0000 0.99096  0.26308  0.41144  Biso   1.000  C
  C38      1.0000 0.87525  0.81007  0.35361  Biso   1.000  C
  C39      1.0000 0.87529  0.81014  0.35361  Biso   1.000  C
  C40      1.0000 0.03576  0.94178  0.35324  Biso   1.000  C
  C41      1.0000 0.03565  0.94178  0.35324  Biso   1.000  C
  C42      1.0000 0.18992  0.06522  0.35361  Biso   1.000  C
  C43      1.0000 0.18986  0.06522  0.35361  Biso   1.000  C
  H32      1.0000 0.88672  0.10997  0.42180  Biso   1.000  H
  H33      1.0000 0.88666  0.10997  0.42180  Biso   1.000  H
  N5       1.0000 0.67357  0.87812  0.41653  Biso   1.000  N
  H34      1.0000 0.76093  0.96191  0.42640  Biso   1.000  H
  N6       1.0000 0.02089  0.27829  0.42112  Biso   1.000  N
  H35      1.0000 0.02249  0.30878  0.40610  Biso   1.000  H
  N7       1.0000 0.02094  0.27829  0.42112  Biso   1.000  N
  N8       1.0000 0.90302  0.75381  0.35468  Biso   1.000  N
  H36      1.0000 0.81261  0.78901  0.35310  Biso   1.000  H
  H37      1.0000 0.05906  0.90187  0.35340  Biso   1.000  H
  H38      1.0000 0.05900  0.90187  0.35340  Biso   1.000  H
  N9       1.0000 0.24620  0.14921  0.35468  Biso   1.000  N
  H39      1.0000 0.21103  0.02362  0.35310  Biso   1.000  H
  H40      1.0000 0.21097  0.02362  0.35310  Biso   1.000  H
  C44      1.0000 0.63345  0.81478  0.42550  Biso   1.000  C
  C45      1.0000 0.63357  0.81478  0.42550  Biso   1.000  C
  C46      1.0000 0.09660  0.36922  0.42291  Biso   1.000  C
  C47      1.0000 0.09666  0.36922  0.42291  Biso   1.000  C
  C48      1.0000 0.83013  0.65723  0.35508  Biso   1.000  C
  C49      1.0000 0.34279  0.17290  0.35508  Biso   1.000  C
  C50      1.0000 0.63081  0.72743  0.42291  Biso   1.000  C
  C51      1.0000 0.53952  0.79991  0.42773  Biso   1.000  C
  H41      1.0000 0.67108  0.84144  0.43220  Biso   1.000  H
  C52      1.0000 0.63086  0.72743  0.42291  Biso   1.000  C
  H42      1.0000 0.10668  0.40536  0.41610  Biso   1.000  H
  C53      1.0000 0.07366  0.41357  0.43231  Biso   1.000  C
  C54      1.0000 0.18131  0.36646  0.42550  Biso   1.000  C
  H43      1.0000 0.10672  0.40543  0.41610  Biso   1.000  H
  C55      1.0000 0.18128  0.36653  0.42550  Biso   1.000  C
  C56      1.0000 0.18125  0.36646  0.42550  Biso   1.000  C
  C57      1.0000 0.07372  0.41357  0.43231  Biso   1.000  C
  C58      1.0000 0.18134  0.36653  0.42550  Biso   1.000  C
  C59      1.0000 0.85250  0.61348  0.36467  Biso   1.000  C
  C60      1.0000 0.83044  0.61449  0.34422  Biso   1.000  C
  H44      1.0000 0.77041  0.65272  0.35630  Biso   1.000  H
  C61      1.0000 0.83050  0.61449  0.34422  Biso   1.000  C
  H45      1.0000 0.77047  0.65272  0.35630  Biso   1.000  H
  C62      1.0000 0.38650  0.23899  0.36467  Biso   1.000  C
  C63      1.0000 0.38548  0.21597  0.34422  Biso   1.000  C
  H46      1.0000 0.34731  0.11771  0.35630  Biso   1.000  H
  C64      1.0000 0.38644  0.23899  0.36467  Biso   1.000  C
  H47      1.0000 0.34725  0.11771  0.35630  Biso   1.000  H
  N10      1.0000 0.72164  0.74264  0.42112  Biso   1.000  N
  H48      1.0000 0.59461  0.70131  0.41610  Biso   1.000  H
  C65      1.0000 0.58637  0.66012  0.43231  Biso   1.000  C
  N11      1.0000 0.72176  0.74264  0.42112  Biso   1.000  N
  C66      1.0000 0.49370  0.73113  0.43681  Biso   1.000  C
  H49      1.0000 0.54400  0.85759  0.42990  Biso   1.000  H
  H50      1.0000 0.50292  0.77858  0.42100  Biso   1.000  H
  H51      1.0000 0.54405  0.85759  0.42990  Biso   1.000  H
  H52      1.0000 0.50303  0.77858  0.42100  Biso   1.000  H
  H53      1.0000 0.06004  0.37642  0.43900  Biso   1.000  H
  H54      1.0000 0.01968  0.41741  0.43040  Biso   1.000  H
  C67      1.0000 0.15279  0.50806  0.43453  Biso   1.000  C
  H55      1.0000 0.05998  0.37642  0.43900  Biso   1.000  H
  C68      1.0000 0.15273  0.50806  0.43453  Biso   1.000  C
  H56      1.0000 0.01974  0.41741  0.43040  Biso   1.000  H
  N12      1.0000 0.20453  0.32641  0.41653  Biso   1.000  N
  C69      1.0000 0.26037  0.46048  0.42773  Biso   1.000  C
  H57      1.0000 0.17028  0.32890  0.43220  Biso   1.000  H
  N13      1.0000 0.20447  0.32641  0.41653  Biso   1.000  N
  C70      1.0000 0.26043  0.46048  0.42773  Biso   1.000  C
  H58      1.0000 0.17034  0.32890  0.43220  Biso   1.000  H
  N14      1.0000 0.84269  0.65158  0.37513  Biso   1.000  N
  H59      1.0000 0.91494  0.62378  0.36390  Biso   1.000  H
  C71      1.0000 0.78460  0.51394  0.36467  Biso   1.000  C
  N15      1.0000 0.84278  0.65164  0.37513  Biso   1.000  N
  H60      1.0000 0.91506  0.62378  0.36390  Biso   1.000  H
  N16      1.0000 0.84275  0.65158  0.37513  Biso   1.000  N
  N17      1.0000 0.84273  0.65164  0.37513  Biso   1.000  N
  C72      1.0000 0.76727  0.51320  0.34442  Biso   1.000  C
  H61      1.0000 0.89233  0.62742  0.34260  Biso   1.000  H
  H62      1.0000 0.81184  0.64128  0.33830  Biso   1.000  H
  H63      1.0000 0.89245  0.62742  0.34260  Biso   1.000  H
  H64      1.0000 0.81196  0.64128  0.33830  Biso   1.000  H
  N18      1.0000 0.34838  0.19107  0.37513  Biso   1.000  N
  H65      1.0000 0.37618  0.29122  0.36390  Biso   1.000  H
  C73      1.0000 0.48610  0.27069  0.36467  Biso   1.000  C
  C74      1.0000 0.48605  0.27069  0.36467  Biso   1.000  C
  H66      1.0000 0.37624  0.29122  0.36390  Biso   1.000  H
  C75      1.0000 0.48677  0.25407  0.34442  Biso   1.000  C
  H67      1.0000 0.37256  0.26497  0.34260  Biso   1.000  H
  H68      1.0000 0.35872  0.17061  0.33830  Biso   1.000  H
  H69      1.0000 0.35866  0.17061  0.33830  Biso   1.000  H
  H70      1.0000 0.37262  0.26497  0.34260  Biso   1.000  H
  C76      1.0000 0.73683  0.72790  0.41144  Biso   1.000  C
  C77      1.0000 0.73689  0.72790  0.41144  Biso   1.000  C
  H71      1.0000 0.62353  0.68361  0.43900  Biso   1.000  H
  H72      1.0000 0.58253  0.60231  0.43040  Biso   1.000  H
  C78      1.0000 0.49194  0.64471  0.43453  Biso   1.000  C
  H73      1.0000 0.62364  0.68361  0.43900  Biso   1.000  H
  H74      1.0000 0.58264  0.60231  0.43040  Biso   1.000  H
  H75      1.0000 0.52582  0.75643  0.44380  Biso   1.000  H
  H76      1.0000 0.43116  0.71888  0.43770  Biso   1.000  H
  H77      1.0000 0.16200  0.54676  0.42810  Biso   1.000  H
  H78      1.0000 0.13839  0.53451  0.44090  Biso   1.000  H
  C79      1.0000 0.23742  0.50631  0.43681  Biso   1.000  C
  H79      1.0000 0.16194  0.54676  0.42810  Biso   1.000  H
  C80      1.0000 0.23736  0.50631  0.43681  Biso   1.000  C
  H80      1.0000 0.13845  0.53451  0.44090  Biso   1.000  H
  C81      1.0000 0.21247  0.25918  0.41900  Biso   1.000  C
  C82      1.0000 0.21253  0.25918  0.41900  Biso   1.000  C
  H81      1.0000 0.31361  0.45597  0.42990  Biso   1.000  H
  H82      1.0000 0.27558  0.49696  0.42100  Biso   1.000  H
  H83      1.0000 0.31355  0.45597  0.42990  Biso   1.000  H
  H84      1.0000 0.27562  0.49703  0.42100  Biso   1.000  H
  C83      1.0000 0.90844  0.67722  0.38206  Biso   1.000  C
  H85      1.0000 0.79735  0.48453  0.37080  Biso   1.000  H
  H86      1.0000 0.72344  0.50493  0.36570  Biso   1.000  H
  C84      1.0000 0.78824  0.47168  0.35408  Biso   1.000  C
  H87      1.0000 0.79746  0.48453  0.37080  Biso   1.000  H
  C85      1.0000 0.78839  0.47175  0.35408  Biso   1.000  C
  C86      1.0000 0.78827  0.47175  0.35408  Biso   1.000  C
  H88      1.0000 0.70429  0.50008  0.34490  Biso   1.000  H
  H89      1.0000 0.77373  0.48649  0.33750  Biso   1.000  H
  H90      1.0000 0.70432  0.50015  0.34490  Biso   1.000  H
  H91      1.0000 0.77378  0.48649  0.33750  Biso   1.000  H
  C87      1.0000 0.32280  0.23118  0.38206  Biso   1.000  C
  C88      1.0000 0.32274  0.23118  0.38206  Biso   1.000  C
  H92      1.0000 0.51548  0.31289  0.37080  Biso   1.000  H
  H93      1.0000 0.49508  0.21846  0.36570  Biso   1.000  H
  C89      1.0000 0.52829  0.31659  0.35408  Biso   1.000  C
  H94      1.0000 0.49511  0.21853  0.36570  Biso   1.000  H
  H95      1.0000 0.49502  0.21846  0.36570  Biso   1.000  H
  H96      1.0000 0.49989  0.20419  0.34490  Biso   1.000  H
  H97      1.0000 0.51348  0.28731  0.33750  Biso   1.000  H
  H98      1.0000 0.49984  0.20419  0.34490  Biso   1.000  H
  H99      1.0000 0.51353  0.28731  0.33750  Biso   1.000  H
  C90      1.0000 0.82190  0.73099  0.40765  Biso   1.000  C
  H100     1.0000 0.69120  0.71370  0.40610  Biso   1.000  H
  C91      1.0000 0.82196  0.73099  0.40765  Biso   1.000  C
  H101     1.0000 0.69126  0.71370  0.40610  Biso   1.000  H
  H102     1.0000 0.45318  0.61523  0.42810  Biso   1.000  H
  H103     1.0000 0.46548  0.60393  0.44090  Biso   1.000  H
  H104     1.0000 0.23058  0.47421  0.44380  Biso   1.000  H
  H105     1.0000 0.28771  0.56877  0.43770  Biso   1.000  H
  H106     1.0000 0.28765  0.56877  0.43770  Biso   1.000  H
  H107     1.0000 0.23064  0.47421  0.44380  Biso   1.000  H
  H108     1.0000 0.20099  0.23912  0.42640  Biso   1.000  H
  C92      1.0000 0.23836  0.20978  0.41135  Biso   1.000  C
  H109     1.0000 0.20104  0.23912  0.42640  Biso   1.000  H
  C93      1.0000 0.23842  0.20978  0.41135  Biso   1.000  C
  C94      1.0000 0.90288  0.70690  0.39308  Biso   1.000  C
  H110     1.0000 0.96110  0.67648  0.37990  Biso   1.000  H
  C95      1.0000 0.90293  0.70690  0.39308  Biso   1.000  C
  H111     1.0000 0.96122  0.67648  0.37990  Biso   1.000  H
  H112     1.0000 0.74452  0.40640  0.35430  Biso   1.000  H
  H113     1.0000 0.84911  0.47942  0.35310  Biso   1.000  H
  H114     1.0000 0.84917  0.47942  0.35310  Biso   1.000  H
  C96      1.0000 0.29307  0.19598  0.39308  Biso   1.000  C
  H115     1.0000 0.32349  0.28469  0.37990  Biso   1.000  H
  C97      1.0000 0.29313  0.19598  0.39308  Biso   1.000  C
  H116     1.0000 0.59361  0.33813  0.35430  Biso   1.000  H
  H117     1.0000 0.52057  0.36969  0.35310  Biso   1.000  H
  H118     1.0000 0.59355  0.33813  0.35430  Biso   1.000  H
  H119     1.0000 0.52063  0.36969  0.35310  Biso   1.000  H
  C98      1.0000 0.82669  0.70771  0.39707  Biso   1.000  C
  C99      1.0000 0.82675  0.70771  0.39707  Biso   1.000  C
  C100     1.0000 0.89397  0.75879  0.41453  Biso   1.000  C
  C101     1.0000 0.26776  0.24397  0.40055  Biso   1.000  C
  C102     1.0000 0.26781  0.24397  0.40055  Biso   1.000  C
  C103     1.0000 0.24118  0.13521  0.41453  Biso   1.000  C
  C104     1.0000 0.24124  0.13521  0.41453  Biso   1.000  C
  C105     1.0000 0.97620  0.73221  0.40055  Biso   1.000  C
  C106     1.0000 0.97626  0.73221  0.40055  Biso   1.000  C
  C107     1.0000 0.29229  0.11899  0.39707  Biso   1.000  C
  H120     1.0000 0.77703  0.69162  0.39230  Biso   1.000  H
  H121     1.0000 0.77715  0.69162  0.39230  Biso   1.000  H
  C108     1.0000 0.97133  0.76162  0.41135  Biso   1.000  C
  C109     1.0000 0.97144  0.76162  0.41135  Biso   1.000  C
  H122     1.0000 0.88992  0.77669  0.42180  Biso   1.000  H
  H123     1.0000 0.89004  0.77669  0.42180  Biso   1.000  H
  H124     1.0000 0.27062  0.29842  0.39830  Biso   1.000  H
  H125     1.0000 0.27056  0.29842  0.39830  Biso   1.000  H
  C110     1.0000 0.26899  0.09093  0.40765  Biso   1.000  C
  C111     1.0000 0.26904  0.09093  0.40765  Biso   1.000  C
  H126     1.0000 0.22327  0.11327  0.42180  Biso   1.000  H
  H127     1.0000 0.02783  0.72938  0.39830  Biso   1.000  H
  H128     1.0000 0.30840  0.08547  0.39230  Biso   1.000  H
  H129     1.0000 0.30834  0.08547  0.39230  Biso   1.000  H
  C112     1.0000 0.04676  0.78753  0.41900  Biso   1.000  C
  C113     1.0000 0.04665  0.78753  0.41900  Biso   1.000  C
  C114     1.0000 0.27210  0.00902  0.41144  Biso   1.000  C
  N19      1.0000 0.12193  0.79554  0.41653  Biso   1.000  N
  H130     1.0000 0.03812  0.79904  0.42640  Biso   1.000  H
  N20      1.0000 0.25741  0.97907  0.42112  Biso   1.000  N
  H131     1.0000 0.28631  0.97752  0.40610  Biso   1.000  H
  N21      1.0000 0.25745  0.97914  0.42112  Biso   1.000  N
  C115     1.0000 0.18521  0.81869  0.42550  Biso   1.000  C
  C116     1.0000 0.27263  0.90342  0.42291  Biso   1.000  C
  C117     1.0000 0.20017  0.73961  0.42773  Biso   1.000  C
  H132     1.0000 0.15867  0.82973  0.43220  Biso   1.000  H
  C118     1.0000 0.20005  0.73961  0.42773  Biso   1.000  C
  H133     1.0000 0.15855  0.82973  0.43220  Biso   1.000  H
  H134     1.0000 0.29876  0.89333  0.41610  Biso   1.000  H
  C119     1.0000 0.33997  0.92630  0.43231  Biso   1.000  C
  C120     1.0000 0.33985  0.92630  0.43231  Biso   1.000  C
  H135     1.0000 0.29871  0.89333  0.41610  Biso   1.000  H
  C121     1.0000 0.26897  0.76263  0.43681  Biso   1.000  C
  H136     1.0000 0.14246  0.68644  0.42990  Biso   1.000  H
  H137     1.0000 0.22141  0.72440  0.42100  Biso   1.000  H
  C122     1.0000 0.26885  0.76263  0.43681  Biso   1.000  C
  H138     1.0000 0.31646  0.94003  0.43900  Biso   1.000  H
  H139     1.0000 0.39767  0.98028  0.43040  Biso   1.000  H
  C123     1.0000 0.35533  0.84722  0.43453  Biso   1.000  C
  H140     1.0000 0.31635  0.94003  0.43900  Biso   1.000  H
  H141     1.0000 0.39761  0.98028  0.43040  Biso   1.000  H
  H142     1.0000 0.24369  0.76942  0.44380  Biso   1.000  H
  H143     1.0000 0.28110  0.71228  0.43770  Biso   1.000  H
  H144     1.0000 0.24357  0.76942  0.44380  Biso   1.000  H
  H145     1.0000 0.38482  0.83800  0.42810  Biso   1.000  H
  H146     1.0000 0.39610  0.86163  0.44090  Biso   1.000  H
  H147     1.0000 0.38476  0.83800  0.42810  Biso   1.000  H
  C124     1.0000 0.68336  0.21173  0.35408  Biso   1.000  C
  C125     1.0000 0.74590  0.23273  0.34442  Biso   1.000  C
  C126     1.0000 0.74587  0.23266  0.34442  Biso   1.000  C
  C127     1.0000 0.72930  0.21537  0.36467  Biso   1.000  C
  H148     1.0000 0.66187  0.25548  0.35430  Biso   1.000  H
  H149     1.0000 0.63026  0.15089  0.35310  Biso   1.000  H
  H150     1.0000 0.66192  0.25548  0.35430  Biso   1.000  H
  H151     1.0000 0.63032  0.15089  0.35310  Biso   1.000  H
  C128     1.0000 0.72924  0.21537  0.36467  Biso   1.000  C
  H152     1.0000 0.79582  0.29573  0.34490  Biso   1.000  H
  H153     1.0000 0.71268  0.22620  0.33750  Biso   1.000  H
  C129     1.0000 0.78398  0.16947  0.34422  Biso   1.000  C
  C130     1.0000 0.68338  0.21166  0.35408  Biso   1.000  C
  C131     1.0000 0.68341  0.21173  0.35408  Biso   1.000  C
  H154     1.0000 0.79576  0.29573  0.34490  Biso   1.000  H
  C132     1.0000 0.78392  0.16947  0.34422  Biso   1.000  C
  C133     1.0000 0.76100  0.14753  0.36467  Biso   1.000  C
  H155     1.0000 0.68706  0.20258  0.37080  Biso   1.000  H
  H156     1.0000 0.78148  0.27661  0.36570  Biso   1.000  H
  H157     1.0000 0.68711  0.20258  0.37080  Biso   1.000  H
  H158     1.0000 0.78154  0.27661  0.36570  Biso   1.000  H
  H159     1.0000 0.73499  0.10762  0.34260  Biso   1.000  H
  C134     1.0000 0.82708  0.16987  0.35508  Biso   1.000  C
  H160     1.0000 0.82938  0.18811  0.33830  Biso   1.000  H
  H161     1.0000 0.82944  0.18811  0.33830  Biso   1.000  H
  C135     1.0000 0.82702  0.16987  0.35508  Biso   1.000  C
  N22      1.0000 0.80890  0.15728  0.37513  Biso   1.000  N
  H162     1.0000 0.70882  0.08500  0.36390  Biso   1.000  H
  H163     1.0000 0.70876  0.08500  0.36390  Biso   1.000  H
  N23      1.0000 0.80884  0.15728  0.37513  Biso   1.000  N
  N24      1.0000 0.85079  0.09698  0.35468  Biso   1.000  N
  H164     1.0000 0.88228  0.22957  0.35630  Biso   1.000  H
  N25      1.0000 0.85073  0.09698  0.35468  Biso   1.000  N
  H165     1.0000 0.88223  0.22957  0.35630  Biso   1.000  H
  C136     1.0000 0.76877  0.09160  0.38206  Biso   1.000  C
  C137     1.0000 0.76883  0.09160  0.38206  Biso   1.000  C
  C138     1.0000 0.93477  0.12471  0.35361  Biso   1.000  C
  C139     1.0000 0.93483  0.12471  0.35361  Biso   1.000  C
  C140     1.0000 0.80399  0.09712  0.39308  Biso   1.000  C
  H166     1.0000 0.71528  0.03883  0.37990  Biso   1.000  H
  H167     1.0000 0.71531  0.03877  0.37990  Biso   1.000  H
  H168     1.0000 0.71525  0.03877  0.37990  Biso   1.000  H
  C141     1.0000 0.96782  0.05862  0.35314  Biso   1.000  C
  H169     1.0000 0.97636  0.18737  0.35310  Biso   1.000  H
  C142     1.0000 0.96776  0.05862  0.35314  Biso   1.000  C
  H170     1.0000 0.97641  0.18737  0.35310  Biso   1.000  H
  C143     1.0000 0.75598  0.02382  0.40055  Biso   1.000  C
  C144     1.0000 0.88096  0.17330  0.39707  Biso   1.000  C
  C145     1.0000 0.75604  0.02382  0.40055  Biso   1.000  C
  C146     1.0000 0.88102  0.17330  0.39707  Biso   1.000  C
  C147     1.0000 0.90604  0.96433  0.35324  Biso   1.000  C
  C148     1.0000 0.90610  0.96433  0.35324  Biso   1.000  C
  C149     1.0000 0.05819  0.09389  0.35324  Biso   1.000  C
  C150     1.0000 0.79019  0.02860  0.41135  Biso   1.000  C
  H171     1.0000 0.70155  0.97220  0.39830  Biso   1.000  H
  H172     1.0000 0.70167  0.97220  0.39830  Biso   1.000  H
  H173     1.0000 0.91451  0.22290  0.39230  Biso   1.000  H
  C151     1.0000 0.90906  0.17808  0.40765  Biso   1.000  C
  C152     1.0000 0.90911  0.17808  0.40765  Biso   1.000  C
  H174     1.0000 0.91445  0.22290  0.39230  Biso   1.000  H
  H175     1.0000 0.84284  0.94098  0.35340  Biso   1.000  H
  C153     1.0000 0.94137  0.90921  0.35314  Biso   1.000  C
  H176     1.0000 0.84296  0.94098  0.35340  Biso   1.000  H
  C154     1.0000 0.09081  0.03217  0.35314  Biso   1.000  C
  H177     1.0000 0.09807  0.15708  0.35340  Biso   1.000  H
  C155     1.0000 0.09075  0.03217  0.35314  Biso   1.000  C
  H178     1.0000 0.09813  0.15708  0.35340  Biso   1.000  H
  C156     1.0000 0.86480  0.10600  0.41453  Biso   1.000  C
  C157     1.0000 0.74082  0.95329  0.41900  Biso   1.000  C
  C158     1.0000 0.86474  0.10600  0.41453  Biso   1.000  C
  C159     1.0000 0.99096  0.26308  0.41144  Biso   1.000  C
  C160     1.0000 0.99102  0.26308  0.41144  Biso   1.000  C
  C161     1.0000 0.87525  0.81007  0.35361  Biso   1.000  C
  C162     1.0000 0.87529  0.81014  0.35361  Biso   1.000  C
  C163     1.0000 0.03576  0.94178  0.35324  Biso   1.000  C
  C164     1.0000 0.03565  0.94178  0.35324  Biso   1.000  C
  C165     1.0000 0.18992  0.06522  0.35361  Biso   1.000  C
  C166     1.0000 0.18986  0.06522  0.35361  Biso   1.000  C
  H179     1.0000 0.88666  0.10997  0.42180  Biso   1.000  H
  H180     1.0000 0.88672  0.10997  0.42180  Biso   1.000  H
  N26      1.0000 0.67357  0.87812  0.41653  Biso   1.000  N
  H181     1.0000 0.76093  0.96191  0.42640  Biso   1.000  H
  N27      1.0000 0.02089  0.27829  0.42112  Biso   1.000  N
  H182     1.0000 0.02249  0.30878  0.40610  Biso   1.000  H
  N28      1.0000 0.02094  0.27829  0.42112  Biso   1.000  N
  H183     1.0000 0.81261  0.78901  0.35310  Biso   1.000  H
  N29      1.0000 0.90302  0.75381  0.35468  Biso   1.000  N
  H184     1.0000 0.05906  0.90187  0.35340  Biso   1.000  H
  H185     1.0000 0.05900  0.90187  0.35340  Biso   1.000  H
  N30      1.0000 0.24620  0.14921  0.35468  Biso   1.000  N
  H186     1.0000 0.21103  0.02362  0.35310  Biso   1.000  H
  H187     1.0000 0.21097  0.02362  0.35310  Biso   1.000  H
  C167     1.0000 0.63345  0.81478  0.42550  Biso   1.000  C
  C168     1.0000 0.63357  0.81478  0.42550  Biso   1.000  C
  C169     1.0000 0.09660  0.36922  0.42291  Biso   1.000  C
  C170     1.0000 0.09666  0.36922  0.42291  Biso   1.000  C
  C171     1.0000 0.83013  0.65723  0.35508  Biso   1.000  C
  C172     1.0000 0.34279  0.17290  0.35508  Biso   1.000  C
  C173     1.0000 0.53952  0.79991  0.42773  Biso   1.000  C
  C174     1.0000 0.63081  0.72743  0.42291  Biso   1.000  C
  H188     1.0000 0.67108  0.84144  0.43220  Biso   1.000  H
  C175     1.0000 0.63086  0.72743  0.42291  Biso   1.000  C
  H189     1.0000 0.10668  0.40536  0.41610  Biso   1.000  H
  C176     1.0000 0.07366  0.41357  0.43231  Biso   1.000  C
  C177     1.0000 0.18131  0.36646  0.42550  Biso   1.000  C
  H190     1.0000 0.10672  0.40543  0.41610  Biso   1.000  H
  C178     1.0000 0.18128  0.36653  0.42550  Biso   1.000  C
  C179     1.0000 0.18125  0.36646  0.42550  Biso   1.000  C
  C180     1.0000 0.07372  0.41357  0.43231  Biso   1.000  C
  C181     1.0000 0.18134  0.36653  0.42550  Biso   1.000  C
  C182     1.0000 0.85250  0.61348  0.36467  Biso   1.000  C
  C183     1.0000 0.83044  0.61449  0.34422  Biso   1.000  C
  H191     1.0000 0.77041  0.65272  0.35630  Biso   1.000  H
  C184     1.0000 0.83050  0.61449  0.34422  Biso   1.000  C
  H192     1.0000 0.77047  0.65272  0.35630  Biso   1.000  H
  C185     1.0000 0.38650  0.23899  0.36467  Biso   1.000  C
  C186     1.0000 0.38548  0.21597  0.34422  Biso   1.000  C
  H193     1.0000 0.34731  0.11771  0.35630  Biso   1.000  H
  C187     1.0000 0.38644  0.23899  0.36467  Biso   1.000  C
  H194     1.0000 0.34725  0.11771  0.35630  Biso   1.000  H
  C188     1.0000 0.49370  0.73113  0.43681  Biso   1.000  C
  H195     1.0000 0.54400  0.85759  0.42990  Biso   1.000  H
  H196     1.0000 0.50292  0.77858  0.42100  Biso   1.000  H
  H197     1.0000 0.54405  0.85759  0.42990  Biso   1.000  H
  H198     1.0000 0.50303  0.77858  0.42100  Biso   1.000  H
  H199     1.0000 0.59461  0.70131  0.41610  Biso   1.000  H
  N31      1.0000 0.72164  0.74264  0.42112  Biso   1.000  N
  C189     1.0000 0.58637  0.66012  0.43231  Biso   1.000  C
  N32      1.0000 0.72176  0.74264  0.42112  Biso   1.000  N
  H200     1.0000 0.06004  0.37642  0.43900  Biso   1.000  H
  H201     1.0000 0.01968  0.41741  0.43040  Biso   1.000  H
  C190     1.0000 0.15279  0.50806  0.43453  Biso   1.000  C
  H202     1.0000 0.05998  0.37642  0.43900  Biso   1.000  H
  C191     1.0000 0.15273  0.50806  0.43453  Biso   1.000  C
  H203     1.0000 0.01974  0.41741  0.43040  Biso   1.000  H
  N33      1.0000 0.20453  0.32641  0.41653  Biso   1.000  N
  C192     1.0000 0.26037  0.46048  0.42773  Biso   1.000  C
  H204     1.0000 0.17028  0.32890  0.43220  Biso   1.000  H
  N34      1.0000 0.20447  0.32641  0.41653  Biso   1.000  N
  C193     1.0000 0.26043  0.46048  0.42773  Biso   1.000  C
  H205     1.0000 0.17034  0.32890  0.43220  Biso   1.000  H
  C194     1.0000 0.78460  0.51394  0.36467  Biso   1.000  C
  N35      1.0000 0.84269  0.65158  0.37513  Biso   1.000  N
  H206     1.0000 0.91494  0.62378  0.36390  Biso   1.000  H
  N36      1.0000 0.84278  0.65164  0.37513  Biso   1.000  N
  H207     1.0000 0.91506  0.62378  0.36390  Biso   1.000  H
  N37      1.0000 0.84275  0.65158  0.37513  Biso   1.000  N
  N38      1.0000 0.84273  0.65164  0.37513  Biso   1.000  N
  C195     1.0000 0.76727  0.51320  0.34442  Biso   1.000  C
  H208     1.0000 0.89233  0.62742  0.34260  Biso   1.000  H
  H209     1.0000 0.81184  0.64128  0.33830  Biso   1.000  H
  H210     1.0000 0.89245  0.62742  0.34260  Biso   1.000  H
  H211     1.0000 0.81196  0.64128  0.33830  Biso   1.000  H
  N39      1.0000 0.34838  0.19107  0.37513  Biso   1.000  N
  H212     1.0000 0.37618  0.29122  0.36390  Biso   1.000  H
  C196     1.0000 0.48610  0.27069  0.36467  Biso   1.000  C
  C197     1.0000 0.48605  0.27069  0.36467  Biso   1.000  C
  H213     1.0000 0.37624  0.29122  0.36390  Biso   1.000  H
  C198     1.0000 0.48677  0.25407  0.34442  Biso   1.000  C
  H214     1.0000 0.37256  0.26497  0.34260  Biso   1.000  H
  H215     1.0000 0.35872  0.17061  0.33830  Biso   1.000  H
  H216     1.0000 0.35866  0.17061  0.33830  Biso   1.000  H
  H217     1.0000 0.37262  0.26497  0.34260  Biso   1.000  H
  H218     1.0000 0.52582  0.75643  0.44380  Biso   1.000  H
  C199     1.0000 0.49194  0.64471  0.43453  Biso   1.000  C
  H219     1.0000 0.43116  0.71888  0.43770  Biso   1.000  H
  C200     1.0000 0.73683  0.72790  0.41144  Biso   1.000  C
  C201     1.0000 0.73689  0.72790  0.41144  Biso   1.000  C
  H220     1.0000 0.62353  0.68361  0.43900  Biso   1.000  H
  H221     1.0000 0.58253  0.60231  0.43040  Biso   1.000  H
  H222     1.0000 0.62364  0.68361  0.43900  Biso   1.000  H
  H223     1.0000 0.58264  0.60231  0.43040  Biso   1.000  H
  H224     1.0000 0.16200  0.54676  0.42810  Biso   1.000  H
  H225     1.0000 0.13839  0.53451  0.44090  Biso   1.000  H
  C202     1.0000 0.23742  0.50631  0.43681  Biso   1.000  C
  H226     1.0000 0.16194  0.54676  0.42810  Biso   1.000  H
  C203     1.0000 0.23736  0.50631  0.43681  Biso   1.000  C
  H227     1.0000 0.13845  0.53451  0.44090  Biso   1.000  H
  C204     1.0000 0.21247  0.25918  0.41900  Biso   1.000  C
  C205     1.0000 0.21253  0.25918  0.41900  Biso   1.000  C
  H228     1.0000 0.31361  0.45597  0.42990  Biso   1.000  H
  H229     1.0000 0.27558  0.49696  0.42100  Biso   1.000  H
  H230     1.0000 0.31355  0.45597  0.42990  Biso   1.000  H
  H231     1.0000 0.27562  0.49703  0.42100  Biso   1.000  H
  H232     1.0000 0.79735  0.48453  0.37080  Biso   1.000  H
  H233     1.0000 0.72344  0.50493  0.36570  Biso   1.000  H
  C206     1.0000 0.78824  0.47168  0.35408  Biso   1.000  C
  H234     1.0000 0.79746  0.48453  0.37080  Biso   1.000  H
  C207     1.0000 0.78839  0.47175  0.35408  Biso   1.000  C
  C208     1.0000 0.78827  0.47175  0.35408  Biso   1.000  C
  C209     1.0000 0.90844  0.67722  0.38206  Biso   1.000  C
  H235     1.0000 0.70429  0.50008  0.34490  Biso   1.000  H
  H236     1.0000 0.70432  0.50015  0.34490  Biso   1.000  H
  H237     1.0000 0.77373  0.48649  0.33750  Biso   1.000  H
  H238     1.0000 0.77378  0.48649  0.33750  Biso   1.000  H
  C210     1.0000 0.32280  0.23118  0.38206  Biso   1.000  C
  C211     1.0000 0.32274  0.23118  0.38206  Biso   1.000  C
  H239     1.0000 0.51548  0.31289  0.37080  Biso   1.000  H
  H240     1.0000 0.49508  0.21846  0.36570  Biso   1.000  H
  C212     1.0000 0.52829  0.31659  0.35408  Biso   1.000  C
  H241     1.0000 0.49511  0.21853  0.36570  Biso   1.000  H
  H242     1.0000 0.49502  0.21846  0.36570  Biso   1.000  H
  H243     1.0000 0.49989  0.20419  0.34490  Biso   1.000  H
  H244     1.0000 0.51348  0.28731  0.33750  Biso   1.000  H
  H245     1.0000 0.49984  0.20419  0.34490  Biso   1.000  H
  H246     1.0000 0.51353  0.28731  0.33750  Biso   1.000  H
  H247     1.0000 0.45318  0.61523  0.42810  Biso   1.000  H
  H248     1.0000 0.46548  0.60393  0.44090  Biso   1.000  H
  C213     1.0000 0.82190  0.73099  0.40765  Biso   1.000  C
  H249     1.0000 0.69120  0.71370  0.40610  Biso   1.000  H
  C214     1.0000 0.82196  0.73099  0.40765  Biso   1.000  C
  H250     1.0000 0.69126  0.71370  0.40610  Biso   1.000  H
  H251     1.0000 0.23058  0.47421  0.44380  Biso   1.000  H
  H252     1.0000 0.28771  0.56877  0.43770  Biso   1.000  H
  H253     1.0000 0.28765  0.56877  0.43770  Biso   1.000  H
  H254     1.0000 0.23064  0.47421  0.44380  Biso   1.000  H
  H255     1.0000 0.20099  0.23912  0.42640  Biso   1.000  H
  C215     1.0000 0.23836  0.20978  0.41135  Biso   1.000  C
  H256     1.0000 0.20104  0.23912  0.42640  Biso   1.000  H
  C216     1.0000 0.23842  0.20978  0.41135  Biso   1.000  C
  H257     1.0000 0.74452  0.40640  0.35430  Biso   1.000  H
  H258     1.0000 0.84911  0.47942  0.35310  Biso   1.000  H
  H259     1.0000 0.84917  0.47942  0.35310  Biso   1.000  H
  C217     1.0000 0.90288  0.70690  0.39308  Biso   1.000  C
  H260     1.0000 0.96110  0.67648  0.37990  Biso   1.000  H
  C218     1.0000 0.90293  0.70690  0.39308  Biso   1.000  C
  H261     1.0000 0.96122  0.67648  0.37990  Biso   1.000  H
  C219     1.0000 0.29307  0.19598  0.39308  Biso   1.000  C
  H262     1.0000 0.32349  0.28469  0.37990  Biso   1.000  H
  C220     1.0000 0.29313  0.19598  0.39308  Biso   1.000  C
  H263     1.0000 0.59361  0.33813  0.35430  Biso   1.000  H
  H264     1.0000 0.52057  0.36969  0.35310  Biso   1.000  H
  H265     1.0000 0.59355  0.33813  0.35430  Biso   1.000  H
  H266     1.0000 0.52063  0.36969  0.35310  Biso   1.000  H
  C221     1.0000 0.89397  0.75879  0.41453  Biso   1.000  C
  C222     1.0000 0.82669  0.70771  0.39707  Biso   1.000  C
  C223     1.0000 0.82675  0.70771  0.39707  Biso   1.000  C
  C224     1.0000 0.26776  0.24397  0.40055  Biso   1.000  C
  C225     1.0000 0.26781  0.24397  0.40055  Biso   1.000  C
  C226     1.0000 0.24118  0.13521  0.41453  Biso   1.000  C
  C227     1.0000 0.24124  0.13521  0.41453  Biso   1.000  C
  C228     1.0000 0.97620  0.73221  0.40055  Biso   1.000  C
  C229     1.0000 0.97626  0.73221  0.40055  Biso   1.000  C
  C230     1.0000 0.29229  0.11899  0.39707  Biso   1.000  C
  C231     1.0000 0.97133  0.76162  0.41135  Biso   1.000  C
  C232     1.0000 0.97144  0.76162  0.41135  Biso   1.000  C
  H267     1.0000 0.88992  0.77669  0.42180  Biso   1.000  H
  H268     1.0000 0.89004  0.77669  0.42180  Biso   1.000  H
  H269     1.0000 0.77703  0.69162  0.39230  Biso   1.000  H
  H270     1.0000 0.77715  0.69162  0.39230  Biso   1.000  H
  H271     1.0000 0.27062  0.29842  0.39830  Biso   1.000  H
  H272     1.0000 0.27056  0.29842  0.39830  Biso   1.000  H
  C233     1.0000 0.26899  0.09093  0.40765  Biso   1.000  C
  C234     1.0000 0.26904  0.09093  0.40765  Biso   1.000  C
  H273     1.0000 0.22327  0.11327  0.42180  Biso   1.000  H
  H274     1.0000 0.02783  0.72938  0.39830  Biso   1.000  H
  H275     1.0000 0.30840  0.08547  0.39230  Biso   1.000  H
  H276     1.0000 0.30834  0.08547  0.39230  Biso   1.000  H
  C235     1.0000 0.04676  0.78753  0.41900  Biso   1.000  C
  C236     1.0000 0.04665  0.78753  0.41900  Biso   1.000  C
  C237     1.0000 0.27210  0.00902  0.41144  Biso   1.000  C
  N40      1.0000 0.12193  0.79554  0.41653  Biso   1.000  N
  H277     1.0000 0.03812  0.79904  0.42640  Biso   1.000  H
  H278     1.0000 0.28631  0.97752  0.40610  Biso   1.000  H
  N41      1.0000 0.25741  0.97907  0.42112  Biso   1.000  N
  N42      1.0000 0.25745  0.97914  0.42112  Biso   1.000  N
  C238     1.0000 0.18521  0.81869  0.42550  Biso   1.000  C
  C239     1.0000 0.27263  0.90342  0.42291  Biso   1.000  C
  C240     1.0000 0.20017  0.73961  0.42773  Biso   1.000  C
  H279     1.0000 0.15867  0.82973  0.43220  Biso   1.000  H
  C241     1.0000 0.20005  0.73961  0.42773  Biso   1.000  C
  H280     1.0000 0.15855  0.82973  0.43220  Biso   1.000  H
  H281     1.0000 0.29876  0.89333  0.41610  Biso   1.000  H
  C242     1.0000 0.33997  0.92630  0.43231  Biso   1.000  C
  C243     1.0000 0.33985  0.92630  0.43231  Biso   1.000  C
  H282     1.0000 0.29871  0.89333  0.41610  Biso   1.000  H
  H283     1.0000 0.22141  0.72440  0.42100  Biso   1.000  H
  C244     1.0000 0.26897  0.76263  0.43681  Biso   1.000  C
  H284     1.0000 0.14246  0.68644  0.42990  Biso   1.000  H
  C245     1.0000 0.26885  0.76263  0.43681  Biso   1.000  C
  C246     1.0000 0.35533  0.84722  0.43453  Biso   1.000  C
  H285     1.0000 0.31646  0.94003  0.43900  Biso   1.000  H
  H286     1.0000 0.39767  0.98028  0.43040  Biso   1.000  H
  H287     1.0000 0.31635  0.94003  0.43900  Biso   1.000  H
  H288     1.0000 0.39761  0.98028  0.43040  Biso   1.000  H
  H289     1.0000 0.28110  0.71228  0.43770  Biso   1.000  H
  H290     1.0000 0.24369  0.76942  0.44380  Biso   1.000  H
  H291     1.0000 0.24357  0.76942  0.44380  Biso   1.000  H
  H292     1.0000 0.39610  0.86163  0.44090  Biso   1.000  H
  H293     1.0000 0.38482  0.83800  0.42810  Biso   1.000  H
  H294     1.0000 0.38476  0.83800  0.42810  Biso   1.000  H
  C247     1.0000 0.68336  0.21173  0.35408  Biso   1.000  C
  C248     1.0000 0.74587  0.23266  0.34442  Biso   1.000  C
  C249     1.0000 0.74590  0.23273  0.34442  Biso   1.000  C
  C250     1.0000 0.72930  0.21537  0.36467  Biso   1.000  C
  C251     1.0000 0.72924  0.21537  0.36467  Biso   1.000  C
  H295     1.0000 0.66187  0.25548  0.35430  Biso   1.000  H
  H296     1.0000 0.63026  0.15089  0.35310  Biso   1.000  H
  H297     1.0000 0.66192  0.25548  0.35430  Biso   1.000  H
  H298     1.0000 0.63032  0.15089  0.35310  Biso   1.000  H
  C252     1.0000 0.78398  0.16947  0.34422  Biso   1.000  C
  C253     1.0000 0.78392  0.16947  0.34422  Biso   1.000  C
  H299     1.0000 0.79582  0.29573  0.34490  Biso   1.000  H
  H300     1.0000 0.71268  0.22620  0.33750  Biso   1.000  H
  C254     1.0000 0.68338  0.21166  0.35408  Biso   1.000  C
  C255     1.0000 0.68341  0.21173  0.35408  Biso   1.000  C
  H301     1.0000 0.79576  0.29573  0.34490  Biso   1.000  H
  C256     1.0000 0.76100  0.14753  0.36467  Biso   1.000  C
  H302     1.0000 0.68706  0.20258  0.37080  Biso   1.000  H
  H303     1.0000 0.78148  0.27661  0.36570  Biso   1.000  H
  H304     1.0000 0.68711  0.20258  0.37080  Biso   1.000  H
  H305     1.0000 0.78154  0.27661  0.36570  Biso   1.000  H
  H306     1.0000 0.73499  0.10762  0.34260  Biso   1.000  H
  C257     1.0000 0.82708  0.16987  0.35508  Biso   1.000  C
  H307     1.0000 0.82938  0.18811  0.33830  Biso   1.000  H
  H308     1.0000 0.82944  0.18811  0.33830  Biso   1.000  H
  C258     1.0000 0.82702  0.16987  0.35508  Biso   1.000  C
  N43      1.0000 0.80890  0.15728  0.37513  Biso   1.000  N
  H309     1.0000 0.70882  0.08500  0.36390  Biso   1.000  H
  H310     1.0000 0.70876  0.08500  0.36390  Biso   1.000  H
  N44      1.0000 0.80884  0.15728  0.37513  Biso   1.000  N
  N45      1.0000 0.85079  0.09698  0.35468  Biso   1.000  N
  H311     1.0000 0.88228  0.22957  0.35630  Biso   1.000  H
  N46      1.0000 0.85073  0.09698  0.35468  Biso   1.000  N
  H312     1.0000 0.88223  0.22957  0.35630  Biso   1.000  H
  C259     1.0000 0.76877  0.09160  0.38206  Biso   1.000  C
  C260     1.0000 0.76883  0.09160  0.38206  Biso   1.000  C
  C261     1.0000 0.93477  0.12471  0.35361  Biso   1.000  C
  C262     1.0000 0.93483  0.12471  0.35361  Biso   1.000  C
  C263     1.0000 0.80399  0.09712  0.39308  Biso   1.000  C
  H313     1.0000 0.71531  0.03877  0.37990  Biso   1.000  H
  H314     1.0000 0.71528  0.03883  0.37990  Biso   1.000  H
  H315     1.0000 0.71525  0.03877  0.37990  Biso   1.000  H
  H316     1.0000 0.97636  0.18737  0.35310  Biso   1.000  H
  H317     1.0000 0.97641  0.18737  0.35310  Biso   1.000  H
  C264     1.0000 0.96782  0.05862  0.35314  Biso   1.000  C
  C265     1.0000 0.96776  0.05862  0.35314  Biso   1.000  C
  C266     1.0000 0.75598  0.02382  0.40055  Biso   1.000  C
  C267     1.0000 0.88096  0.17330  0.39707  Biso   1.000  C
  C268     1.0000 0.75604  0.02382  0.40055  Biso   1.000  C
  C269     1.0000 0.88102  0.17330  0.39707  Biso   1.000  C
  C270     1.0000 0.90604  0.96433  0.35324  Biso   1.000  C
  C271     1.0000 0.90610  0.96433  0.35324  Biso   1.000  C
  C272     1.0000 0.05819  0.09389  0.35324  Biso   1.000  C
  C273     1.0000 0.79019  0.02860  0.41135  Biso   1.000  C
  H318     1.0000 0.70155  0.97220  0.39830  Biso   1.000  H
  H319     1.0000 0.70167  0.97220  0.39830  Biso   1.000  H
  H320     1.0000 0.91451  0.22290  0.39230  Biso   1.000  H
  C274     1.0000 0.90906  0.17808  0.40765  Biso   1.000  C
  C275     1.0000 0.90911  0.17808  0.40765  Biso   1.000  C
  H321     1.0000 0.91445  0.22290  0.39230  Biso   1.000  H
  H322     1.0000 0.84284  0.94098  0.35340  Biso   1.000  H
  C276     1.0000 0.94137  0.90921  0.35314  Biso   1.000  C
  H323     1.0000 0.84296  0.94098  0.35340  Biso   1.000  H
  C277     1.0000 0.09081  0.03217  0.35314  Biso   1.000  C
  H324     1.0000 0.09807  0.15708  0.35340  Biso   1.000  H
  C278     1.0000 0.09075  0.03217  0.35314  Biso   1.000  C
  H325     1.0000 0.09813  0.15708  0.35340  Biso   1.000  H
  C279     1.0000 0.86480  0.10600  0.41453  Biso   1.000  C
  C280     1.0000 0.74082  0.95329  0.41900  Biso   1.000  C
  C281     1.0000 0.86474  0.10600  0.41453  Biso   1.000  C
  C282     1.0000 0.99096  0.26308  0.41144  Biso   1.000  C
  C283     1.0000 0.99102  0.26308  0.41144  Biso   1.000  C
  C284     1.0000 0.87525  0.81007  0.35361  Biso   1.000  C
  C285     1.0000 0.87529  0.81014  0.35361  Biso   1.000  C
  C286     1.0000 0.03576  0.94178  0.35324  Biso   1.000  C
  C287     1.0000 0.03565  0.94178  0.35324  Biso   1.000  C
  C288     1.0000 0.18992  0.06522  0.35361  Biso   1.000  C
  C289     1.0000 0.18986  0.06522  0.35361  Biso   1.000  C
  H326     1.0000 0.88666  0.10997  0.42180  Biso   1.000  H
  H327     1.0000 0.88672  0.10997  0.42180  Biso   1.000  H
  N47      1.0000 0.67357  0.87812  0.41653  Biso   1.000  N
  H328     1.0000 0.76093  0.96191  0.42640  Biso   1.000  H
  N48      1.0000 0.02089  0.27829  0.42112  Biso   1.000  N
  H329     1.0000 0.02249  0.30878  0.40610  Biso   1.000  H
  N49      1.0000 0.02094  0.27829  0.42112  Biso   1.000  N
  H330     1.0000 0.81261  0.78901  0.35310  Biso   1.000  H
  N50      1.0000 0.90302  0.75381  0.35468  Biso   1.000  N
  H331     1.0000 0.05906  0.90187  0.35340  Biso   1.000  H
  H332     1.0000 0.05900  0.90187  0.35340  Biso   1.000  H
  N51      1.0000 0.24620  0.14921  0.35468  Biso   1.000  N
  H333     1.0000 0.21103  0.02362  0.35310  Biso   1.000  H
  H334     1.0000 0.21097  0.02362  0.35310  Biso   1.000  H
  C290     1.0000 0.63345  0.81478  0.42550  Biso   1.000  C
  C291     1.0000 0.63357  0.81478  0.42550  Biso   1.000  C
  C292     1.0000 0.09660  0.36922  0.42291  Biso   1.000  C
  C293     1.0000 0.09666  0.36922  0.42291  Biso   1.000  C
  C294     1.0000 0.83013  0.65723  0.35508  Biso   1.000  C
  C295     1.0000 0.34279  0.17290  0.35508  Biso   1.000  C
  C296     1.0000 0.53952  0.79991  0.42773  Biso   1.000  C
  C297     1.0000 0.63081  0.72743  0.42291  Biso   1.000  C
  H335     1.0000 0.67108  0.84144  0.43220  Biso   1.000  H
  C298     1.0000 0.63086  0.72743  0.42291  Biso   1.000  C
  H336     1.0000 0.10668  0.40536  0.41610  Biso   1.000  H
  C299     1.0000 0.07366  0.41357  0.43231  Biso   1.000  C
  C300     1.0000 0.18131  0.36646  0.42550  Biso   1.000  C
  H337     1.0000 0.10672  0.40543  0.41610  Biso   1.000  H
  C301     1.0000 0.18128  0.36653  0.42550  Biso   1.000  C
  C302     1.0000 0.18125  0.36646  0.42550  Biso   1.000  C
  C303     1.0000 0.07372  0.41357  0.43231  Biso   1.000  C
  C304     1.0000 0.18134  0.36653  0.42550  Biso   1.000  C
  C305     1.0000 0.85250  0.61348  0.36467  Biso   1.000  C
  C306     1.0000 0.83044  0.61449  0.34422  Biso   1.000  C
  H338     1.0000 0.77041  0.65272  0.35630  Biso   1.000  H
  C307     1.0000 0.83050  0.61449  0.34422  Biso   1.000  C
  H339     1.0000 0.77047  0.65272  0.35630  Biso   1.000  H
  C308     1.0000 0.38650  0.23899  0.36467  Biso   1.000  C
  C309     1.0000 0.38548  0.21597  0.34422  Biso   1.000  C
  H340     1.0000 0.34731  0.11771  0.35630  Biso   1.000  H
  C310     1.0000 0.38644  0.23899  0.36467  Biso   1.000  C
  H341     1.0000 0.34725  0.11771  0.35630  Biso   1.000  H
  C311     1.0000 0.49370  0.73113  0.43681  Biso   1.000  C
  H342     1.0000 0.54400  0.85759  0.42990  Biso   1.000  H
  H343     1.0000 0.50292  0.77858  0.42100  Biso   1.000  H
  H344     1.0000 0.54405  0.85759  0.42990  Biso   1.000  H
  H345     1.0000 0.50303  0.77858  0.42100  Biso   1.000  H
  H346     1.0000 0.59461  0.70131  0.41610  Biso   1.000  H
  N52      1.0000 0.72164  0.74264  0.42112  Biso   1.000  N
  C312     1.0000 0.58637  0.66012  0.43231  Biso   1.000  C
  N53      1.0000 0.72176  0.74264  0.42112  Biso   1.000  N
  H347     1.0000 0.06004  0.37642  0.43900  Biso   1.000  H
  H348     1.0000 0.01968  0.41741  0.43040  Biso   1.000  H
  C313     1.0000 0.15279  0.50806  0.43453  Biso   1.000  C
  H349     1.0000 0.05998  0.37642  0.43900  Biso   1.000  H
  C314     1.0000 0.15273  0.50806  0.43453  Biso   1.000  C
  H350     1.0000 0.01974  0.41741  0.43040  Biso   1.000  H
  N54      1.0000 0.20453  0.32641  0.41653  Biso   1.000  N
  C315     1.0000 0.26037  0.46048  0.42773  Biso   1.000  C
  H351     1.0000 0.17028  0.32890  0.43220  Biso   1.000  H
  N55      1.0000 0.20447  0.32641  0.41653  Biso   1.000  N
  C316     1.0000 0.26043  0.46048  0.42773  Biso   1.000  C
  H352     1.0000 0.17034  0.32890  0.43220  Biso   1.000  H
  C317     1.0000 0.78460  0.51394  0.36467  Biso   1.000  C
  N56      1.0000 0.84269  0.65158  0.37513  Biso   1.000  N
  H353     1.0000 0.91494  0.62378  0.36390  Biso   1.000  H
  N57      1.0000 0.84278  0.65164  0.37513  Biso   1.000  N
  H354     1.0000 0.91506  0.62378  0.36390  Biso   1.000  H
  N58      1.0000 0.84275  0.65158  0.37513  Biso   1.000  N
  N59      1.0000 0.84273  0.65164  0.37513  Biso   1.000  N
  C318     1.0000 0.76727  0.51320  0.34442  Biso   1.000  C
  H355     1.0000 0.89233  0.62742  0.34260  Biso   1.000  H
  H356     1.0000 0.81184  0.64128  0.33830  Biso   1.000  H
  H357     1.0000 0.89245  0.62742  0.34260  Biso   1.000  H
  H358     1.0000 0.81196  0.64128  0.33830  Biso   1.000  H
  N60      1.0000 0.34838  0.19107  0.37513  Biso   1.000  N
  H359     1.0000 0.37618  0.29122  0.36390  Biso   1.000  H
  C319     1.0000 0.48610  0.27069  0.36467  Biso   1.000  C
  C320     1.0000 0.48605  0.27069  0.36467  Biso   1.000  C
  H360     1.0000 0.37624  0.29122  0.36390  Biso   1.000  H
  C321     1.0000 0.48677  0.25407  0.34442  Biso   1.000  C
  H361     1.0000 0.37256  0.26497  0.34260  Biso   1.000  H
  H362     1.0000 0.35872  0.17061  0.33830  Biso   1.000  H
  H363     1.0000 0.35866  0.17061  0.33830  Biso   1.000  H
  H364     1.0000 0.37262  0.26497  0.34260  Biso   1.000  H
  H365     1.0000 0.52582  0.75643  0.44380  Biso   1.000  H
  C322     1.0000 0.49194  0.64471  0.43453  Biso   1.000  C
  H366     1.0000 0.43116  0.71888  0.43770  Biso   1.000  H
  C323     1.0000 0.73683  0.72790  0.41144  Biso   1.000  C
  C324     1.0000 0.73689  0.72790  0.41144  Biso   1.000  C
  H367     1.0000 0.62353  0.68361  0.43900  Biso   1.000  H
  H368     1.0000 0.58253  0.60231  0.43040  Biso   1.000  H
  H369     1.0000 0.62364  0.68361  0.43900  Biso   1.000  H
  H370     1.0000 0.58264  0.60231  0.43040  Biso   1.000  H
  H371     1.0000 0.16200  0.54676  0.42810  Biso   1.000  H
  H372     1.0000 0.13839  0.53451  0.44090  Biso   1.000  H
  C325     1.0000 0.23742  0.50631  0.43681  Biso   1.000  C
  H373     1.0000 0.16194  0.54676  0.42810  Biso   1.000  H
  C326     1.0000 0.23736  0.50631  0.43681  Biso   1.000  C
  H374     1.0000 0.13845  0.53451  0.44090  Biso   1.000  H
  C327     1.0000 0.21247  0.25918  0.41900  Biso   1.000  C
  C328     1.0000 0.21253  0.25918  0.41900  Biso   1.000  C
  H375     1.0000 0.31361  0.45597  0.42990  Biso   1.000  H
  H376     1.0000 0.27558  0.49696  0.42100  Biso   1.000  H
  H377     1.0000 0.31355  0.45597  0.42990  Biso   1.000  H
  H378     1.0000 0.27562  0.49703  0.42100  Biso   1.000  H
  H379     1.0000 0.79735  0.48453  0.37080  Biso   1.000  H
  H380     1.0000 0.72344  0.50493  0.36570  Biso   1.000  H
  C329     1.0000 0.78824  0.47168  0.35408  Biso   1.000  C
  H381     1.0000 0.79746  0.48453  0.37080  Biso   1.000  H
  C330     1.0000 0.78839  0.47175  0.35408  Biso   1.000  C
  C331     1.0000 0.78827  0.47175  0.35408  Biso   1.000  C
  C332     1.0000 0.90844  0.67722  0.38206  Biso   1.000  C
  H382     1.0000 0.70429  0.50008  0.34490  Biso   1.000  H
  H383     1.0000 0.70432  0.50015  0.34490  Biso   1.000  H
  H384     1.0000 0.77373  0.48649  0.33750  Biso   1.000  H
  H385     1.0000 0.77378  0.48649  0.33750  Biso   1.000  H
  C333     1.0000 0.32280  0.23118  0.38206  Biso   1.000  C
  C334     1.0000 0.32274  0.23118  0.38206  Biso   1.000  C
  H386     1.0000 0.51548  0.31289  0.37080  Biso   1.000  H
  H387     1.0000 0.49508  0.21846  0.36570  Biso   1.000  H
  C335     1.0000 0.52829  0.31659  0.35408  Biso   1.000  C
  H388     1.0000 0.49511  0.21853  0.36570  Biso   1.000  H
  H389     1.0000 0.49502  0.21846  0.36570  Biso   1.000  H
  H390     1.0000 0.49989  0.20419  0.34490  Biso   1.000  H
  H391     1.0000 0.51348  0.28731  0.33750  Biso   1.000  H
  H392     1.0000 0.49984  0.20419  0.34490  Biso   1.000  H
  H393     1.0000 0.51353  0.28731  0.33750  Biso   1.000  H
  H394     1.0000 0.45318  0.61523  0.42810  Biso   1.000  H
  H395     1.0000 0.46548  0.60393  0.44090  Biso   1.000  H
  C336     1.0000 0.82190  0.73099  0.40765  Biso   1.000  C
  H396     1.0000 0.69120  0.71370  0.40610  Biso   1.000  H
  C337     1.0000 0.82196  0.73099  0.40765  Biso   1.000  C
  H397     1.0000 0.69126  0.71370  0.40610  Biso   1.000  H
  H398     1.0000 0.23058  0.47421  0.44380  Biso   1.000  H
  H399     1.0000 0.28771  0.56877  0.43770  Biso   1.000  H
  H400     1.0000 0.28765  0.56877  0.43770  Biso   1.000  H
  H401     1.0000 0.23064  0.47421  0.44380  Biso   1.000  H
  H402     1.0000 0.20099  0.23912  0.42640  Biso   1.000  H
  C338     1.0000 0.23836  0.20978  0.41135  Biso   1.000  C
  H403     1.0000 0.20104  0.23912  0.42640  Biso   1.000  H
  C339     1.0000 0.23842  0.20978  0.41135  Biso   1.000  C
  H404     1.0000 0.74452  0.40640  0.35430  Biso   1.000  H
  H405     1.0000 0.84911  0.47942  0.35310  Biso   1.000  H
  H406     1.0000 0.84917  0.47942  0.35310  Biso   1.000  H
  C340     1.0000 0.90288  0.70690  0.39308  Biso   1.000  C
  H407     1.0000 0.96110  0.67648  0.37990  Biso   1.000  H
  C341     1.0000 0.90293  0.70690  0.39308  Biso   1.000  C
  H408     1.0000 0.96122  0.67648  0.37990  Biso   1.000  H
  C342     1.0000 0.29307  0.19598  0.39308  Biso   1.000  C
  H409     1.0000 0.32349  0.28469  0.37990  Biso   1.000  H
  C343     1.0000 0.29313  0.19598  0.39308  Biso   1.000  C
  H410     1.0000 0.59361  0.33813  0.35430  Biso   1.000  H
  H411     1.0000 0.52057  0.36969  0.35310  Biso   1.000  H
  H412     1.0000 0.59355  0.33813  0.35430  Biso   1.000  H
  H413     1.0000 0.52063  0.36969  0.35310  Biso   1.000  H
  C344     1.0000 0.89397  0.75879  0.41453  Biso   1.000  C
  C345     1.0000 0.82669  0.70771  0.39707  Biso   1.000  C
  C346     1.0000 0.82675  0.70771  0.39707  Biso   1.000  C
  C347     1.0000 0.26776  0.24397  0.40055  Biso   1.000  C
  C348     1.0000 0.26781  0.24397  0.40055  Biso   1.000  C
  C349     1.0000 0.24118  0.13521  0.41453  Biso   1.000  C
  C350     1.0000 0.24124  0.13521  0.41453  Biso   1.000  C
  C351     1.0000 0.97620  0.73221  0.40055  Biso   1.000  C
  C352     1.0000 0.97626  0.73221  0.40055  Biso   1.000  C
  C353     1.0000 0.29229  0.11899  0.39707  Biso   1.000  C
  C354     1.0000 0.97133  0.76162  0.41135  Biso   1.000  C
  C355     1.0000 0.97144  0.76162  0.41135  Biso   1.000  C
  H414     1.0000 0.88992  0.77669  0.42180  Biso   1.000  H
  H415     1.0000 0.89004  0.77669  0.42180  Biso   1.000  H
  H416     1.0000 0.77703  0.69162  0.39230  Biso   1.000  H
  H417     1.0000 0.77715  0.69162  0.39230  Biso   1.000  H
  H418     1.0000 0.27062  0.29842  0.39830  Biso   1.000  H
  H419     1.0000 0.27056  0.29842  0.39830  Biso   1.000  H
  C356     1.0000 0.26899  0.09093  0.40765  Biso   1.000  C
  C357     1.0000 0.26904  0.09093  0.40765  Biso   1.000  C
  H420     1.0000 0.22327  0.11327  0.42180  Biso   1.000  H
  H421     1.0000 0.02783  0.72938  0.39830  Biso   1.000  H
  H422     1.0000 0.30840  0.08547  0.39230  Biso   1.000  H
  H423     1.0000 0.30834  0.08547  0.39230  Biso   1.000  H
  C358     1.0000 0.04676  0.78753  0.41900  Biso   1.000  C
  C359     1.0000 0.04665  0.78753  0.41900  Biso   1.000  C
  C360     1.0000 0.27210  0.00902  0.41144  Biso   1.000  C
  N61      1.0000 0.12193  0.79554  0.41653  Biso   1.000  N
  H424     1.0000 0.03812  0.79904  0.42640  Biso   1.000  H
  H425     1.0000 0.28631  0.97752  0.40610  Biso   1.000  H
  N62      1.0000 0.25741  0.97907  0.42112  Biso   1.000  N
  N63      1.0000 0.25745  0.97914  0.42112  Biso   1.000  N
  C361     1.0000 0.18521  0.81869  0.42550  Biso   1.000  C
  C362     1.0000 0.27263  0.90342  0.42291  Biso   1.000  C
  C363     1.0000 0.20017  0.73961  0.42773  Biso   1.000  C
  H426     1.0000 0.15867  0.82973  0.43220  Biso   1.000  H
  C364     1.0000 0.20005  0.73961  0.42773  Biso   1.000  C
  H427     1.0000 0.15855  0.82973  0.43220  Biso   1.000  H
  H428     1.0000 0.29876  0.89333  0.41610  Biso   1.000  H
  C365     1.0000 0.33997  0.92630  0.43231  Biso   1.000  C
  C366     1.0000 0.33985  0.92630  0.43231  Biso   1.000  C
  H429     1.0000 0.29871  0.89333  0.41610  Biso   1.000  H
  H430     1.0000 0.22141  0.72440  0.42100  Biso   1.000  H
  C367     1.0000 0.26897  0.76263  0.43681  Biso   1.000  C
  H431     1.0000 0.14246  0.68644  0.42990  Biso   1.000  H
  C368     1.0000 0.26885  0.76263  0.43681  Biso   1.000  C
  C369     1.0000 0.35533  0.84722  0.43453  Biso   1.000  C
  H432     1.0000 0.31646  0.94003  0.43900  Biso   1.000  H
  H433     1.0000 0.39767  0.98028  0.43040  Biso   1.000  H
  H434     1.0000 0.31635  0.94003  0.43900  Biso   1.000  H
  H435     1.0000 0.39761  0.98028  0.43040  Biso   1.000  H
  H436     1.0000 0.28110  0.71228  0.43770  Biso   1.000  H
  H437     1.0000 0.24369  0.76942  0.44380  Biso   1.000  H
  H438     1.0000 0.24357  0.76942  0.44380  Biso   1.000  H
  H439     1.0000 0.39610  0.86163  0.44090  Biso   1.000  H
  H440     1.0000 0.38482  0.83800  0.42810  Biso   1.000  H
  H441     1.0000 0.38476  0.83800  0.42810  Biso   1.000  H
  C370     1.0000 0.68336  0.21173  0.35408  Biso   1.000  C
  C371     1.0000 0.72930  0.21537  0.36467  Biso   1.000  C
  C372     1.0000 0.72924  0.21537  0.36467  Biso   1.000  C
  H442     1.0000 0.66192  0.25548  0.35430  Biso   1.000  H
  H443     1.0000 0.63032  0.15089  0.35310  Biso   1.000  H
  C373     1.0000 0.74587  0.23266  0.34442  Biso   1.000  C
  H444     1.0000 0.66187  0.25548  0.35430  Biso   1.000  H
  H445     1.0000 0.63026  0.15089  0.35310  Biso   1.000  H
  C374     1.0000 0.74590  0.23273  0.34442  Biso   1.000  C
  C375     1.0000 0.76100  0.14753  0.36467  Biso   1.000  C
  H446     1.0000 0.68711  0.20258  0.37080  Biso   1.000  H
  H447     1.0000 0.78154  0.27661  0.36570  Biso   1.000  H
  C376     1.0000 0.68338  0.21166  0.35408  Biso   1.000  C
  H448     1.0000 0.68706  0.20258  0.37080  Biso   1.000  H
  H449     1.0000 0.78148  0.27661  0.36570  Biso   1.000  H
  C377     1.0000 0.68341  0.21173  0.35408  Biso   1.000  C
  C378     1.0000 0.78398  0.16947  0.34422  Biso   1.000  C
  C379     1.0000 0.78392  0.16947  0.34422  Biso   1.000  C
  H450     1.0000 0.71268  0.22620  0.33750  Biso   1.000  H
  H451     1.0000 0.79582  0.29573  0.34490  Biso   1.000  H
  H452     1.0000 0.79576  0.29573  0.34490  Biso   1.000  H
  N64      1.0000 0.80890  0.15728  0.37513  Biso   1.000  N
  H453     1.0000 0.70882  0.08500  0.36390  Biso   1.000  H
  C380     1.0000 0.82708  0.16987  0.35508  Biso   1.000  C
  H454     1.0000 0.70876  0.08500  0.36390  Biso   1.000  H
  N65      1.0000 0.80884  0.15728  0.37513  Biso   1.000  N
  C381     1.0000 0.82702  0.16987  0.35508  Biso   1.000  C
  H455     1.0000 0.73499  0.10762  0.34260  Biso   1.000  H
  H456     1.0000 0.82944  0.18811  0.33830  Biso   1.000  H
  H457     1.0000 0.82938  0.18811  0.33830  Biso   1.000  H
  C382     1.0000 0.76883  0.09160  0.38206  Biso   1.000  C
  C383     1.0000 0.76877  0.09160  0.38206  Biso   1.000  C
  N66      1.0000 0.85079  0.09698  0.35468  Biso   1.000  N
  H458     1.0000 0.88228  0.22957  0.35630  Biso   1.000  H
  N67      1.0000 0.85073  0.09698  0.35468  Biso   1.000  N
  H459     1.0000 0.88223  0.22957  0.35630  Biso   1.000  H
  C384     1.0000 0.80399  0.09712  0.39308  Biso   1.000  C
  H460     1.0000 0.71531  0.03877  0.37990  Biso   1.000  H
  H461     1.0000 0.71528  0.03883  0.37990  Biso   1.000  H
  H462     1.0000 0.71525  0.03877  0.37990  Biso   1.000  H
  C385     1.0000 0.93483  0.12471  0.35361  Biso   1.000  C
  C386     1.0000 0.93477  0.12471  0.35361  Biso   1.000  C
  C387     1.0000 0.75604  0.02382  0.40055  Biso   1.000  C
  C388     1.0000 0.88102  0.17330  0.39707  Biso   1.000  C
  C389     1.0000 0.75598  0.02382  0.40055  Biso   1.000  C
  C390     1.0000 0.88096  0.17330  0.39707  Biso   1.000  C
  H463     1.0000 0.97641  0.18737  0.35310  Biso   1.000  H
  C391     1.0000 0.96782  0.05862  0.35314  Biso   1.000  C
  H464     1.0000 0.97636  0.18737  0.35310  Biso   1.000  H
  C392     1.0000 0.96776  0.05862  0.35314  Biso   1.000  C
  C393     1.0000 0.79019  0.02860  0.41135  Biso   1.000  C
  H465     1.0000 0.70155  0.97220  0.39830  Biso   1.000  H
  H466     1.0000 0.70167  0.97220  0.39830  Biso   1.000  H
  C394     1.0000 0.90911  0.17808  0.40765  Biso   1.000  C
  H467     1.0000 0.91451  0.22290  0.39230  Biso   1.000  H
  C395     1.0000 0.90906  0.17808  0.40765  Biso   1.000  C
  H468     1.0000 0.91445  0.22290  0.39230  Biso   1.000  H
  C396     1.0000 0.90604  0.96433  0.35324  Biso   1.000  C
  C397     1.0000 0.90610  0.96433  0.35324  Biso   1.000  C
  C398     1.0000 0.05819  0.09389  0.35324  Biso   1.000  C
  C399     1.0000 0.74082  0.95329  0.41900  Biso   1.000  C
  C400     1.0000 0.86480  0.10600  0.41453  Biso   1.000  C
  C401     1.0000 0.86474  0.10600  0.41453  Biso   1.000  C
  C402     1.0000 0.99102  0.26308  0.41144  Biso   1.000  C
  C403     1.0000 0.99096  0.26308  0.41144  Biso   1.000  C
  H469     1.0000 0.84284  0.94098  0.35340  Biso   1.000  H
  C404     1.0000 0.94137  0.90921  0.35314  Biso   1.000  C
  H470     1.0000 0.84296  0.94098  0.35340  Biso   1.000  H
  C405     1.0000 0.09081  0.03217  0.35314  Biso   1.000  C
  H471     1.0000 0.09807  0.15708  0.35340  Biso   1.000  H
  C406     1.0000 0.09075  0.03217  0.35314  Biso   1.000  C
  H472     1.0000 0.09813  0.15708  0.35340  Biso   1.000  H
  N68      1.0000 0.67357  0.87812  0.41653  Biso   1.000  N
  H473     1.0000 0.76093  0.96191  0.42640  Biso   1.000  H
  H474     1.0000 0.88672  0.10997  0.42180  Biso   1.000  H
  H475     1.0000 0.88666  0.10997  0.42180  Biso   1.000  H
  N69      1.0000 0.02089  0.27829  0.42112  Biso   1.000  N
  H476     1.0000 0.02249  0.30878  0.40610  Biso   1.000  H
  N70      1.0000 0.02094  0.27829  0.42112  Biso   1.000  N
  C407     1.0000 0.87525  0.81007  0.35361  Biso   1.000  C
  C408     1.0000 0.87529  0.81014  0.35361  Biso   1.000  C
  C409     1.0000 0.03576  0.94178  0.35324  Biso   1.000  C
  C410     1.0000 0.03565  0.94178  0.35324  Biso   1.000  C
  C411     1.0000 0.18992  0.06522  0.35361  Biso   1.000  C
  C412     1.0000 0.18986  0.06522  0.35361  Biso   1.000  C
  C413     1.0000 0.63345  0.81478  0.42550  Biso   1.000  C
  C414     1.0000 0.63357  0.81478  0.42550  Biso   1.000  C
  C415     1.0000 0.09660  0.36922  0.42291  Biso   1.000  C
  C416     1.0000 0.09666  0.36922  0.42291  Biso   1.000  C
  H477     1.0000 0.81261  0.78901  0.35310  Biso   1.000  H
  N71      1.0000 0.90302  0.75381  0.35468  Biso   1.000  N
  H478     1.0000 0.05906  0.90187  0.35340  Biso   1.000  H
  H479     1.0000 0.05900  0.90187  0.35340  Biso   1.000  H
  N72      1.0000 0.24620  0.14921  0.35468  Biso   1.000  N
  H480     1.0000 0.21103  0.02362  0.35310  Biso   1.000  H
  H481     1.0000 0.21097  0.02362  0.35310  Biso   1.000  H
  C417     1.0000 0.53952  0.79991  0.42773  Biso   1.000  C
  C418     1.0000 0.63081  0.72743  0.42291  Biso   1.000  C
  H482     1.0000 0.67108  0.84144  0.43220  Biso   1.000  H
  C419     1.0000 0.63086  0.72743  0.42291  Biso   1.000  C
  H483     1.0000 0.10668  0.40536  0.41610  Biso   1.000  H
  C420     1.0000 0.07366  0.41357  0.43231  Biso   1.000  C
  C421     1.0000 0.18131  0.36646  0.42550  Biso   1.000  C
  H484     1.0000 0.10672  0.40543  0.41610  Biso   1.000  H
  C422     1.0000 0.18128  0.36653  0.42550  Biso   1.000  C
  C423     1.0000 0.18125  0.36646  0.42550  Biso   1.000  C
  C424     1.0000 0.07372  0.41357  0.43231  Biso   1.000  C
  C425     1.0000 0.18134  0.36653  0.42550  Biso   1.000  C
  C426     1.0000 0.83013  0.65723  0.35508  Biso   1.000  C
  C427     1.0000 0.34279  0.17290  0.35508  Biso   1.000  C
  C428     1.0000 0.49370  0.73113  0.43681  Biso   1.000  C
  H485     1.0000 0.54400  0.85759  0.42990  Biso   1.000  H
  H486     1.0000 0.50292  0.77858  0.42100  Biso   1.000  H
  H487     1.0000 0.54405  0.85759  0.42990  Biso   1.000  H
  H488     1.0000 0.50303  0.77858  0.42100  Biso   1.000  H
  H489     1.0000 0.59461  0.70131  0.41610  Biso   1.000  H
  N73      1.0000 0.72164  0.74264  0.42112  Biso   1.000  N
  C429     1.0000 0.58637  0.66012  0.43231  Biso   1.000  C
  N74      1.0000 0.72176  0.74264  0.42112  Biso   1.000  N
  H490     1.0000 0.06004  0.37642  0.43900  Biso   1.000  H
  H491     1.0000 0.01968  0.41741  0.43040  Biso   1.000  H
  C430     1.0000 0.15279  0.50806  0.43453  Biso   1.000  C
  H492     1.0000 0.05998  0.37642  0.43900  Biso   1.000  H
  C431     1.0000 0.15273  0.50806  0.43453  Biso   1.000  C
  H493     1.0000 0.01974  0.41741  0.43040  Biso   1.000  H
  N75      1.0000 0.20453  0.32641  0.41653  Biso   1.000  N
  C432     1.0000 0.26037  0.46048  0.42773  Biso   1.000  C
  H494     1.0000 0.17028  0.32890  0.43220  Biso   1.000  H
  N76      1.0000 0.20447  0.32641  0.41653  Biso   1.000  N
  C433     1.0000 0.26043  0.46048  0.42773  Biso   1.000  C
  H495     1.0000 0.17034  0.32890  0.43220  Biso   1.000  H
  C434     1.0000 0.85250  0.61348  0.36467  Biso   1.000  C
  C435     1.0000 0.83044  0.61449  0.34422  Biso   1.000  C
  H496     1.0000 0.77041  0.65272  0.35630  Biso   1.000  H
  C436     1.0000 0.83050  0.61449  0.34422  Biso   1.000  C
  H497     1.0000 0.77047  0.65272  0.35630  Biso   1.000  H
  C437     1.0000 0.38650  0.23899  0.36467  Biso   1.000  C
  C438     1.0000 0.38548  0.21597  0.34422  Biso   1.000  C
  H498     1.0000 0.34731  0.11771  0.35630  Biso   1.000  H
  C439     1.0000 0.38644  0.23899  0.36467  Biso   1.000  C
  H499     1.0000 0.34725  0.11771  0.35630  Biso   1.000  H
  H500     1.0000 0.52582  0.75643  0.44380  Biso   1.000  H
  C440     1.0000 0.49194  0.64471  0.43453  Biso   1.000  C
  H501     1.0000 0.43116  0.71888  0.43770  Biso   1.000  H
  C441     1.0000 0.73683  0.72790  0.41144  Biso   1.000  C
  C442     1.0000 0.73689  0.72790  0.41144  Biso   1.000  C
  H502     1.0000 0.62353  0.68361  0.43900  Biso   1.000  H
  H503     1.0000 0.58253  0.60231  0.43040  Biso   1.000  H
  H504     1.0000 0.62364  0.68361  0.43900  Biso   1.000  H
  H505     1.0000 0.58264  0.60231  0.43040  Biso   1.000  H
  H506     1.0000 0.16200  0.54676  0.42810  Biso   1.000  H
  H507     1.0000 0.13839  0.53451  0.44090  Biso   1.000  H
  C443     1.0000 0.23742  0.50631  0.43681  Biso   1.000  C
  H508     1.0000 0.16194  0.54676  0.42810  Biso   1.000  H
  C444     1.0000 0.23736  0.50631  0.43681  Biso   1.000  C
  H509     1.0000 0.13845  0.53451  0.44090  Biso   1.000  H
  C445     1.0000 0.21247  0.25918  0.41900  Biso   1.000  C
  C446     1.0000 0.21253  0.25918  0.41900  Biso   1.000  C
  H510     1.0000 0.31361  0.45597  0.42990  Biso   1.000  H
  H511     1.0000 0.27558  0.49696  0.42100  Biso   1.000  H
  H512     1.0000 0.31355  0.45597  0.42990  Biso   1.000  H
  H513     1.0000 0.27562  0.49703  0.42100  Biso   1.000  H
  C447     1.0000 0.78460  0.51394  0.36467  Biso   1.000  C
  N77      1.0000 0.84269  0.65158  0.37513  Biso   1.000  N
  H514     1.0000 0.91494  0.62378  0.36390  Biso   1.000  H
  N78      1.0000 0.84278  0.65164  0.37513  Biso   1.000  N
  H515     1.0000 0.91506  0.62378  0.36390  Biso   1.000  H
  N79      1.0000 0.84275  0.65158  0.37513  Biso   1.000  N
  N80      1.0000 0.84273  0.65164  0.37513  Biso   1.000  N
  C448     1.0000 0.76727  0.51320  0.34442  Biso   1.000  C
  H516     1.0000 0.89233  0.62742  0.34260  Biso   1.000  H
  H517     1.0000 0.81184  0.64128  0.33830  Biso   1.000  H
  H518     1.0000 0.89245  0.62742  0.34260  Biso   1.000  H
  H519     1.0000 0.81196  0.64128  0.33830  Biso   1.000  H
  N81      1.0000 0.34838  0.19107  0.37513  Biso   1.000  N
  H520     1.0000 0.37618  0.29122  0.36390  Biso   1.000  H
  C449     1.0000 0.48610  0.27069  0.36467  Biso   1.000  C
  C450     1.0000 0.48605  0.27069  0.36467  Biso   1.000  C
  H521     1.0000 0.37624  0.29122  0.36390  Biso   1.000  H
  C451     1.0000 0.48677  0.25407  0.34442  Biso   1.000  C
  H522     1.0000 0.37256  0.26497  0.34260  Biso   1.000  H
  H523     1.0000 0.35872  0.17061  0.33830  Biso   1.000  H
  H524     1.0000 0.35866  0.17061  0.33830  Biso   1.000  H
  H525     1.0000 0.37262  0.26497  0.34260  Biso   1.000  H
  H526     1.0000 0.45318  0.61523  0.42810  Biso   1.000  H
  H527     1.0000 0.46548  0.60393  0.44090  Biso   1.000  H
  C452     1.0000 0.82190  0.73099  0.40765  Biso   1.000  C
  H528     1.0000 0.69120  0.71370  0.40610  Biso   1.000  H
  C453     1.0000 0.82196  0.73099  0.40765  Biso   1.000  C
  H529     1.0000 0.69126  0.71370  0.40610  Biso   1.000  H
  H530     1.0000 0.23058  0.47421  0.44380  Biso   1.000  H
  H531     1.0000 0.28771  0.56877  0.43770  Biso   1.000  H
  H532     1.0000 0.28765  0.56877  0.43770  Biso   1.000  H
  H533     1.0000 0.23064  0.47421  0.44380  Biso   1.000  H
  H534     1.0000 0.20099  0.23912  0.42640  Biso   1.000  H
  C454     1.0000 0.23836  0.20978  0.41135  Biso   1.000  C
  H535     1.0000 0.20104  0.23912  0.42640  Biso   1.000  H
  C455     1.0000 0.23842  0.20978  0.41135  Biso   1.000  C
  H536     1.0000 0.79735  0.48453  0.37080  Biso   1.000  H
  H537     1.0000 0.72344  0.50493  0.36570  Biso   1.000  H
  C456     1.0000 0.78824  0.47168  0.35408  Biso   1.000  C
  H538     1.0000 0.79746  0.48453  0.37080  Biso   1.000  H
  C457     1.0000 0.78839  0.47175  0.35408  Biso   1.000  C
  C458     1.0000 0.78827  0.47175  0.35408  Biso   1.000  C
  C459     1.0000 0.90844  0.67722  0.38206  Biso   1.000  C
  H539     1.0000 0.70429  0.50008  0.34490  Biso   1.000  H
  H540     1.0000 0.70432  0.50015  0.34490  Biso   1.000  H
  H541     1.0000 0.77373  0.48649  0.33750  Biso   1.000  H
  H542     1.0000 0.77378  0.48649  0.33750  Biso   1.000  H
  C460     1.0000 0.32280  0.23118  0.38206  Biso   1.000  C
  C461     1.0000 0.32274  0.23118  0.38206  Biso   1.000  C
  H543     1.0000 0.51548  0.31289  0.37080  Biso   1.000  H
  H544     1.0000 0.49508  0.21846  0.36570  Biso   1.000  H
  C462     1.0000 0.52829  0.31659  0.35408  Biso   1.000  C
  H545     1.0000 0.49511  0.21853  0.36570  Biso   1.000  H
  H546     1.0000 0.49502  0.21846  0.36570  Biso   1.000  H
  H547     1.0000 0.49989  0.20419  0.34490  Biso   1.000  H
  H548     1.0000 0.51348  0.28731  0.33750  Biso   1.000  H
  H549     1.0000 0.49984  0.20419  0.34490  Biso   1.000  H
  H550     1.0000 0.51353  0.28731  0.33750  Biso   1.000  H
  C463     1.0000 0.89397  0.75879  0.41453  Biso   1.000  C
  C464     1.0000 0.82669  0.70771  0.39707  Biso   1.000  C
  C465     1.0000 0.82675  0.70771  0.39707  Biso   1.000  C
  C466     1.0000 0.24118  0.13521  0.41453  Biso   1.000  C
  C467     1.0000 0.26776  0.24397  0.40055  Biso   1.000  C
  C468     1.0000 0.24124  0.13521  0.41453  Biso   1.000  C
  C469     1.0000 0.26781  0.24397  0.40055  Biso   1.000  C
  H551     1.0000 0.74452  0.40640  0.35430  Biso   1.000  H
  H552     1.0000 0.84911  0.47942  0.35310  Biso   1.000  H
  H553     1.0000 0.84917  0.47942  0.35310  Biso   1.000  H
  C470     1.0000 0.90288  0.70690  0.39308  Biso   1.000  C
  H554     1.0000 0.96110  0.67648  0.37990  Biso   1.000  H
  C471     1.0000 0.90293  0.70690  0.39308  Biso   1.000  C
  H555     1.0000 0.96122  0.67648  0.37990  Biso   1.000  H
  C472     1.0000 0.29307  0.19598  0.39308  Biso   1.000  C
  H556     1.0000 0.32349  0.28469  0.37990  Biso   1.000  H
  C473     1.0000 0.29313  0.19598  0.39308  Biso   1.000  C
  H557     1.0000 0.59361  0.33813  0.35430  Biso   1.000  H
  H558     1.0000 0.52057  0.36969  0.35310  Biso   1.000  H
  H559     1.0000 0.59355  0.33813  0.35430  Biso   1.000  H
  H560     1.0000 0.52063  0.36969  0.35310  Biso   1.000  H
  H561     1.0000 0.88992  0.77669  0.42180  Biso   1.000  H
  C474     1.0000 0.97133  0.76162  0.41135  Biso   1.000  C
  H562     1.0000 0.89004  0.77669  0.42180  Biso   1.000  H
  C475     1.0000 0.97144  0.76162  0.41135  Biso   1.000  C
  H563     1.0000 0.77703  0.69162  0.39230  Biso   1.000  H
  H564     1.0000 0.77715  0.69162  0.39230  Biso   1.000  H
  H565     1.0000 0.22327  0.11327  0.42180  Biso   1.000  H
  C476     1.0000 0.26899  0.09093  0.40765  Biso   1.000  C
  C477     1.0000 0.26904  0.09093  0.40765  Biso   1.000  C
  H566     1.0000 0.27062  0.29842  0.39830  Biso   1.000  H
  H567     1.0000 0.27056  0.29842  0.39830  Biso   1.000  H
  C478     1.0000 0.97620  0.73221  0.40055  Biso   1.000  C
  C479     1.0000 0.97626  0.73221  0.40055  Biso   1.000  C
  C480     1.0000 0.29229  0.11899  0.39707  Biso   1.000  C
  C481     1.0000 0.04676  0.78753  0.41900  Biso   1.000  C
  C482     1.0000 0.04665  0.78753  0.41900  Biso   1.000  C
  C483     1.0000 0.27210  0.00902  0.41144  Biso   1.000  C
  H568     1.0000 0.02783  0.72938  0.39830  Biso   1.000  H
  H569     1.0000 0.30840  0.08547  0.39230  Biso   1.000  H
  H570     1.0000 0.30834  0.08547  0.39230  Biso   1.000  H
  N82      1.0000 0.12193  0.79554  0.41653  Biso   1.000  N
  H571     1.0000 0.03812  0.79904  0.42640  Biso   1.000  H
  H572     1.0000 0.28631  0.97752  0.40610  Biso   1.000  H
  N83      1.0000 0.25741  0.97907  0.42112  Biso   1.000  N
  N84      1.0000 0.25745  0.97914  0.42112  Biso   1.000  N
  C484     1.0000 0.18521  0.81869  0.42550  Biso   1.000  C
  C485     1.0000 0.27263  0.90342  0.42291  Biso   1.000  C
  C486     1.0000 0.20017  0.73961  0.42773  Biso   1.000  C
  H573     1.0000 0.15867  0.82973  0.43220  Biso   1.000  H
  C487     1.0000 0.20005  0.73961  0.42773  Biso   1.000  C
  H574     1.0000 0.15855  0.82973  0.43220  Biso   1.000  H
  H575     1.0000 0.29876  0.89333  0.41610  Biso   1.000  H
  C488     1.0000 0.33997  0.92630  0.43231  Biso   1.000  C
  C489     1.0000 0.33985  0.92630  0.43231  Biso   1.000  C
  H576     1.0000 0.29871  0.89333  0.41610  Biso   1.000  H
  H577     1.0000 0.22141  0.72440  0.42100  Biso   1.000  H
  C490     1.0000 0.26897  0.76263  0.43681  Biso   1.000  C
  H578     1.0000 0.14246  0.68644  0.42990  Biso   1.000  H
  C491     1.0000 0.26885  0.76263  0.43681  Biso   1.000  C
  C492     1.0000 0.35533  0.84722  0.43453  Biso   1.000  C
  H579     1.0000 0.31646  0.94003  0.43900  Biso   1.000  H
  H580     1.0000 0.39767  0.98028  0.43040  Biso   1.000  H
  H581     1.0000 0.31635  0.94003  0.43900  Biso   1.000  H
  H582     1.0000 0.39761  0.98028  0.43040  Biso   1.000  H
  H583     1.0000 0.28110  0.71228  0.43770  Biso   1.000  H
  H584     1.0000 0.24369  0.76942  0.44380  Biso   1.000  H
  H585     1.0000 0.24357  0.76942  0.44380  Biso   1.000  H
  H586     1.0000 0.39610  0.86163  0.44090  Biso   1.000  H
  H587     1.0000 0.38482  0.83800  0.42810  Biso   1.000  H
  H588     1.0000 0.38476  0.83800  0.42810  Biso   1.000  H
  C493     1.0000 0.42899  0.47259  0.35019  Biso   1.000  C
  C494     1.0000 0.43090  0.50207  0.33913  Biso   1.000  C
  C495     1.0000 0.49571  0.52630  0.35727  Biso   1.000  C
  H589     1.0000 0.38141  0.41579  0.35260  Biso   1.000  H
  C496     1.0000 0.36147  0.44480  0.33094  Biso   1.000  C
  C497     1.0000 0.49836  0.58418  0.33621  Biso   1.000  C
  C498     1.0000 0.49418  0.49178  0.36862  Biso   1.000  C
  C499     1.0000 0.56450  0.61258  0.35384  Biso   1.000  C
  N85      1.0000 0.29617  0.36888  0.33369  Biso   1.000  N
  H590     1.0000 0.36619  0.46519  0.32360  Biso   1.000  H
  H591     1.0000 0.49888  0.60410  0.32890  Biso   1.000  H
  C500     1.0000 0.56717  0.64159  0.34323  Biso   1.000  C
  N86      1.0000 0.55261  0.52738  0.37589  Biso   1.000  N
  H592     1.0000 0.44249  0.43618  0.37050  Biso   1.000  H
  H593     1.0000 0.60930  0.65101  0.35890  Biso   1.000  H
  C501     1.0000 0.23302  0.31659  0.32484  Biso   1.000  C
  C502     1.0000 0.63839  0.73426  0.34021  Biso   1.000  C
  C503     1.0000 0.54207  0.47798  0.38607  Biso   1.000  C
  C504     1.0000 0.24930  0.23912  0.32194  Biso   1.000  C
  C505     1.0000 0.13434  0.27742  0.32871  Biso   1.000  C
  H594     1.0000 0.24450  0.35576  0.31830  Biso   1.000  H
  N87      1.0000 0.64426  0.76536  0.33029  Biso   1.000  N
  H595     1.0000 0.68035  0.77155  0.34560  Biso   1.000  H
  C506     1.0000 0.54140  0.53620  0.39534  Biso   1.000  C
  C507     1.0000 0.61415  0.45846  0.38776  Biso   1.000  C
  H596     1.0000 0.48322  0.42030  0.38590  Biso   1.000  H
  C508     1.0000 0.18342  0.17882  0.31301  Biso   1.000  C
  H597     1.0000 0.24157  0.20278  0.32860  Biso   1.000  H
  H598     1.0000 0.31190  0.26382  0.31930  Biso   1.000  H
  C509     1.0000 0.07348  0.21900  0.32024  Biso   1.000  C
  N88      1.0000 0.12108  0.35569  0.33029  Biso   1.000  N
  H599     1.0000 0.12388  0.24357  0.33580  Biso   1.000  H
  C510     1.0000 0.72261  0.85689  0.32871  Biso   1.000  C
  N89      1.0000 0.46128  0.54521  0.39458  Biso   1.000  N
  H600     1.0000 0.59718  0.59670  0.39520  Biso   1.000  H
  C511     1.0000 0.53237  0.48760  0.40670  Biso   1.000  C
  C512     1.0000 0.61028  0.41297  0.39940  Biso   1.000  C
  H601     1.0000 0.67247  0.51520  0.38710  Biso   1.000  H
  H602     1.0000 0.61176  0.41768  0.38190  Biso   1.000  H
  C513     1.0000 0.08648  0.14382  0.31758  Biso   1.000  C
  H603     1.0000 0.19300  0.12767  0.31140  Biso   1.000  H
  H604     1.0000 0.19260  0.21362  0.30620  Biso   1.000  H
  H605     1.0000 0.01067  0.19538  0.32270  Biso   1.000  H
  H606     1.0000 0.08239  0.25501  0.31350  Biso   1.000  H
  C514     1.0000 0.09589  0.36161  0.34021  Biso   1.000  C
  H607     1.0000 0.75641  0.88031  0.33580  Biso   1.000  H
  C515     1.0000 0.78097  0.85447  0.32024  Biso   1.000  C
  C516     1.0000 0.68341  0.91638  0.32484  Biso   1.000  C
  C517     1.0000 0.47507  0.62409  0.39552  Biso   1.000  C
  H608     1.0000 0.53018  0.52496  0.41280  Biso   1.000  H
  H609     1.0000 0.47561  0.42898  0.40680  Biso   1.000  H
  C518     1.0000 0.60989  0.47280  0.40835  Biso   1.000  C
  H610     1.0000 0.55527  0.35307  0.39990  Biso   1.000  H
  H611     1.0000 0.66319  0.40489  0.40020  Biso   1.000  H
  H612     1.0000 0.04172  0.10513  0.31200  Biso   1.000  H
  H613     1.0000 0.07739  0.10721  0.32420  Biso   1.000  H
  C519     1.0000 0.07443  0.43282  0.34323  Biso   1.000  C
  H614     1.0000 0.09121  0.31962  0.34560  Biso   1.000  H
  H615     1.0000 0.80457  0.81530  0.32270  Biso   1.000  H
  H616     1.0000 0.74500  0.82741  0.31350  Biso   1.000  H
  C520     1.0000 0.85621  0.94270  0.31758  Biso   1.000  C
  N90      1.0000 0.63110  0.92729  0.33369  Biso   1.000  N
  H617     1.0000 0.64419  0.88866  0.31830  Biso   1.000  H
  C521     1.0000 0.76086  0.01020  0.32194  Biso   1.000  C
  C522     1.0000 0.40330  0.64771  0.39564  Biso   1.000  C
  H618     1.0000 0.53561  0.67161  0.39620  Biso   1.000  H
  H619     1.0000 0.60478  0.44440  0.41560  Biso   1.000  H
  H620     1.0000 0.66678  0.53121  0.40820  Biso   1.000  H
  C523     1.0000 0.08580  0.50160  0.33621  Biso   1.000  C
  C524     1.0000 0.04809  0.43551  0.35384  Biso   1.000  C
  H621     1.0000 0.89488  0.93657  0.31200  Biso   1.000  H
  H622     1.0000 0.89278  0.97016  0.32420  Biso   1.000  H
  C525     1.0000 0.82115  0.00455  0.31301  Biso   1.000  C
  C526     1.0000 0.55520  0.91665  0.33094  Biso   1.000  C
  H623     1.0000 0.79719  0.03881  0.32860  Biso   1.000  H
  H624     1.0000 0.73615  0.04809  0.31930  Biso   1.000  H
  C527     1.0000 0.42070  0.73696  0.39574  Biso   1.000  C
  C528     1.0000 0.31627  0.57927  0.39574  Biso   1.000  C
  C529     1.0000 0.07123  0.56911  0.33913  Biso   1.000  C
  H625     1.0000 0.10517  0.50106  0.32890  Biso   1.000  H
  C530     1.0000 0.03060  0.50429  0.35727  Biso   1.000  C
  H626     1.0000 0.04170  0.39069  0.35890  Biso   1.000  H
  H627     1.0000 0.78639  0.97897  0.30620  Biso   1.000  H
  H628     1.0000 0.87226  0.06526  0.31140  Biso   1.000  H
  C531     1.0000 0.49790  0.92877  0.33913  Biso   1.000  C
  H629     1.0000 0.53477  0.90097  0.32360  Biso   1.000  H
  H630     1.0000 0.48119  0.78508  0.39590  Biso   1.000  H
  C532     1.0000 0.35233  0.75560  0.39564  Biso   1.000  C
  C533     1.0000 0.24438  0.59670  0.39564  Biso   1.000  C
  H631     1.0000 0.30385  0.51876  0.39590  Biso   1.000  H
  C534     1.0000 0.04361  0.57099  0.35019  Biso   1.000  C
  C535     1.0000 0.08331  0.63849  0.33094  Biso   1.000  C
  C536     1.0000 0.99760  0.50577  0.36862  Biso   1.000  C
  C537     1.0000 0.52737  0.95636  0.35019  Biso   1.000  C
  C538     1.0000 0.41576  0.91416  0.33621  Biso   1.000  C
  C539     1.0000 0.26297  0.68365  0.39574  Biso   1.000  C
  C540     1.0000 0.37588  0.85097  0.39552  Biso   1.000  C
  C541     1.0000 0.14902  0.52489  0.39552  Biso   1.000  C
  H632     1.0000 0.03441  0.61857  0.35260  Biso   1.000  H
  N91      1.0000 0.07270  0.70378  0.33369  Biso   1.000  N
  H633     1.0000 0.09902  0.63378  0.32360  Biso   1.000  H
  N92      1.0000 0.97480  0.44736  0.37589  Biso   1.000  N
  H634     1.0000 0.99372  0.55746  0.37050  Biso   1.000  H
  C542     1.0000 0.47366  0.96935  0.35727  Biso   1.000  C
  H635     1.0000 0.58421  0.96558  0.35260  Biso   1.000  H
  C543     1.0000 0.35841  0.92560  0.34323  Biso   1.000  C
  H636     1.0000 0.39587  0.89478  0.32890  Biso   1.000  H
  H637     1.0000 0.21493  0.69610  0.39590  Biso   1.000  H
  N93      1.0000 0.45476  0.91605  0.39458  Biso   1.000  N
  H638     1.0000 0.32841  0.86396  0.39620  Biso   1.000  H
  N94      1.0000 0.08388  0.53869  0.39458  Biso   1.000  N
  H639     1.0000 0.13602  0.46438  0.39620  Biso   1.000  H
  C544     1.0000 0.08361  0.76697  0.32484  Biso   1.000  C
  C545     1.0000 0.93590  0.45792  0.38607  Biso   1.000  C
  C546     1.0000 0.38739  0.95185  0.35384  Biso   1.000  C
  C547     1.0000 0.50813  0.00240  0.36862  Biso   1.000  C
  C548     1.0000 0.26570  0.90407  0.34021  Biso   1.000  C
  C549     1.0000 0.46376  0.00516  0.39534  Biso   1.000  C
  C550     1.0000 0.99482  0.45860  0.39534  Biso   1.000  C
  C551     1.0000 0.14312  0.86571  0.32871  Biso   1.000  C
  H640     1.0000 0.11131  0.75547  0.31830  Biso   1.000  H
  C552     1.0000 0.98979  0.75069  0.32194  Biso   1.000  C
  C553     1.0000 0.84428  0.38578  0.38776  Biso   1.000  C
  H641     1.0000 0.93714  0.51681  0.38590  Biso   1.000  H
  H642     1.0000 0.34897  0.95825  0.35890  Biso   1.000  H
  N95      1.0000 0.47259  0.02514  0.37589  Biso   1.000  N
  H643     1.0000 0.56377  0.00630  0.37050  Biso   1.000  H
  N96      1.0000 0.23458  0.87890  0.33029  Biso   1.000  N
  H644     1.0000 0.22842  0.90878  0.34560  Biso   1.000  H
  C554     1.0000 0.52200  0.06404  0.38607  Biso   1.000  C
  H645     1.0000 0.40329  0.00044  0.39520  Biso   1.000  H
  C555     1.0000 0.51237  0.04480  0.40670  Biso   1.000  C
  H646     1.0000 0.99950  0.40280  0.39520  Biso   1.000  H
  C556     1.0000 0.95520  0.46761  0.40670  Biso   1.000  C
  H647     1.0000 0.11968  0.87607  0.33580  Biso   1.000  H
  C557     1.0000 0.14547  0.92648  0.32024  Biso   1.000  C
  C558     1.0000 0.99539  0.81658  0.31301  Biso   1.000  C
  H648     1.0000 0.96122  0.75836  0.32860  Biso   1.000  H
  H649     1.0000 0.95190  0.68810  0.31930  Biso   1.000  H
  C559     1.0000 0.80270  0.38968  0.39940  Biso   1.000  C
  H650     1.0000 0.84271  0.32749  0.38710  Biso   1.000  H
  H651     1.0000 0.80592  0.38820  0.38190  Biso   1.000  H
  C560     1.0000 0.54139  0.15564  0.38776  Biso   1.000  C
  H652     1.0000 0.57971  0.06290  0.38590  Biso   1.000  H
  H653     1.0000 0.47495  0.00516  0.41280  Biso   1.000  H
  H654     1.0000 0.57095  0.04655  0.40680  Biso   1.000  H
  C561     1.0000 0.52715  0.13707  0.40835  Biso   1.000  C
  H655     1.0000 0.99481  0.46977  0.41280  Biso   1.000  H
  H656     1.0000 0.95341  0.52442  0.40680  Biso   1.000  H
  C562     1.0000 0.86287  0.39008  0.40835  Biso   1.000  C
  H657     1.0000 0.18468  0.98927  0.32270  Biso   1.000  H
  H658     1.0000 0.17262  0.91760  0.31350  Biso   1.000  H
  C563     1.0000 0.05732  0.91349  0.31758  Biso   1.000  C
  H659     1.0000 0.02098  0.80735  0.30620  Biso   1.000  H
  H660     1.0000 0.93469  0.80695  0.31140  Biso   1.000  H
  H661     1.0000 0.79778  0.44466  0.39990  Biso   1.000  H
  H662     1.0000 0.74168  0.33678  0.40020  Biso   1.000  H
  C564     1.0000 0.58694  0.19730  0.39940  Biso   1.000  C
  H663     1.0000 0.48473  0.15726  0.38710  Biso   1.000  H
  H664     1.0000 0.58223  0.19407  0.38190  Biso   1.000  H
  H665     1.0000 0.55558  0.16035  0.41560  Biso   1.000  H
  H666     1.0000 0.46871  0.13559  0.40820  Biso   1.000  H
  H667     1.0000 0.83961  0.39520  0.41560  Biso   1.000  H
  H668     1.0000 0.86440  0.33321  0.40820  Biso   1.000  H
  H669     1.0000 0.06337  0.95825  0.31200  Biso   1.000  H
  H670     1.0000 0.02980  0.92258  0.32420  Biso   1.000  H
  H671     1.0000 0.64683  0.20215  0.39990  Biso   1.000  H
  H672     1.0000 0.59504  0.25828  0.40020  Biso   1.000  H
  C565     1.0000 0.53546  0.42326  0.31217  Biso   1.000  C
  C566     1.0000 0.53908  0.48680  0.30308  Biso   1.000  C
  C567     1.0000 0.63111  0.44110  0.31475  Biso   1.000  C
  H673     1.0000 0.49719  0.36000  0.30980  Biso   1.000  H
  H674     1.0000 0.50861  0.43262  0.31890  Biso   1.000  H
  N97      1.0000 0.44516  0.46519  0.30118  Biso   1.000  N
  C568     1.0000 0.59847  0.58250  0.30614  Biso   1.000  C
  H675     1.0000 0.56269  0.47387  0.29620  Biso   1.000  H
  C569     1.0000 0.69484  0.54245  0.31813  Biso   1.000  C
  H676     1.0000 0.65598  0.42696  0.30820  Biso   1.000  H
  H677     1.0000 0.62818  0.40132  0.32080  Biso   1.000  H
  C570     1.0000 0.41371  0.43551  0.29163  Biso   1.000  C
  N98      1.0000 0.60249  0.64206  0.29722  Biso   1.000  N
  H678     1.0000 0.57386  0.59576  0.31290  Biso   1.000  H
  C571     1.0000 0.69366  0.60128  0.30851  Biso   1.000  C
  H679     1.0000 0.67296  0.55639  0.32500  Biso   1.000  H
  H680     1.0000 0.75689  0.55416  0.31940  Biso   1.000  H
  C572     1.0000 0.32239  0.41700  0.28838  Biso   1.000  C
  H681     1.0000 0.44929  0.42508  0.28650  Biso   1.000  H
  C573     1.0000 0.58978  0.70721  0.30006  Biso   1.000  C
  H682     1.0000 0.73241  0.66562  0.31040  Biso   1.000  H
  H683     1.0000 0.71858  0.58876  0.30180  Biso   1.000  H
  C574     1.0000 0.29656  0.38948  0.27761  Biso   1.000  C
  C575     1.0000 0.26331  0.42427  0.29554  Biso   1.000  C
  C576     1.0000 0.59581  0.77417  0.29191  Biso   1.000  C
  H684     1.0000 0.57627  0.71226  0.30750  Biso   1.000  H
  C577     1.0000 0.21179  0.36949  0.27398  Biso   1.000  C
  H685     1.0000 0.33709  0.38450  0.27270  Biso   1.000  H
  C578     1.0000 0.17839  0.40422  0.29191  Biso   1.000  C
  H686     1.0000 0.28089  0.44312  0.30290  Biso   1.000  H
  C579     1.0000 0.62317  0.77586  0.28113  Biso   1.000  C
  C580     1.0000 0.57570  0.83899  0.29554  Biso   1.000  C
  C581     1.0000 0.20021  0.36942  0.26092  Biso   1.000  C
  C582     1.0000 0.15274  0.37682  0.28113  Biso   1.000  C
  C583     1.0000 0.11738  0.41021  0.30006  Biso   1.000  C
  C584     1.0000 0.63050  0.84228  0.27398  Biso   1.000  C
  H687     1.0000 0.63687  0.73157  0.27870  Biso   1.000  H
  C585     1.0000 0.58300  0.90535  0.28838  Biso   1.000  C
  H688     1.0000 0.55691  0.83778  0.30290  Biso   1.000  H
  C586     1.0000 0.22392  0.31962  0.25420  Biso   1.000  C
  C587     1.0000 0.27690  0.42091  0.25440  Biso   1.000  C
  C588     1.0000 0.26360  0.36949  0.25380  Biso   1.000  C
  C589     1.0000 0.12267  0.36949  0.25740  Biso   1.000  C
  C590     1.0000 0.11349  0.32069  0.25700  Biso   1.000  C
  C591     1.0000 0.16139  0.41848  0.25670  Biso   1.000  C
  H689     1.0000 0.09470  0.36309  0.27870  Biso   1.000  H
  N99      1.0000 0.03962  0.39749  0.29722  Biso   1.000  N
  H690     1.0000 0.13600  0.42367  0.30750  Biso   1.000  H
  C592     1.0000 0.61051  0.90710  0.27761  Biso   1.000  C
  C593     1.0000 0.63058  0.83078  0.26092  Biso   1.000  C
  C594     1.0000 0.56450  0.97817  0.29163  Biso   1.000  C
  C595     1.0000 0.24682  0.36949  0.24260  Biso   1.000  C
  H691     1.0000 0.25021  0.28650  0.25710  Biso   1.000  H
  C596     1.0000 0.20721  0.32069  0.24300  Biso   1.000  C
  H692     1.0000 0.33611  0.45388  0.25730  Biso   1.000  H
  C597     1.0000 0.25709  0.41848  0.24330  Biso   1.000  C
  H693     1.0000 0.31571  0.36949  0.25640  Biso   1.000  H
  H694     1.0000 0.08158  0.36949  0.26270  Biso   1.000  H
  C598     1.0000 0.10588  0.36949  0.24620  Biso   1.000  C
  C599     1.0000 0.09569  0.31962  0.24580  Biso   1.000  C
  C600     1.0000 0.14401  0.42091  0.24560  Biso   1.000  C
  H695     1.0000 0.06531  0.28751  0.26200  Biso   1.000  H
  H696     1.0000 0.14629  0.45146  0.26170  Biso   1.000  H
  C601     1.0000 0.98400  0.40152  0.30614  Biso   1.000  C
  H697     1.0000 0.61548  0.95259  0.27270  Biso   1.000  H
  C602     1.0000 0.63048  0.89411  0.25380  Biso   1.000  C
  C603     1.0000 0.63048  0.75318  0.25740  Biso   1.000  C
  C604     1.0000 0.57905  0.85595  0.25440  Biso   1.000  C
  C605     1.0000 0.67929  0.79275  0.25700  Biso   1.000  C
  C606     1.0000 0.68038  0.90427  0.25420  Biso   1.000  C
  C607     1.0000 0.58150  0.74288  0.25670  Biso   1.000  C
  N100     1.0000 0.53481  0.97998  0.30118  Biso   1.000  N
  H698     1.0000 0.57487  0.02420  0.28650  Biso   1.000  H
  C608     1.0000 0.16921  0.36942  0.23908  Biso   1.000  C
  H699     1.0000 0.28791  0.36949  0.23730  Biso   1.000  H
  H700     1.0000 0.22221  0.28751  0.23800  Biso   1.000  H
  H701     1.0000 0.30517  0.45146  0.23830  Biso   1.000  H
  H702     1.0000 0.05378  0.36949  0.24360  Biso   1.000  H
  H703     1.0000 0.03630  0.28650  0.24290  Biso   1.000  H
  H704     1.0000 0.11777  0.45388  0.24270  Biso   1.000  H
  H705     1.0000 0.02193  0.42609  0.31290  Biso   1.000  H
  C609     1.0000 0.90759  0.30629  0.30851  Biso   1.000  C
  C610     1.0000 0.94770  0.46088  0.30308  Biso   1.000  C
  H706     1.0000 0.63047  0.94620  0.25640  Biso   1.000  H
  C611     1.0000 0.63046  0.87728  0.24260  Biso   1.000  C
  C612     1.0000 0.58150  0.83858  0.24330  Biso   1.000  C
  C613     1.0000 0.67931  0.88650  0.24300  Biso   1.000  C
  H707     1.0000 0.63049  0.71206  0.26270  Biso   1.000  H
  C614     1.0000 0.63046  0.73635  0.24620  Biso   1.000  C
  C615     1.0000 0.68039  0.77606  0.24580  Biso   1.000  C
  C616     1.0000 0.57907  0.72309  0.24560  Biso   1.000  C
  H708     1.0000 0.54607  0.88219  0.25730  Biso   1.000  H
  H709     1.0000 0.71250  0.77781  0.26200  Biso   1.000  H
  H710     1.0000 0.71347  0.96370  0.25710  Biso   1.000  H
  H711     1.0000 0.54846  0.69476  0.26170  Biso   1.000  H
  C617     1.0000 0.51314  0.05227  0.30308  Biso   1.000  C
  C618     1.0000 0.15770  0.36949  0.22602  Biso   1.000  C
  H712     1.0000 0.93318  0.26759  0.31040  Biso   1.000  H
  H713     1.0000 0.87019  0.28139  0.30180  Biso   1.000  H
  C619     1.0000 0.84759  0.30508  0.31813  Biso   1.000  C
  N101     1.0000 0.02000  0.55477  0.30118  Biso   1.000  N
  C620     1.0000 0.88779  0.46452  0.31217  Biso   1.000  C
  H714     1.0000 0.91118  0.43726  0.29620  Biso   1.000  H
  C621     1.0000 0.63057  0.79975  0.23908  Biso   1.000  C
  H715     1.0000 0.63050  0.91840  0.23730  Biso   1.000  H
  H716     1.0000 0.54847  0.85366  0.23830  Biso   1.000  H
  H717     1.0000 0.71249  0.93469  0.23800  Biso   1.000  H
  H718     1.0000 0.63047  0.68426  0.24360  Biso   1.000  H
  H719     1.0000 0.71348  0.74981  0.24290  Biso   1.000  H
  H720     1.0000 0.54607  0.66387  0.24270  Biso   1.000  H
  C622     1.0000 0.41742  0.01599  0.30614  Biso   1.000  C
  C623     1.0000 0.57660  0.11217  0.31217  Biso   1.000  C
  H721     1.0000 0.52601  0.08874  0.29620  Biso   1.000  H
  C624     1.0000 0.09291  0.38948  0.22239  Biso   1.000  C
  C625     1.0000 0.22408  0.37682  0.21887  Biso   1.000  C
  H722     1.0000 0.88339  0.32702  0.32500  Biso   1.000  H
  H723     1.0000 0.79731  0.24309  0.31940  Biso   1.000  H
  C626     1.0000 0.81002  0.36888  0.31475  Biso   1.000  C
  C627     1.0000 0.02182  0.58627  0.29163  Biso   1.000  C
  H724     1.0000 0.86282  0.50281  0.30980  Biso   1.000  H
  H725     1.0000 0.92401  0.49137  0.31890  Biso   1.000  H
  C628     1.0000 0.63049  0.78817  0.22602  Biso   1.000  C
  N102     1.0000 0.35792  0.96040  0.29722  Biso   1.000  N
  H726     1.0000 0.40419  0.97810  0.31290  Biso   1.000  H
  C629     1.0000 0.39867  0.09238  0.30851  Biso   1.000  C
  C630     1.0000 0.55885  0.18997  0.31475  Biso   1.000  C
  H727     1.0000 0.63994  0.13720  0.30980  Biso   1.000  H
  H728     1.0000 0.56730  0.07596  0.31890  Biso   1.000  H
  C631     1.0000 0.09461  0.41700  0.21162  Biso   1.000  C
  H729     1.0000 0.04741  0.38450  0.22730  Biso   1.000  H
  H730     1.0000 0.26839  0.36309  0.22130  Biso   1.000  H
  C632     1.0000 0.22583  0.40422  0.20809  Biso   1.000  C
  H731     1.0000 0.77099  0.34398  0.30820  Biso   1.000  H
  H732     1.0000 0.77311  0.37178  0.32080  Biso   1.000  H
  C633     1.0000 0.09458  0.67760  0.28838  Biso   1.000  C
  H733     1.0000 0.97580  0.55067  0.28650  Biso   1.000  H
  C634     1.0000 0.61047  0.70337  0.22239  Biso   1.000  C
  C635     1.0000 0.62320  0.84726  0.21887  Biso   1.000  C
  C636     1.0000 0.29279  0.88260  0.30006  Biso   1.000  C
  H734     1.0000 0.33442  0.06680  0.31040  Biso   1.000  H
  H735     1.0000 0.41114  0.12980  0.30180  Biso   1.000  H
  C637     1.0000 0.45745  0.15234  0.31813  Biso   1.000  C
  H736     1.0000 0.57294  0.22900  0.30820  Biso   1.000  H
  H737     1.0000 0.59862  0.22685  0.32080  Biso   1.000  H
  C638     1.0000 0.02180  0.43551  0.20837  Biso   1.000  C
  C639     1.0000 0.16096  0.42427  0.20446  Biso   1.000  C
  C640     1.0000 0.29282  0.41021  0.19994  Biso   1.000  C
  C641     1.0000 0.09290  0.70337  0.27761  Biso   1.000  C
  C642     1.0000 0.16102  0.73669  0.29554  Biso   1.000  C
  C643     1.0000 0.58301  0.67760  0.21162  Biso   1.000  C
  H738     1.0000 0.61545  0.66286  0.22730  Biso   1.000  H
  C644     1.0000 0.59578  0.82156  0.20809  Biso   1.000  C
  H739     1.0000 0.63688  0.90528  0.22130  Biso   1.000  H
  C645     1.0000 0.22578  0.82156  0.29191  Biso   1.000  C
  H740     1.0000 0.28766  0.86396  0.30750  Biso   1.000  H
  H741     1.0000 0.44360  0.11661  0.32500  Biso   1.000  H
  H742     1.0000 0.44572  0.20269  0.31940  Biso   1.000  H
  N103     1.0000 0.02003  0.46519  0.19882  Biso   1.000  N
  H743     1.0000 0.97579  0.42508  0.21350  Biso   1.000  H
  H744     1.0000 0.16222  0.44312  0.19710  Biso   1.000  H
  N104     1.0000 0.35786  0.39749  0.20278  Biso   1.000  N
  H745     1.0000 0.28766  0.42367  0.19250  Biso   1.000  H
  H746     1.0000 0.04740  0.66286  0.27270  Biso   1.000  H
  C646     1.0000 0.15768  0.78817  0.27398  Biso   1.000  C
  H747     1.0000 0.16217  0.71905  0.30290  Biso   1.000  H
  C647     1.0000 0.56445  0.58627  0.20837  Biso   1.000  C
  C648     1.0000 0.57566  0.73669  0.20446  Biso   1.000  C
  C649     1.0000 0.58981  0.88260  0.19994  Biso   1.000  C
  C650     1.0000 0.22406  0.84726  0.28113  Biso   1.000  C
  C651     1.0000 0.94772  0.48680  0.19692  Biso   1.000  C
  C652     1.0000 0.41752  0.40152  0.19386  Biso   1.000  C
  C653     1.0000 0.16918  0.79975  0.26092  Biso   1.000  C
  N105     1.0000 0.53477  0.55477  0.19882  Biso   1.000  N
  H748     1.0000 0.57486  0.55067  0.21350  Biso   1.000  H
  H749     1.0000 0.55688  0.71905  0.19710  Biso   1.000  H
  N106     1.0000 0.60248  0.96040  0.20278  Biso   1.000  N
  H750     1.0000 0.57629  0.86396  0.19250  Biso   1.000  H
  H751     1.0000 0.26840  0.90528  0.27870  Biso   1.000  H
  C654     1.0000 0.98403  0.58250  0.19386  Biso   1.000  C
  C655     1.0000 0.88780  0.42326  0.18783  Biso   1.000  C
  H752     1.0000 0.91118  0.47387  0.20380  Biso   1.000  H
  H753     1.0000 0.40416  0.42609  0.18710  Biso   1.000  H
  C656     1.0000 0.39870  0.30629  0.19149  Biso   1.000  C
  C657     1.0000 0.51318  0.46088  0.19692  Biso   1.000  C
  C658     1.0000 0.10589  0.73635  0.25380  Biso   1.000  C
  C659     1.0000 0.24682  0.87728  0.25740  Biso   1.000  C
  C660     1.0000 0.14403  0.72309  0.25440  Biso   1.000  C
  C661     1.0000 0.20720  0.88650  0.25700  Biso   1.000  C
  C662     1.0000 0.09567  0.77606  0.25420  Biso   1.000  C
  C663     1.0000 0.25708  0.83858  0.25670  Biso   1.000  C
  C664     1.0000 0.59845  0.01599  0.19386  Biso   1.000  C
  N107     1.0000 0.03957  0.64206  0.20278  Biso   1.000  N
  H754     1.0000 0.02190  0.59576  0.18710  Biso   1.000  H
  C665     1.0000 0.90762  0.60128  0.19149  Biso   1.000  C
  C666     1.0000 0.80999  0.44110  0.18525  Biso   1.000  C
  H755     1.0000 0.86281  0.36000  0.19020  Biso   1.000  H
  H756     1.0000 0.92401  0.43262  0.18110  Biso   1.000  H
  H757     1.0000 0.33441  0.26759  0.18960  Biso   1.000  H
  H758     1.0000 0.41120  0.28139  0.19820  Biso   1.000  H
  C667     1.0000 0.45749  0.30508  0.18187  Biso   1.000  C
  C668     1.0000 0.57673  0.46452  0.18783  Biso   1.000  C
  H759     1.0000 0.52609  0.43726  0.20380  Biso   1.000  H
  H760     1.0000 0.05379  0.68426  0.25640  Biso   1.000  H
  C669     1.0000 0.12270  0.75318  0.24260  Biso   1.000  C
  C670     1.0000 0.16138  0.74288  0.24330  Biso   1.000  C
  C671     1.0000 0.11346  0.79275  0.24300  Biso   1.000  C
  H761     1.0000 0.28790  0.91840  0.26270  Biso   1.000  H
  C672     1.0000 0.26363  0.89411  0.24620  Biso   1.000  C
  C673     1.0000 0.22389  0.90427  0.24580  Biso   1.000  C
  C674     1.0000 0.27690  0.85595  0.24560  Biso   1.000  C
  H762     1.0000 0.11779  0.66387  0.25730  Biso   1.000  H
  H763     1.0000 0.22220  0.93469  0.26200  Biso   1.000  H
  H764     1.0000 0.03633  0.74981  0.25710  Biso   1.000  H
  H765     1.0000 0.30519  0.85366  0.26170  Biso   1.000  H
  C675     1.0000 0.53907  0.05227  0.19692  Biso   1.000  C
  H766     1.0000 0.57391  0.97810  0.18710  Biso   1.000  H
  C676     1.0000 0.69365  0.09238  0.19149  Biso   1.000  C
  C677     1.0000 0.11743  0.70721  0.19994  Biso   1.000  C
  H767     1.0000 0.93320  0.66562  0.18960  Biso   1.000  H
  H768     1.0000 0.87018  0.58876  0.19820  Biso   1.000  H
  C678     1.0000 0.84761  0.54245  0.18187  Biso   1.000  C
  H769     1.0000 0.77098  0.42696  0.19180  Biso   1.000  H
  H770     1.0000 0.77314  0.40132  0.17920  Biso   1.000  H
  H771     1.0000 0.44363  0.32702  0.17500  Biso   1.000  H
  H772     1.0000 0.44579  0.24309  0.18060  Biso   1.000  H
  C679     1.0000 0.55887  0.36888  0.18525  Biso   1.000  C
  H773     1.0000 0.63999  0.50281  0.19020  Biso   1.000  H
  H774     1.0000 0.56736  0.49137  0.18110  Biso   1.000  H
  C680     1.0000 0.20020  0.83078  0.23908  Biso   1.000  C
  H775     1.0000 0.08156  0.71206  0.23730  Biso   1.000  H
  H776     1.0000 0.14630  0.69476  0.23830  Biso   1.000  H
  H777     1.0000 0.06530  0.77781  0.23800  Biso   1.000  H
  H778     1.0000 0.31573  0.94620  0.24360  Biso   1.000  H
  H779     1.0000 0.25022  0.96370  0.24290  Biso   1.000  H
  H780     1.0000 0.33613  0.88219  0.24270  Biso   1.000  H
  N108     1.0000 0.44517  0.97998  0.19882  Biso   1.000  N
  C681     1.0000 0.53551  0.11217  0.18783  Biso   1.000  C
  H781     1.0000 0.56267  0.08874  0.20380  Biso   1.000  H
  H782     1.0000 0.73233  0.06680  0.18960  Biso   1.000  H
  H783     1.0000 0.71854  0.12980  0.19820  Biso   1.000  H
  C682     1.0000 0.69478  0.15234  0.18187  Biso   1.000  C
  C683     1.0000 0.17837  0.77417  0.20809  Biso   1.000  C
  H784     1.0000 0.13599  0.71226  0.19250  Biso   1.000  H
  H785     1.0000 0.88343  0.55639  0.17500  Biso   1.000  H
  H786     1.0000 0.79728  0.55416  0.18060  Biso   1.000  H
  H787     1.0000 0.57299  0.34398  0.19180  Biso   1.000  H
  H788     1.0000 0.59866  0.37178  0.17920  Biso   1.000  H
  C684     1.0000 0.21178  0.84228  0.22602  Biso   1.000  C
  C685     1.0000 0.41366  0.97817  0.20837  Biso   1.000  C
  C686     1.0000 0.63106  0.18997  0.18525  Biso   1.000  C
  H789     1.0000 0.49714  0.13720  0.19020  Biso   1.000  H
  H790     1.0000 0.50860  0.07596  0.18110  Biso   1.000  H
  H791     1.0000 0.67301  0.11661  0.17500  Biso   1.000  H
  H792     1.0000 0.75685  0.20269  0.18060  Biso   1.000  H
  C687     1.0000 0.15269  0.77586  0.21887  Biso   1.000  C
  C688     1.0000 0.26329  0.83899  0.20446  Biso   1.000  C
  C689     1.0000 0.29659  0.90710  0.22239  Biso   1.000  C
  C690     1.0000 0.32235  0.90535  0.21162  Biso   1.000  C
  H793     1.0000 0.44933  0.02420  0.21350  Biso   1.000  H
  H794     1.0000 0.65600  0.22900  0.19180  Biso   1.000  H
  H795     1.0000 0.62817  0.22685  0.17920  Biso   1.000  H
  H796     1.0000 0.09470  0.73157  0.22130  Biso   1.000  H
  H797     1.0000 0.28087  0.83778  0.19710  Biso   1.000  H
  H798     1.0000 0.33711  0.95259  0.22730  Biso   1.000  H
  C691     1.0000 0.79053  0.49218  0.43331  Biso   1.000  C
  C692     1.0000 0.76349  0.54360  0.44226  Biso   1.000  C
  H799     1.0000 0.73905  0.43107  0.43200  Biso   1.000  H
  H800     1.0000 0.80694  0.52570  0.42630  Biso   1.000  H
  C693     1.0000 0.87144  0.48579  0.43777  Biso   1.000  C
  H801     1.0000 0.73911  0.43107  0.43200  Biso   1.000  H
  H802     1.0000 0.80700  0.52570  0.42630  Biso   1.000  H
  C694     1.0000 0.87150  0.48579  0.43777  Biso   1.000  C
  C695     1.0000 0.84706  0.63997  0.44402  Biso   1.000  C
  H803     1.0000 0.71144  0.54838  0.43960  Biso   1.000  H
  H804     1.0000 0.74658  0.50988  0.44930  Biso   1.000  H
  C696     1.0000 0.84712  0.63997  0.44402  Biso   1.000  C
  H805     1.0000 0.71150  0.54838  0.43960  Biso   1.000  H
  C697     1.0000 0.79059  0.49218  0.43331  Biso   1.000  C
  H806     1.0000 0.88760  0.45200  0.43250  Biso   1.000  H
  H807     1.0000 0.85514  0.45308  0.44490  Biso   1.000  H
  C698     1.0000 0.95354  0.58250  0.43944  Biso   1.000  C
  H808     1.0000 0.85520  0.45308  0.44490  Biso   1.000  H
  C699     1.0000 0.95360  0.58250  0.43944  Biso   1.000  C
  N109     1.0000 0.82284  0.68305  0.45244  Biso   1.000  N
  H809     1.0000 0.86279  0.67551  0.43710  Biso   1.000  H
  C700     1.0000 0.92787  0.63129  0.44812  Biso   1.000  C
  N110     1.0000 0.82294  0.68312  0.45244  Biso   1.000  N
  C701     1.0000 0.92793  0.63129  0.44812  Biso   1.000  C
  N111     1.0000 0.82290  0.68305  0.45244  Biso   1.000  N
  N112     1.0000 0.82288  0.68312  0.45244  Biso   1.000  N
  H810     1.0000 0.96905  0.61608  0.43240  Biso   1.000  H
  H811     1.0000 0.96911  0.61608  0.43240  Biso   1.000  H
  H812     1.0000 0.00663  0.57886  0.44200  Biso   1.000  H
  H813     1.0000 0.00657  0.57886  0.44200  Biso   1.000  H
  C702     1.0000 0.80530  0.74389  0.44995  Biso   1.000  C
  H814     1.0000 0.91354  0.59865  0.45530  Biso   1.000  H
  H815     1.0000 0.91363  0.59872  0.45530  Biso   1.000  H
  H816     1.0000 0.91359  0.59865  0.45530  Biso   1.000  H
  H817     1.0000 0.91357  0.59872  0.45530  Biso   1.000  H
  N113     1.0000 0.00163  0.72437  0.44939  Biso   1.000  N
  N114     1.0000 0.00157  0.72437  0.44939  Biso   1.000  N
  C703     1.0000 0.79179  0.79638  0.45781  Biso   1.000  C
  H818     1.0000 0.80076  0.75486  0.44240  Biso   1.000  H
  H819     1.0000 0.80081  0.75486  0.44240  Biso   1.000  H
  C704     1.0000 0.02121  0.74860  0.45923  Biso   1.000  C
  C705     1.0000 0.76388  0.85689  0.45490  Biso   1.000  C
  C706     1.0000 0.80895  0.79107  0.46901  Biso   1.000  C
  C707     1.0000 0.76393  0.85689  0.45490  Biso   1.000  C
  C708     1.0000 0.80901  0.79107  0.46901  Biso   1.000  C
  H820     1.0000 0.99106  0.70485  0.46480  Biso   1.000  H
  C709     1.0000 0.08943  0.84249  0.46268  Biso   1.000  C
  C710     1.0000 0.08937  0.84249  0.46268  Biso   1.000  C
  C711     1.0000 0.75308  0.91060  0.46268  Biso   1.000  C
  H821     1.0000 0.75174  0.86187  0.44740  Biso   1.000  H
  C712     1.0000 0.75314  0.91060  0.46268  Biso   1.000  C
  H822     1.0000 0.75180  0.86187  0.44740  Biso   1.000  H
  C713     1.0000 0.79337  0.84080  0.47694  Biso   1.000  C
  H823     1.0000 0.83170  0.75311  0.47120  Biso   1.000  H
  C714     1.0000 0.79343  0.84080  0.47694  Biso   1.000  C
  C715     1.0000 0.10094  0.86389  0.47345  Biso   1.000  C
  C716     1.0000 0.14311  0.90696  0.45490  Biso   1.000  C
  C717     1.0000 0.10088  0.86389  0.47345  Biso   1.000  C
  C718     1.0000 0.14305  0.90696  0.45490  Biso   1.000  C
  C719     1.0000 0.76294  0.89909  0.47345  Biso   1.000  C
  C720     1.0000 0.72737  0.97877  0.45923  Biso   1.000  C
  C721     1.0000 0.76300  0.89909  0.47345  Biso   1.000  C
  C722     1.0000 0.72742  0.97877  0.45923  Biso   1.000  C
  C723     1.0000 0.80698  0.83165  0.48890  Biso   1.000  C
  C724     1.0000 0.15922  0.95259  0.47694  Biso   1.000  C
  H824     1.0000 0.06909  0.81826  0.47880  Biso   1.000  H
  C725     1.0000 0.15917  0.95259  0.47694  Biso   1.000  C
  H825     1.0000 0.06903  0.81826  0.47880  Biso   1.000  H
  H826     1.0000 0.13812  0.88987  0.44740  Biso   1.000  H
  C726     1.0000 0.20365  0.99540  0.45781  Biso   1.000  C
  H827     1.0000 0.13806  0.88987  0.44740  Biso   1.000  H
  C727     1.0000 0.20359  0.99540  0.45781  Biso   1.000  C
  H828     1.0000 0.74916  0.93085  0.47880  Biso   1.000  H
  H829     1.0000 0.74922  0.93085  0.47880  Biso   1.000  H
  N115     1.0000 0.72276  0.99836  0.44939  Biso   1.000  N
  N116     1.0000 0.72282  0.99836  0.44939  Biso   1.000  N
  H830     1.0000 0.71373  0.00886  0.46480  Biso   1.000  H
  C728     1.0000 0.73574  0.80668  0.49632  Biso   1.000  C
  C729     1.0000 0.79528  0.74927  0.49280  Biso   1.000  C
  C730     1.0000 0.73580  0.80668  0.49632  Biso   1.000  C
  C731     1.0000 0.89049  0.84679  0.49288  Biso   1.000  C
  C732     1.0000 0.83910  0.90696  0.49617  Biso   1.000  C
  C733     1.0000 0.16829  0.97527  0.48890  Biso   1.000  C
  C734     1.0000 0.20883  0.01788  0.46901  Biso   1.000  C
  C735     1.0000 0.20889  0.01788  0.46901  Biso   1.000  C
  C736     1.0000 0.25604  0.06135  0.44995  Biso   1.000  C
  C737     1.0000 0.70342  0.07205  0.44812  Biso   1.000  C
  C738     1.0000 0.70331  0.07205  0.44812  Biso   1.000  C
  C739     1.0000 0.74929  0.79531  0.50720  Biso   1.000  C
  H831     1.0000 0.67925  0.79780  0.49390  Biso   1.000  H
  C740     1.0000 0.74935  0.79531  0.50720  Biso   1.000  C
  H832     1.0000 0.67931  0.79780  0.49390  Biso   1.000  H
  H833     1.0000 0.77896  0.70135  0.48770  Biso   1.000  H
  C741     1.0000 0.80668  0.73581  0.50368  Biso   1.000  C
  H834     1.0000 0.77902  0.70135  0.48770  Biso   1.000  H
  C742     1.0000 0.80674  0.73581  0.50368  Biso   1.000  C
  H835     1.0000 0.93796  0.86315  0.48780  Biso   1.000  H
  C743     1.0000 0.90697  0.83905  0.50383  Biso   1.000  C
  C744     1.0000 0.84676  0.89047  0.50712  Biso   1.000  C
  H836     1.0000 0.85439  0.96518  0.49360  Biso   1.000  H
  C745     1.0000 0.19335  0.92910  0.49632  Biso   1.000  C
  C746     1.0000 0.19329  0.92910  0.49632  Biso   1.000  C
  C747     1.0000 0.09301  0.93207  0.49617  Biso   1.000  C
  C748     1.0000 0.25072  0.04594  0.49280  Biso   1.000  C
  C749     1.0000 0.25070  0.04601  0.49280  Biso   1.000  C
  C750     1.0000 0.25066  0.04594  0.49280  Biso   1.000  C
  C751     1.0000 0.25075  0.04601  0.49280  Biso   1.000  C
  C752     1.0000 0.15317  0.04365  0.49288  Biso   1.000  C
  H837     1.0000 0.24687  0.07858  0.47120  Biso   1.000  H
  H838     1.0000 0.24682  0.07858  0.47120  Biso   1.000  H
  N117     1.0000 0.31686  0.13976  0.45244  Biso   1.000  N
  H839     1.0000 0.24503  0.04587  0.44240  Biso   1.000  H
  H840     1.0000 0.24509  0.04587  0.44240  Biso   1.000  H
  C753     1.0000 0.79285  0.15288  0.44402  Biso   1.000  C
  C754     1.0000 0.62884  0.04634  0.43944  Biso   1.000  C
  H841     1.0000 0.68506  0.08639  0.45530  Biso   1.000  H
  C755     1.0000 0.62879  0.04634  0.43944  Biso   1.000  C
  H842     1.0000 0.70136  0.77895  0.51230  Biso   1.000  H
  C756     1.0000 0.83164  0.80695  0.51110  Biso   1.000  C
  H843     1.0000 0.70142  0.77895  0.51230  Biso   1.000  H
  C757     1.0000 0.83170  0.80695  0.51110  Biso   1.000  C
  H844     1.0000 0.79776  0.67928  0.50610  Biso   1.000  H
  H845     1.0000 0.79782  0.67928  0.50610  Biso   1.000  H
  H846     1.0000 0.96517  0.85440  0.50640  Biso   1.000  H
  H847     1.0000 0.86318  0.93799  0.51220  Biso   1.000  H
  C758     1.0000 0.20475  0.95401  0.50720  Biso   1.000  C
  H848     1.0000 0.20222  0.88145  0.49390  Biso   1.000  H
  C759     1.0000 0.20469  0.95401  0.50720  Biso   1.000  C
  H849     1.0000 0.20217  0.88145  0.49390  Biso   1.000  H
  C760     1.0000 0.10955  0.95629  0.50712  Biso   1.000  C
  H850     1.0000 0.03485  0.88919  0.49360  Biso   1.000  H
  H851     1.0000 0.29859  0.07757  0.48770  Biso   1.000  H
  C761     1.0000 0.26422  0.07084  0.50368  Biso   1.000  C
  C762     1.0000 0.26410  0.07084  0.50368  Biso   1.000  C
  H852     1.0000 0.29865  0.07757  0.48770  Biso   1.000  H
  H853     1.0000 0.13678  0.07475  0.48780  Biso   1.000  H
  C763     1.0000 0.16091  0.06788  0.50383  Biso   1.000  C
  C764     1.0000 0.36001  0.20706  0.44402  Biso   1.000  C
  C765     1.0000 0.35990  0.20706  0.44402  Biso   1.000  C
  N118     1.0000 0.86013  0.17704  0.45244  Biso   1.000  N
  H854     1.0000 0.81276  0.13720  0.43710  Biso   1.000  H
  C766     1.0000 0.78004  0.23647  0.44226  Biso   1.000  C
  H855     1.0000 0.81270  0.13720  0.43710  Biso   1.000  H
  H856     1.0000 0.57228  0.99338  0.44200  Biso   1.000  H
  C767     1.0000 0.61429  0.12845  0.43777  Biso   1.000  C
  H857     1.0000 0.64698  0.03086  0.43240  Biso   1.000  H
  H858     1.0000 0.64692  0.03086  0.43240  Biso   1.000  H
  C768     1.0000 0.84075  0.79336  0.52306  Biso   1.000  C
  C769     1.0000 0.84081  0.79336  0.52306  Biso   1.000  C
  H859     1.0000 0.22099  0.92237  0.51230  Biso   1.000  H
  C770     1.0000 0.19299  0.02467  0.51110  Biso   1.000  C
  H860     1.0000 0.06201  0.92520  0.51220  Biso   1.000  H
  H861     1.0000 0.32074  0.11849  0.50610  Biso   1.000  H
  H862     1.0000 0.32063  0.11849  0.50610  Biso   1.000  H
  H863     1.0000 0.14557  0.11075  0.50640  Biso   1.000  H
  H864     1.0000 0.32453  0.18727  0.43710  Biso   1.000  H
  C771     1.0000 0.45640  0.21985  0.44226  Biso   1.000  C
  C772     1.0000 0.36869  0.29657  0.44812  Biso   1.000  C
  H865     1.0000 0.32448  0.18727  0.43710  Biso   1.000  H
  C773     1.0000 0.36875  0.29657  0.44812  Biso   1.000  C
  C774     1.0000 0.93854  0.19468  0.44995  Biso   1.000  C
  H866     1.0000 0.83688  0.28850  0.43960  Biso   1.000  H
  H867     1.0000 0.76330  0.25337  0.44930  Biso   1.000  H
  C775     1.0000 0.70160  0.20935  0.43331  Biso   1.000  C
  H868     1.0000 0.83682  0.28850  0.43960  Biso   1.000  H
  C776     1.0000 0.70149  0.20935  0.43331  Biso   1.000  C
  H869     1.0000 0.56440  0.11237  0.43250  Biso   1.000  H
  H870     1.0000 0.59790  0.14474  0.44490  Biso   1.000  H
  H871     1.0000 0.59778  0.14474  0.44490  Biso   1.000  H
  C777     1.0000 0.89907  0.76300  0.52655  Biso   1.000  C
  C778     1.0000 0.79103  0.80897  0.53099  Biso   1.000  C
  C779     1.0000 0.89913  0.76300  0.52655  Biso   1.000  C
  C780     1.0000 0.79109  0.80897  0.53099  Biso   1.000  C
  C781     1.0000 0.20655  0.04735  0.52306  Biso   1.000  C
  H872     1.0000 0.45161  0.16305  0.43960  Biso   1.000  H
  H873     1.0000 0.49011  0.23667  0.44930  Biso   1.000  H
  C782     1.0000 0.50774  0.29839  0.43331  Biso   1.000  C
  H874     1.0000 0.45155  0.16305  0.43960  Biso   1.000  H
  C783     1.0000 0.50785  0.29839  0.43331  Biso   1.000  C
  N119     1.0000 0.27554  0.27719  0.44939  Biso   1.000  N
  C784     1.0000 0.41743  0.37108  0.43944  Biso   1.000  C
  H875     1.0000 0.40128  0.31488  0.45530  Biso   1.000  H
  H876     1.0000 0.40122  0.31488  0.45530  Biso   1.000  H
  N120     1.0000 0.27565  0.27719  0.44939  Biso   1.000  N
  C785     1.0000 0.41754  0.37108  0.43944  Biso   1.000  C
  H877     1.0000 0.95408  0.19919  0.44240  Biso   1.000  H
  C786     1.0000 0.00461  0.20814  0.45781  Biso   1.000  C
  H878     1.0000 0.69197  0.26084  0.43200  Biso   1.000  H
  H879     1.0000 0.71866  0.19300  0.42630  Biso   1.000  H
  H880     1.0000 0.69200  0.26090  0.43200  Biso   1.000  H
  H881     1.0000 0.93088  0.74921  0.52120  Biso   1.000  H
  C787     1.0000 0.91056  0.75311  0.53732  Biso   1.000  C
  H882     1.0000 0.93094  0.74921  0.52120  Biso   1.000  H
  C788     1.0000 0.91062  0.75311  0.53732  Biso   1.000  C
  C789     1.0000 0.79638  0.79181  0.54219  Biso   1.000  C
  H883     1.0000 0.75306  0.83165  0.52880  Biso   1.000  H
  C790     1.0000 0.79644  0.79181  0.54219  Biso   1.000  C
  C791     1.0000 0.19098  0.98207  0.53099  Biso   1.000  C
  C792     1.0000 0.23697  0.13606  0.52655  Biso   1.000  C
  C793     1.0000 0.23691  0.13606  0.52655  Biso   1.000  C
  H884     1.0000 0.56888  0.30795  0.43200  Biso   1.000  H
  H885     1.0000 0.47430  0.28130  0.42630  Biso   1.000  H
  C794     1.0000 0.51414  0.38568  0.43777  Biso   1.000  C
  C795     1.0000 0.51420  0.38568  0.43777  Biso   1.000  C
  C796     1.0000 0.25136  0.27255  0.45923  Biso   1.000  C
  H886     1.0000 0.42107  0.42768  0.44200  Biso   1.000  H
  H887     1.0000 0.38384  0.35297  0.43240  Biso   1.000  H
  H888     1.0000 0.42101  0.42768  0.44200  Biso   1.000  H
  H889     1.0000 0.38389  0.35297  0.43240  Biso   1.000  H
  C797     1.0000 0.98209  0.19098  0.46901  Biso   1.000  C
  C798     1.0000 0.09300  0.23607  0.45490  Biso   1.000  C
  C799     1.0000 0.85685  0.76388  0.54510  Biso   1.000  C
  C800     1.0000 0.97878  0.72740  0.54077  Biso   1.000  C
  C801     1.0000 0.85691  0.76388  0.54510  Biso   1.000  C
  C802     1.0000 0.74384  0.80527  0.55005  Biso   1.000  C
  C803     1.0000 0.74389  0.80527  0.55005  Biso   1.000  C
  H890     1.0000 0.16832  0.92136  0.52880  Biso   1.000  H
  H891     1.0000 0.16827  0.92136  0.52880  Biso   1.000  H
  C804     1.0000 0.20817  0.00455  0.54219  Biso   1.000  C
  H892     1.0000 0.25075  0.18169  0.52120  Biso   1.000  H
  C805     1.0000 0.24685  0.15746  0.53732  Biso   1.000  C
  H893     1.0000 0.54793  0.43555  0.43250  Biso   1.000  H
  H894     1.0000 0.54685  0.40204  0.44490  Biso   1.000  H
  H895     1.0000 0.54679  0.40204  0.44490  Biso   1.000  H
  H896     1.0000 0.29511  0.28614  0.46480  Biso   1.000  H
  C806     1.0000 0.15743  0.24684  0.46268  Biso   1.000  C
  C807     1.0000 0.15746  0.24690  0.46268  Biso   1.000  C
  H897     1.0000 0.29499  0.28614  0.46480  Biso   1.000  H
  H898     1.0000 0.92144  0.16830  0.47120  Biso   1.000  H
  H899     1.0000 0.92133  0.16830  0.47120  Biso   1.000  H
  C808     1.0000 0.04743  0.20659  0.47694  Biso   1.000  C
  H900     1.0000 0.11007  0.24818  0.44740  Biso   1.000  H
  H901     1.0000 0.86186  0.75176  0.55260  Biso   1.000  H
  H902     1.0000 0.86192  0.75176  0.55260  Biso   1.000  H
  N121     1.0000 0.99832  0.72276  0.55061  Biso   1.000  N
  N122     1.0000 0.99838  0.72276  0.55061  Biso   1.000  N
  H903     1.0000 0.00894  0.71381  0.53520  Biso   1.000  H
  H904     1.0000 0.00888  0.71381  0.53520  Biso   1.000  H
  N123     1.0000 0.68306  0.82290  0.54756  Biso   1.000  N
  H905     1.0000 0.75487  0.80076  0.55760  Biso   1.000  H
  N124     1.0000 0.68312  0.82290  0.54756  Biso   1.000  N
  C809     1.0000 0.19472  0.93859  0.55005  Biso   1.000  C
  C810     1.0000 0.19466  0.93859  0.55005  Biso   1.000  C
  C811     1.0000 0.23612  0.09298  0.54510  Biso   1.000  C
  C812     1.0000 0.23607  0.09298  0.54510  Biso   1.000  C
  C813     1.0000 0.27252  0.25135  0.54077  Biso   1.000  C
  C814     1.0000 0.27264  0.25135  0.54077  Biso   1.000  C
  C815     1.0000 0.13604  0.23694  0.47345  Biso   1.000  C
  C816     1.0000 0.02466  0.19300  0.48890  Biso   1.000  C
  C817     1.0000 0.07209  0.70337  0.55188  Biso   1.000  C
  C818     1.0000 0.63994  0.84706  0.55598  Biso   1.000  C
  C819     1.0000 0.64000  0.84706  0.55598  Biso   1.000  C
  N125     1.0000 0.17714  0.86019  0.54756  Biso   1.000  N
  H906     1.0000 0.19919  0.95407  0.55760  Biso   1.000  H
  N126     1.0000 0.17708  0.86019  0.54756  Biso   1.000  N
  H907     1.0000 0.24823  0.11008  0.55260  Biso   1.000  H
  H908     1.0000 0.24817  0.11008  0.55260  Biso   1.000  H
  N127     1.0000 0.27718  0.27557  0.55061  Biso   1.000  N
  H909     1.0000 0.28618  0.29509  0.53520  Biso   1.000  H
  H910     1.0000 0.18164  0.25074  0.47880  Biso   1.000  H
  C820     1.0000 0.95401  0.20464  0.49280  Biso   1.000  C
  C821     1.0000 0.95390  0.20464  0.49280  Biso   1.000  C
  C822     1.0000 0.95626  0.10947  0.49288  Biso   1.000  C
  C823     1.0000 0.07090  0.26413  0.49632  Biso   1.000  C
  C824     1.0000 0.07093  0.26420  0.49632  Biso   1.000  C
  C825     1.0000 0.06789  0.16089  0.49617  Biso   1.000  C
  C826     1.0000 0.15293  0.79288  0.55598  Biso   1.000  C
  C827     1.0000 0.04638  0.62887  0.56056  Biso   1.000  C
  H911     1.0000 0.08643  0.68507  0.54470  Biso   1.000  H
  H912     1.0000 0.08637  0.68507  0.54470  Biso   1.000  H
  C828     1.0000 0.15287  0.79288  0.55598  Biso   1.000  C
  H913     1.0000 0.67547  0.86274  0.56290  Biso   1.000  H
  C829     1.0000 0.54354  0.76347  0.55774  Biso   1.000  C
  C830     1.0000 0.63128  0.92789  0.55188  Biso   1.000  C
  H914     1.0000 0.67550  0.86281  0.56290  Biso   1.000  H
  C831     1.0000 0.54360  0.76347  0.55774  Biso   1.000  C
  C832     1.0000 0.63134  0.92789  0.55188  Biso   1.000  C
  C833     1.0000 0.29661  0.36865  0.55188  Biso   1.000  C
  C834     1.0000 0.29656  0.36865  0.55188  Biso   1.000  C
  H915     1.0000 0.92238  0.22099  0.48770  Biso   1.000  H
  C835     1.0000 0.92909  0.19326  0.50368  Biso   1.000  C
  H916     1.0000 0.92516  0.06196  0.48780  Biso   1.000  H
  C836     1.0000 0.93205  0.09298  0.50383  Biso   1.000  C
  C837     1.0000 0.04604  0.25067  0.50720  Biso   1.000  C
  H917     1.0000 0.11851  0.32067  0.49390  Biso   1.000  H
  C838     1.0000 0.04592  0.25067  0.50720  Biso   1.000  C
  C839     1.0000 0.04367  0.15315  0.50712  Biso   1.000  C
  H918     1.0000 0.11075  0.14555  0.49360  Biso   1.000  H
  H919     1.0000 0.13723  0.81267  0.56290  Biso   1.000  H
  C840     1.0000 0.23653  0.78010  0.55774  Biso   1.000  C
  H920     1.0000 0.13717  0.81267  0.56290  Biso   1.000  H
  C841     1.0000 0.23647  0.78010  0.55774  Biso   1.000  C
  H921     1.0000 0.99337  0.57227  0.55800  Biso   1.000  H
  C842     1.0000 0.12849  0.61427  0.56223  Biso   1.000  C
  H922     1.0000 0.03090  0.64697  0.56760  Biso   1.000  H
  H923     1.0000 0.54836  0.71145  0.56040  Biso   1.000  H
  H924     1.0000 0.50985  0.74658  0.55070  Biso   1.000  H
  C843     1.0000 0.49217  0.79060  0.56669  Biso   1.000  C
  H925     1.0000 0.54845  0.71152  0.56040  Biso   1.000  H
  H926     1.0000 0.50991  0.74658  0.55070  Biso   1.000  H
  C844     1.0000 0.49223  0.79060  0.56669  Biso   1.000  C
  H927     1.0000 0.54842  0.71145  0.56040  Biso   1.000  H
  H928     1.0000 0.54839  0.71152  0.56040  Biso   1.000  H
  C845     1.0000 0.58247  0.95360  0.56056  Biso   1.000  C
  H929     1.0000 0.59865  0.91356  0.54470  Biso   1.000  H
  C846     1.0000 0.58253  0.95360  0.56056  Biso   1.000  C
  H930     1.0000 0.59870  0.91356  0.54470  Biso   1.000  H
  N128     1.0000 0.72443  0.00159  0.55061  Biso   1.000  N
  N129     1.0000 0.72438  0.00159  0.55061  Biso   1.000  N
  C847     1.0000 0.20706  0.35997  0.55598  Biso   1.000  C
  C848     1.0000 0.37108  0.41745  0.56056  Biso   1.000  C
  H931     1.0000 0.31492  0.40130  0.54470  Biso   1.000  H
  H932     1.0000 0.88148  0.20215  0.50610  Biso   1.000  H
  C849     1.0000 0.97536  0.16830  0.51110  Biso   1.000  C
  C850     1.0000 0.97524  0.16830  0.51110  Biso   1.000  C
  H933     1.0000 0.88924  0.03477  0.50640  Biso   1.000  H
  H934     1.0000 0.07758  0.29859  0.51230  Biso   1.000  H
  H935     1.0000 0.07478  0.13680  0.51220  Biso   1.000  H
  H936     1.0000 0.28853  0.83690  0.56040  Biso   1.000  H
  H937     1.0000 0.25341  0.76327  0.55070  Biso   1.000  H
  C851     1.0000 0.20938  0.70156  0.56669  Biso   1.000  C
  H938     1.0000 0.28847  0.83690  0.56040  Biso   1.000  H
  H939     1.0000 0.25335  0.76327  0.55070  Biso   1.000  H
  H940     1.0000 0.11241  0.56439  0.56750  Biso   1.000  H
  H941     1.0000 0.14485  0.59791  0.55510  Biso   1.000  H
  H942     1.0000 0.14479  0.59791  0.55510  Biso   1.000  H
  H943     1.0000 0.11235  0.56439  0.56750  Biso   1.000  H
  H944     1.0000 0.43110  0.73911  0.56800  Biso   1.000  H
  H945     1.0000 0.52564  0.80695  0.57370  Biso   1.000  H
  C852     1.0000 0.48576  0.87149  0.56223  Biso   1.000  C
  H946     1.0000 0.52570  0.80695  0.57370  Biso   1.000  H
  C853     1.0000 0.48581  0.87149  0.56223  Biso   1.000  C
  H947     1.0000 0.61609  0.96908  0.56760  Biso   1.000  H
  H948     1.0000 0.57894  0.00657  0.55800  Biso   1.000  H
  H949     1.0000 0.57882  0.00657  0.55800  Biso   1.000  H
  C854     1.0000 0.74857  0.02117  0.54077  Biso   1.000  C
  C855     1.0000 0.74851  0.02117  0.54077  Biso   1.000  C
  N130     1.0000 0.13977  0.31690  0.54756  Biso   1.000  N
  H950     1.0000 0.18725  0.32444  0.56290  Biso   1.000  H
  C856     1.0000 0.21993  0.45635  0.55774  Biso   1.000  C
  C857     1.0000 0.21981  0.45635  0.55774  Biso   1.000  C
  C858     1.0000 0.38563  0.51416  0.56223  Biso   1.000  C
  H951     1.0000 0.42774  0.42108  0.55800  Biso   1.000  H
  H952     1.0000 0.35294  0.38386  0.56760  Biso   1.000  H
  H953     1.0000 0.42762  0.42108  0.55800  Biso   1.000  H
  C859     1.0000 0.38574  0.51416  0.56223  Biso   1.000  C
  C860     1.0000 0.95254  0.15914  0.52306  Biso   1.000  C
  H954     1.0000 0.26090  0.69200  0.56800  Biso   1.000  H
  H955     1.0000 0.19298  0.71865  0.57370  Biso   1.000  H
  H956     1.0000 0.45195  0.88758  0.56750  Biso   1.000  H
  H957     1.0000 0.45307  0.85521  0.55510  Biso   1.000  H
  H958     1.0000 0.45201  0.88758  0.56750  Biso   1.000  H
  H959     1.0000 0.45313  0.85521  0.55510  Biso   1.000  H
  H960     1.0000 0.70485  0.99109  0.53520  Biso   1.000  H
  H961     1.0000 0.70491  0.99109  0.53520  Biso   1.000  H
  C861     1.0000 0.84245  0.08935  0.53732  Biso   1.000  C
  C862     1.0000 0.06144  0.25606  0.55005  Biso   1.000  C
  C863     1.0000 0.06132  0.25606  0.55005  Biso   1.000  C
  H962     1.0000 0.16310  0.45157  0.56040  Biso   1.000  H
  H963     1.0000 0.23667  0.49007  0.55070  Biso   1.000  H
  C864     1.0000 0.29833  0.50777  0.56669  Biso   1.000  C
  H964     1.0000 0.23661  0.49007  0.55070  Biso   1.000  H
  C865     1.0000 0.29838  0.50777  0.56669  Biso   1.000  C
  H965     1.0000 0.43557  0.54795  0.56750  Biso   1.000  H
  H966     1.0000 0.40210  0.54687  0.55510  Biso   1.000  H
  C866     1.0000 0.86389  0.10086  0.52655  Biso   1.000  C
  C867     1.0000 0.01786  0.20888  0.53099  Biso   1.000  C
  C868     1.0000 0.90696  0.14306  0.54510  Biso   1.000  C
  C869     1.0000 0.99538  0.20356  0.54219  Biso   1.000  C
  H967     1.0000 0.04587  0.24509  0.55760  Biso   1.000  H
  H968     1.0000 0.30796  0.56888  0.56800  Biso   1.000  H
  H969     1.0000 0.28122  0.47425  0.57370  Biso   1.000  H
  H970     1.0000 0.28128  0.47425  0.57370  Biso   1.000  H
  H971     1.0000 0.81834  0.06909  0.52120  Biso   1.000  H
  H972     1.0000 0.81822  0.06909  0.52120  Biso   1.000  H
  H973     1.0000 0.07857  0.24684  0.52880  Biso   1.000  H
  H974     1.0000 0.07860  0.24690  0.52880  Biso   1.000  H
  H975     1.0000 0.88990  0.13808  0.55260  Biso   1.000  H
  C870     1.0000 0.79053  0.49218  0.43331  Biso   1.000  C
  C871     1.0000 0.76349  0.54360  0.44226  Biso   1.000  C
  H976     1.0000 0.73911  0.43107  0.43200  Biso   1.000  H
  H977     1.0000 0.80700  0.52570  0.42630  Biso   1.000  H
  C872     1.0000 0.87150  0.48579  0.43777  Biso   1.000  C
  H978     1.0000 0.73905  0.43107  0.43200  Biso   1.000  H
  H979     1.0000 0.80694  0.52570  0.42630  Biso   1.000  H
  C873     1.0000 0.87144  0.48579  0.43777  Biso   1.000  C
  C874     1.0000 0.79059  0.49218  0.43331  Biso   1.000  C
  H980     1.0000 0.74658  0.50988  0.44930  Biso   1.000  H
  C875     1.0000 0.84712  0.63997  0.44402  Biso   1.000  C
  H981     1.0000 0.71150  0.54838  0.43960  Biso   1.000  H
  C876     1.0000 0.84706  0.63997  0.44402  Biso   1.000  C
  H982     1.0000 0.71144  0.54838  0.43960  Biso   1.000  H
  H983     1.0000 0.88760  0.45200  0.43250  Biso   1.000  H
  H984     1.0000 0.85520  0.45308  0.44490  Biso   1.000  H
  C877     1.0000 0.95360  0.58250  0.43944  Biso   1.000  C
  H985     1.0000 0.85514  0.45308  0.44490  Biso   1.000  H
  C878     1.0000 0.95354  0.58250  0.43944  Biso   1.000  C
  H986     1.0000 0.86279  0.67551  0.43710  Biso   1.000  H
  C879     1.0000 0.92787  0.63129  0.44812  Biso   1.000  C
  N131     1.0000 0.82284  0.68305  0.45244  Biso   1.000  N
  N132     1.0000 0.82294  0.68312  0.45244  Biso   1.000  N
  C880     1.0000 0.92793  0.63129  0.44812  Biso   1.000  C
  N133     1.0000 0.82290  0.68305  0.45244  Biso   1.000  N
  N134     1.0000 0.82288  0.68312  0.45244  Biso   1.000  N
  H987     1.0000 0.96911  0.61608  0.43240  Biso   1.000  H
  H988     1.0000 0.96905  0.61608  0.43240  Biso   1.000  H
  H989     1.0000 0.00663  0.57886  0.44200  Biso   1.000  H
  H990     1.0000 0.00657  0.57886  0.44200  Biso   1.000  H
  H991     1.0000 0.91354  0.59865  0.45530  Biso   1.000  H
  H992     1.0000 0.91363  0.59872  0.45530  Biso   1.000  H
  H993     1.0000 0.91359  0.59865  0.45530  Biso   1.000  H
  H994     1.0000 0.91357  0.59872  0.45530  Biso   1.000  H
  N135     1.0000 0.00163  0.72437  0.44939  Biso   1.000  N
  N136     1.0000 0.00157  0.72437  0.44939  Biso   1.000  N
  C881     1.0000 0.80530  0.74389  0.44995  Biso   1.000  C
  C882     1.0000 0.02121  0.74860  0.45923  Biso   1.000  C
  C883     1.0000 0.79179  0.79638  0.45781  Biso   1.000  C
  H995     1.0000 0.80081  0.75486  0.44240  Biso   1.000  H
  H996     1.0000 0.80076  0.75486  0.44240  Biso   1.000  H
  H997     1.0000 0.99106  0.70485  0.46480  Biso   1.000  H
  C884     1.0000 0.08943  0.84249  0.46268  Biso   1.000  C
  C885     1.0000 0.08937  0.84249  0.46268  Biso   1.000  C
  C886     1.0000 0.76388  0.85689  0.45490  Biso   1.000  C
  C887     1.0000 0.80901  0.79107  0.46901  Biso   1.000  C
  C888     1.0000 0.80895  0.79107  0.46901  Biso   1.000  C
  C889     1.0000 0.76393  0.85689  0.45490  Biso   1.000  C
  C890     1.0000 0.10094  0.86389  0.47345  Biso   1.000  C
  C891     1.0000 0.14311  0.90696  0.45490  Biso   1.000  C
  C892     1.0000 0.10088  0.86389  0.47345  Biso   1.000  C
  C893     1.0000 0.14305  0.90696  0.45490  Biso   1.000  C
  C894     1.0000 0.75314  0.91060  0.46268  Biso   1.000  C
  H998     1.0000 0.75180  0.86187  0.44740  Biso   1.000  H
  C895     1.0000 0.75308  0.91060  0.46268  Biso   1.000  C
  H999     1.0000 0.75174  0.86187  0.44740  Biso   1.000  H
  H1000    1.0000 0.83170  0.75311  0.47120  Biso   1.000  H
  C896     1.0000 0.79343  0.84080  0.47694  Biso   1.000  C
  C897     1.0000 0.79337  0.84080  0.47694  Biso   1.000  C
  C898     1.0000 0.15922  0.95259  0.47694  Biso   1.000  C
  H1001    1.0000 0.06909  0.81826  0.47880  Biso   1.000  H
  C899     1.0000 0.15917  0.95259  0.47694  Biso   1.000  C
  H1002    1.0000 0.06903  0.81826  0.47880  Biso   1.000  H
  H1003    1.0000 0.13812  0.88987  0.44740  Biso   1.000  H
  C900     1.0000 0.20365  0.99540  0.45781  Biso   1.000  C
  H1004    1.0000 0.13806  0.88987  0.44740  Biso   1.000  H
  C901     1.0000 0.20359  0.99540  0.45781  Biso   1.000  C
  C902     1.0000 0.76300  0.89909  0.47345  Biso   1.000  C
  C903     1.0000 0.72742  0.97877  0.45923  Biso   1.000  C
  C904     1.0000 0.72737  0.97877  0.45923  Biso   1.000  C
  C905     1.0000 0.76294  0.89909  0.47345  Biso   1.000  C
  C906     1.0000 0.80698  0.83165  0.48890  Biso   1.000  C
  C907     1.0000 0.16829  0.97527  0.48890  Biso   1.000  C
  C908     1.0000 0.20883  0.01788  0.46901  Biso   1.000  C
  C909     1.0000 0.20889  0.01788  0.46901  Biso   1.000  C
  C910     1.0000 0.25604  0.06135  0.44995  Biso   1.000  C
  H1005    1.0000 0.74916  0.93085  0.47880  Biso   1.000  H
  H1006    1.0000 0.74922  0.93085  0.47880  Biso   1.000  H
  N137     1.0000 0.72282  0.99836  0.44939  Biso   1.000  N
  N138     1.0000 0.72276  0.99836  0.44939  Biso   1.000  N
  H1007    1.0000 0.71373  0.00886  0.46480  Biso   1.000  H
  C911     1.0000 0.79528  0.74927  0.49280  Biso   1.000  C
  C912     1.0000 0.73580  0.80668  0.49632  Biso   1.000  C
  C913     1.0000 0.73574  0.80668  0.49632  Biso   1.000  C
  C914     1.0000 0.89049  0.84679  0.49288  Biso   1.000  C
  C915     1.0000 0.83910  0.90696  0.49617  Biso   1.000  C
  C916     1.0000 0.19335  0.92910  0.49632  Biso   1.000  C
  C917     1.0000 0.19329  0.92910  0.49632  Biso   1.000  C
  C918     1.0000 0.09301  0.93207  0.49617  Biso   1.000  C
  C919     1.0000 0.25072  0.04594  0.49280  Biso   1.000  C
  C920     1.0000 0.25070  0.04601  0.49280  Biso   1.000  C
  C921     1.0000 0.25066  0.04594  0.49280  Biso   1.000  C
  C922     1.0000 0.25075  0.04601  0.49280  Biso   1.000  C
  C923     1.0000 0.15317  0.04365  0.49288  Biso   1.000  C
  H1008    1.0000 0.24687  0.07858  0.47120  Biso   1.000  H
  H1009    1.0000 0.24682  0.07858  0.47120  Biso   1.000  H
  N139     1.0000 0.31686  0.13976  0.45244  Biso   1.000  N
  H1010    1.0000 0.24503  0.04587  0.44240  Biso   1.000  H
  H1011    1.0000 0.24509  0.04587  0.44240  Biso   1.000  H
  C924     1.0000 0.70342  0.07205  0.44812  Biso   1.000  C
  C925     1.0000 0.70331  0.07205  0.44812  Biso   1.000  C
  H1012    1.0000 0.77896  0.70135  0.48770  Biso   1.000  H
  C926     1.0000 0.80674  0.73581  0.50368  Biso   1.000  C
  C927     1.0000 0.80668  0.73581  0.50368  Biso   1.000  C
  H1013    1.0000 0.77902  0.70135  0.48770  Biso   1.000  H
  C928     1.0000 0.74929  0.79531  0.50720  Biso   1.000  C
  H1014    1.0000 0.67931  0.79780  0.49390  Biso   1.000  H
  H1015    1.0000 0.67925  0.79780  0.49390  Biso   1.000  H
  C929     1.0000 0.74935  0.79531  0.50720  Biso   1.000  C
  H1016    1.0000 0.93796  0.86315  0.48780  Biso   1.000  H
  C930     1.0000 0.90697  0.83905  0.50383  Biso   1.000  C
  C931     1.0000 0.84676  0.89047  0.50712  Biso   1.000  C
  H1017    1.0000 0.85439  0.96518  0.49360  Biso   1.000  H
  C932     1.0000 0.20475  0.95401  0.50720  Biso   1.000  C
  H1018    1.0000 0.20222  0.88145  0.49390  Biso   1.000  H
  C933     1.0000 0.20469  0.95401  0.50720  Biso   1.000  C
  H1019    1.0000 0.20217  0.88145  0.49390  Biso   1.000  H
  C934     1.0000 0.10955  0.95629  0.50712  Biso   1.000  C
  H1020    1.0000 0.03485  0.88919  0.49360  Biso   1.000  H
  H1021    1.0000 0.29859  0.07757  0.48770  Biso   1.000  H
  C935     1.0000 0.26422  0.07084  0.50368  Biso   1.000  C
  C936     1.0000 0.26410  0.07084  0.50368  Biso   1.000  C
  H1022    1.0000 0.29865  0.07757  0.48770  Biso   1.000  H
  H1023    1.0000 0.13678  0.07475  0.48780  Biso   1.000  H
  C937     1.0000 0.16091  0.06788  0.50383  Biso   1.000  C
  C938     1.0000 0.36001  0.20706  0.44402  Biso   1.000  C
  C939     1.0000 0.35990  0.20706  0.44402  Biso   1.000  C
  C940     1.0000 0.79285  0.15288  0.44402  Biso   1.000  C
  C941     1.0000 0.62884  0.04634  0.43944  Biso   1.000  C
  H1024    1.0000 0.68506  0.08639  0.45530  Biso   1.000  H
  C942     1.0000 0.62879  0.04634  0.43944  Biso   1.000  C
  H1025    1.0000 0.79782  0.67928  0.50610  Biso   1.000  H
  C943     1.0000 0.83170  0.80695  0.51110  Biso   1.000  C
  H1026    1.0000 0.79776  0.67928  0.50610  Biso   1.000  H
  C944     1.0000 0.83164  0.80695  0.51110  Biso   1.000  C
  H1027    1.0000 0.70136  0.77895  0.51230  Biso   1.000  H
  H1028    1.0000 0.70142  0.77895  0.51230  Biso   1.000  H
  H1029    1.0000 0.96517  0.85440  0.50640  Biso   1.000  H
  H1030    1.0000 0.86318  0.93799  0.51220  Biso   1.000  H
  C945     1.0000 0.19299  0.02467  0.51110  Biso   1.000  C
  H1031    1.0000 0.22099  0.92237  0.51230  Biso   1.000  H
  H1032    1.0000 0.06201  0.92520  0.51220  Biso   1.000  H
  H1033    1.0000 0.32074  0.11849  0.50610  Biso   1.000  H
  H1034    1.0000 0.32063  0.11849  0.50610  Biso   1.000  H
  H1035    1.0000 0.14557  0.11075  0.50640  Biso   1.000  H
  H1036    1.0000 0.32453  0.18727  0.43710  Biso   1.000  H
  C946     1.0000 0.45640  0.21985  0.44226  Biso   1.000  C
  C947     1.0000 0.36869  0.29657  0.44812  Biso   1.000  C
  H1037    1.0000 0.32448  0.18727  0.43710  Biso   1.000  H
  C948     1.0000 0.36875  0.29657  0.44812  Biso   1.000  C
  N140     1.0000 0.86013  0.17704  0.45244  Biso   1.000  N
  H1038    1.0000 0.81276  0.13720  0.43710  Biso   1.000  H
  C949     1.0000 0.78004  0.23647  0.44226  Biso   1.000  C
  H1039    1.0000 0.81270  0.13720  0.43710  Biso   1.000  H
  H1040    1.0000 0.57228  0.99338  0.44200  Biso   1.000  H
  C950     1.0000 0.61429  0.12845  0.43777  Biso   1.000  C
  H1041    1.0000 0.64698  0.03086  0.43240  Biso   1.000  H
  H1042    1.0000 0.64692  0.03086  0.43240  Biso   1.000  H
  C951     1.0000 0.84081  0.79336  0.52306  Biso   1.000  C
  C952     1.0000 0.84075  0.79336  0.52306  Biso   1.000  C
  C953     1.0000 0.20655  0.04735  0.52306  Biso   1.000  C
  H1043    1.0000 0.45161  0.16305  0.43960  Biso   1.000  H
  H1044    1.0000 0.49011  0.23667  0.44930  Biso   1.000  H
  C954     1.0000 0.50774  0.29839  0.43331  Biso   1.000  C
  H1045    1.0000 0.45155  0.16305  0.43960  Biso   1.000  H
  C955     1.0000 0.50785  0.29839  0.43331  Biso   1.000  C
  N141     1.0000 0.27554  0.27719  0.44939  Biso   1.000  N
  C956     1.0000 0.41743  0.37108  0.43944  Biso   1.000  C
  H1046    1.0000 0.40128  0.31488  0.45530  Biso   1.000  H
  H1047    1.0000 0.40122  0.31488  0.45530  Biso   1.000  H
  N142     1.0000 0.27565  0.27719  0.44939  Biso   1.000  N
  C957     1.0000 0.41754  0.37108  0.43944  Biso   1.000  C
  C958     1.0000 0.93854  0.19468  0.44995  Biso   1.000  C
  H1048    1.0000 0.83688  0.28850  0.43960  Biso   1.000  H
  H1049    1.0000 0.76330  0.25337  0.44930  Biso   1.000  H
  C959     1.0000 0.70160  0.20935  0.43331  Biso   1.000  C
  H1050    1.0000 0.83682  0.28850  0.43960  Biso   1.000  H
  C960     1.0000 0.70149  0.20935  0.43331  Biso   1.000  C
  H1051    1.0000 0.56440  0.11237  0.43250  Biso   1.000  H
  H1052    1.0000 0.59790  0.14474  0.44490  Biso   1.000  H
  H1053    1.0000 0.59778  0.14474  0.44490  Biso   1.000  H
  C961     1.0000 0.89913  0.76300  0.52655  Biso   1.000  C
  C962     1.0000 0.79109  0.80897  0.53099  Biso   1.000  C
  C963     1.0000 0.89907  0.76300  0.52655  Biso   1.000  C
  C964     1.0000 0.79103  0.80897  0.53099  Biso   1.000  C
  C965     1.0000 0.19098  0.98207  0.53099  Biso   1.000  C
  C966     1.0000 0.23697  0.13606  0.52655  Biso   1.000  C
  C967     1.0000 0.23691  0.13606  0.52655  Biso   1.000  C
  H1054    1.0000 0.56888  0.30795  0.43200  Biso   1.000  H
  H1055    1.0000 0.47430  0.28130  0.42630  Biso   1.000  H
  C968     1.0000 0.51414  0.38568  0.43777  Biso   1.000  C
  C969     1.0000 0.51420  0.38568  0.43777  Biso   1.000  C
  C970     1.0000 0.25136  0.27255  0.45923  Biso   1.000  C
  H1056    1.0000 0.42107  0.42768  0.44200  Biso   1.000  H
  H1057    1.0000 0.38384  0.35297  0.43240  Biso   1.000  H
  H1058    1.0000 0.42101  0.42768  0.44200  Biso   1.000  H
  H1059    1.0000 0.38389  0.35297  0.43240  Biso   1.000  H
  H1060    1.0000 0.95408  0.19919  0.44240  Biso   1.000  H
  C971     1.0000 0.00461  0.20814  0.45781  Biso   1.000  C
  H1061    1.0000 0.69197  0.26084  0.43200  Biso   1.000  H
  H1062    1.0000 0.71866  0.19300  0.42630  Biso   1.000  H
  H1063    1.0000 0.69200  0.26090  0.43200  Biso   1.000  H
  H1064    1.0000 0.93094  0.74921  0.52120  Biso   1.000  H
  C972     1.0000 0.91062  0.75311  0.53732  Biso   1.000  C
  H1065    1.0000 0.93088  0.74921  0.52120  Biso   1.000  H
  C973     1.0000 0.91056  0.75311  0.53732  Biso   1.000  C
  H1066    1.0000 0.75306  0.83165  0.52880  Biso   1.000  H
  C974     1.0000 0.79644  0.79181  0.54219  Biso   1.000  C
  C975     1.0000 0.79638  0.79181  0.54219  Biso   1.000  C
  C976     1.0000 0.20817  0.00455  0.54219  Biso   1.000  C
  H1067    1.0000 0.16832  0.92136  0.52880  Biso   1.000  H
  H1068    1.0000 0.16827  0.92136  0.52880  Biso   1.000  H
  C977     1.0000 0.24685  0.15746  0.53732  Biso   1.000  C
  H1069    1.0000 0.25075  0.18169  0.52120  Biso   1.000  H
  H1070    1.0000 0.54793  0.43555  0.43250  Biso   1.000  H
  H1071    1.0000 0.54685  0.40204  0.44490  Biso   1.000  H
  H1072    1.0000 0.54679  0.40204  0.44490  Biso   1.000  H
  H1073    1.0000 0.29511  0.28614  0.46480  Biso   1.000  H
  C978     1.0000 0.15743  0.24684  0.46268  Biso   1.000  C
  C979     1.0000 0.15746  0.24690  0.46268  Biso   1.000  C
  H1074    1.0000 0.29499  0.28614  0.46480  Biso   1.000  H
  C980     1.0000 0.09300  0.23607  0.45490  Biso   1.000  C
  C981     1.0000 0.98209  0.19098  0.46901  Biso   1.000  C
  C982     1.0000 0.97878  0.72740  0.54077  Biso   1.000  C
  C983     1.0000 0.85691  0.76388  0.54510  Biso   1.000  C
  C984     1.0000 0.85685  0.76388  0.54510  Biso   1.000  C
  C985     1.0000 0.74389  0.80527  0.55005  Biso   1.000  C
  C986     1.0000 0.74384  0.80527  0.55005  Biso   1.000  C
  C987     1.0000 0.19472  0.93859  0.55005  Biso   1.000  C
  C988     1.0000 0.19466  0.93859  0.55005  Biso   1.000  C
  C989     1.0000 0.23612  0.09298  0.54510  Biso   1.000  C
  C990     1.0000 0.23607  0.09298  0.54510  Biso   1.000  C
  C991     1.0000 0.27252  0.25135  0.54077  Biso   1.000  C
  C992     1.0000 0.27264  0.25135  0.54077  Biso   1.000  C
  C993     1.0000 0.13604  0.23694  0.47345  Biso   1.000  C
  H1075    1.0000 0.11007  0.24818  0.44740  Biso   1.000  H
  H1076    1.0000 0.92144  0.16830  0.47120  Biso   1.000  H
  H1077    1.0000 0.92133  0.16830  0.47120  Biso   1.000  H
  C994     1.0000 0.04743  0.20659  0.47694  Biso   1.000  C
  N143     1.0000 0.99838  0.72276  0.55061  Biso   1.000  N
  N144     1.0000 0.99832  0.72276  0.55061  Biso   1.000  N
  H1078    1.0000 0.00894  0.71381  0.53520  Biso   1.000  H
  H1079    1.0000 0.00888  0.71381  0.53520  Biso   1.000  H
  H1080    1.0000 0.86186  0.75176  0.55260  Biso   1.000  H
  H1081    1.0000 0.86192  0.75176  0.55260  Biso   1.000  H
  H1082    1.0000 0.75487  0.80076  0.55760  Biso   1.000  H
  N145     1.0000 0.68312  0.82290  0.54756  Biso   1.000  N
  N146     1.0000 0.68306  0.82290  0.54756  Biso   1.000  N
  N147     1.0000 0.17714  0.86019  0.54756  Biso   1.000  N
  H1083    1.0000 0.19919  0.95407  0.55760  Biso   1.000  H
  N148     1.0000 0.17708  0.86019  0.54756  Biso   1.000  N
  H1084    1.0000 0.24823  0.11008  0.55260  Biso   1.000  H
  H1085    1.0000 0.24817  0.11008  0.55260  Biso   1.000  H
  N149     1.0000 0.27718  0.27557  0.55061  Biso   1.000  N
  H1086    1.0000 0.28618  0.29509  0.53520  Biso   1.000  H
  H1087    1.0000 0.18164  0.25074  0.47880  Biso   1.000  H
  C995     1.0000 0.02466  0.19300  0.48890  Biso   1.000  C
  C996     1.0000 0.07209  0.70337  0.55188  Biso   1.000  C
  C997     1.0000 0.64000  0.84706  0.55598  Biso   1.000  C
  C998     1.0000 0.63994  0.84706  0.55598  Biso   1.000  C
  C999     1.0000 0.15293  0.79288  0.55598  Biso   1.000  C
  C1000    1.0000 0.15287  0.79288  0.55598  Biso   1.000  C
  C1001    1.0000 0.29661  0.36865  0.55188  Biso   1.000  C
  C1002    1.0000 0.29656  0.36865  0.55188  Biso   1.000  C
  C1003    1.0000 0.95401  0.20464  0.49280  Biso   1.000  C
  C1004    1.0000 0.95390  0.20464  0.49280  Biso   1.000  C
  C1005    1.0000 0.95626  0.10947  0.49288  Biso   1.000  C
  C1006    1.0000 0.07090  0.26413  0.49632  Biso   1.000  C
  C1007    1.0000 0.07093  0.26420  0.49632  Biso   1.000  C
  C1008    1.0000 0.06789  0.16089  0.49617  Biso   1.000  C
  C1009    1.0000 0.04638  0.62887  0.56056  Biso   1.000  C
  H1088    1.0000 0.08643  0.68507  0.54470  Biso   1.000  H
  H1089    1.0000 0.08637  0.68507  0.54470  Biso   1.000  H
  H1090    1.0000 0.67547  0.86274  0.56290  Biso   1.000  H
  C1010    1.0000 0.54360  0.76347  0.55774  Biso   1.000  C
  C1011    1.0000 0.63128  0.92789  0.55188  Biso   1.000  C
  H1091    1.0000 0.67550  0.86281  0.56290  Biso   1.000  H
  C1012    1.0000 0.54354  0.76347  0.55774  Biso   1.000  C
  C1013    1.0000 0.63134  0.92789  0.55188  Biso   1.000  C
  H1092    1.0000 0.13723  0.81267  0.56290  Biso   1.000  H
  C1014    1.0000 0.23653  0.78010  0.55774  Biso   1.000  C
  H1093    1.0000 0.13717  0.81267  0.56290  Biso   1.000  H
  C1015    1.0000 0.23647  0.78010  0.55774  Biso   1.000  C
  C1016    1.0000 0.37108  0.41745  0.56056  Biso   1.000  C
  C1017    1.0000 0.20706  0.35997  0.55598  Biso   1.000  C
  H1094    1.0000 0.31492  0.40130  0.54470  Biso   1.000  H
  H1095    1.0000 0.92238  0.22099  0.48770  Biso   1.000  H
  C1018    1.0000 0.92909  0.19326  0.50368  Biso   1.000  C
  H1096    1.0000 0.92516  0.06196  0.48780  Biso   1.000  H
  C1019    1.0000 0.93205  0.09298  0.50383  Biso   1.000  C
  C1020    1.0000 0.04604  0.25067  0.50720  Biso   1.000  C
  H1097    1.0000 0.11851  0.32067  0.49390  Biso   1.000  H
  C1021    1.0000 0.04592  0.25067  0.50720  Biso   1.000  C
  C1022    1.0000 0.04367  0.15315  0.50712  Biso   1.000  C
  H1098    1.0000 0.11075  0.14555  0.49360  Biso   1.000  H
  H1099    1.0000 0.99337  0.57227  0.55800  Biso   1.000  H
  C1023    1.0000 0.12849  0.61427  0.56223  Biso   1.000  C
  H1100    1.0000 0.03090  0.64697  0.56760  Biso   1.000  H
  H1101    1.0000 0.50991  0.74658  0.55070  Biso   1.000  H
  C1024    1.0000 0.49223  0.79060  0.56669  Biso   1.000  C
  C1025    1.0000 0.49217  0.79060  0.56669  Biso   1.000  C
  H1102    1.0000 0.54836  0.71145  0.56040  Biso   1.000  H
  H1103    1.0000 0.50985  0.74658  0.55070  Biso   1.000  H
  H1104    1.0000 0.54845  0.71152  0.56040  Biso   1.000  H
  H1105    1.0000 0.54842  0.71145  0.56040  Biso   1.000  H
  H1106    1.0000 0.54839  0.71152  0.56040  Biso   1.000  H
  C1026    1.0000 0.58253  0.95360  0.56056  Biso   1.000  C
  H1107    1.0000 0.59870  0.91356  0.54470  Biso   1.000  H
  C1027    1.0000 0.58247  0.95360  0.56056  Biso   1.000  C
  H1108    1.0000 0.59865  0.91356  0.54470  Biso   1.000  H
  N150     1.0000 0.72443  0.00159  0.55061  Biso   1.000  N
  N151     1.0000 0.72438  0.00159  0.55061  Biso   1.000  N
  H1109    1.0000 0.28853  0.83690  0.56040  Biso   1.000  H
  H1110    1.0000 0.25341  0.76327  0.55070  Biso   1.000  H
  C1028    1.0000 0.20938  0.70156  0.56669  Biso   1.000  C
  H1111    1.0000 0.28847  0.83690  0.56040  Biso   1.000  H
  H1112    1.0000 0.25335  0.76327  0.55070  Biso   1.000  H
  C1029    1.0000 0.38563  0.51416  0.56223  Biso   1.000  C
  H1113    1.0000 0.42774  0.42108  0.55800  Biso   1.000  H
  H1114    1.0000 0.35294  0.38386  0.56760  Biso   1.000  H
  H1115    1.0000 0.42762  0.42108  0.55800  Biso   1.000  H
  C1030    1.0000 0.38574  0.51416  0.56223  Biso   1.000  C
  H1116    1.0000 0.18725  0.32444  0.56290  Biso   1.000  H
  N152     1.0000 0.13977  0.31690  0.54756  Biso   1.000  N
  C1031    1.0000 0.21993  0.45635  0.55774  Biso   1.000  C
  C1032    1.0000 0.21981  0.45635  0.55774  Biso   1.000  C
  H1117    1.0000 0.88148  0.20215  0.50610  Biso   1.000  H
  C1033    1.0000 0.97536  0.16830  0.51110  Biso   1.000  C
  C1034    1.0000 0.97524  0.16830  0.51110  Biso   1.000  C
  H1118    1.0000 0.88924  0.03477  0.50640  Biso   1.000  H
  H1119    1.0000 0.07758  0.29859  0.51230  Biso   1.000  H
  H1120    1.0000 0.07478  0.13680  0.51220  Biso   1.000  H
  H1121    1.0000 0.11241  0.56439  0.56750  Biso   1.000  H
  H1122    1.0000 0.14485  0.59791  0.55510  Biso   1.000  H
  H1123    1.0000 0.14479  0.59791  0.55510  Biso   1.000  H
  H1124    1.0000 0.11235  0.56439  0.56750  Biso   1.000  H
  H1125    1.0000 0.43110  0.73911  0.56800  Biso   1.000  H
  H1126    1.0000 0.52570  0.80695  0.57370  Biso   1.000  H
  C1035    1.0000 0.48581  0.87149  0.56223  Biso   1.000  C
  H1127    1.0000 0.52564  0.80695  0.57370  Biso   1.000  H
  C1036    1.0000 0.48576  0.87149  0.56223  Biso   1.000  C
  H1128    1.0000 0.61609  0.96908  0.56760  Biso   1.000  H
  H1129    1.0000 0.57894  0.00657  0.55800  Biso   1.000  H
  H1130    1.0000 0.57882  0.00657  0.55800  Biso   1.000  H
  C1037    1.0000 0.74857  0.02117  0.54077  Biso   1.000  C
  C1038    1.0000 0.74851  0.02117  0.54077  Biso   1.000  C
  H1131    1.0000 0.26090  0.69200  0.56800  Biso   1.000  H
  H1132    1.0000 0.19298  0.71865  0.57370  Biso   1.000  H
  H1133    1.0000 0.43557  0.54795  0.56750  Biso   1.000  H
  C1039    1.0000 0.29833  0.50777  0.56669  Biso   1.000  C
  C1040    1.0000 0.29838  0.50777  0.56669  Biso   1.000  C
  H1134    1.0000 0.40210  0.54687  0.55510  Biso   1.000  H
  C1041    1.0000 0.06144  0.25606  0.55005  Biso   1.000  C
  C1042    1.0000 0.06132  0.25606  0.55005  Biso   1.000  C
  H1135    1.0000 0.16310  0.45157  0.56040  Biso   1.000  H
  H1136    1.0000 0.23667  0.49007  0.55070  Biso   1.000  H
  H1137    1.0000 0.23661  0.49007  0.55070  Biso   1.000  H
  C1043    1.0000 0.95254  0.15914  0.52306  Biso   1.000  C
  H1138    1.0000 0.45201  0.88758  0.56750  Biso   1.000  H
  H1139    1.0000 0.45313  0.85521  0.55510  Biso   1.000  H
  H1140    1.0000 0.45307  0.85521  0.55510  Biso   1.000  H
  H1141    1.0000 0.45195  0.88758  0.56750  Biso   1.000  H
  C1044    1.0000 0.84245  0.08935  0.53732  Biso   1.000  C
  H1142    1.0000 0.70491  0.99109  0.53520  Biso   1.000  H
  H1143    1.0000 0.70485  0.99109  0.53520  Biso   1.000  H
  H1144    1.0000 0.30796  0.56888  0.56800  Biso   1.000  H
  H1145    1.0000 0.28122  0.47425  0.57370  Biso   1.000  H
  H1146    1.0000 0.28128  0.47425  0.57370  Biso   1.000  H
  C1045    1.0000 0.99538  0.20356  0.54219  Biso   1.000  C
  H1147    1.0000 0.04587  0.24509  0.55760  Biso   1.000  H
  C1046    1.0000 0.86389  0.10086  0.52655  Biso   1.000  C
  C1047    1.0000 0.01786  0.20888  0.53099  Biso   1.000  C
  C1048    1.0000 0.90696  0.14306  0.54510  Biso   1.000  C
  H1148    1.0000 0.81834  0.06909  0.52120  Biso   1.000  H
  H1149    1.0000 0.81822  0.06909  0.52120  Biso   1.000  H
  H1150    1.0000 0.07857  0.24684  0.52880  Biso   1.000  H
  H1151    1.0000 0.07860  0.24690  0.52880  Biso   1.000  H
  H1152    1.0000 0.88990  0.13808  0.55260  Biso   1.000  H
  C1049    1.0000 0.79053  0.49218  0.43331  Biso   1.000  C
  C1050    1.0000 0.76349  0.54360  0.44226  Biso   1.000  C
  H1153    1.0000 0.80700  0.52570  0.42630  Biso   1.000  H
  C1051    1.0000 0.87150  0.48579  0.43777  Biso   1.000  C
  H1154    1.0000 0.73905  0.43107  0.43200  Biso   1.000  H
  H1155    1.0000 0.80694  0.52570  0.42630  Biso   1.000  H
  C1052    1.0000 0.87144  0.48579  0.43777  Biso   1.000  C
  H1156    1.0000 0.73911  0.43107  0.43200  Biso   1.000  H
  C1053    1.0000 0.79059  0.49218  0.43331  Biso   1.000  C
  H1157    1.0000 0.74658  0.50988  0.44930  Biso   1.000  H
  H1158    1.0000 0.71150  0.54838  0.43960  Biso   1.000  H
  C1054    1.0000 0.84706  0.63997  0.44402  Biso   1.000  C
  H1159    1.0000 0.71144  0.54838  0.43960  Biso   1.000  H
  C1055    1.0000 0.84712  0.63997  0.44402  Biso   1.000  C
  H1160    1.0000 0.88760  0.45200  0.43250  Biso   1.000  H
  C1056    1.0000 0.95360  0.58250  0.43944  Biso   1.000  C
  H1161    1.0000 0.85514  0.45308  0.44490  Biso   1.000  H
  C1057    1.0000 0.95354  0.58250  0.43944  Biso   1.000  C
  H1162    1.0000 0.85520  0.45308  0.44490  Biso   1.000  H
  H1163    1.0000 0.86279  0.67551  0.43710  Biso   1.000  H
  C1058    1.0000 0.92787  0.63129  0.44812  Biso   1.000  C
  N153     1.0000 0.82284  0.68305  0.45244  Biso   1.000  N
  N154     1.0000 0.82294  0.68312  0.45244  Biso   1.000  N
  C1059    1.0000 0.92793  0.63129  0.44812  Biso   1.000  C
  N155     1.0000 0.82290  0.68305  0.45244  Biso   1.000  N
  N156     1.0000 0.82288  0.68312  0.45244  Biso   1.000  N
  H1164    1.0000 0.96905  0.61608  0.43240  Biso   1.000  H
  H1165    1.0000 0.96911  0.61608  0.43240  Biso   1.000  H
  H1166    1.0000 0.00663  0.57886  0.44200  Biso   1.000  H
  H1167    1.0000 0.00657  0.57886  0.44200  Biso   1.000  H
  H1168    1.0000 0.91354  0.59865  0.45530  Biso   1.000  H
  H1169    1.0000 0.91363  0.59872  0.45530  Biso   1.000  H
  H1170    1.0000 0.91359  0.59865  0.45530  Biso   1.000  H
  H1171    1.0000 0.91357  0.59872  0.45530  Biso   1.000  H
  N157     1.0000 0.00163  0.72437  0.44939  Biso   1.000  N
  N158     1.0000 0.00157  0.72437  0.44939  Biso   1.000  N
  C1060    1.0000 0.80530  0.74389  0.44995  Biso   1.000  C
  C1061    1.0000 0.02121  0.74860  0.45923  Biso   1.000  C
  C1062    1.0000 0.79179  0.79638  0.45781  Biso   1.000  C
  H1172    1.0000 0.80076  0.75486  0.44240  Biso   1.000  H
  H1173    1.0000 0.80081  0.75486  0.44240  Biso   1.000  H
  H1174    1.0000 0.99106  0.70485  0.46480  Biso   1.000  H
  C1063    1.0000 0.08943  0.84249  0.46268  Biso   1.000  C
  C1064    1.0000 0.08937  0.84249  0.46268  Biso   1.000  C
  C1065    1.0000 0.76388  0.85689  0.45490  Biso   1.000  C
  C1066    1.0000 0.80895  0.79107  0.46901  Biso   1.000  C
  C1067    1.0000 0.76393  0.85689  0.45490  Biso   1.000  C
  C1068    1.0000 0.80901  0.79107  0.46901  Biso   1.000  C
  C1069    1.0000 0.10094  0.86389  0.47345  Biso   1.000  C
  C1070    1.0000 0.14311  0.90696  0.45490  Biso   1.000  C
  C1071    1.0000 0.10088  0.86389  0.47345  Biso   1.000  C
  C1072    1.0000 0.14305  0.90696  0.45490  Biso   1.000  C
  H1175    1.0000 0.75180  0.86187  0.44740  Biso   1.000  H
  C1073    1.0000 0.75308  0.91060  0.46268  Biso   1.000  C
  H1176    1.0000 0.75174  0.86187  0.44740  Biso   1.000  H
  C1074    1.0000 0.75314  0.91060  0.46268  Biso   1.000  C
  H1177    1.0000 0.83170  0.75311  0.47120  Biso   1.000  H
  C1075    1.0000 0.79337  0.84080  0.47694  Biso   1.000  C
  C1076    1.0000 0.79343  0.84080  0.47694  Biso   1.000  C
  C1077    1.0000 0.15922  0.95259  0.47694  Biso   1.000  C
  H1178    1.0000 0.06909  0.81826  0.47880  Biso   1.000  H
  C1078    1.0000 0.15917  0.95259  0.47694  Biso   1.000  C
  H1179    1.0000 0.06903  0.81826  0.47880  Biso   1.000  H
  H1180    1.0000 0.13812  0.88987  0.44740  Biso   1.000  H
  C1079    1.0000 0.20365  0.99540  0.45781  Biso   1.000  C
  H1181    1.0000 0.13806  0.88987  0.44740  Biso   1.000  H
  C1080    1.0000 0.20359  0.99540  0.45781  Biso   1.000  C
  C1081    1.0000 0.76300  0.89909  0.47345  Biso   1.000  C
  C1082    1.0000 0.76294  0.89909  0.47345  Biso   1.000  C
  C1083    1.0000 0.72737  0.97877  0.45923  Biso   1.000  C
  C1084    1.0000 0.72742  0.97877  0.45923  Biso   1.000  C
  C1085    1.0000 0.80698  0.83165  0.48890  Biso   1.000  C
  C1086    1.0000 0.16829  0.97527  0.48890  Biso   1.000  C
  C1087    1.0000 0.20883  0.01788  0.46901  Biso   1.000  C
  C1088    1.0000 0.20889  0.01788  0.46901  Biso   1.000  C
  C1089    1.0000 0.25604  0.06135  0.44995  Biso   1.000  C
  H1182    1.0000 0.74916  0.93085  0.47880  Biso   1.000  H
  H1183    1.0000 0.74922  0.93085  0.47880  Biso   1.000  H
  N159     1.0000 0.72276  0.99836  0.44939  Biso   1.000  N
  N160     1.0000 0.72282  0.99836  0.44939  Biso   1.000  N
  H1184    1.0000 0.71373  0.00886  0.46480  Biso   1.000  H
  C1090    1.0000 0.79528  0.74927  0.49280  Biso   1.000  C
  C1091    1.0000 0.73580  0.80668  0.49632  Biso   1.000  C
  C1092    1.0000 0.73574  0.80668  0.49632  Biso   1.000  C
  C1093    1.0000 0.89049  0.84679  0.49288  Biso   1.000  C
  C1094    1.0000 0.83910  0.90696  0.49617  Biso   1.000  C
  C1095    1.0000 0.19335  0.92910  0.49632  Biso   1.000  C
  C1096    1.0000 0.19329  0.92910  0.49632  Biso   1.000  C
  C1097    1.0000 0.09301  0.93207  0.49617  Biso   1.000  C
  C1098    1.0000 0.25072  0.04594  0.49280  Biso   1.000  C
  C1099    1.0000 0.25070  0.04601  0.49280  Biso   1.000  C
  C1100    1.0000 0.25066  0.04594  0.49280  Biso   1.000  C
  C1101    1.0000 0.25075  0.04601  0.49280  Biso   1.000  C
  C1102    1.0000 0.15317  0.04365  0.49288  Biso   1.000  C
  H1185    1.0000 0.24687  0.07858  0.47120  Biso   1.000  H
  H1186    1.0000 0.24682  0.07858  0.47120  Biso   1.000  H
  N161     1.0000 0.31686  0.13976  0.45244  Biso   1.000  N
  H1187    1.0000 0.24503  0.04587  0.44240  Biso   1.000  H
  H1188    1.0000 0.24509  0.04587  0.44240  Biso   1.000  H
  C1103    1.0000 0.70342  0.07205  0.44812  Biso   1.000  C
  C1104    1.0000 0.70331  0.07205  0.44812  Biso   1.000  C
  H1189    1.0000 0.77896  0.70135  0.48770  Biso   1.000  H
  C1105    1.0000 0.80668  0.73581  0.50368  Biso   1.000  C
  H1190    1.0000 0.77902  0.70135  0.48770  Biso   1.000  H
  C1106    1.0000 0.80674  0.73581  0.50368  Biso   1.000  C
  C1107    1.0000 0.74929  0.79531  0.50720  Biso   1.000  C
  H1191    1.0000 0.67931  0.79780  0.49390  Biso   1.000  H
  H1192    1.0000 0.67925  0.79780  0.49390  Biso   1.000  H
  C1108    1.0000 0.74935  0.79531  0.50720  Biso   1.000  C
  H1193    1.0000 0.93796  0.86315  0.48780  Biso   1.000  H
  C1109    1.0000 0.90697  0.83905  0.50383  Biso   1.000  C
  C1110    1.0000 0.84676  0.89047  0.50712  Biso   1.000  C
  H1194    1.0000 0.85439  0.96518  0.49360  Biso   1.000  H
  C1111    1.0000 0.20475  0.95401  0.50720  Biso   1.000  C
  H1195    1.0000 0.20222  0.88145  0.49390  Biso   1.000  H
  C1112    1.0000 0.20469  0.95401  0.50720  Biso   1.000  C
  H1196    1.0000 0.20217  0.88145  0.49390  Biso   1.000  H
  C1113    1.0000 0.10955  0.95629  0.50712  Biso   1.000  C
  H1197    1.0000 0.03485  0.88919  0.49360  Biso   1.000  H
  H1198    1.0000 0.29859  0.07757  0.48770  Biso   1.000  H
  C1114    1.0000 0.26422  0.07084  0.50368  Biso   1.000  C
  C1115    1.0000 0.26410  0.07084  0.50368  Biso   1.000  C
  H1199    1.0000 0.29865  0.07757  0.48770  Biso   1.000  H
  H1200    1.0000 0.13678  0.07475  0.48780  Biso   1.000  H
  C1116    1.0000 0.16091  0.06788  0.50383  Biso   1.000  C
  C1117    1.0000 0.36001  0.20706  0.44402  Biso   1.000  C
  C1118    1.0000 0.35990  0.20706  0.44402  Biso   1.000  C
  C1119    1.0000 0.79285  0.15288  0.44402  Biso   1.000  C
  C1120    1.0000 0.62884  0.04634  0.43944  Biso   1.000  C
  H1201    1.0000 0.68506  0.08639  0.45530  Biso   1.000  H
  C1121    1.0000 0.62879  0.04634  0.43944  Biso   1.000  C
  H1202    1.0000 0.79776  0.67928  0.50610  Biso   1.000  H
  C1122    1.0000 0.83164  0.80695  0.51110  Biso   1.000  C
  H1203    1.0000 0.79782  0.67928  0.50610  Biso   1.000  H
  C1123    1.0000 0.83170  0.80695  0.51110  Biso   1.000  C
  H1204    1.0000 0.70136  0.77895  0.51230  Biso   1.000  H
  H1205    1.0000 0.70142  0.77895  0.51230  Biso   1.000  H
  H1206    1.0000 0.96517  0.85440  0.50640  Biso   1.000  H
  H1207    1.0000 0.86318  0.93799  0.51220  Biso   1.000  H
  C1124    1.0000 0.19299  0.02467  0.51110  Biso   1.000  C
  H1208    1.0000 0.22099  0.92237  0.51230  Biso   1.000  H
  H1209    1.0000 0.06201  0.92520  0.51220  Biso   1.000  H
  H1210    1.0000 0.32074  0.11849  0.50610  Biso   1.000  H
  H1211    1.0000 0.32063  0.11849  0.50610  Biso   1.000  H
  H1212    1.0000 0.14557  0.11075  0.50640  Biso   1.000  H
  H1213    1.0000 0.32453  0.18727  0.43710  Biso   1.000  H
  C1125    1.0000 0.45640  0.21985  0.44226  Biso   1.000  C
  C1126    1.0000 0.36869  0.29657  0.44812  Biso   1.000  C
  H1214    1.0000 0.32448  0.18727  0.43710  Biso   1.000  H
  C1127    1.0000 0.36875  0.29657  0.44812  Biso   1.000  C
  N162     1.0000 0.86013  0.17704  0.45244  Biso   1.000  N
  H1215    1.0000 0.81276  0.13720  0.43710  Biso   1.000  H
  C1128    1.0000 0.78004  0.23647  0.44226  Biso   1.000  C
  H1216    1.0000 0.81270  0.13720  0.43710  Biso   1.000  H
  H1217    1.0000 0.57228  0.99338  0.44200  Biso   1.000  H
  C1129    1.0000 0.61429  0.12845  0.43777  Biso   1.000  C
  H1218    1.0000 0.64698  0.03086  0.43240  Biso   1.000  H
  H1219    1.0000 0.64692  0.03086  0.43240  Biso   1.000  H
  C1130    1.0000 0.84075  0.79336  0.52306  Biso   1.000  C
  C1131    1.0000 0.84081  0.79336  0.52306  Biso   1.000  C
  C1132    1.0000 0.20655  0.04735  0.52306  Biso   1.000  C
  H1220    1.0000 0.45161  0.16305  0.43960  Biso   1.000  H
  H1221    1.0000 0.49011  0.23667  0.44930  Biso   1.000  H
  C1133    1.0000 0.50774  0.29839  0.43331  Biso   1.000  C
  H1222    1.0000 0.45155  0.16305  0.43960  Biso   1.000  H
  C1134    1.0000 0.50785  0.29839  0.43331  Biso   1.000  C
  N163     1.0000 0.27554  0.27719  0.44939  Biso   1.000  N
  C1135    1.0000 0.41743  0.37108  0.43944  Biso   1.000  C
  H1223    1.0000 0.40128  0.31488  0.45530  Biso   1.000  H
  H1224    1.0000 0.40122  0.31488  0.45530  Biso   1.000  H
  N164     1.0000 0.27565  0.27719  0.44939  Biso   1.000  N
  C1136    1.0000 0.41754  0.37108  0.43944  Biso   1.000  C
  C1137    1.0000 0.93854  0.19468  0.44995  Biso   1.000  C
  H1225    1.0000 0.83688  0.28850  0.43960  Biso   1.000  H
  H1226    1.0000 0.76330  0.25337  0.44930  Biso   1.000  H
  C1138    1.0000 0.70160  0.20935  0.43331  Biso   1.000  C
  H1227    1.0000 0.83682  0.28850  0.43960  Biso   1.000  H
  C1139    1.0000 0.70149  0.20935  0.43331  Biso   1.000  C
  H1228    1.0000 0.56440  0.11237  0.43250  Biso   1.000  H
  H1229    1.0000 0.59790  0.14474  0.44490  Biso   1.000  H
  H1230    1.0000 0.59778  0.14474  0.44490  Biso   1.000  H
  C1140    1.0000 0.79109  0.80897  0.53099  Biso   1.000  C
  C1141    1.0000 0.89907  0.76300  0.52655  Biso   1.000  C
  C1142    1.0000 0.79103  0.80897  0.53099  Biso   1.000  C
  C1143    1.0000 0.89913  0.76300  0.52655  Biso   1.000  C
  C1144    1.0000 0.19098  0.98207  0.53099  Biso   1.000  C
  C1145    1.0000 0.23697  0.13606  0.52655  Biso   1.000  C
  C1146    1.0000 0.23691  0.13606  0.52655  Biso   1.000  C
  H1231    1.0000 0.56888  0.30795  0.43200  Biso   1.000  H
  H1232    1.0000 0.47430  0.28130  0.42630  Biso   1.000  H
  C1147    1.0000 0.51414  0.38568  0.43777  Biso   1.000  C
  C1148    1.0000 0.51420  0.38568  0.43777  Biso   1.000  C
  C1149    1.0000 0.25136  0.27255  0.45923  Biso   1.000  C
  H1233    1.0000 0.42107  0.42768  0.44200  Biso   1.000  H
  H1234    1.0000 0.38384  0.35297  0.43240  Biso   1.000  H
  H1235    1.0000 0.42101  0.42768  0.44200  Biso   1.000  H
  H1236    1.0000 0.38389  0.35297  0.43240  Biso   1.000  H
  H1237    1.0000 0.95408  0.19919  0.44240  Biso   1.000  H
  C1150    1.0000 0.00461  0.20814  0.45781  Biso   1.000  C
  H1238    1.0000 0.69197  0.26084  0.43200  Biso   1.000  H
  H1239    1.0000 0.71866  0.19300  0.42630  Biso   1.000  H
  H1240    1.0000 0.69200  0.26090  0.43200  Biso   1.000  H
  H1241    1.0000 0.75306  0.83165  0.52880  Biso   1.000  H
  C1151    1.0000 0.79638  0.79181  0.54219  Biso   1.000  C
  C1152    1.0000 0.79644  0.79181  0.54219  Biso   1.000  C
  H1242    1.0000 0.93088  0.74921  0.52120  Biso   1.000  H
  C1153    1.0000 0.91056  0.75311  0.53732  Biso   1.000  C
  H1243    1.0000 0.93094  0.74921  0.52120  Biso   1.000  H
  C1154    1.0000 0.91062  0.75311  0.53732  Biso   1.000  C
  C1155    1.0000 0.20817  0.00455  0.54219  Biso   1.000  C
  H1244    1.0000 0.16832  0.92136  0.52880  Biso   1.000  H
  H1245    1.0000 0.16827  0.92136  0.52880  Biso   1.000  H
  C1156    1.0000 0.24685  0.15746  0.53732  Biso   1.000  C
  H1246    1.0000 0.25075  0.18169  0.52120  Biso   1.000  H
  H1247    1.0000 0.54793  0.43555  0.43250  Biso   1.000  H
  H1248    1.0000 0.54685  0.40204  0.44490  Biso   1.000  H
  H1249    1.0000 0.54679  0.40204  0.44490  Biso   1.000  H
  H1250    1.0000 0.29511  0.28614  0.46480  Biso   1.000  H
  C1157    1.0000 0.15743  0.24684  0.46268  Biso   1.000  C
  C1158    1.0000 0.15746  0.24690  0.46268  Biso   1.000  C
  H1251    1.0000 0.29499  0.28614  0.46480  Biso   1.000  H
  C1159    1.0000 0.09300  0.23607  0.45490  Biso   1.000  C
  C1160    1.0000 0.98209  0.19098  0.46901  Biso   1.000  C
  C1161    1.0000 0.85691  0.76388  0.54510  Biso   1.000  C
  C1162    1.0000 0.74389  0.80527  0.55005  Biso   1.000  C
  C1163    1.0000 0.85685  0.76388  0.54510  Biso   1.000  C
  C1164    1.0000 0.74384  0.80527  0.55005  Biso   1.000  C
  C1165    1.0000 0.97878  0.72740  0.54077  Biso   1.000  C
  C1166    1.0000 0.19472  0.93859  0.55005  Biso   1.000  C
  C1167    1.0000 0.19466  0.93859  0.55005  Biso   1.000  C
  C1168    1.0000 0.23612  0.09298  0.54510  Biso   1.000  C
  C1169    1.0000 0.23607  0.09298  0.54510  Biso   1.000  C
  C1170    1.0000 0.27252  0.25135  0.54077  Biso   1.000  C
  C1171    1.0000 0.27264  0.25135  0.54077  Biso   1.000  C
  C1172    1.0000 0.13604  0.23694  0.47345  Biso   1.000  C
  H1252    1.0000 0.11007  0.24818  0.44740  Biso   1.000  H
  H1253    1.0000 0.92144  0.16830  0.47120  Biso   1.000  H
  H1254    1.0000 0.92133  0.16830  0.47120  Biso   1.000  H
  C1173    1.0000 0.04743  0.20659  0.47694  Biso   1.000  C
  H1255    1.0000 0.86186  0.75176  0.55260  Biso   1.000  H
  H1256    1.0000 0.86192  0.75176  0.55260  Biso   1.000  H
  H1257    1.0000 0.75487  0.80076  0.55760  Biso   1.000  H
  N165     1.0000 0.68312  0.82290  0.54756  Biso   1.000  N
  N166     1.0000 0.68306  0.82290  0.54756  Biso   1.000  N
  N167     1.0000 0.99838  0.72276  0.55061  Biso   1.000  N
  N168     1.0000 0.99832  0.72276  0.55061  Biso   1.000  N
  H1258    1.0000 0.00894  0.71381  0.53520  Biso   1.000  H
  H1259    1.0000 0.00888  0.71381  0.53520  Biso   1.000  H
  N169     1.0000 0.17714  0.86019  0.54756  Biso   1.000  N
  H1260    1.0000 0.19919  0.95407  0.55760  Biso   1.000  H
  N170     1.0000 0.17708  0.86019  0.54756  Biso   1.000  N
  H1261    1.0000 0.24823  0.11008  0.55260  Biso   1.000  H
  H1262    1.0000 0.24817  0.11008  0.55260  Biso   1.000  H
  N171     1.0000 0.27718  0.27557  0.55061  Biso   1.000  N
  H1263    1.0000 0.28618  0.29509  0.53520  Biso   1.000  H
  H1264    1.0000 0.18164  0.25074  0.47880  Biso   1.000  H
  C1174    1.0000 0.02466  0.19300  0.48890  Biso   1.000  C
  C1175    1.0000 0.64000  0.84706  0.55598  Biso   1.000  C
  C1176    1.0000 0.63994  0.84706  0.55598  Biso   1.000  C
  C1177    1.0000 0.07209  0.70337  0.55188  Biso   1.000  C
  C1178    1.0000 0.15293  0.79288  0.55598  Biso   1.000  C
  C1179    1.0000 0.15287  0.79288  0.55598  Biso   1.000  C
  C1180    1.0000 0.29661  0.36865  0.55188  Biso   1.000  C
  C1181    1.0000 0.29656  0.36865  0.55188  Biso   1.000  C
  C1182    1.0000 0.95401  0.20464  0.49280  Biso   1.000  C
  C1183    1.0000 0.95390  0.20464  0.49280  Biso   1.000  C
  C1184    1.0000 0.95626  0.10947  0.49288  Biso   1.000  C
  C1185    1.0000 0.07090  0.26413  0.49632  Biso   1.000  C
  C1186    1.0000 0.07093  0.26420  0.49632  Biso   1.000  C
  C1187    1.0000 0.06789  0.16089  0.49617  Biso   1.000  C
  C1188    1.0000 0.54360  0.76347  0.55774  Biso   1.000  C
  C1189    1.0000 0.63128  0.92789  0.55188  Biso   1.000  C
  H1265    1.0000 0.67547  0.86274  0.56290  Biso   1.000  H
  C1190    1.0000 0.54354  0.76347  0.55774  Biso   1.000  C
  H1266    1.0000 0.67550  0.86281  0.56290  Biso   1.000  H
  C1191    1.0000 0.63134  0.92789  0.55188  Biso   1.000  C
  C1192    1.0000 0.04638  0.62887  0.56056  Biso   1.000  C
  H1267    1.0000 0.08643  0.68507  0.54470  Biso   1.000  H
  H1268    1.0000 0.08637  0.68507  0.54470  Biso   1.000  H
  H1269    1.0000 0.13723  0.81267  0.56290  Biso   1.000  H
  C1193    1.0000 0.23653  0.78010  0.55774  Biso   1.000  C
  H1270    1.0000 0.13717  0.81267  0.56290  Biso   1.000  H
  C1194    1.0000 0.23647  0.78010  0.55774  Biso   1.000  C
  C1195    1.0000 0.37108  0.41745  0.56056  Biso   1.000  C
  C1196    1.0000 0.20706  0.35997  0.55598  Biso   1.000  C
  H1271    1.0000 0.31492  0.40130  0.54470  Biso   1.000  H
  H1272    1.0000 0.92238  0.22099  0.48770  Biso   1.000  H
  C1197    1.0000 0.92909  0.19326  0.50368  Biso   1.000  C
  H1273    1.0000 0.92516  0.06196  0.48780  Biso   1.000  H
  C1198    1.0000 0.93205  0.09298  0.50383  Biso   1.000  C
  C1199    1.0000 0.04604  0.25067  0.50720  Biso   1.000  C
  H1274    1.0000 0.11851  0.32067  0.49390  Biso   1.000  H
  C1200    1.0000 0.04592  0.25067  0.50720  Biso   1.000  C
  C1201    1.0000 0.04367  0.15315  0.50712  Biso   1.000  C
  H1275    1.0000 0.11075  0.14555  0.49360  Biso   1.000  H
  H1276    1.0000 0.50991  0.74658  0.55070  Biso   1.000  H
  H1277    1.0000 0.54836  0.71145  0.56040  Biso   1.000  H
  H1278    1.0000 0.50985  0.74658  0.55070  Biso   1.000  H
  C1202    1.0000 0.49217  0.79060  0.56669  Biso   1.000  C
  H1279    1.0000 0.54845  0.71152  0.56040  Biso   1.000  H
  C1203    1.0000 0.49223  0.79060  0.56669  Biso   1.000  C
  H1280    1.0000 0.54842  0.71145  0.56040  Biso   1.000  H
  H1281    1.0000 0.54839  0.71152  0.56040  Biso   1.000  H
  H1282    1.0000 0.59870  0.91356  0.54470  Biso   1.000  H
  C1204    1.0000 0.58247  0.95360  0.56056  Biso   1.000  C
  H1283    1.0000 0.59865  0.91356  0.54470  Biso   1.000  H
  C1205    1.0000 0.58253  0.95360  0.56056  Biso   1.000  C
  N172     1.0000 0.72443  0.00159  0.55061  Biso   1.000  N
  N173     1.0000 0.72438  0.00159  0.55061  Biso   1.000  N
  H1284    1.0000 0.99337  0.57227  0.55800  Biso   1.000  H
  C1206    1.0000 0.12849  0.61427  0.56223  Biso   1.000  C
  H1285    1.0000 0.03090  0.64697  0.56760  Biso   1.000  H
  H1286    1.0000 0.28853  0.83690  0.56040  Biso   1.000  H
  H1287    1.0000 0.25341  0.76327  0.55070  Biso   1.000  H
  C1207    1.0000 0.20938  0.70156  0.56669  Biso   1.000  C
  H1288    1.0000 0.28847  0.83690  0.56040  Biso   1.000  H
  H1289    1.0000 0.25335  0.76327  0.55070  Biso   1.000  H
  C1208    1.0000 0.38563  0.51416  0.56223  Biso   1.000  C
  H1290    1.0000 0.42774  0.42108  0.55800  Biso   1.000  H
  H1291    1.0000 0.35294  0.38386  0.56760  Biso   1.000  H
  H1292    1.0000 0.42762  0.42108  0.55800  Biso   1.000  H
  C1209    1.0000 0.38574  0.51416  0.56223  Biso   1.000  C
  H1293    1.0000 0.18725  0.32444  0.56290  Biso   1.000  H
  N174     1.0000 0.13977  0.31690  0.54756  Biso   1.000  N
  C1210    1.0000 0.21993  0.45635  0.55774  Biso   1.000  C
  C1211    1.0000 0.21981  0.45635  0.55774  Biso   1.000  C
  H1294    1.0000 0.88148  0.20215  0.50610  Biso   1.000  H
  C1212    1.0000 0.97536  0.16830  0.51110  Biso   1.000  C
  C1213    1.0000 0.97524  0.16830  0.51110  Biso   1.000  C
  H1295    1.0000 0.88924  0.03477  0.50640  Biso   1.000  H
  H1296    1.0000 0.07758  0.29859  0.51230  Biso   1.000  H
  H1297    1.0000 0.07478  0.13680  0.51220  Biso   1.000  H
  H1298    1.0000 0.43110  0.73911  0.56800  Biso   1.000  H
  H1299    1.0000 0.52570  0.80695  0.57370  Biso   1.000  H
  C1214    1.0000 0.48581  0.87149  0.56223  Biso   1.000  C
  H1300    1.0000 0.52564  0.80695  0.57370  Biso   1.000  H
  C1215    1.0000 0.48576  0.87149  0.56223  Biso   1.000  C
  H1301    1.0000 0.61609  0.96908  0.56760  Biso   1.000  H
  H1302    1.0000 0.57894  0.00657  0.55800  Biso   1.000  H
  H1303    1.0000 0.57882  0.00657  0.55800  Biso   1.000  H
  C1216    1.0000 0.74857  0.02117  0.54077  Biso   1.000  C
  C1217    1.0000 0.74851  0.02117  0.54077  Biso   1.000  C
  H1304    1.0000 0.11241  0.56439  0.56750  Biso   1.000  H
  H1305    1.0000 0.14485  0.59791  0.55510  Biso   1.000  H
  H1306    1.0000 0.14479  0.59791  0.55510  Biso   1.000  H
  H1307    1.0000 0.11235  0.56439  0.56750  Biso   1.000  H
  H1308    1.0000 0.26090  0.69200  0.56800  Biso   1.000  H
  H1309    1.0000 0.19298  0.71865  0.57370  Biso   1.000  H
  H1310    1.0000 0.43557  0.54795  0.56750  Biso   1.000  H
  C1218    1.0000 0.29833  0.50777  0.56669  Biso   1.000  C
  C1219    1.0000 0.29838  0.50777  0.56669  Biso   1.000  C
  H1311    1.0000 0.40210  0.54687  0.55510  Biso   1.000  H
  C1220    1.0000 0.06144  0.25606  0.55005  Biso   1.000  C
  C1221    1.0000 0.06132  0.25606  0.55005  Biso   1.000  C
  H1312    1.0000 0.16310  0.45157  0.56040  Biso   1.000  H
  H1313    1.0000 0.23667  0.49007  0.55070  Biso   1.000  H
  H1314    1.0000 0.23661  0.49007  0.55070  Biso   1.000  H
  C1222    1.0000 0.95254  0.15914  0.52306  Biso   1.000  C
  H1315    1.0000 0.45201  0.88758  0.56750  Biso   1.000  H
  H1316    1.0000 0.45195  0.88758  0.56750  Biso   1.000  H
  H1317    1.0000 0.45307  0.85521  0.55510  Biso   1.000  H
  H1318    1.0000 0.45313  0.85521  0.55510  Biso   1.000  H
  C1223    1.0000 0.84245  0.08935  0.53732  Biso   1.000  C
  H1319    1.0000 0.70491  0.99109  0.53520  Biso   1.000  H
  H1320    1.0000 0.70485  0.99109  0.53520  Biso   1.000  H
  H1321    1.0000 0.30796  0.56888  0.56800  Biso   1.000  H
  H1322    1.0000 0.28122  0.47425  0.57370  Biso   1.000  H
  H1323    1.0000 0.28128  0.47425  0.57370  Biso   1.000  H
  C1224    1.0000 0.99538  0.20356  0.54219  Biso   1.000  C
  H1324    1.0000 0.04587  0.24509  0.55760  Biso   1.000  H
  C1225    1.0000 0.86389  0.10086  0.52655  Biso   1.000  C
  C1226    1.0000 0.01786  0.20888  0.53099  Biso   1.000  C
  C1227    1.0000 0.90696  0.14306  0.54510  Biso   1.000  C
  H1325    1.0000 0.81834  0.06909  0.52120  Biso   1.000  H
  H1326    1.0000 0.81822  0.06909  0.52120  Biso   1.000  H
  H1327    1.0000 0.07857  0.24684  0.52880  Biso   1.000  H
  H1328    1.0000 0.07860  0.24690  0.52880  Biso   1.000  H
  H1329    1.0000 0.88990  0.13808  0.55260  Biso   1.000  H
  C1228    1.0000 0.79053  0.49218  0.43331  Biso   1.000  C
  C1229    1.0000 0.76349  0.54360  0.44226  Biso   1.000  C
  H1330    1.0000 0.73905  0.43107  0.43200  Biso   1.000  H
  H1331    1.0000 0.80694  0.52570  0.42630  Biso   1.000  H
  C1230    1.0000 0.87144  0.48579  0.43777  Biso   1.000  C
  H1332    1.0000 0.73911  0.43107  0.43200  Biso   1.000  H
  H1333    1.0000 0.80700  0.52570  0.42630  Biso   1.000  H
  C1231    1.0000 0.87150  0.48579  0.43777  Biso   1.000  C
  H1334    1.0000 0.74658  0.50988  0.44930  Biso   1.000  H
  C1232    1.0000 0.84706  0.63997  0.44402  Biso   1.000  C
  H1335    1.0000 0.71144  0.54838  0.43960  Biso   1.000  H
  C1233    1.0000 0.84712  0.63997  0.44402  Biso   1.000  C
  H1336    1.0000 0.71150  0.54838  0.43960  Biso   1.000  H
  C1234    1.0000 0.79059  0.49218  0.43331  Biso   1.000  C
  C1235    1.0000 0.95354  0.58250  0.43944  Biso   1.000  C
  C1236    1.0000 0.95360  0.58250  0.43944  Biso   1.000  C
  H1337    1.0000 0.88760  0.45200  0.43250  Biso   1.000  H
  H1338    1.0000 0.85514  0.45308  0.44490  Biso   1.000  H
  H1339    1.0000 0.85520  0.45308  0.44490  Biso   1.000  H
  H1340    1.0000 0.86279  0.67551  0.43710  Biso   1.000  H
  N175     1.0000 0.82284  0.68305  0.45244  Biso   1.000  N
  C1237    1.0000 0.92787  0.63129  0.44812  Biso   1.000  C
  N176     1.0000 0.82294  0.68312  0.45244  Biso   1.000  N
  C1238    1.0000 0.92793  0.63129  0.44812  Biso   1.000  C
  N177     1.0000 0.82290  0.68305  0.45244  Biso   1.000  N
  N178     1.0000 0.82288  0.68312  0.45244  Biso   1.000  N
  H1341    1.0000 0.96905  0.61608  0.43240  Biso   1.000  H
  H1342    1.0000 0.96911  0.61608  0.43240  Biso   1.000  H
  H1343    1.0000 0.00663  0.57886  0.44200  Biso   1.000  H
  H1344    1.0000 0.00657  0.57886  0.44200  Biso   1.000  H
  C1239    1.0000 0.80530  0.74389  0.44995  Biso   1.000  C
  H1345    1.0000 0.91354  0.59865  0.45530  Biso   1.000  H
  H1346    1.0000 0.91363  0.59872  0.45530  Biso   1.000  H
  H1347    1.0000 0.91359  0.59865  0.45530  Biso   1.000  H
  H1348    1.0000 0.91357  0.59872  0.45530  Biso   1.000  H
  N179     1.0000 0.00163  0.72437  0.44939  Biso   1.000  N
  N180     1.0000 0.00157  0.72437  0.44939  Biso   1.000  N
  C1240    1.0000 0.79179  0.79638  0.45781  Biso   1.000  C
  H1349    1.0000 0.80076  0.75486  0.44240  Biso   1.000  H
  H1350    1.0000 0.80081  0.75486  0.44240  Biso   1.000  H
  C1241    1.0000 0.02121  0.74860  0.45923  Biso   1.000  C
  C1242    1.0000 0.76388  0.85689  0.45490  Biso   1.000  C
  C1243    1.0000 0.80895  0.79107  0.46901  Biso   1.000  C
  C1244    1.0000 0.76393  0.85689  0.45490  Biso   1.000  C
  C1245    1.0000 0.80901  0.79107  0.46901  Biso   1.000  C
  H1351    1.0000 0.99106  0.70485  0.46480  Biso   1.000  H
  C1246    1.0000 0.08943  0.84249  0.46268  Biso   1.000  C
  C1247    1.0000 0.08937  0.84249  0.46268  Biso   1.000  C
  C1248    1.0000 0.75308  0.91060  0.46268  Biso   1.000  C
  H1352    1.0000 0.75174  0.86187  0.44740  Biso   1.000  H
  C1249    1.0000 0.75314  0.91060  0.46268  Biso   1.000  C
  H1353    1.0000 0.75180  0.86187  0.44740  Biso   1.000  H
  H1354    1.0000 0.83170  0.75311  0.47120  Biso   1.000  H
  C1250    1.0000 0.79337  0.84080  0.47694  Biso   1.000  C
  C1251    1.0000 0.79343  0.84080  0.47694  Biso   1.000  C
  C1252    1.0000 0.10094  0.86389  0.47345  Biso   1.000  C
  C1253    1.0000 0.14311  0.90696  0.45490  Biso   1.000  C
  C1254    1.0000 0.10088  0.86389  0.47345  Biso   1.000  C
  C1255    1.0000 0.14305  0.90696  0.45490  Biso   1.000  C
  C1256    1.0000 0.76294  0.89909  0.47345  Biso   1.000  C
  C1257    1.0000 0.72737  0.97877  0.45923  Biso   1.000  C
  C1258    1.0000 0.76300  0.89909  0.47345  Biso   1.000  C
  C1259    1.0000 0.72742  0.97877  0.45923  Biso   1.000  C
  C1260    1.0000 0.80698  0.83165  0.48890  Biso   1.000  C
  C1261    1.0000 0.15922  0.95259  0.47694  Biso   1.000  C
  H1355    1.0000 0.06909  0.81826  0.47880  Biso   1.000  H
  C1262    1.0000 0.15917  0.95259  0.47694  Biso   1.000  C
  H1356    1.0000 0.06903  0.81826  0.47880  Biso   1.000  H
  H1357    1.0000 0.13812  0.88987  0.44740  Biso   1.000  H
  C1263    1.0000 0.20365  0.99540  0.45781  Biso   1.000  C
  H1358    1.0000 0.13806  0.88987  0.44740  Biso   1.000  H
  C1264    1.0000 0.20359  0.99540  0.45781  Biso   1.000  C
  H1359    1.0000 0.74916  0.93085  0.47880  Biso   1.000  H
  H1360    1.0000 0.74922  0.93085  0.47880  Biso   1.000  H
  N181     1.0000 0.72276  0.99836  0.44939  Biso   1.000  N
  N182     1.0000 0.72282  0.99836  0.44939  Biso   1.000  N
  H1361    1.0000 0.71373  0.00886  0.46480  Biso   1.000  H
  C1265    1.0000 0.79528  0.74927  0.49280  Biso   1.000  C
  C1266    1.0000 0.73574  0.80668  0.49632  Biso   1.000  C
  C1267    1.0000 0.73580  0.80668  0.49632  Biso   1.000  C
  C1268    1.0000 0.89049  0.84679  0.49288  Biso   1.000  C
  C1269    1.0000 0.83910  0.90696  0.49617  Biso   1.000  C
  C1270    1.0000 0.16829  0.97527  0.48890  Biso   1.000  C
  C1271    1.0000 0.20883  0.01788  0.46901  Biso   1.000  C
  C1272    1.0000 0.20889  0.01788  0.46901  Biso   1.000  C
  C1273    1.0000 0.25604  0.06135  0.44995  Biso   1.000  C
  C1274    1.0000 0.70342  0.07205  0.44812  Biso   1.000  C
  C1275    1.0000 0.70331  0.07205  0.44812  Biso   1.000  C
  H1362    1.0000 0.77896  0.70135  0.48770  Biso   1.000  H
  C1276    1.0000 0.80668  0.73581  0.50368  Biso   1.000  C
  H1363    1.0000 0.77902  0.70135  0.48770  Biso   1.000  H
  C1277    1.0000 0.80674  0.73581  0.50368  Biso   1.000  C
  C1278    1.0000 0.74929  0.79531  0.50720  Biso   1.000  C
  H1364    1.0000 0.67925  0.79780  0.49390  Biso   1.000  H
  C1279    1.0000 0.74935  0.79531  0.50720  Biso   1.000  C
  H1365    1.0000 0.67931  0.79780  0.49390  Biso   1.000  H
  H1366    1.0000 0.93796  0.86315  0.48780  Biso   1.000  H
  C1280    1.0000 0.90697  0.83905  0.50383  Biso   1.000  C
  C1281    1.0000 0.84676  0.89047  0.50712  Biso   1.000  C
  H1367    1.0000 0.85439  0.96518  0.49360  Biso   1.000  H
  C1282    1.0000 0.19335  0.92910  0.49632  Biso   1.000  C
  C1283    1.0000 0.19329  0.92910  0.49632  Biso   1.000  C
  C1284    1.0000 0.09301  0.93207  0.49617  Biso   1.000  C
  C1285    1.0000 0.25072  0.04594  0.49280  Biso   1.000  C
  C1286    1.0000 0.25070  0.04601  0.49280  Biso   1.000  C
  C1287    1.0000 0.25066  0.04594  0.49280  Biso   1.000  C
  C1288    1.0000 0.25075  0.04601  0.49280  Biso   1.000  C
  C1289    1.0000 0.15317  0.04365  0.49288  Biso   1.000  C
  H1368    1.0000 0.24687  0.07858  0.47120  Biso   1.000  H
  H1369    1.0000 0.24682  0.07858  0.47120  Biso   1.000  H
  N183     1.0000 0.31686  0.13976  0.45244  Biso   1.000  N
  H1370    1.0000 0.24503  0.04587  0.44240  Biso   1.000  H
  H1371    1.0000 0.24509  0.04587  0.44240  Biso   1.000  H
  C1290    1.0000 0.79285  0.15288  0.44402  Biso   1.000  C
  C1291    1.0000 0.62884  0.04634  0.43944  Biso   1.000  C
  H1372    1.0000 0.68506  0.08639  0.45530  Biso   1.000  H
  C1292    1.0000 0.62879  0.04634  0.43944  Biso   1.000  C
  H1373    1.0000 0.79776  0.67928  0.50610  Biso   1.000  H
  C1293    1.0000 0.83164  0.80695  0.51110  Biso   1.000  C
  H1374    1.0000 0.79782  0.67928  0.50610  Biso   1.000  H
  C1294    1.0000 0.83170  0.80695  0.51110  Biso   1.000  C
  H1375    1.0000 0.70136  0.77895  0.51230  Biso   1.000  H
  H1376    1.0000 0.70142  0.77895  0.51230  Biso   1.000  H
  H1377    1.0000 0.96517  0.85440  0.50640  Biso   1.000  H
  H1378    1.0000 0.86318  0.93799  0.51220  Biso   1.000  H
  C1295    1.0000 0.20475  0.95401  0.50720  Biso   1.000  C
  H1379    1.0000 0.20222  0.88145  0.49390  Biso   1.000  H
  C1296    1.0000 0.20469  0.95401  0.50720  Biso   1.000  C
  H1380    1.0000 0.20217  0.88145  0.49390  Biso   1.000  H
  C1297    1.0000 0.10955  0.95629  0.50712  Biso   1.000  C
  H1381    1.0000 0.03485  0.88919  0.49360  Biso   1.000  H
  H1382    1.0000 0.29859  0.07757  0.48770  Biso   1.000  H
  C1298    1.0000 0.26422  0.07084  0.50368  Biso   1.000  C
  C1299    1.0000 0.26410  0.07084  0.50368  Biso   1.000  C
  H1383    1.0000 0.29865  0.07757  0.48770  Biso   1.000  H
  H1384    1.0000 0.13678  0.07475  0.48780  Biso   1.000  H
  C1300    1.0000 0.16091  0.06788  0.50383  Biso   1.000  C
  C1301    1.0000 0.36001  0.20706  0.44402  Biso   1.000  C
  C1302    1.0000 0.35990  0.20706  0.44402  Biso   1.000  C
  N184     1.0000 0.86013  0.17704  0.45244  Biso   1.000  N
  H1385    1.0000 0.81276  0.13720  0.43710  Biso   1.000  H
  C1303    1.0000 0.78004  0.23647  0.44226  Biso   1.000  C
  H1386    1.0000 0.81270  0.13720  0.43710  Biso   1.000  H
  H1387    1.0000 0.57228  0.99338  0.44200  Biso   1.000  H
  C1304    1.0000 0.61429  0.12845  0.43777  Biso   1.000  C
  H1388    1.0000 0.64698  0.03086  0.43240  Biso   1.000  H
  H1389    1.0000 0.64692  0.03086  0.43240  Biso   1.000  H
  C1305    1.0000 0.84075  0.79336  0.52306  Biso   1.000  C
  C1306    1.0000 0.84081  0.79336  0.52306  Biso   1.000  C
  C1307    1.0000 0.19299  0.02467  0.51110  Biso   1.000  C
  H1390    1.0000 0.22099  0.92237  0.51230  Biso   1.000  H
  H1391    1.0000 0.06201  0.92520  0.51220  Biso   1.000  H
  H1392    1.0000 0.32074  0.11849  0.50610  Biso   1.000  H
  H1393    1.0000 0.32063  0.11849  0.50610  Biso   1.000  H
  H1394    1.0000 0.14557  0.11075  0.50640  Biso   1.000  H
  H1395    1.0000 0.32453  0.18727  0.43710  Biso   1.000  H
  C1308    1.0000 0.45640  0.21985  0.44226  Biso   1.000  C
  C1309    1.0000 0.36869  0.29657  0.44812  Biso   1.000  C
  H1396    1.0000 0.32448  0.18727  0.43710  Biso   1.000  H
  C1310    1.0000 0.36875  0.29657  0.44812  Biso   1.000  C
  C1311    1.0000 0.93854  0.19468  0.44995  Biso   1.000  C
  H1397    1.0000 0.83688  0.28850  0.43960  Biso   1.000  H
  H1398    1.0000 0.76330  0.25337  0.44930  Biso   1.000  H
  C1312    1.0000 0.70160  0.20935  0.43331  Biso   1.000  C
  H1399    1.0000 0.83682  0.28850  0.43960  Biso   1.000  H
  C1313    1.0000 0.70149  0.20935  0.43331  Biso   1.000  C
  H1400    1.0000 0.56440  0.11237  0.43250  Biso   1.000  H
  H1401    1.0000 0.59790  0.14474  0.44490  Biso   1.000  H
  H1402    1.0000 0.59778  0.14474  0.44490  Biso   1.000  H
  C1314    1.0000 0.89907  0.76300  0.52655  Biso   1.000  C
  C1315    1.0000 0.79103  0.80897  0.53099  Biso   1.000  C
  C1316    1.0000 0.89913  0.76300  0.52655  Biso   1.000  C
  C1317    1.0000 0.79109  0.80897  0.53099  Biso   1.000  C
  C1318    1.0000 0.20655  0.04735  0.52306  Biso   1.000  C
  H1403    1.0000 0.45161  0.16305  0.43960  Biso   1.000  H
  H1404    1.0000 0.49011  0.23667  0.44930  Biso   1.000  H
  C1319    1.0000 0.50774  0.29839  0.43331  Biso   1.000  C
  H1405    1.0000 0.45155  0.16305  0.43960  Biso   1.000  H
  C1320    1.0000 0.50785  0.29839  0.43331  Biso   1.000  C
  N185     1.0000 0.27554  0.27719  0.44939  Biso   1.000  N
  C1321    1.0000 0.41743  0.37108  0.43944  Biso   1.000  C
  H1406    1.0000 0.40128  0.31488  0.45530  Biso   1.000  H
  H1407    1.0000 0.40122  0.31488  0.45530  Biso   1.000  H
  N186     1.0000 0.27565  0.27719  0.44939  Biso   1.000  N
  C1322    1.0000 0.41754  0.37108  0.43944  Biso   1.000  C
  H1408    1.0000 0.95408  0.19919  0.44240  Biso   1.000  H
  C1323    1.0000 0.00461  0.20814  0.45781  Biso   1.000  C
  H1409    1.0000 0.69197  0.26084  0.43200  Biso   1.000  H
  H1410    1.0000 0.71866  0.19300  0.42630  Biso   1.000  H
  H1411    1.0000 0.69200  0.26090  0.43200  Biso   1.000  H
  H1412    1.0000 0.93088  0.74921  0.52120  Biso   1.000  H
  C1324    1.0000 0.91056  0.75311  0.53732  Biso   1.000  C
  H1413    1.0000 0.93094  0.74921  0.52120  Biso   1.000  H
  C1325    1.0000 0.91062  0.75311  0.53732  Biso   1.000  C
  H1414    1.0000 0.75306  0.83165  0.52880  Biso   1.000  H
  C1326    1.0000 0.79638  0.79181  0.54219  Biso   1.000  C
  C1327    1.0000 0.79644  0.79181  0.54219  Biso   1.000  C
  C1328    1.0000 0.19098  0.98207  0.53099  Biso   1.000  C
  C1329    1.0000 0.23697  0.13606  0.52655  Biso   1.000  C
  C1330    1.0000 0.23691  0.13606  0.52655  Biso   1.000  C
  H1415    1.0000 0.56888  0.30795  0.43200  Biso   1.000  H
  H1416    1.0000 0.47430  0.28130  0.42630  Biso   1.000  H
  C1331    1.0000 0.51414  0.38568  0.43777  Biso   1.000  C
  C1332    1.0000 0.51420  0.38568  0.43777  Biso   1.000  C
  C1333    1.0000 0.25136  0.27255  0.45923  Biso   1.000  C
  H1417    1.0000 0.42107  0.42768  0.44200  Biso   1.000  H
  H1418    1.0000 0.38384  0.35297  0.43240  Biso   1.000  H
  H1419    1.0000 0.42101  0.42768  0.44200  Biso   1.000  H
  H1420    1.0000 0.38389  0.35297  0.43240  Biso   1.000  H
  C1334    1.0000 0.09300  0.23607  0.45490  Biso   1.000  C
  C1335    1.0000 0.98209  0.19098  0.46901  Biso   1.000  C
  C1336    1.0000 0.97878  0.72740  0.54077  Biso   1.000  C
  C1337    1.0000 0.85685  0.76388  0.54510  Biso   1.000  C
  C1338    1.0000 0.85691  0.76388  0.54510  Biso   1.000  C
  C1339    1.0000 0.74384  0.80527  0.55005  Biso   1.000  C
  C1340    1.0000 0.74389  0.80527  0.55005  Biso   1.000  C
  C1341    1.0000 0.20817  0.00455  0.54219  Biso   1.000  C
  H1421    1.0000 0.16832  0.92136  0.52880  Biso   1.000  H
  H1422    1.0000 0.16827  0.92136  0.52880  Biso   1.000  H
  C1342    1.0000 0.24685  0.15746  0.53732  Biso   1.000  C
  H1423    1.0000 0.25075  0.18169  0.52120  Biso   1.000  H
  H1424    1.0000 0.54793  0.43555  0.43250  Biso   1.000  H
  H1425    1.0000 0.54685  0.40204  0.44490  Biso   1.000  H
  H1426    1.0000 0.54679  0.40204  0.44490  Biso   1.000  H
  H1427    1.0000 0.29511  0.28614  0.46480  Biso   1.000  H
  C1343    1.0000 0.15743  0.24684  0.46268  Biso   1.000  C
  C1344    1.0000 0.15746  0.24690  0.46268  Biso   1.000  C
  H1428    1.0000 0.29499  0.28614  0.46480  Biso   1.000  H
  H1429    1.0000 0.11007  0.24818  0.44740  Biso   1.000  H
  H1430    1.0000 0.92144  0.16830  0.47120  Biso   1.000  H
  H1431    1.0000 0.92133  0.16830  0.47120  Biso   1.000  H
  C1345    1.0000 0.04743  0.20659  0.47694  Biso   1.000  C
  N187     1.0000 0.99832  0.72276  0.55061  Biso   1.000  N
  N188     1.0000 0.99838  0.72276  0.55061  Biso   1.000  N
  H1432    1.0000 0.00894  0.71381  0.53520  Biso   1.000  H
  H1433    1.0000 0.00888  0.71381  0.53520  Biso   1.000  H
  H1434    1.0000 0.86186  0.75176  0.55260  Biso   1.000  H
  H1435    1.0000 0.86192  0.75176  0.55260  Biso   1.000  H
  H1436    1.0000 0.75487  0.80076  0.55760  Biso   1.000  H
  N189     1.0000 0.68306  0.82290  0.54756  Biso   1.000  N
  N190     1.0000 0.68312  0.82290  0.54756  Biso   1.000  N
  C1346    1.0000 0.19472  0.93859  0.55005  Biso   1.000  C
  C1347    1.0000 0.19466  0.93859  0.55005  Biso   1.000  C
  C1348    1.0000 0.23612  0.09298  0.54510  Biso   1.000  C
  C1349    1.0000 0.23607  0.09298  0.54510  Biso   1.000  C
  C1350    1.0000 0.27252  0.25135  0.54077  Biso   1.000  C
  C1351    1.0000 0.27264  0.25135  0.54077  Biso   1.000  C
  C1352    1.0000 0.13604  0.23694  0.47345  Biso   1.000  C
  C1353    1.0000 0.02466  0.19300  0.48890  Biso   1.000  C
  C1354    1.0000 0.07209  0.70337  0.55188  Biso   1.000  C
  C1355    1.0000 0.63994  0.84706  0.55598  Biso   1.000  C
  C1356    1.0000 0.64000  0.84706  0.55598  Biso   1.000  C
  N191     1.0000 0.17714  0.86019  0.54756  Biso   1.000  N
  H1437    1.0000 0.19919  0.95407  0.55760  Biso   1.000  H
  N192     1.0000 0.17708  0.86019  0.54756  Biso   1.000  N
  H1438    1.0000 0.24823  0.11008  0.55260  Biso   1.000  H
  H1439    1.0000 0.24817  0.11008  0.55260  Biso   1.000  H
  N193     1.0000 0.27718  0.27557  0.55061  Biso   1.000  N
  H1440    1.0000 0.28618  0.29509  0.53520  Biso   1.000  H
  H1441    1.0000 0.18164  0.25074  0.47880  Biso   1.000  H
  C1357    1.0000 0.95401  0.20464  0.49280  Biso   1.000  C
  C1358    1.0000 0.95390  0.20464  0.49280  Biso   1.000  C
  C1359    1.0000 0.95626  0.10947  0.49288  Biso   1.000  C
  C1360    1.0000 0.07090  0.26413  0.49632  Biso   1.000  C
  C1361    1.0000 0.07093  0.26420  0.49632  Biso   1.000  C
  C1362    1.0000 0.06789  0.16089  0.49617  Biso   1.000  C
  C1363    1.0000 0.15293  0.79288  0.55598  Biso   1.000  C
  C1364    1.0000 0.04638  0.62887  0.56056  Biso   1.000  C
  H1442    1.0000 0.08643  0.68507  0.54470  Biso   1.000  H
  H1443    1.0000 0.08637  0.68507  0.54470  Biso   1.000  H
  C1365    1.0000 0.15287  0.79288  0.55598  Biso   1.000  C
  H1444    1.0000 0.67547  0.86274  0.56290  Biso   1.000  H
  C1366    1.0000 0.54354  0.76347  0.55774  Biso   1.000  C
  C1367    1.0000 0.63128  0.92789  0.55188  Biso   1.000  C
  H1445    1.0000 0.67550  0.86281  0.56290  Biso   1.000  H
  C1368    1.0000 0.54360  0.76347  0.55774  Biso   1.000  C
  C1369    1.0000 0.63134  0.92789  0.55188  Biso   1.000  C
  C1370    1.0000 0.29661  0.36865  0.55188  Biso   1.000  C
  C1371    1.0000 0.29656  0.36865  0.55188  Biso   1.000  C
  H1446    1.0000 0.92238  0.22099  0.48770  Biso   1.000  H
  C1372    1.0000 0.92909  0.19326  0.50368  Biso   1.000  C
  H1447    1.0000 0.92516  0.06196  0.48780  Biso   1.000  H
  C1373    1.0000 0.93205  0.09298  0.50383  Biso   1.000  C
  C1374    1.0000 0.04604  0.25067  0.50720  Biso   1.000  C
  H1448    1.0000 0.11851  0.32067  0.49390  Biso   1.000  H
  C1375    1.0000 0.04592  0.25067  0.50720  Biso   1.000  C
  C1376    1.0000 0.04367  0.15315  0.50712  Biso   1.000  C
  H1449    1.0000 0.11075  0.14555  0.49360  Biso   1.000  H
  H1450    1.0000 0.13723  0.81267  0.56290  Biso   1.000  H
  C1377    1.0000 0.23653  0.78010  0.55774  Biso   1.000  C
  H1451    1.0000 0.13717  0.81267  0.56290  Biso   1.000  H
  C1378    1.0000 0.23647  0.78010  0.55774  Biso   1.000  C
  H1452    1.0000 0.99337  0.57227  0.55800  Biso   1.000  H
  C1379    1.0000 0.12849  0.61427  0.56223  Biso   1.000  C
  H1453    1.0000 0.03090  0.64697  0.56760  Biso   1.000  H
  H1454    1.0000 0.54836  0.71145  0.56040  Biso   1.000  H
  H1455    1.0000 0.50985  0.74658  0.55070  Biso   1.000  H
  C1380    1.0000 0.49217  0.79060  0.56669  Biso   1.000  C
  H1456    1.0000 0.54845  0.71152  0.56040  Biso   1.000  H
  H1457    1.0000 0.50991  0.74658  0.55070  Biso   1.000  H
  C1381    1.0000 0.49223  0.79060  0.56669  Biso   1.000  C
  H1458    1.0000 0.54842  0.71145  0.56040  Biso   1.000  H
  H1459    1.0000 0.54839  0.71152  0.56040  Biso   1.000  H
  C1382    1.0000 0.58247  0.95360  0.56056  Biso   1.000  C
  H1460    1.0000 0.59865  0.91356  0.54470  Biso   1.000  H
  C1383    1.0000 0.58253  0.95360  0.56056  Biso   1.000  C
  H1461    1.0000 0.59870  0.91356  0.54470  Biso   1.000  H
  N194     1.0000 0.72443  0.00159  0.55061  Biso   1.000  N
  N195     1.0000 0.72438  0.00159  0.55061  Biso   1.000  N
  C1384    1.0000 0.37108  0.41745  0.56056  Biso   1.000  C
  C1385    1.0000 0.20706  0.35997  0.55598  Biso   1.000  C
  H1462    1.0000 0.31492  0.40130  0.54470  Biso   1.000  H
  H1463    1.0000 0.88148  0.20215  0.50610  Biso   1.000  H
  C1386    1.0000 0.97536  0.16830  0.51110  Biso   1.000  C
  C1387    1.0000 0.97524  0.16830  0.51110  Biso   1.000  C
  H1464    1.0000 0.88924  0.03477  0.50640  Biso   1.000  H
  H1465    1.0000 0.07758  0.29859  0.51230  Biso   1.000  H
  H1466    1.0000 0.07478  0.13680  0.51220  Biso   1.000  H
  H1467    1.0000 0.28853  0.83690  0.56040  Biso   1.000  H
  H1468    1.0000 0.25341  0.76327  0.55070  Biso   1.000  H
  C1388    1.0000 0.20938  0.70156  0.56669  Biso   1.000  C
  H1469    1.0000 0.28847  0.83690  0.56040  Biso   1.000  H
  H1470    1.0000 0.25335  0.76327  0.55070  Biso   1.000  H
  H1471    1.0000 0.11241  0.56439  0.56750  Biso   1.000  H
  H1472    1.0000 0.14485  0.59791  0.55510  Biso   1.000  H
  H1473    1.0000 0.14479  0.59791  0.55510  Biso   1.000  H
  H1474    1.0000 0.11235  0.56439  0.56750  Biso   1.000  H
  H1475    1.0000 0.43110  0.73911  0.56800  Biso   1.000  H
  H1476    1.0000 0.52564  0.80695  0.57370  Biso   1.000  H
  C1389    1.0000 0.48576  0.87149  0.56223  Biso   1.000  C
  H1477    1.0000 0.52570  0.80695  0.57370  Biso   1.000  H
  C1390    1.0000 0.48581  0.87149  0.56223  Biso   1.000  C
  H1478    1.0000 0.61609  0.96908  0.56760  Biso   1.000  H
  H1479    1.0000 0.57894  0.00657  0.55800  Biso   1.000  H
  H1480    1.0000 0.57882  0.00657  0.55800  Biso   1.000  H
  C1391    1.0000 0.74857  0.02117  0.54077  Biso   1.000  C
  C1392    1.0000 0.74851  0.02117  0.54077  Biso   1.000  C
  C1393    1.0000 0.38563  0.51416  0.56223  Biso   1.000  C
  H1481    1.0000 0.42774  0.42108  0.55800  Biso   1.000  H
  H1482    1.0000 0.35294  0.38386  0.56760  Biso   1.000  H
  H1483    1.0000 0.42762  0.42108  0.55800  Biso   1.000  H
  C1394    1.0000 0.38574  0.51416  0.56223  Biso   1.000  C
  H1484    1.0000 0.18725  0.32444  0.56290  Biso   1.000  H
  N196     1.0000 0.13977  0.31690  0.54756  Biso   1.000  N
  C1395    1.0000 0.21993  0.45635  0.55774  Biso   1.000  C
  C1396    1.0000 0.21981  0.45635  0.55774  Biso   1.000  C
  C1397    1.0000 0.95254  0.15914  0.52306  Biso   1.000  C
  H1485    1.0000 0.26090  0.69200  0.56800  Biso   1.000  H
  H1486    1.0000 0.19298  0.71865  0.57370  Biso   1.000  H
  H1487    1.0000 0.45195  0.88758  0.56750  Biso   1.000  H
  H1488    1.0000 0.45307  0.85521  0.55510  Biso   1.000  H
  H1489    1.0000 0.45201  0.88758  0.56750  Biso   1.000  H
  H1490    1.0000 0.45313  0.85521  0.55510  Biso   1.000  H
  C1398    1.0000 0.84245  0.08935  0.53732  Biso   1.000  C
  H1491    1.0000 0.70485  0.99109  0.53520  Biso   1.000  H
  H1492    1.0000 0.70491  0.99109  0.53520  Biso   1.000  H
  H1493    1.0000 0.43557  0.54795  0.56750  Biso   1.000  H
  C1399    1.0000 0.29833  0.50777  0.56669  Biso   1.000  C
  C1400    1.0000 0.29838  0.50777  0.56669  Biso   1.000  C
  H1494    1.0000 0.40210  0.54687  0.55510  Biso   1.000  H
  C1401    1.0000 0.06144  0.25606  0.55005  Biso   1.000  C
  C1402    1.0000 0.06132  0.25606  0.55005  Biso   1.000  C
  H1495    1.0000 0.16310  0.45157  0.56040  Biso   1.000  H
  H1496    1.0000 0.23667  0.49007  0.55070  Biso   1.000  H
  H1497    1.0000 0.23661  0.49007  0.55070  Biso   1.000  H
  C1403    1.0000 0.86389  0.10086  0.52655  Biso   1.000  C
  C1404    1.0000 0.01786  0.20888  0.53099  Biso   1.000  C
  C1405    1.0000 0.90696  0.14306  0.54510  Biso   1.000  C
  H1498    1.0000 0.30796  0.56888  0.56800  Biso   1.000  H
  H1499    1.0000 0.28122  0.47425  0.57370  Biso   1.000  H
  H1500    1.0000 0.28128  0.47425  0.57370  Biso   1.000  H
  C1406    1.0000 0.99538  0.20356  0.54219  Biso   1.000  C
  H1501    1.0000 0.04587  0.24509  0.55760  Biso   1.000  H
  H1502    1.0000 0.81834  0.06909  0.52120  Biso   1.000  H
  H1503    1.0000 0.81822  0.06909  0.52120  Biso   1.000  H
  H1504    1.0000 0.07857  0.24684  0.52880  Biso   1.000  H
  H1505    1.0000 0.07860  0.24690  0.52880  Biso   1.000  H
  H1506    1.0000 0.88990  0.13808  0.55260  Biso   1.000  H
  C1407    1.0000 0.99540  0.17882  0.18699  Biso   1.000  C
  C1408    1.0000 0.05734  0.14382  0.18242  Biso   1.000  C
  C1409    1.0000 0.98982  0.23912  0.17806  Biso   1.000  C
  H1507    1.0000 0.02101  0.21362  0.19380  Biso   1.000  H
  H1508    1.0000 0.93468  0.12767  0.18860  Biso   1.000  H
  C1410    1.0000 0.14552  0.21900  0.17976  Biso   1.000  C
  H1509    1.0000 0.06340  0.10513  0.18800  Biso   1.000  H
  H1510    1.0000 0.02983  0.10721  0.17580  Biso   1.000  H
  C1411    1.0000 0.08357  0.31659  0.17516  Biso   1.000  C
  H1511    1.0000 0.96121  0.20278  0.17140  Biso   1.000  H
  H1512    1.0000 0.95193  0.26382  0.18070  Biso   1.000  H
  C1412    1.0000 0.14308  0.27742  0.17129  Biso   1.000  C
  H1513    1.0000 0.18471  0.19538  0.17730  Biso   1.000  H
  H1514    1.0000 0.17262  0.25501  0.18650  Biso   1.000  H
  N197     1.0000 0.07271  0.36888  0.16631  Biso   1.000  N
  H1515    1.0000 0.11126  0.35576  0.18170  Biso   1.000  H
  N198     1.0000 0.23462  0.35569  0.16971  Biso   1.000  N
  H1516    1.0000 0.11968  0.24357  0.16420  Biso   1.000  H
  C1413    1.0000 0.08333  0.44480  0.16906  Biso   1.000  C
  C1414    1.0000 0.26573  0.36161  0.15979  Biso   1.000  C
  C1415    1.0000 0.07117  0.50207  0.16087  Biso   1.000  C
  H1517    1.0000 0.09901  0.46519  0.17640  Biso   1.000  H
  C1416    1.0000 0.35839  0.43282  0.15677  Biso   1.000  C
  H1518    1.0000 0.22841  0.31962  0.15440  Biso   1.000  H
  C1417    1.0000 0.04361  0.47259  0.14981  Biso   1.000  C
  C1418    1.0000 0.08582  0.58418  0.16379  Biso   1.000  C
  C1419    1.0000 0.41581  0.50160  0.16379  Biso   1.000  C
  C1420    1.0000 0.38742  0.43551  0.14616  Biso   1.000  C
  C1421    1.0000 0.03059  0.52630  0.14273  Biso   1.000  C
  H1519    1.0000 0.03438  0.41579  0.14740  Biso   1.000  H
  H1520    1.0000 0.10522  0.60410  0.17110  Biso   1.000  H
  C1422    1.0000 0.07442  0.64159  0.15677  Biso   1.000  C
  C1423    1.0000 0.49788  0.56911  0.16087  Biso   1.000  C
  H1521    1.0000 0.39590  0.50106  0.17110  Biso   1.000  H
  C1424    1.0000 0.47369  0.50429  0.14273  Biso   1.000  C
  H1522    1.0000 0.34898  0.39069  0.14110  Biso   1.000  H
  C1425    1.0000 0.04809  0.61258  0.14616  Biso   1.000  C
  C1426    1.0000 0.99759  0.49178  0.13138  Biso   1.000  C
  C1427    1.0000 0.09587  0.73426  0.15979  Biso   1.000  C
  C1428    1.0000 0.52738  0.57099  0.14981  Biso   1.000  C
  C1429    1.0000 0.55519  0.63849  0.16906  Biso   1.000  C
  C1430    1.0000 0.50818  0.50577  0.13138  Biso   1.000  C
  H1523    1.0000 0.04172  0.65101  0.14110  Biso   1.000  H
  N199     1.0000 0.97477  0.52738  0.12411  Biso   1.000  N
  H1524    1.0000 0.99369  0.43618  0.12950  Biso   1.000  H
  N200     1.0000 0.12110  0.76536  0.16971  Biso   1.000  N
  H1525    1.0000 0.09120  0.77155  0.15440  Biso   1.000  H
  H1526    1.0000 0.58416  0.61857  0.14740  Biso   1.000  H
  H1527    1.0000 0.53476  0.63378  0.17640  Biso   1.000  H
  N201     1.0000 0.63107  0.70378  0.16631  Biso   1.000  N
  N202     1.0000 0.47256  0.44736  0.12411  Biso   1.000  N
  H1528    1.0000 0.56375  0.55746  0.12950  Biso   1.000  H
  C1431    1.0000 0.93591  0.47798  0.11393  Biso   1.000  C
  C1432    1.0000 0.13428  0.85689  0.17129  Biso   1.000  C
  C1433    1.0000 0.68336  0.76697  0.17516  Biso   1.000  C
  C1434    1.0000 0.52202  0.45792  0.11393  Biso   1.000  C
  C1435    1.0000 0.99480  0.53620  0.10466  Biso   1.000  C
  C1436    1.0000 0.84431  0.45846  0.11224  Biso   1.000  C
  H1529    1.0000 0.93708  0.42030  0.11410  Biso   1.000  H
  H1530    1.0000 0.12390  0.88031  0.16420  Biso   1.000  H
  C1437    1.0000 0.07350  0.85447  0.17976  Biso   1.000  C
  C1438    1.0000 0.23298  0.91638  0.17516  Biso   1.000  C
  C1439    1.0000 0.72259  0.86571  0.17129  Biso   1.000  C
  C1440    1.0000 0.76090  0.75069  0.17806  Biso   1.000  C
  H1531    1.0000 0.64415  0.75547  0.18170  Biso   1.000  H
  C1441    1.0000 0.46378  0.45860  0.10466  Biso   1.000  C
  C1442    1.0000 0.54149  0.38578  0.11224  Biso   1.000  C
  H1532    1.0000 0.57967  0.51681  0.11410  Biso   1.000  H
  N203     1.0000 0.08394  0.54521  0.10542  Biso   1.000  N
  H1533    1.0000 0.99952  0.59670  0.10480  Biso   1.000  H
  C1443    1.0000 0.95523  0.48760  0.09330  Biso   1.000  C
  C1444    1.0000 0.80268  0.41297  0.10060  Biso   1.000  C
  H1534    1.0000 0.84272  0.51520  0.11290  Biso   1.000  H
  H1535    1.0000 0.80591  0.41768  0.11810  Biso   1.000  H
  H1536    1.0000 0.01073  0.81530  0.17730  Biso   1.000  H
  H1537    1.0000 0.08241  0.82741  0.18650  Biso   1.000  H
  C1445    1.0000 0.08649  0.94270  0.18242  Biso   1.000  C
  N204     1.0000 0.29619  0.92729  0.16631  Biso   1.000  N
  H1538    1.0000 0.24447  0.88866  0.18170  Biso   1.000  H
  C1446    1.0000 0.24929  0.01020  0.17806  Biso   1.000  C
  N205     1.0000 0.64432  0.87890  0.16971  Biso   1.000  N
  H1539    1.0000 0.75639  0.87607  0.16420  Biso   1.000  H
  C1447    1.0000 0.78101  0.92648  0.17976  Biso   1.000  C
  C1448    1.0000 0.82118  0.81658  0.18699  Biso   1.000  C
  H1540    1.0000 0.79714  0.75836  0.17140  Biso   1.000  H
  H1541    1.0000 0.73619  0.68810  0.18070  Biso   1.000  H
  N206     1.0000 0.45481  0.53869  0.10542  Biso   1.000  N
  H1542    1.0000 0.40330  0.40280  0.10480  Biso   1.000  H
  C1449    1.0000 0.51241  0.46761  0.09330  Biso   1.000  C
  C1450    1.0000 0.58698  0.38968  0.10060  Biso   1.000  C
  H1543    1.0000 0.48478  0.32749  0.11290  Biso   1.000  H
  H1544    1.0000 0.58228  0.38820  0.11810  Biso   1.000  H
  C1451    1.0000 0.14902  0.62409  0.10448  Biso   1.000  C
  H1545    1.0000 0.99477  0.52496  0.08720  Biso   1.000  H
  H1546    1.0000 0.95337  0.42898  0.09320  Biso   1.000  H
  C1452    1.0000 0.86291  0.47280  0.09165  Biso   1.000  C
  H1547    1.0000 0.79780  0.35307  0.10010  Biso   1.000  H
  H1548    1.0000 0.74170  0.40489  0.09980  Biso   1.000  H
  H1549    1.0000 0.04170  0.93657  0.18800  Biso   1.000  H
  H1550    1.0000 0.07737  0.97016  0.17580  Biso   1.000  H
  C1453    1.0000 0.18340  0.00455  0.18699  Biso   1.000  C
  C1454    1.0000 0.36146  0.91665  0.16906  Biso   1.000  C
  H1551    1.0000 0.24162  0.03881  0.17140  Biso   1.000  H
  H1552    1.0000 0.31189  0.04809  0.18070  Biso   1.000  H
  C1455    1.0000 0.63837  0.90407  0.15979  Biso   1.000  C
  H1553    1.0000 0.80460  0.98927  0.17730  Biso   1.000  H
  H1554    1.0000 0.74498  0.91760  0.18650  Biso   1.000  H
  C1456    1.0000 0.85617  0.91349  0.18242  Biso   1.000  C
  H1555    1.0000 0.87226  0.80695  0.18860  Biso   1.000  H
  H1556    1.0000 0.78638  0.80735  0.19380  Biso   1.000  H
  C1457    1.0000 0.37587  0.52489  0.10448  Biso   1.000  C
  H1557    1.0000 0.47496  0.46977  0.08720  Biso   1.000  H
  H1558    1.0000 0.57100  0.52442  0.09320  Biso   1.000  H
  C1458    1.0000 0.52721  0.39008  0.09165  Biso   1.000  C
  H1559    1.0000 0.64688  0.44466  0.10010  Biso   1.000  H
  H1560    1.0000 0.59510  0.33678  0.09980  Biso   1.000  H
  C1459    1.0000 0.24441  0.64771  0.10436  Biso   1.000  C
  H1561    1.0000 0.13600  0.67161  0.10380  Biso   1.000  H
  H1562    1.0000 0.83961  0.44440  0.08440  Biso   1.000  H
  H1563    1.0000 0.86443  0.53121  0.09180  Biso   1.000  H
  H1564    1.0000 0.19258  0.97897  0.19380  Biso   1.000  H
  H1565    1.0000 0.19300  0.06526  0.18860  Biso   1.000  H
  C1460    1.0000 0.43087  0.92877  0.16087  Biso   1.000  C
  H1566    1.0000 0.36621  0.90097  0.17640  Biso   1.000  H
  C1461    1.0000 0.56719  0.92560  0.15677  Biso   1.000  C
  H1567    1.0000 0.68036  0.90878  0.15440  Biso   1.000  H
  H1568    1.0000 0.89487  0.95825  0.18800  Biso   1.000  H
  H1569    1.0000 0.89277  0.92258  0.17580  Biso   1.000  H
  C1462    1.0000 0.35232  0.59670  0.10436  Biso   1.000  C
  H1570    1.0000 0.32836  0.46438  0.10380  Biso   1.000  H
  H1571    1.0000 0.55559  0.39520  0.08440  Biso   1.000  H
  H1572    1.0000 0.46882  0.33321  0.09180  Biso   1.000  H
  C1463    1.0000 0.26300  0.57927  0.10426  Biso   1.000  C
  C1464    1.0000 0.31625  0.73696  0.10426  Biso   1.000  C
  C1465    1.0000 0.49841  0.91416  0.16379  Biso   1.000  C
  C1466    1.0000 0.42899  0.95636  0.14981  Biso   1.000  C
  C1467    1.0000 0.56446  0.95185  0.14616  Biso   1.000  C
  C1468    1.0000 0.42069  0.68365  0.10426  Biso   1.000  C
  H1573    1.0000 0.21491  0.51876  0.10410  Biso   1.000  H
  C1469    1.0000 0.40327  0.75560  0.10436  Biso   1.000  C
  H1574    1.0000 0.30389  0.78508  0.10410  Biso   1.000  H
  H1575    1.0000 0.49891  0.89478  0.17110  Biso   1.000  H
  C1470    1.0000 0.49569  0.96935  0.14273  Biso   1.000  C
  H1576    1.0000 0.38137  0.96558  0.14740  Biso   1.000  H
  H1577    1.0000 0.60927  0.95825  0.14110  Biso   1.000  H
  H1578    1.0000 0.48118  0.69610  0.10410  Biso   1.000  H
  C1471    1.0000 0.47508  0.85097  0.10448  Biso   1.000  C
  C1472    1.0000 0.49420  0.00240  0.13138  Biso   1.000  C
  N207     1.0000 0.46129  0.91605  0.10542  Biso   1.000  N
  H1579    1.0000 0.53555  0.86396  0.10380  Biso   1.000  H
  N208     1.0000 0.55250  0.02514  0.12411  Biso   1.000  N
  H1580    1.0000 0.44242  0.00630  0.12950  Biso   1.000  H
  C1473    1.0000 0.54134  0.00516  0.10466  Biso   1.000  C
  C1474    1.0000 0.54205  0.06404  0.11393  Biso   1.000  C
  H1581    1.0000 0.59715  0.00044  0.10480  Biso   1.000  H
  C1475    1.0000 0.53242  0.04480  0.09330  Biso   1.000  C
  C1476    1.0000 0.61419  0.15564  0.11224  Biso   1.000  C
  H1582    1.0000 0.48313  0.06290  0.11410  Biso   1.000  H
  H1583    1.0000 0.53015  0.00516  0.08720  Biso   1.000  H
  H1584    1.0000 0.47554  0.04655  0.09320  Biso   1.000  H
  C1477    1.0000 0.60986  0.13707  0.09165  Biso   1.000  C
  C1478    1.0000 0.61031  0.19730  0.10060  Biso   1.000  C
  H1585    1.0000 0.67241  0.15726  0.11290  Biso   1.000  H
  H1586    1.0000 0.61178  0.19407  0.11810  Biso   1.000  H
  H1587    1.0000 0.60472  0.16035  0.08440  Biso   1.000  H
  H1588    1.0000 0.66676  0.13559  0.09180  Biso   1.000  H
  H1589    1.0000 0.55526  0.20215  0.10010  Biso   1.000  H
  H1590    1.0000 0.66318  0.25828  0.09980  Biso   1.000  H
  C1479    1.0000 0.76724  0.25407  0.15558  Biso   1.000  C
  C1480    1.0000 0.78830  0.31659  0.14592  Biso   1.000  C
  H1591    1.0000 0.70430  0.20419  0.15510  Biso   1.000  H
  H1592    1.0000 0.77384  0.28731  0.16250  Biso   1.000  H
  C1481    1.0000 0.83049  0.21597  0.15578  Biso   1.000  C
  H1593    1.0000 0.77378  0.28731  0.16250  Biso   1.000  H
  C1482    1.0000 0.78824  0.31659  0.14592  Biso   1.000  C
  H1594    1.0000 0.70424  0.20419  0.15510  Biso   1.000  H
  C1483    1.0000 0.83043  0.21597  0.15578  Biso   1.000  C
  C1484    1.0000 0.78458  0.27069  0.13533  Biso   1.000  C
  H1595    1.0000 0.74451  0.33813  0.14570  Biso   1.000  H
  H1596    1.0000 0.84912  0.36969  0.14690  Biso   1.000  H
  C1485    1.0000 0.76730  0.25407  0.15558  Biso   1.000  C
  H1597    1.0000 0.84906  0.36969  0.14690  Biso   1.000  H
  H1598    1.0000 0.74445  0.33813  0.14570  Biso   1.000  H
  H1599    1.0000 0.89241  0.26497  0.15740  Biso   1.000  H
  H1600    1.0000 0.81189  0.17061  0.16170  Biso   1.000  H
  C1486    1.0000 0.83011  0.17290  0.14492  Biso   1.000  C
  H1601    1.0000 0.89235  0.26497  0.15740  Biso   1.000  H
  C1487    1.0000 0.83005  0.17290  0.14492  Biso   1.000  C
  C1488    1.0000 0.85249  0.23899  0.13533  Biso   1.000  C
  H1602    1.0000 0.79741  0.31289  0.12920  Biso   1.000  H
  H1603    1.0000 0.72338  0.21846  0.13430  Biso   1.000  H
  H1604    1.0000 0.72342  0.21853  0.13430  Biso   1.000  H
  C1489    1.0000 0.85243  0.23899  0.13533  Biso   1.000  C
  H1605    1.0000 0.79735  0.31289  0.12920  Biso   1.000  H
  H1606    1.0000 0.72336  0.21853  0.13430  Biso   1.000  H
  N209     1.0000 0.90301  0.14921  0.14532  Biso   1.000  N
  H1607    1.0000 0.77040  0.11771  0.14370  Biso   1.000  H
  N210     1.0000 0.90295  0.14921  0.14532  Biso   1.000  N
  H1608    1.0000 0.77034  0.11771  0.14370  Biso   1.000  H
  N211     1.0000 0.84269  0.19107  0.12487  Biso   1.000  N
  H1609    1.0000 0.91503  0.29122  0.13610  Biso   1.000  H
  H1610    1.0000 0.91497  0.29122  0.13610  Biso   1.000  H
  N212     1.0000 0.84264  0.19107  0.12487  Biso   1.000  N
  C1490    1.0000 0.87530  0.06522  0.14639  Biso   1.000  C
  C1491    1.0000 0.90839  0.23118  0.11794  Biso   1.000  C
  C1492    1.0000 0.90833  0.23118  0.11794  Biso   1.000  C
  H1611    1.0000 0.81259  0.02362  0.14690  Biso   1.000  H
  C1493    1.0000 0.94136  0.03217  0.14686  Biso   1.000  C
  C1494    1.0000 0.90291  0.19598  0.10692  Biso   1.000  C
  H1612    1.0000 0.96119  0.28469  0.12010  Biso   1.000  H
  C1495    1.0000 0.90285  0.19598  0.10692  Biso   1.000  C
  H1613    1.0000 0.96113  0.28469  0.12010  Biso   1.000  H
  C1496    1.0000 0.90602  0.94178  0.14676  Biso   1.000  C
  C1497    1.0000 0.90614  0.94178  0.14676  Biso   1.000  C
  C1498    1.0000 0.03569  0.09389  0.14676  Biso   1.000  C
  C1499    1.0000 0.97621  0.24397  0.09945  Biso   1.000  C
  C1500    1.0000 0.82670  0.11899  0.10293  Biso   1.000  C
  C1501    1.0000 0.97616  0.24397  0.09945  Biso   1.000  C
  C1502    1.0000 0.82665  0.11899  0.10293  Biso   1.000  C
  C1503    1.0000 0.96778  0.90921  0.14686  Biso   1.000  C
  H1614    1.0000 0.84288  0.90187  0.14660  Biso   1.000  H
  C1504    1.0000 0.96784  0.90921  0.14686  Biso   1.000  C
  H1615    1.0000 0.05902  0.15708  0.14660  Biso   1.000  H
  C1505    1.0000 0.09080  0.05862  0.14686  Biso   1.000  C
  H1616    1.0000 0.05896  0.15708  0.14660  Biso   1.000  H
  C1506    1.0000 0.97142  0.20978  0.08865  Biso   1.000  C
  C1507    1.0000 0.97136  0.20978  0.08865  Biso   1.000  C
  H1617    1.0000 0.02780  0.29842  0.10170  Biso   1.000  H
  C1508    1.0000 0.82194  0.09093  0.09235  Biso   1.000  C
  H1618    1.0000 0.77707  0.08547  0.10770  Biso   1.000  H
  C1509    1.0000 0.82188  0.09093  0.09235  Biso   1.000  C
  C1510    1.0000 0.93470  0.81007  0.14639  Biso   1.000  C
  C1511    1.0000 0.93485  0.81014  0.14639  Biso   1.000  C
  C1512    1.0000 0.93482  0.81007  0.14639  Biso   1.000  C
  C1513    1.0000 0.05823  0.96433  0.14676  Biso   1.000  C
  C1514    1.0000 0.18988  0.12471  0.14639  Biso   1.000  C
  C1515    1.0000 0.18994  0.12471  0.14639  Biso   1.000  C
  C1516    1.0000 0.89403  0.13521  0.08547  Biso   1.000  C
  C1517    1.0000 0.89397  0.13521  0.08547  Biso   1.000  C
  C1518    1.0000 0.04671  0.25918  0.08100  Biso   1.000  C
  C1519    1.0000 0.04665  0.25918  0.08100  Biso   1.000  C
  C1520    1.0000 0.73692  0.00902  0.08856  Biso   1.000  C
  C1521    1.0000 0.73686  0.00902  0.08856  Biso   1.000  C
  N213     1.0000 0.85079  0.75381  0.14532  Biso   1.000  N
  H1619    1.0000 0.97634  0.78901  0.14690  Biso   1.000  H
  H1620    1.0000 0.97639  0.78901  0.14690  Biso   1.000  H
  H1621    1.0000 0.09807  0.94098  0.14660  Biso   1.000  H
  N214     1.0000 0.24619  0.09698  0.14532  Biso   1.000  N
  H1622    1.0000 0.21095  0.18737  0.14690  Biso   1.000  H
  N215     1.0000 0.24614  0.09698  0.14532  Biso   1.000  N
  H1623    1.0000 0.21101  0.18737  0.14690  Biso   1.000  H
  H1624    1.0000 0.89000  0.11327  0.07820  Biso   1.000  H
  H1625    1.0000 0.88994  0.11327  0.07820  Biso   1.000  H
  N216     1.0000 0.12188  0.32641  0.08347  Biso   1.000  N
  H1626    1.0000 0.03814  0.23912  0.07360  Biso   1.000  H
  H1627    1.0000 0.03808  0.23912  0.07360  Biso   1.000  H
  N217     1.0000 0.12194  0.32641  0.08347  Biso   1.000  N
  N218     1.0000 0.72171  0.97907  0.07888  Biso   1.000  N
  H1628    1.0000 0.69121  0.97752  0.09390  Biso   1.000  H
  N219     1.0000 0.72175  0.97914  0.07888  Biso   1.000  N
  H1629    1.0000 0.69127  0.97752  0.09390  Biso   1.000  H
  C1522    1.0000 0.82710  0.65723  0.14492  Biso   1.000  C
  C1523    1.0000 0.34279  0.16987  0.14492  Biso   1.000  C
  C1524    1.0000 0.34273  0.16987  0.14492  Biso   1.000  C
  C1525    1.0000 0.18515  0.36646  0.07450  Biso   1.000  C
  C1526    1.0000 0.18519  0.36653  0.07450  Biso   1.000  C
  C1527    1.0000 0.18525  0.36653  0.07450  Biso   1.000  C
  C1528    1.0000 0.63073  0.90342  0.07709  Biso   1.000  C
  C1529    1.0000 0.63085  0.90342  0.07709  Biso   1.000  C
  C1530    1.0000 0.76099  0.61348  0.13533  Biso   1.000  C
  C1531    1.0000 0.78399  0.61449  0.15578  Biso   1.000  C
  H1630    1.0000 0.88226  0.65272  0.14370  Biso   1.000  H
  C1532    1.0000 0.78405  0.61449  0.15578  Biso   1.000  C
  H1631    1.0000 0.88231  0.65272  0.14370  Biso   1.000  H
  C1533    1.0000 0.38652  0.14753  0.13533  Biso   1.000  C
  C1534    1.0000 0.38549  0.16947  0.15578  Biso   1.000  C
  H1632    1.0000 0.34728  0.22957  0.14370  Biso   1.000  H
  C1535    1.0000 0.38646  0.14753  0.13533  Biso   1.000  C
  C1536    1.0000 0.38543  0.16947  0.15578  Biso   1.000  C
  C1537    1.0000 0.27262  0.36922  0.07709  Biso   1.000  C
  C1538    1.0000 0.20011  0.46048  0.07227  Biso   1.000  C
  H1633    1.0000 0.15862  0.32890  0.06780  Biso   1.000  H
  C1539    1.0000 0.27256  0.36922  0.07709  Biso   1.000  C
  C1540    1.0000 0.20005  0.46048  0.07227  Biso   1.000  C
  H1634    1.0000 0.15857  0.32890  0.06780  Biso   1.000  H
  H1635    1.0000 0.59462  0.89333  0.08390  Biso   1.000  H
  C1541    1.0000 0.58640  0.92630  0.06769  Biso   1.000  C
  C1542    1.0000 0.63348  0.81869  0.07450  Biso   1.000  C
  C1543    1.0000 0.58645  0.92630  0.06769  Biso   1.000  C
  C1544    1.0000 0.63354  0.81869  0.07450  Biso   1.000  C
  N220     1.0000 0.80883  0.65158  0.12487  Biso   1.000  N
  H1636    1.0000 0.70873  0.62378  0.13610  Biso   1.000  H
  C1545    1.0000 0.72935  0.51394  0.13533  Biso   1.000  C
  N221     1.0000 0.80892  0.65164  0.12487  Biso   1.000  N
  H1637    1.0000 0.70884  0.62378  0.13610  Biso   1.000  H
  N222     1.0000 0.80889  0.65158  0.12487  Biso   1.000  N
  N223     1.0000 0.80886  0.65164  0.12487  Biso   1.000  N
  C1546    1.0000 0.74588  0.51320  0.15558  Biso   1.000  C
  H1638    1.0000 0.73496  0.62742  0.15740  Biso   1.000  H
  H1639    1.0000 0.82932  0.64128  0.16170  Biso   1.000  H
  C1547    1.0000 0.74594  0.51320  0.15558  Biso   1.000  C
  H1640    1.0000 0.82944  0.64128  0.16170  Biso   1.000  H
  N224     1.0000 0.34839  0.15728  0.12487  Biso   1.000  N
  H1641    1.0000 0.37618  0.08500  0.13610  Biso   1.000  H
  C1548    1.0000 0.48607  0.21537  0.13533  Biso   1.000  C
  C1549    1.0000 0.48679  0.23266  0.15558  Biso   1.000  C
  H1642    1.0000 0.37263  0.10762  0.15740  Biso   1.000  H
  H1643    1.0000 0.35867  0.18811  0.16170  Biso   1.000  H
  C1550    1.0000 0.48677  0.23273  0.15558  Biso   1.000  C
  H1644    1.0000 0.37257  0.10762  0.15740  Biso   1.000  H
  C1551    1.0000 0.48673  0.23266  0.15558  Biso   1.000  C
  C1552    1.0000 0.48683  0.23273  0.15558  Biso   1.000  C
  H1645    1.0000 0.35873  0.18811  0.16170  Biso   1.000  H
  N225     1.0000 0.25741  0.27829  0.07888  Biso   1.000  N
  H1646    1.0000 0.29868  0.40536  0.08390  Biso   1.000  H
  C1553    1.0000 0.33991  0.41357  0.06769  Biso   1.000  C
  N226     1.0000 0.25735  0.27829  0.07888  Biso   1.000  N
  H1647    1.0000 0.29871  0.40543  0.08390  Biso   1.000  H
  C1554    1.0000 0.33985  0.41357  0.06769  Biso   1.000  C
  C1555    1.0000 0.26889  0.50631  0.06319  Biso   1.000  C
  H1648    1.0000 0.14236  0.45597  0.07010  Biso   1.000  H
  H1649    1.0000 0.22138  0.49696  0.07900  Biso   1.000  H
  H1650    1.0000 0.22141  0.49703  0.07900  Biso   1.000  H
  C1556    1.0000 0.26895  0.50631  0.06319  Biso   1.000  C
  H1651    1.0000 0.14242  0.45597  0.07010  Biso   1.000  H
  H1652    1.0000 0.62357  0.94003  0.06100  Biso   1.000  H
  H1653    1.0000 0.58261  0.98028  0.06960  Biso   1.000  H
  C1557    1.0000 0.49184  0.84722  0.06547  Biso   1.000  C
  H1654    1.0000 0.62363  0.94003  0.06100  Biso   1.000  H
  C1558    1.0000 0.49195  0.84722  0.06547  Biso   1.000  C
  N227     1.0000 0.67354  0.79554  0.08347  Biso   1.000  N
  C1559    1.0000 0.53944  0.73961  0.07227  Biso   1.000  C
  H1655    1.0000 0.67111  0.82973  0.06780  Biso   1.000  H
  N228     1.0000 0.67366  0.79554  0.08347  Biso   1.000  N
  C1560    1.0000 0.53956  0.73961  0.07227  Biso   1.000  C
  H1656    1.0000 0.67117  0.82973  0.06780  Biso   1.000  H
  C1561    1.0000 0.76878  0.67722  0.11794  Biso   1.000  C
  C1562    1.0000 0.76884  0.67722  0.11794  Biso   1.000  C
  H1657    1.0000 0.68707  0.48453  0.12920  Biso   1.000  H
  H1658    1.0000 0.78143  0.50493  0.13430  Biso   1.000  H
  C1563    1.0000 0.68332  0.47168  0.14592  Biso   1.000  C
  H1659    1.0000 0.68719  0.48453  0.12920  Biso   1.000  H
  H1660    1.0000 0.78149  0.50493  0.13430  Biso   1.000  H
  C1564    1.0000 0.68347  0.47175  0.14592  Biso   1.000  C
  C1565    1.0000 0.68344  0.47168  0.14592  Biso   1.000  C
  C1566    1.0000 0.68336  0.47175  0.14592  Biso   1.000  C
  H1661    1.0000 0.79579  0.50008  0.15510  Biso   1.000  H
  H1662    1.0000 0.71270  0.48649  0.16250  Biso   1.000  H
  H1663    1.0000 0.79583  0.50015  0.15510  Biso   1.000  H
  H1664    1.0000 0.71276  0.48649  0.16250  Biso   1.000  H
  C1567    1.0000 0.32277  0.09160  0.11794  Biso   1.000  C
  C1568    1.0000 0.32283  0.09160  0.11794  Biso   1.000  C
  H1665    1.0000 0.51546  0.20258  0.12920  Biso   1.000  H
  H1666    1.0000 0.49507  0.27661  0.13430  Biso   1.000  H
  C1569    1.0000 0.52828  0.21166  0.14592  Biso   1.000  C
  C1570    1.0000 0.52832  0.21173  0.14592  Biso   1.000  C
  C1571    1.0000 0.52823  0.21166  0.14592  Biso   1.000  C
  H1667    1.0000 0.51552  0.20258  0.12920  Biso   1.000  H
  H1668    1.0000 0.49513  0.27661  0.13430  Biso   1.000  H
  H1669    1.0000 0.49991  0.29573  0.15510  Biso   1.000  H
  H1670    1.0000 0.51352  0.22620  0.16250  Biso   1.000  H
  H1671    1.0000 0.51346  0.22620  0.16250  Biso   1.000  H
  C1572    1.0000 0.27207  0.26308  0.08856  Biso   1.000  C
  C1573    1.0000 0.27213  0.26308  0.08856  Biso   1.000  C
  H1672    1.0000 0.31638  0.37642  0.06100  Biso   1.000  H
  H1673    1.0000 0.39772  0.41741  0.06960  Biso   1.000  H
  C1574    1.0000 0.35527  0.50806  0.06547  Biso   1.000  C
  H1674    1.0000 0.39766  0.41741  0.06960  Biso   1.000  H
  H1675    1.0000 0.31644  0.37642  0.06100  Biso   1.000  H
  H1676    1.0000 0.24363  0.47421  0.05620  Biso   1.000  H
  H1677    1.0000 0.28106  0.56877  0.06230  Biso   1.000  H
  H1678    1.0000 0.24357  0.47421  0.05620  Biso   1.000  H
  H1679    1.0000 0.28112  0.56877  0.06230  Biso   1.000  H
  H1680    1.0000 0.45319  0.83800  0.07190  Biso   1.000  H
  H1681    1.0000 0.46552  0.86163  0.05910  Biso   1.000  H
  C1575    1.0000 0.49372  0.76263  0.06319  Biso   1.000  C
  H1682    1.0000 0.46558  0.86163  0.05910  Biso   1.000  H
  C1576    1.0000 0.49377  0.76263  0.06319  Biso   1.000  C
  C1577    1.0000 0.74082  0.78753  0.08100  Biso   1.000  C
  C1578    1.0000 0.74088  0.78753  0.08100  Biso   1.000  C
  H1683    1.0000 0.54404  0.68644  0.07010  Biso   1.000  H
  H1684    1.0000 0.50293  0.72440  0.07900  Biso   1.000  H
  H1685    1.0000 0.50305  0.72440  0.07900  Biso   1.000  H
  C1579    1.0000 0.80397  0.70690  0.10692  Biso   1.000  C
  H1686    1.0000 0.71526  0.67648  0.12010  Biso   1.000  H
  H1687    1.0000 0.66187  0.40640  0.14570  Biso   1.000  H
  H1688    1.0000 0.63031  0.47942  0.14690  Biso   1.000  H
  C1580    1.0000 0.29312  0.09712  0.10692  Biso   1.000  C
  H1689    1.0000 0.32346  0.03877  0.12010  Biso   1.000  H
  C1581    1.0000 0.29307  0.09712  0.10692  Biso   1.000  C
  H1690    1.0000 0.32349  0.03883  0.12010  Biso   1.000  H
  H1691    1.0000 0.32355  0.03883  0.12010  Biso   1.000  H
  H1692    1.0000 0.59355  0.25548  0.14570  Biso   1.000  H
  H1693    1.0000 0.52057  0.15089  0.14690  Biso   1.000  H
  H1694    1.0000 0.59361  0.25548  0.14570  Biso   1.000  H
  H1695    1.0000 0.52063  0.15089  0.14690  Biso   1.000  H
  C1582    1.0000 0.26897  0.17808  0.09235  Biso   1.000  C
  H1696    1.0000 0.28629  0.30878  0.09390  Biso   1.000  H
  C1583    1.0000 0.26903  0.17808  0.09235  Biso   1.000  C
  H1697    1.0000 0.38476  0.54676  0.07190  Biso   1.000  H
  H1698    1.0000 0.39612  0.53451  0.05910  Biso   1.000  H
  H1699    1.0000 0.39607  0.53451  0.05910  Biso   1.000  H
  H1700    1.0000 0.38482  0.54676  0.07190  Biso   1.000  H
  H1701    1.0000 0.52573  0.76942  0.05620  Biso   1.000  H
  H1702    1.0000 0.43118  0.71228  0.06230  Biso   1.000  H
  H1703    1.0000 0.52579  0.76942  0.05620  Biso   1.000  H
  H1704    1.0000 0.43124  0.71228  0.06230  Biso   1.000  H
  H1705    1.0000 0.76086  0.79904  0.07360  Biso   1.000  H
  C1584    1.0000 0.79017  0.76162  0.08865  Biso   1.000  C
  H1706    1.0000 0.76097  0.79904  0.07360  Biso   1.000  H
  C1585    1.0000 0.88096  0.70771  0.10293  Biso   1.000  C
  C1586    1.0000 0.75600  0.73221  0.09945  Biso   1.000  C
  C1587    1.0000 0.88101  0.70771  0.10293  Biso   1.000  C
  C1588    1.0000 0.29228  0.17330  0.10293  Biso   1.000  C
  C1589    1.0000 0.26778  0.02382  0.09945  Biso   1.000  C
  C1590    1.0000 0.29234  0.17330  0.10293  Biso   1.000  C
  C1591    1.0000 0.26784  0.02382  0.09945  Biso   1.000  C
  C1592    1.0000 0.24120  0.10600  0.08547  Biso   1.000  C
  C1593    1.0000 0.24115  0.10600  0.08547  Biso   1.000  C
  C1594    1.0000 0.86482  0.75879  0.08547  Biso   1.000  C
  C1595    1.0000 0.90904  0.73099  0.09235  Biso   1.000  C
  H1707    1.0000 0.91447  0.69162  0.10770  Biso   1.000  H
  C1596    1.0000 0.90909  0.73099  0.09235  Biso   1.000  C
  H1708    1.0000 0.70155  0.72938  0.10170  Biso   1.000  H
  H1709    1.0000 0.30840  0.22290  0.10770  Biso   1.000  H
  H1710    1.0000 0.27059  0.97220  0.10170  Biso   1.000  H
  C1597    1.0000 0.23841  0.02860  0.08865  Biso   1.000  C
  C1598    1.0000 0.23835  0.02860  0.08865  Biso   1.000  C
  H1711    1.0000 0.22326  0.10997  0.07820  Biso   1.000  H
  H1712    1.0000 0.22331  0.10997  0.07820  Biso   1.000  H
  H1713    1.0000 0.88666  0.77669  0.07820  Biso   1.000  H
  C1599    1.0000 0.99101  0.72790  0.08856  Biso   1.000  C
  C1600    1.0000 0.21247  0.95329  0.08100  Biso   1.000  C
  N229     1.0000 0.02094  0.74264  0.07888  Biso   1.000  N
  H1714    1.0000 0.02255  0.71370  0.09390  Biso   1.000  H
  H1715    1.0000 0.02244  0.71370  0.09390  Biso   1.000  H
  N230     1.0000 0.20455  0.87812  0.08347  Biso   1.000  N
  H1716    1.0000 0.20104  0.96191  0.07360  Biso   1.000  H
  C1601    1.0000 0.09668  0.72743  0.07709  Biso   1.000  C
  C1602    1.0000 0.09656  0.72743  0.07709  Biso   1.000  C
  C1603    1.0000 0.18133  0.81478  0.07450  Biso   1.000  C
  C1604    1.0000 0.18122  0.81478  0.07450  Biso   1.000  C
  H1717    1.0000 0.10670  0.70131  0.08390  Biso   1.000  H
  C1605    1.0000 0.07369  0.66012  0.06769  Biso   1.000  C
  H1718    1.0000 0.10665  0.70131  0.08390  Biso   1.000  H
  C1606    1.0000 0.26039  0.79991  0.07227  Biso   1.000  C
  H1719    1.0000 0.17030  0.84144  0.06780  Biso   1.000  H
  C1607    1.0000 0.26033  0.79991  0.07227  Biso   1.000  C
  H1720    1.0000 0.06003  0.68361  0.06100  Biso   1.000  H
  H1721    1.0000 0.01973  0.60231  0.06960  Biso   1.000  H
  C1608    1.0000 0.15278  0.64471  0.06547  Biso   1.000  C
  C1609    1.0000 0.23748  0.73113  0.06319  Biso   1.000  C
  H1722    1.0000 0.31359  0.85759  0.07010  Biso   1.000  H
  H1723    1.0000 0.27560  0.77858  0.07900  Biso   1.000  H
  C1610    1.0000 0.23742  0.73113  0.06319  Biso   1.000  C
  H1724    1.0000 0.16205  0.61523  0.07190  Biso   1.000  H
  H1725    1.0000 0.13844  0.60393  0.05910  Biso   1.000  H
  H1726    1.0000 0.23061  0.75643  0.05620  Biso   1.000  H
  H1727    1.0000 0.28772  0.71888  0.06230  Biso   1.000  H
  C1611    1.0000 0.76724  0.25407  0.15558  Biso   1.000  C
  C1612    1.0000 0.78830  0.31659  0.14592  Biso   1.000  C
  H1728    1.0000 0.70430  0.20419  0.15510  Biso   1.000  H
  C1613    1.0000 0.83049  0.21597  0.15578  Biso   1.000  C
  H1729    1.0000 0.77378  0.28731  0.16250  Biso   1.000  H
  H1730    1.0000 0.77384  0.28731  0.16250  Biso   1.000  H
  C1614    1.0000 0.78824  0.31659  0.14592  Biso   1.000  C
  H1731    1.0000 0.70424  0.20419  0.15510  Biso   1.000  H
  C1615    1.0000 0.83043  0.21597  0.15578  Biso   1.000  C
  C1616    1.0000 0.76730  0.25407  0.15558  Biso   1.000  C
  C1617    1.0000 0.78458  0.27069  0.13533  Biso   1.000  C
  H1732    1.0000 0.74451  0.33813  0.14570  Biso   1.000  H
  H1733    1.0000 0.84906  0.36969  0.14690  Biso   1.000  H
  H1734    1.0000 0.84912  0.36969  0.14690  Biso   1.000  H
  H1735    1.0000 0.74445  0.33813  0.14570  Biso   1.000  H
  H1736    1.0000 0.81189  0.17061  0.16170  Biso   1.000  H
  C1618    1.0000 0.83011  0.17290  0.14492  Biso   1.000  C
  H1737    1.0000 0.89235  0.26497  0.15740  Biso   1.000  H
  H1738    1.0000 0.89241  0.26497  0.15740  Biso   1.000  H
  C1619    1.0000 0.83005  0.17290  0.14492  Biso   1.000  C
  C1620    1.0000 0.85249  0.23899  0.13533  Biso   1.000  C
  H1739    1.0000 0.79741  0.31289  0.12920  Biso   1.000  H
  H1740    1.0000 0.72338  0.21846  0.13430  Biso   1.000  H
  H1741    1.0000 0.72342  0.21853  0.13430  Biso   1.000  H
  C1621    1.0000 0.85243  0.23899  0.13533  Biso   1.000  C
  H1742    1.0000 0.79735  0.31289  0.12920  Biso   1.000  H
  H1743    1.0000 0.72336  0.21853  0.13430  Biso   1.000  H
  N231     1.0000 0.90301  0.14921  0.14532  Biso   1.000  N
  H1744    1.0000 0.77040  0.11771  0.14370  Biso   1.000  H
  N232     1.0000 0.90295  0.14921  0.14532  Biso   1.000  N
  H1745    1.0000 0.77034  0.11771  0.14370  Biso   1.000  H
  N233     1.0000 0.84269  0.19107  0.12487  Biso   1.000  N
  H1746    1.0000 0.91497  0.29122  0.13610  Biso   1.000  H
  H1747    1.0000 0.91503  0.29122  0.13610  Biso   1.000  H
  N234     1.0000 0.84264  0.19107  0.12487  Biso   1.000  N
  C1622    1.0000 0.87530  0.06522  0.14639  Biso   1.000  C
  C1623    1.0000 0.90839  0.23118  0.11794  Biso   1.000  C
  C1624    1.0000 0.90833  0.23118  0.11794  Biso   1.000  C
  H1748    1.0000 0.81259  0.02362  0.14690  Biso   1.000  H
  C1625    1.0000 0.94136  0.03217  0.14686  Biso   1.000  C
  H1749    1.0000 0.96119  0.28469  0.12010  Biso   1.000  H
  C1626    1.0000 0.90285  0.19598  0.10692  Biso   1.000  C
  C1627    1.0000 0.90291  0.19598  0.10692  Biso   1.000  C
  H1750    1.0000 0.96113  0.28469  0.12010  Biso   1.000  H
  C1628    1.0000 0.90602  0.94178  0.14676  Biso   1.000  C
  C1629    1.0000 0.90614  0.94178  0.14676  Biso   1.000  C
  C1630    1.0000 0.03569  0.09389  0.14676  Biso   1.000  C
  C1631    1.0000 0.82670  0.11899  0.10293  Biso   1.000  C
  C1632    1.0000 0.97616  0.24397  0.09945  Biso   1.000  C
  C1633    1.0000 0.97621  0.24397  0.09945  Biso   1.000  C
  C1634    1.0000 0.82665  0.11899  0.10293  Biso   1.000  C
  H1751    1.0000 0.84288  0.90187  0.14660  Biso   1.000  H
  C1635    1.0000 0.96778  0.90921  0.14686  Biso   1.000  C
  C1636    1.0000 0.96784  0.90921  0.14686  Biso   1.000  C
  H1752    1.0000 0.05902  0.15708  0.14660  Biso   1.000  H
  C1637    1.0000 0.09080  0.05862  0.14686  Biso   1.000  C
  H1753    1.0000 0.05896  0.15708  0.14660  Biso   1.000  H
  H1754    1.0000 0.77707  0.08547  0.10770  Biso   1.000  H
  C1638    1.0000 0.82188  0.09093  0.09235  Biso   1.000  C
  C1639    1.0000 0.82194  0.09093  0.09235  Biso   1.000  C
  C1640    1.0000 0.97136  0.20978  0.08865  Biso   1.000  C
  C1641    1.0000 0.97142  0.20978  0.08865  Biso   1.000  C
  H1755    1.0000 0.02780  0.29842  0.10170  Biso   1.000  H
  C1642    1.0000 0.05823  0.96433  0.14676  Biso   1.000  C
  C1643    1.0000 0.93470  0.81007  0.14639  Biso   1.000  C
  C1644    1.0000 0.93485  0.81014  0.14639  Biso   1.000  C
  C1645    1.0000 0.93482  0.81007  0.14639  Biso   1.000  C
  C1646    1.0000 0.18988  0.12471  0.14639  Biso   1.000  C
  C1647    1.0000 0.18994  0.12471  0.14639  Biso   1.000  C
  C1648    1.0000 0.73692  0.00902  0.08856  Biso   1.000  C
  C1649    1.0000 0.89397  0.13521  0.08547  Biso   1.000  C
  C1650    1.0000 0.73686  0.00902  0.08856  Biso   1.000  C
  C1651    1.0000 0.89403  0.13521  0.08547  Biso   1.000  C
  C1652    1.0000 0.04671  0.25918  0.08100  Biso   1.000  C
  C1653    1.0000 0.04665  0.25918  0.08100  Biso   1.000  C
  H1756    1.0000 0.09807  0.94098  0.14660  Biso   1.000  H
  N235     1.0000 0.85079  0.75381  0.14532  Biso   1.000  N
  H1757    1.0000 0.97634  0.78901  0.14690  Biso   1.000  H
  H1758    1.0000 0.97639  0.78901  0.14690  Biso   1.000  H
  N236     1.0000 0.24619  0.09698  0.14532  Biso   1.000  N
  H1759    1.0000 0.21095  0.18737  0.14690  Biso   1.000  H
  N237     1.0000 0.24614  0.09698  0.14532  Biso   1.000  N
  H1760    1.0000 0.21101  0.18737  0.14690  Biso   1.000  H
  N238     1.0000 0.72171  0.97907  0.07888  Biso   1.000  N
  H1761    1.0000 0.69121  0.97752  0.09390  Biso   1.000  H
  N239     1.0000 0.72175  0.97914  0.07888  Biso   1.000  N
  H1762    1.0000 0.69127  0.97752  0.09390  Biso   1.000  H
  H1763    1.0000 0.89000  0.11327  0.07820  Biso   1.000  H
  H1764    1.0000 0.88994  0.11327  0.07820  Biso   1.000  H
  N240     1.0000 0.12188  0.32641  0.08347  Biso   1.000  N
  H1765    1.0000 0.03814  0.23912  0.07360  Biso   1.000  H
  H1766    1.0000 0.03808  0.23912  0.07360  Biso   1.000  H
  N241     1.0000 0.12194  0.32641  0.08347  Biso   1.000  N
  C1654    1.0000 0.82710  0.65723  0.14492  Biso   1.000  C
  C1655    1.0000 0.34279  0.16987  0.14492  Biso   1.000  C
  C1656    1.0000 0.34273  0.16987  0.14492  Biso   1.000  C
  C1657    1.0000 0.63073  0.90342  0.07709  Biso   1.000  C
  C1658    1.0000 0.63085  0.90342  0.07709  Biso   1.000  C
  C1659    1.0000 0.18515  0.36646  0.07450  Biso   1.000  C
  C1660    1.0000 0.18519  0.36653  0.07450  Biso   1.000  C
  C1661    1.0000 0.18525  0.36653  0.07450  Biso   1.000  C
  C1662    1.0000 0.76099  0.61348  0.13533  Biso   1.000  C
  C1663    1.0000 0.78399  0.61449  0.15578  Biso   1.000  C
  H1767    1.0000 0.88226  0.65272  0.14370  Biso   1.000  H
  C1664    1.0000 0.78405  0.61449  0.15578  Biso   1.000  C
  H1768    1.0000 0.88231  0.65272  0.14370  Biso   1.000  H
  C1665    1.0000 0.38652  0.14753  0.13533  Biso   1.000  C
  C1666    1.0000 0.38549  0.16947  0.15578  Biso   1.000  C
  H1769    1.0000 0.34728  0.22957  0.14370  Biso   1.000  H
  C1667    1.0000 0.38646  0.14753  0.13533  Biso   1.000  C
  C1668    1.0000 0.38543  0.16947  0.15578  Biso   1.000  C
  H1770    1.0000 0.59462  0.89333  0.08390  Biso   1.000  H
  C1669    1.0000 0.58640  0.92630  0.06769  Biso   1.000  C
  C1670    1.0000 0.63348  0.81869  0.07450  Biso   1.000  C
  C1671    1.0000 0.58645  0.92630  0.06769  Biso   1.000  C
  C1672    1.0000 0.63354  0.81869  0.07450  Biso   1.000  C
  C1673    1.0000 0.27262  0.36922  0.07709  Biso   1.000  C
  C1674    1.0000 0.20011  0.46048  0.07227  Biso   1.000  C
  H1771    1.0000 0.15862  0.32890  0.06780  Biso   1.000  H
  C1675    1.0000 0.27256  0.36922  0.07709  Biso   1.000  C
  C1676    1.0000 0.20005  0.46048  0.07227  Biso   1.000  C
  H1772    1.0000 0.15857  0.32890  0.06780  Biso   1.000  H
  N242     1.0000 0.80883  0.65158  0.12487  Biso   1.000  N
  H1773    1.0000 0.70873  0.62378  0.13610  Biso   1.000  H
  C1677    1.0000 0.72935  0.51394  0.13533  Biso   1.000  C
  N243     1.0000 0.80892  0.65164  0.12487  Biso   1.000  N
  H1774    1.0000 0.70884  0.62378  0.13610  Biso   1.000  H
  N244     1.0000 0.80889  0.65158  0.12487  Biso   1.000  N
  N245     1.0000 0.80886  0.65164  0.12487  Biso   1.000  N
  C1678    1.0000 0.74588  0.51320  0.15558  Biso   1.000  C
  H1775    1.0000 0.73496  0.62742  0.15740  Biso   1.000  H
  H1776    1.0000 0.82932  0.64128  0.16170  Biso   1.000  H
  C1679    1.0000 0.74594  0.51320  0.15558  Biso   1.000  C
  H1777    1.0000 0.82944  0.64128  0.16170  Biso   1.000  H
  N246     1.0000 0.34839  0.15728  0.12487  Biso   1.000  N
  H1778    1.0000 0.37618  0.08500  0.13610  Biso   1.000  H
  C1680    1.0000 0.48607  0.21537  0.13533  Biso   1.000  C
  C1681    1.0000 0.48679  0.23266  0.15558  Biso   1.000  C
  H1779    1.0000 0.37263  0.10762  0.15740  Biso   1.000  H
  H1780    1.0000 0.35867  0.18811  0.16170  Biso   1.000  H
  C1682    1.0000 0.48677  0.23273  0.15558  Biso   1.000  C
  H1781    1.0000 0.37257  0.10762  0.15740  Biso   1.000  H
  C1683    1.0000 0.48673  0.23266  0.15558  Biso   1.000  C
  C1684    1.0000 0.48683  0.23273  0.15558  Biso   1.000  C
  H1782    1.0000 0.35873  0.18811  0.16170  Biso   1.000  H
  H1783    1.0000 0.58261  0.98028  0.06960  Biso   1.000  H
  H1784    1.0000 0.62357  0.94003  0.06100  Biso   1.000  H
  C1685    1.0000 0.49184  0.84722  0.06547  Biso   1.000  C
  H1785    1.0000 0.62363  0.94003  0.06100  Biso   1.000  H
  C1686    1.0000 0.49195  0.84722  0.06547  Biso   1.000  C
  N247     1.0000 0.67354  0.79554  0.08347  Biso   1.000  N
  C1687    1.0000 0.53944  0.73961  0.07227  Biso   1.000  C
  H1786    1.0000 0.67111  0.82973  0.06780  Biso   1.000  H
  N248     1.0000 0.67366  0.79554  0.08347  Biso   1.000  N
  C1688    1.0000 0.53956  0.73961  0.07227  Biso   1.000  C
  H1787    1.0000 0.67117  0.82973  0.06780  Biso   1.000  H
  N249     1.0000 0.25741  0.27829  0.07888  Biso   1.000  N
  H1788    1.0000 0.29868  0.40536  0.08390  Biso   1.000  H
  C1689    1.0000 0.33991  0.41357  0.06769  Biso   1.000  C
  N250     1.0000 0.25735  0.27829  0.07888  Biso   1.000  N
  H1789    1.0000 0.29871  0.40543  0.08390  Biso   1.000  H
  C1690    1.0000 0.33985  0.41357  0.06769  Biso   1.000  C
  C1691    1.0000 0.26889  0.50631  0.06319  Biso   1.000  C
  H1790    1.0000 0.14236  0.45597  0.07010  Biso   1.000  H
  H1791    1.0000 0.22138  0.49696  0.07900  Biso   1.000  H
  H1792    1.0000 0.22141  0.49703  0.07900  Biso   1.000  H
  C1692    1.0000 0.26895  0.50631  0.06319  Biso   1.000  C
  H1793    1.0000 0.14242  0.45597  0.07010  Biso   1.000  H
  C1693    1.0000 0.76878  0.67722  0.11794  Biso   1.000  C
  C1694    1.0000 0.76884  0.67722  0.11794  Biso   1.000  C
  H1794    1.0000 0.68707  0.48453  0.12920  Biso   1.000  H
  H1795    1.0000 0.78143  0.50493  0.13430  Biso   1.000  H
  C1695    1.0000 0.68332  0.47168  0.14592  Biso   1.000  C
  H1796    1.0000 0.68719  0.48453  0.12920  Biso   1.000  H
  H1797    1.0000 0.78149  0.50493  0.13430  Biso   1.000  H
  C1696    1.0000 0.68347  0.47175  0.14592  Biso   1.000  C
  C1697    1.0000 0.68344  0.47168  0.14592  Biso   1.000  C
  C1698    1.0000 0.68336  0.47175  0.14592  Biso   1.000  C
  H1798    1.0000 0.79579  0.50008  0.15510  Biso   1.000  H
  H1799    1.0000 0.79583  0.50015  0.15510  Biso   1.000  H
  H1800    1.0000 0.71270  0.48649  0.16250  Biso   1.000  H
  H1801    1.0000 0.71276  0.48649  0.16250  Biso   1.000  H
  C1699    1.0000 0.32277  0.09160  0.11794  Biso   1.000  C
  C1700    1.0000 0.32283  0.09160  0.11794  Biso   1.000  C
  H1802    1.0000 0.51546  0.20258  0.12920  Biso   1.000  H
  H1803    1.0000 0.49507  0.27661  0.13430  Biso   1.000  H
  C1701    1.0000 0.52828  0.21166  0.14592  Biso   1.000  C
  C1702    1.0000 0.52832  0.21173  0.14592  Biso   1.000  C
  C1703    1.0000 0.52823  0.21166  0.14592  Biso   1.000  C
  H1804    1.0000 0.51552  0.20258  0.12920  Biso   1.000  H
  H1805    1.0000 0.49513  0.27661  0.13430  Biso   1.000  H
  H1806    1.0000 0.49991  0.29573  0.15510  Biso   1.000  H
  H1807    1.0000 0.51352  0.22620  0.16250  Biso   1.000  H
  H1808    1.0000 0.51346  0.22620  0.16250  Biso   1.000  H
  H1809    1.0000 0.45319  0.83800  0.07190  Biso   1.000  H
  H1810    1.0000 0.46552  0.86163  0.05910  Biso   1.000  H
  C1704    1.0000 0.49372  0.76263  0.06319  Biso   1.000  C
  H1811    1.0000 0.46558  0.86163  0.05910  Biso   1.000  H
  C1705    1.0000 0.49377  0.76263  0.06319  Biso   1.000  C
  C1706    1.0000 0.74082  0.78753  0.08100  Biso   1.000  C
  C1707    1.0000 0.74088  0.78753  0.08100  Biso   1.000  C
  H1812    1.0000 0.54404  0.68644  0.07010  Biso   1.000  H
  H1813    1.0000 0.50293  0.72440  0.07900  Biso   1.000  H
  H1814    1.0000 0.50305  0.72440  0.07900  Biso   1.000  H
  C1708    1.0000 0.27207  0.26308  0.08856  Biso   1.000  C
  C1709    1.0000 0.27213  0.26308  0.08856  Biso   1.000  C
  H1815    1.0000 0.31638  0.37642  0.06100  Biso   1.000  H
  H1816    1.0000 0.39772  0.41741  0.06960  Biso   1.000  H
  C1710    1.0000 0.35527  0.50806  0.06547  Biso   1.000  C
  H1817    1.0000 0.39766  0.41741  0.06960  Biso   1.000  H
  H1818    1.0000 0.31644  0.37642  0.06100  Biso   1.000  H
  H1819    1.0000 0.24363  0.47421  0.05620  Biso   1.000  H
  H1820    1.0000 0.28106  0.56877  0.06230  Biso   1.000  H
  H1821    1.0000 0.24357  0.47421  0.05620  Biso   1.000  H
  H1822    1.0000 0.28112  0.56877  0.06230  Biso   1.000  H
  C1711    1.0000 0.80397  0.70690  0.10692  Biso   1.000  C
  H1823    1.0000 0.71526  0.67648  0.12010  Biso   1.000  H
  H1824    1.0000 0.66187  0.40640  0.14570  Biso   1.000  H
  H1825    1.0000 0.63031  0.47942  0.14690  Biso   1.000  H
  C1712    1.0000 0.29312  0.09712  0.10692  Biso   1.000  C
  H1826    1.0000 0.32346  0.03877  0.12010  Biso   1.000  H
  C1713    1.0000 0.29307  0.09712  0.10692  Biso   1.000  C
  H1827    1.0000 0.32349  0.03883  0.12010  Biso   1.000  H
  H1828    1.0000 0.32355  0.03883  0.12010  Biso   1.000  H
  H1829    1.0000 0.59355  0.25548  0.14570  Biso   1.000  H
  H1830    1.0000 0.52057  0.15089  0.14690  Biso   1.000  H
  H1831    1.0000 0.59361  0.25548  0.14570  Biso   1.000  H
  H1832    1.0000 0.52063  0.15089  0.14690  Biso   1.000  H
  H1833    1.0000 0.52573  0.76942  0.05620  Biso   1.000  H
  H1834    1.0000 0.43118  0.71228  0.06230  Biso   1.000  H
  H1835    1.0000 0.52579  0.76942  0.05620  Biso   1.000  H
  H1836    1.0000 0.43124  0.71228  0.06230  Biso   1.000  H
  H1837    1.0000 0.76086  0.79904  0.07360  Biso   1.000  H
  C1714    1.0000 0.79017  0.76162  0.08865  Biso   1.000  C
  H1838    1.0000 0.76097  0.79904  0.07360  Biso   1.000  H
  C1715    1.0000 0.26897  0.17808  0.09235  Biso   1.000  C
  H1839    1.0000 0.28629  0.30878  0.09390  Biso   1.000  H
  C1716    1.0000 0.26903  0.17808  0.09235  Biso   1.000  C
  H1840    1.0000 0.38476  0.54676  0.07190  Biso   1.000  H
  H1841    1.0000 0.39612  0.53451  0.05910  Biso   1.000  H
  H1842    1.0000 0.39607  0.53451  0.05910  Biso   1.000  H
  H1843    1.0000 0.38482  0.54676  0.07190  Biso   1.000  H
  C1717    1.0000 0.75600  0.73221  0.09945  Biso   1.000  C
  C1718    1.0000 0.88096  0.70771  0.10293  Biso   1.000  C
  C1719    1.0000 0.88101  0.70771  0.10293  Biso   1.000  C
  C1720    1.0000 0.29228  0.17330  0.10293  Biso   1.000  C
  C1721    1.0000 0.26778  0.02382  0.09945  Biso   1.000  C
  C1722    1.0000 0.29234  0.17330  0.10293  Biso   1.000  C
  C1723    1.0000 0.26784  0.02382  0.09945  Biso   1.000  C
  C1724    1.0000 0.86482  0.75879  0.08547  Biso   1.000  C
  C1725    1.0000 0.24120  0.10600  0.08547  Biso   1.000  C
  C1726    1.0000 0.24115  0.10600  0.08547  Biso   1.000  C
  H1844    1.0000 0.70155  0.72938  0.10170  Biso   1.000  H
  C1727    1.0000 0.90904  0.73099  0.09235  Biso   1.000  C
  H1845    1.0000 0.91447  0.69162  0.10770  Biso   1.000  H
  C1728    1.0000 0.90909  0.73099  0.09235  Biso   1.000  C
  H1846    1.0000 0.30840  0.22290  0.10770  Biso   1.000  H
  H1847    1.0000 0.27059  0.97220  0.10170  Biso   1.000  H
  C1729    1.0000 0.23841  0.02860  0.08865  Biso   1.000  C
  C1730    1.0000 0.23835  0.02860  0.08865  Biso   1.000  C
  H1848    1.0000 0.88666  0.77669  0.07820  Biso   1.000  H
  H1849    1.0000 0.22326  0.10997  0.07820  Biso   1.000  H
  H1850    1.0000 0.22331  0.10997  0.07820  Biso   1.000  H
  C1731    1.0000 0.99101  0.72790  0.08856  Biso   1.000  C
  C1732    1.0000 0.21247  0.95329  0.08100  Biso   1.000  C
  N251     1.0000 0.02094  0.74264  0.07888  Biso   1.000  N
  H1851    1.0000 0.02255  0.71370  0.09390  Biso   1.000  H
  H1852    1.0000 0.02244  0.71370  0.09390  Biso   1.000  H
  N252     1.0000 0.20455  0.87812  0.08347  Biso   1.000  N
  H1853    1.0000 0.20104  0.96191  0.07360  Biso   1.000  H
  C1733    1.0000 0.09668  0.72743  0.07709  Biso   1.000  C
  C1734    1.0000 0.09656  0.72743  0.07709  Biso   1.000  C
  C1735    1.0000 0.18133  0.81478  0.07450  Biso   1.000  C
  C1736    1.0000 0.18122  0.81478  0.07450  Biso   1.000  C
  H1854    1.0000 0.10670  0.70131  0.08390  Biso   1.000  H
  C1737    1.0000 0.07369  0.66012  0.06769  Biso   1.000  C
  H1855    1.0000 0.10665  0.70131  0.08390  Biso   1.000  H
  C1738    1.0000 0.26039  0.79991  0.07227  Biso   1.000  C
  H1856    1.0000 0.17030  0.84144  0.06780  Biso   1.000  H
  C1739    1.0000 0.26033  0.79991  0.07227  Biso   1.000  C
  H1857    1.0000 0.06003  0.68361  0.06100  Biso   1.000  H
  H1858    1.0000 0.01973  0.60231  0.06960  Biso   1.000  H
  C1740    1.0000 0.15278  0.64471  0.06547  Biso   1.000  C
  H1859    1.0000 0.27560  0.77858  0.07900  Biso   1.000  H
  H1860    1.0000 0.31359  0.85759  0.07010  Biso   1.000  H
  C1741    1.0000 0.23748  0.73113  0.06319  Biso   1.000  C
  C1742    1.0000 0.23742  0.73113  0.06319  Biso   1.000  C
  H1861    1.0000 0.16205  0.61523  0.07190  Biso   1.000  H
  H1862    1.0000 0.13844  0.60393  0.05910  Biso   1.000  H
  H1863    1.0000 0.23061  0.75643  0.05620  Biso   1.000  H
  H1864    1.0000 0.28772  0.71888  0.06230  Biso   1.000  H
  C1743    1.0000 0.76724  0.25407  0.15558  Biso   1.000  C
  C1744    1.0000 0.78830  0.31659  0.14592  Biso   1.000  C
  H1865    1.0000 0.70430  0.20419  0.15510  Biso   1.000  H
  C1745    1.0000 0.83049  0.21597  0.15578  Biso   1.000  C
  H1866    1.0000 0.77378  0.28731  0.16250  Biso   1.000  H
  H1867    1.0000 0.77384  0.28731  0.16250  Biso   1.000  H
  C1746    1.0000 0.78824  0.31659  0.14592  Biso   1.000  C
  H1868    1.0000 0.70424  0.20419  0.15510  Biso   1.000  H
  C1747    1.0000 0.83043  0.21597  0.15578  Biso   1.000  C
  C1748    1.0000 0.76730  0.25407  0.15558  Biso   1.000  C
  C1749    1.0000 0.78458  0.27069  0.13533  Biso   1.000  C
  H1869    1.0000 0.74451  0.33813  0.14570  Biso   1.000  H
  H1870    1.0000 0.84906  0.36969  0.14690  Biso   1.000  H
  H1871    1.0000 0.84912  0.36969  0.14690  Biso   1.000  H
  H1872    1.0000 0.74445  0.33813  0.14570  Biso   1.000  H
  H1873    1.0000 0.81189  0.17061  0.16170  Biso   1.000  H
  C1750    1.0000 0.83011  0.17290  0.14492  Biso   1.000  C
  H1874    1.0000 0.89235  0.26497  0.15740  Biso   1.000  H
  H1875    1.0000 0.89241  0.26497  0.15740  Biso   1.000  H
  C1751    1.0000 0.83005  0.17290  0.14492  Biso   1.000  C
  C1752    1.0000 0.85249  0.23899  0.13533  Biso   1.000  C
  H1876    1.0000 0.79741  0.31289  0.12920  Biso   1.000  H
  H1877    1.0000 0.72338  0.21846  0.13430  Biso   1.000  H
  H1878    1.0000 0.72342  0.21853  0.13430  Biso   1.000  H
  C1753    1.0000 0.85243  0.23899  0.13533  Biso   1.000  C
  H1879    1.0000 0.79735  0.31289  0.12920  Biso   1.000  H
  H1880    1.0000 0.72336  0.21853  0.13430  Biso   1.000  H
  N253     1.0000 0.90301  0.14921  0.14532  Biso   1.000  N
  H1881    1.0000 0.77040  0.11771  0.14370  Biso   1.000  H
  N254     1.0000 0.90295  0.14921  0.14532  Biso   1.000  N
  H1882    1.0000 0.77034  0.11771  0.14370  Biso   1.000  H
  N255     1.0000 0.84269  0.19107  0.12487  Biso   1.000  N
  H1883    1.0000 0.91497  0.29122  0.13610  Biso   1.000  H
  H1884    1.0000 0.91503  0.29122  0.13610  Biso   1.000  H
  N256     1.0000 0.84264  0.19107  0.12487  Biso   1.000  N
  C1754    1.0000 0.87530  0.06522  0.14639  Biso   1.000  C
  C1755    1.0000 0.90839  0.23118  0.11794  Biso   1.000  C
  C1756    1.0000 0.90833  0.23118  0.11794  Biso   1.000  C
  H1885    1.0000 0.81259  0.02362  0.14690  Biso   1.000  H
  C1757    1.0000 0.94136  0.03217  0.14686  Biso   1.000  C
  H1886    1.0000 0.96119  0.28469  0.12010  Biso   1.000  H
  C1758    1.0000 0.90285  0.19598  0.10692  Biso   1.000  C
  C1759    1.0000 0.90291  0.19598  0.10692  Biso   1.000  C
  H1887    1.0000 0.96113  0.28469  0.12010  Biso   1.000  H
  C1760    1.0000 0.90602  0.94178  0.14676  Biso   1.000  C
  C1761    1.0000 0.90614  0.94178  0.14676  Biso   1.000  C
  C1762    1.0000 0.03569  0.09389  0.14676  Biso   1.000  C
  C1763    1.0000 0.82670  0.11899  0.10293  Biso   1.000  C
  C1764    1.0000 0.97616  0.24397  0.09945  Biso   1.000  C
  C1765    1.0000 0.97621  0.24397  0.09945  Biso   1.000  C
  C1766    1.0000 0.82665  0.11899  0.10293  Biso   1.000  C
  H1888    1.0000 0.84288  0.90187  0.14660  Biso   1.000  H
  C1767    1.0000 0.96778  0.90921  0.14686  Biso   1.000  C
  C1768    1.0000 0.96784  0.90921  0.14686  Biso   1.000  C
  H1889    1.0000 0.05902  0.15708  0.14660  Biso   1.000  H
  C1769    1.0000 0.09080  0.05862  0.14686  Biso   1.000  C
  H1890    1.0000 0.05896  0.15708  0.14660  Biso   1.000  H
  H1891    1.0000 0.77707  0.08547  0.10770  Biso   1.000  H
  C1770    1.0000 0.82188  0.09093  0.09235  Biso   1.000  C
  C1771    1.0000 0.82194  0.09093  0.09235  Biso   1.000  C
  C1772    1.0000 0.97136  0.20978  0.08865  Biso   1.000  C
  C1773    1.0000 0.97142  0.20978  0.08865  Biso   1.000  C
  H1892    1.0000 0.02780  0.29842  0.10170  Biso   1.000  H
  C1774    1.0000 0.05823  0.96433  0.14676  Biso   1.000  C
  C1775    1.0000 0.93470  0.81007  0.14639  Biso   1.000  C
  C1776    1.0000 0.93485  0.81014  0.14639  Biso   1.000  C
  C1777    1.0000 0.93482  0.81007  0.14639  Biso   1.000  C
  C1778    1.0000 0.18988  0.12471  0.14639  Biso   1.000  C
  C1779    1.0000 0.18994  0.12471  0.14639  Biso   1.000  C
  C1780    1.0000 0.89397  0.13521  0.08547  Biso   1.000  C
  C1781    1.0000 0.89403  0.13521  0.08547  Biso   1.000  C
  C1782    1.0000 0.73692  0.00902  0.08856  Biso   1.000  C
  C1783    1.0000 0.73686  0.00902  0.08856  Biso   1.000  C
  C1784    1.0000 0.04671  0.25918  0.08100  Biso   1.000  C
  C1785    1.0000 0.04665  0.25918  0.08100  Biso   1.000  C
  H1893    1.0000 0.09807  0.94098  0.14660  Biso   1.000  H
  N257     1.0000 0.85079  0.75381  0.14532  Biso   1.000  N
  H1894    1.0000 0.97634  0.78901  0.14690  Biso   1.000  H
  H1895    1.0000 0.97639  0.78901  0.14690  Biso   1.000  H
  N258     1.0000 0.24619  0.09698  0.14532  Biso   1.000  N
  H1896    1.0000 0.21095  0.18737  0.14690  Biso   1.000  H
  N259     1.0000 0.24614  0.09698  0.14532  Biso   1.000  N
  H1897    1.0000 0.21101  0.18737  0.14690  Biso   1.000  H
  H1898    1.0000 0.89000  0.11327  0.07820  Biso   1.000  H
  H1899    1.0000 0.88994  0.11327  0.07820  Biso   1.000  H
  N260     1.0000 0.72171  0.97907  0.07888  Biso   1.000  N
  H1900    1.0000 0.69121  0.97752  0.09390  Biso   1.000  H
  N261     1.0000 0.72175  0.97914  0.07888  Biso   1.000  N
  H1901    1.0000 0.69127  0.97752  0.09390  Biso   1.000  H
  N262     1.0000 0.12188  0.32641  0.08347  Biso   1.000  N
  H1902    1.0000 0.03814  0.23912  0.07360  Biso   1.000  H
  H1903    1.0000 0.03808  0.23912  0.07360  Biso   1.000  H
  N263     1.0000 0.12194  0.32641  0.08347  Biso   1.000  N
  C1786    1.0000 0.82710  0.65723  0.14492  Biso   1.000  C
  C1787    1.0000 0.34279  0.16987  0.14492  Biso   1.000  C
  C1788    1.0000 0.34273  0.16987  0.14492  Biso   1.000  C
  C1789    1.0000 0.63073  0.90342  0.07709  Biso   1.000  C
  C1790    1.0000 0.63085  0.90342  0.07709  Biso   1.000  C
  C1791    1.0000 0.18515  0.36646  0.07450  Biso   1.000  C
  C1792    1.0000 0.18519  0.36653  0.07450  Biso   1.000  C
  C1793    1.0000 0.18525  0.36653  0.07450  Biso   1.000  C
  C1794    1.0000 0.76099  0.61348  0.13533  Biso   1.000  C
  C1795    1.0000 0.78399  0.61449  0.15578  Biso   1.000  C
  H1904    1.0000 0.88226  0.65272  0.14370  Biso   1.000  H
  C1796    1.0000 0.78405  0.61449  0.15578  Biso   1.000  C
  H1905    1.0000 0.88231  0.65272  0.14370  Biso   1.000  H
  C1797    1.0000 0.38652  0.14753  0.13533  Biso   1.000  C
  C1798    1.0000 0.38549  0.16947  0.15578  Biso   1.000  C
  H1906    1.0000 0.34728  0.22957  0.14370  Biso   1.000  H
  C1799    1.0000 0.38646  0.14753  0.13533  Biso   1.000  C
  C1800    1.0000 0.38543  0.16947  0.15578  Biso   1.000  C
  H1907    1.0000 0.59462  0.89333  0.08390  Biso   1.000  H
  C1801    1.0000 0.58640  0.92630  0.06769  Biso   1.000  C
  C1802    1.0000 0.63348  0.81869  0.07450  Biso   1.000  C
  C1803    1.0000 0.58645  0.92630  0.06769  Biso   1.000  C
  C1804    1.0000 0.63354  0.81869  0.07450  Biso   1.000  C
  C1805    1.0000 0.27262  0.36922  0.07709  Biso   1.000  C
  C1806    1.0000 0.20011  0.46048  0.07227  Biso   1.000  C
  H1908    1.0000 0.15862  0.32890  0.06780  Biso   1.000  H
  C1807    1.0000 0.27256  0.36922  0.07709  Biso   1.000  C
  C1808    1.0000 0.20005  0.46048  0.07227  Biso   1.000  C
  H1909    1.0000 0.15857  0.32890  0.06780  Biso   1.000  H
  N264     1.0000 0.80883  0.65158  0.12487  Biso   1.000  N
  H1910    1.0000 0.70873  0.62378  0.13610  Biso   1.000  H
  C1809    1.0000 0.72935  0.51394  0.13533  Biso   1.000  C
  N265     1.0000 0.80892  0.65164  0.12487  Biso   1.000  N
  H1911    1.0000 0.70884  0.62378  0.13610  Biso   1.000  H
  N266     1.0000 0.80889  0.65158  0.12487  Biso   1.000  N
  N267     1.0000 0.80886  0.65164  0.12487  Biso   1.000  N
  C1810    1.0000 0.74588  0.51320  0.15558  Biso   1.000  C
  H1912    1.0000 0.73496  0.62742  0.15740  Biso   1.000  H
  H1913    1.0000 0.82932  0.64128  0.16170  Biso   1.000  H
  C1811    1.0000 0.74594  0.51320  0.15558  Biso   1.000  C
  H1914    1.0000 0.82944  0.64128  0.16170  Biso   1.000  H
  N268     1.0000 0.34839  0.15728  0.12487  Biso   1.000  N
  H1915    1.0000 0.37618  0.08500  0.13610  Biso   1.000  H
  C1812    1.0000 0.48607  0.21537  0.13533  Biso   1.000  C
  C1813    1.0000 0.48679  0.23266  0.15558  Biso   1.000  C
  H1916    1.0000 0.37263  0.10762  0.15740  Biso   1.000  H
  H1917    1.0000 0.35867  0.18811  0.16170  Biso   1.000  H
  C1814    1.0000 0.48677  0.23273  0.15558  Biso   1.000  C
  H1918    1.0000 0.37257  0.10762  0.15740  Biso   1.000  H
  C1815    1.0000 0.48673  0.23266  0.15558  Biso   1.000  C
  C1816    1.0000 0.48683  0.23273  0.15558  Biso   1.000  C
  H1919    1.0000 0.35873  0.18811  0.16170  Biso   1.000  H
  H1920    1.0000 0.58261  0.98028  0.06960  Biso   1.000  H
  H1921    1.0000 0.62357  0.94003  0.06100  Biso   1.000  H
  C1817    1.0000 0.49184  0.84722  0.06547  Biso   1.000  C
  H1922    1.0000 0.62363  0.94003  0.06100  Biso   1.000  H
  C1818    1.0000 0.49195  0.84722  0.06547  Biso   1.000  C
  N269     1.0000 0.67354  0.79554  0.08347  Biso   1.000  N
  C1819    1.0000 0.53944  0.73961  0.07227  Biso   1.000  C
  H1923    1.0000 0.67111  0.82973  0.06780  Biso   1.000  H
  N270     1.0000 0.67366  0.79554  0.08347  Biso   1.000  N
  C1820    1.0000 0.53956  0.73961  0.07227  Biso   1.000  C
  H1924    1.0000 0.67117  0.82973  0.06780  Biso   1.000  H
  N271     1.0000 0.25741  0.27829  0.07888  Biso   1.000  N
  H1925    1.0000 0.29868  0.40536  0.08390  Biso   1.000  H
  C1821    1.0000 0.33991  0.41357  0.06769  Biso   1.000  C
  N272     1.0000 0.25735  0.27829  0.07888  Biso   1.000  N
  H1926    1.0000 0.29871  0.40543  0.08390  Biso   1.000  H
  C1822    1.0000 0.33985  0.41357  0.06769  Biso   1.000  C
  C1823    1.0000 0.26889  0.50631  0.06319  Biso   1.000  C
  H1927    1.0000 0.14236  0.45597  0.07010  Biso   1.000  H
  H1928    1.0000 0.22138  0.49696  0.07900  Biso   1.000  H
  H1929    1.0000 0.22141  0.49703  0.07900  Biso   1.000  H
  C1824    1.0000 0.26895  0.50631  0.06319  Biso   1.000  C
  H1930    1.0000 0.14242  0.45597  0.07010  Biso   1.000  H
  C1825    1.0000 0.76878  0.67722  0.11794  Biso   1.000  C
  C1826    1.0000 0.76884  0.67722  0.11794  Biso   1.000  C
  H1931    1.0000 0.68707  0.48453  0.12920  Biso   1.000  H
  H1932    1.0000 0.78143  0.50493  0.13430  Biso   1.000  H
  C1827    1.0000 0.68332  0.47168  0.14592  Biso   1.000  C
  H1933    1.0000 0.68719  0.48453  0.12920  Biso   1.000  H
  H1934    1.0000 0.78149  0.50493  0.13430  Biso   1.000  H
  C1828    1.0000 0.68347  0.47175  0.14592  Biso   1.000  C
  C1829    1.0000 0.68344  0.47168  0.14592  Biso   1.000  C
  C1830    1.0000 0.68336  0.47175  0.14592  Biso   1.000  C
  H1935    1.0000 0.79579  0.50008  0.15510  Biso   1.000  H
  H1936    1.0000 0.79583  0.50015  0.15510  Biso   1.000  H
  H1937    1.0000 0.71270  0.48649  0.16250  Biso   1.000  H
  H1938    1.0000 0.71276  0.48649  0.16250  Biso   1.000  H
  C1831    1.0000 0.32277  0.09160  0.11794  Biso   1.000  C
  C1832    1.0000 0.32283  0.09160  0.11794  Biso   1.000  C
  H1939    1.0000 0.51546  0.20258  0.12920  Biso   1.000  H
  H1940    1.0000 0.49507  0.27661  0.13430  Biso   1.000  H
  C1833    1.0000 0.52828  0.21166  0.14592  Biso   1.000  C
  C1834    1.0000 0.52832  0.21173  0.14592  Biso   1.000  C
  C1835    1.0000 0.52823  0.21166  0.14592  Biso   1.000  C
  H1941    1.0000 0.51552  0.20258  0.12920  Biso   1.000  H
  H1942    1.0000 0.49513  0.27661  0.13430  Biso   1.000  H
  H1943    1.0000 0.49991  0.29573  0.15510  Biso   1.000  H
  H1944    1.0000 0.51352  0.22620  0.16250  Biso   1.000  H
  H1945    1.0000 0.51346  0.22620  0.16250  Biso   1.000  H
  H1946    1.0000 0.45319  0.83800  0.07190  Biso   1.000  H
  H1947    1.0000 0.46552  0.86163  0.05910  Biso   1.000  H
  C1836    1.0000 0.49372  0.76263  0.06319  Biso   1.000  C
  H1948    1.0000 0.46558  0.86163  0.05910  Biso   1.000  H
  C1837    1.0000 0.49377  0.76263  0.06319  Biso   1.000  C
  C1838    1.0000 0.74082  0.78753  0.08100  Biso   1.000  C
  C1839    1.0000 0.74088  0.78753  0.08100  Biso   1.000  C
  H1949    1.0000 0.54404  0.68644  0.07010  Biso   1.000  H
  H1950    1.0000 0.50293  0.72440  0.07900  Biso   1.000  H
  H1951    1.0000 0.50305  0.72440  0.07900  Biso   1.000  H
  C1840    1.0000 0.27207  0.26308  0.08856  Biso   1.000  C
  C1841    1.0000 0.27213  0.26308  0.08856  Biso   1.000  C
  H1952    1.0000 0.31638  0.37642  0.06100  Biso   1.000  H
  H1953    1.0000 0.39772  0.41741  0.06960  Biso   1.000  H
  C1842    1.0000 0.35527  0.50806  0.06547  Biso   1.000  C
  H1954    1.0000 0.39766  0.41741  0.06960  Biso   1.000  H
  H1955    1.0000 0.31644  0.37642  0.06100  Biso   1.000  H
  H1956    1.0000 0.24363  0.47421  0.05620  Biso   1.000  H
  H1957    1.0000 0.28106  0.56877  0.06230  Biso   1.000  H
  H1958    1.0000 0.24357  0.47421  0.05620  Biso   1.000  H
  H1959    1.0000 0.28112  0.56877  0.06230  Biso   1.000  H
  C1843    1.0000 0.80397  0.70690  0.10692  Biso   1.000  C
  H1960    1.0000 0.71526  0.67648  0.12010  Biso   1.000  H
  H1961    1.0000 0.66187  0.40640  0.14570  Biso   1.000  H
  H1962    1.0000 0.63031  0.47942  0.14690  Biso   1.000  H
  C1844    1.0000 0.29312  0.09712  0.10692  Biso   1.000  C
  H1963    1.0000 0.32346  0.03877  0.12010  Biso   1.000  H
  C1845    1.0000 0.29307  0.09712  0.10692  Biso   1.000  C
  H1964    1.0000 0.32349  0.03883  0.12010  Biso   1.000  H
  H1965    1.0000 0.32355  0.03883  0.12010  Biso   1.000  H
  H1966    1.0000 0.59355  0.25548  0.14570  Biso   1.000  H
  H1967    1.0000 0.52057  0.15089  0.14690  Biso   1.000  H
  H1968    1.0000 0.59361  0.25548  0.14570  Biso   1.000  H
  H1969    1.0000 0.52063  0.15089  0.14690  Biso   1.000  H
  H1970    1.0000 0.52573  0.76942  0.05620  Biso   1.000  H
  H1971    1.0000 0.43118  0.71228  0.06230  Biso   1.000  H
  H1972    1.0000 0.52579  0.76942  0.05620  Biso   1.000  H
  H1973    1.0000 0.43124  0.71228  0.06230  Biso   1.000  H
  H1974    1.0000 0.76086  0.79904  0.07360  Biso   1.000  H
  C1846    1.0000 0.79017  0.76162  0.08865  Biso   1.000  C
  H1975    1.0000 0.76097  0.79904  0.07360  Biso   1.000  H
  C1847    1.0000 0.26897  0.17808  0.09235  Biso   1.000  C
  H1976    1.0000 0.28629  0.30878  0.09390  Biso   1.000  H
  C1848    1.0000 0.26903  0.17808  0.09235  Biso   1.000  C
  H1977    1.0000 0.38476  0.54676  0.07190  Biso   1.000  H
  H1978    1.0000 0.39612  0.53451  0.05910  Biso   1.000  H
  H1979    1.0000 0.39607  0.53451  0.05910  Biso   1.000  H
  H1980    1.0000 0.38482  0.54676  0.07190  Biso   1.000  H
  C1849    1.0000 0.75600  0.73221  0.09945  Biso   1.000  C
  C1850    1.0000 0.88096  0.70771  0.10293  Biso   1.000  C
  C1851    1.0000 0.88101  0.70771  0.10293  Biso   1.000  C
  C1852    1.0000 0.29228  0.17330  0.10293  Biso   1.000  C
  C1853    1.0000 0.26778  0.02382  0.09945  Biso   1.000  C
  C1854    1.0000 0.29234  0.17330  0.10293  Biso   1.000  C
  C1855    1.0000 0.26784  0.02382  0.09945  Biso   1.000  C
  C1856    1.0000 0.86482  0.75879  0.08547  Biso   1.000  C
  C1857    1.0000 0.24120  0.10600  0.08547  Biso   1.000  C
  C1858    1.0000 0.24115  0.10600  0.08547  Biso   1.000  C
  H1981    1.0000 0.70155  0.72938  0.10170  Biso   1.000  H
  C1859    1.0000 0.90904  0.73099  0.09235  Biso   1.000  C
  H1982    1.0000 0.91447  0.69162  0.10770  Biso   1.000  H
  C1860    1.0000 0.90909  0.73099  0.09235  Biso   1.000  C
  H1983    1.0000 0.30840  0.22290  0.10770  Biso   1.000  H
  H1984    1.0000 0.27059  0.97220  0.10170  Biso   1.000  H
  C1861    1.0000 0.23841  0.02860  0.08865  Biso   1.000  C
  C1862    1.0000 0.23835  0.02860  0.08865  Biso   1.000  C
  H1985    1.0000 0.88666  0.77669  0.07820  Biso   1.000  H
  H1986    1.0000 0.22326  0.10997  0.07820  Biso   1.000  H
  H1987    1.0000 0.22331  0.10997  0.07820  Biso   1.000  H
  C1863    1.0000 0.99101  0.72790  0.08856  Biso   1.000  C
  C1864    1.0000 0.21247  0.95329  0.08100  Biso   1.000  C
  N273     1.0000 0.02094  0.74264  0.07888  Biso   1.000  N
  H1988    1.0000 0.02255  0.71370  0.09390  Biso   1.000  H
  H1989    1.0000 0.02244  0.71370  0.09390  Biso   1.000  H
  N274     1.0000 0.20455  0.87812  0.08347  Biso   1.000  N
  H1990    1.0000 0.20104  0.96191  0.07360  Biso   1.000  H
  C1865    1.0000 0.09668  0.72743  0.07709  Biso   1.000  C
  C1866    1.0000 0.09656  0.72743  0.07709  Biso   1.000  C
  C1867    1.0000 0.18133  0.81478  0.07450  Biso   1.000  C
  C1868    1.0000 0.18122  0.81478  0.07450  Biso   1.000  C
  H1991    1.0000 0.10670  0.70131  0.08390  Biso   1.000  H
  C1869    1.0000 0.07369  0.66012  0.06769  Biso   1.000  C
  H1992    1.0000 0.10665  0.70131  0.08390  Biso   1.000  H
  C1870    1.0000 0.26039  0.79991  0.07227  Biso   1.000  C
  H1993    1.0000 0.17030  0.84144  0.06780  Biso   1.000  H
  C1871    1.0000 0.26033  0.79991  0.07227  Biso   1.000  C
  H1994    1.0000 0.06003  0.68361  0.06100  Biso   1.000  H
  H1995    1.0000 0.01973  0.60231  0.06960  Biso   1.000  H
  C1872    1.0000 0.15278  0.64471  0.06547  Biso   1.000  C
  H1996    1.0000 0.31359  0.85759  0.07010  Biso   1.000  H
  H1997    1.0000 0.27560  0.77858  0.07900  Biso   1.000  H
  C1873    1.0000 0.23748  0.73113  0.06319  Biso   1.000  C
  C1874    1.0000 0.23742  0.73113  0.06319  Biso   1.000  C
  H1998    1.0000 0.16205  0.61523  0.07190  Biso   1.000  H
  H1999    1.0000 0.13844  0.60393  0.05910  Biso   1.000  H
  H2000    1.0000 0.23061  0.75643  0.05620  Biso   1.000  H
  H2001    1.0000 0.28772  0.71888  0.06230  Biso   1.000  H
  C1875    1.0000 0.76724  0.25407  0.15558  Biso   1.000  C
  C1876    1.0000 0.78830  0.31659  0.14592  Biso   1.000  C
  C1877    1.0000 0.78824  0.31659  0.14592  Biso   1.000  C
  C1878    1.0000 0.83049  0.21597  0.15578  Biso   1.000  C
  C1879    1.0000 0.83043  0.21597  0.15578  Biso   1.000  C
  H2002    1.0000 0.70430  0.20419  0.15510  Biso   1.000  H
  H2003    1.0000 0.77384  0.28731  0.16250  Biso   1.000  H
  H2004    1.0000 0.77378  0.28731  0.16250  Biso   1.000  H
  H2005    1.0000 0.70424  0.20419  0.15510  Biso   1.000  H
  C1880    1.0000 0.78458  0.27069  0.13533  Biso   1.000  C
  H2006    1.0000 0.74451  0.33813  0.14570  Biso   1.000  H
  H2007    1.0000 0.84912  0.36969  0.14690  Biso   1.000  H
  C1881    1.0000 0.76730  0.25407  0.15558  Biso   1.000  C
  H2008    1.0000 0.84906  0.36969  0.14690  Biso   1.000  H
  H2009    1.0000 0.74445  0.33813  0.14570  Biso   1.000  H
  C1882    1.0000 0.83011  0.17290  0.14492  Biso   1.000  C
  C1883    1.0000 0.83005  0.17290  0.14492  Biso   1.000  C
  H2010    1.0000 0.81189  0.17061  0.16170  Biso   1.000  H
  H2011    1.0000 0.89241  0.26497  0.15740  Biso   1.000  H
  H2012    1.0000 0.89235  0.26497  0.15740  Biso   1.000  H
  C1884    1.0000 0.85249  0.23899  0.13533  Biso   1.000  C
  H2013    1.0000 0.79741  0.31289  0.12920  Biso   1.000  H
  H2014    1.0000 0.72338  0.21846  0.13430  Biso   1.000  H
  H2015    1.0000 0.72342  0.21853  0.13430  Biso   1.000  H
  C1885    1.0000 0.85243  0.23899  0.13533  Biso   1.000  C
  H2016    1.0000 0.79735  0.31289  0.12920  Biso   1.000  H
  H2017    1.0000 0.72336  0.21853  0.13430  Biso   1.000  H
  N275     1.0000 0.90301  0.14921  0.14532  Biso   1.000  N
  H2018    1.0000 0.77040  0.11771  0.14370  Biso   1.000  H
  N276     1.0000 0.90295  0.14921  0.14532  Biso   1.000  N
  H2019    1.0000 0.77034  0.11771  0.14370  Biso   1.000  H
  N277     1.0000 0.84269  0.19107  0.12487  Biso   1.000  N
  H2020    1.0000 0.91503  0.29122  0.13610  Biso   1.000  H
  H2021    1.0000 0.91497  0.29122  0.13610  Biso   1.000  H
  N278     1.0000 0.84264  0.19107  0.12487  Biso   1.000  N
  C1886    1.0000 0.87530  0.06522  0.14639  Biso   1.000  C
  C1887    1.0000 0.90839  0.23118  0.11794  Biso   1.000  C
  C1888    1.0000 0.90833  0.23118  0.11794  Biso   1.000  C
  H2022    1.0000 0.81259  0.02362  0.14690  Biso   1.000  H
  C1889    1.0000 0.94136  0.03217  0.14686  Biso   1.000  C
  C1890    1.0000 0.90291  0.19598  0.10692  Biso   1.000  C
  H2023    1.0000 0.96119  0.28469  0.12010  Biso   1.000  H
  C1891    1.0000 0.90285  0.19598  0.10692  Biso   1.000  C
  H2024    1.0000 0.96113  0.28469  0.12010  Biso   1.000  H
  C1892    1.0000 0.90602  0.94178  0.14676  Biso   1.000  C
  C1893    1.0000 0.90614  0.94178  0.14676  Biso   1.000  C
  C1894    1.0000 0.03569  0.09389  0.14676  Biso   1.000  C
  C1895    1.0000 0.97621  0.24397  0.09945  Biso   1.000  C
  C1896    1.0000 0.82670  0.11899  0.10293  Biso   1.000  C
  C1897    1.0000 0.97616  0.24397  0.09945  Biso   1.000  C
  C1898    1.0000 0.82665  0.11899  0.10293  Biso   1.000  C
  H2025    1.0000 0.84288  0.90187  0.14660  Biso   1.000  H
  C1899    1.0000 0.96778  0.90921  0.14686  Biso   1.000  C
  C1900    1.0000 0.96784  0.90921  0.14686  Biso   1.000  C
  H2026    1.0000 0.05902  0.15708  0.14660  Biso   1.000  H
  C1901    1.0000 0.09080  0.05862  0.14686  Biso   1.000  C
  H2027    1.0000 0.05896  0.15708  0.14660  Biso   1.000  H
  C1902    1.0000 0.97142  0.20978  0.08865  Biso   1.000  C
  C1903    1.0000 0.97136  0.20978  0.08865  Biso   1.000  C
  H2028    1.0000 0.02780  0.29842  0.10170  Biso   1.000  H
  H2029    1.0000 0.77707  0.08547  0.10770  Biso   1.000  H
  C1904    1.0000 0.82194  0.09093  0.09235  Biso   1.000  C
  C1905    1.0000 0.82188  0.09093  0.09235  Biso   1.000  C
  C1906    1.0000 0.05823  0.96433  0.14676  Biso   1.000  C
  C1907    1.0000 0.93470  0.81007  0.14639  Biso   1.000  C
  C1908    1.0000 0.93485  0.81014  0.14639  Biso   1.000  C
  C1909    1.0000 0.93482  0.81007  0.14639  Biso   1.000  C
  C1910    1.0000 0.18988  0.12471  0.14639  Biso   1.000  C
  C1911    1.0000 0.18994  0.12471  0.14639  Biso   1.000  C
  C1912    1.0000 0.89403  0.13521  0.08547  Biso   1.000  C
  C1913    1.0000 0.89397  0.13521  0.08547  Biso   1.000  C
  C1914    1.0000 0.04671  0.25918  0.08100  Biso   1.000  C
  C1915    1.0000 0.04665  0.25918  0.08100  Biso   1.000  C
  C1916    1.0000 0.73692  0.00902  0.08856  Biso   1.000  C
  C1917    1.0000 0.73686  0.00902  0.08856  Biso   1.000  C
  H2030    1.0000 0.09807  0.94098  0.14660  Biso   1.000  H
  N279     1.0000 0.85079  0.75381  0.14532  Biso   1.000  N
  H2031    1.0000 0.97634  0.78901  0.14690  Biso   1.000  H
  H2032    1.0000 0.97639  0.78901  0.14690  Biso   1.000  H
  N280     1.0000 0.24619  0.09698  0.14532  Biso   1.000  N
  H2033    1.0000 0.21095  0.18737  0.14690  Biso   1.000  H
  N281     1.0000 0.24614  0.09698  0.14532  Biso   1.000  N
  H2034    1.0000 0.21101  0.18737  0.14690  Biso   1.000  H
  H2035    1.0000 0.89000  0.11327  0.07820  Biso   1.000  H
  H2036    1.0000 0.88994  0.11327  0.07820  Biso   1.000  H
  N282     1.0000 0.12188  0.32641  0.08347  Biso   1.000  N
  H2037    1.0000 0.03814  0.23912  0.07360  Biso   1.000  H
  H2038    1.0000 0.03808  0.23912  0.07360  Biso   1.000  H
  N283     1.0000 0.12194  0.32641  0.08347  Biso   1.000  N
  N284     1.0000 0.72171  0.97907  0.07888  Biso   1.000  N
  H2039    1.0000 0.69121  0.97752  0.09390  Biso   1.000  H
  N285     1.0000 0.72175  0.97914  0.07888  Biso   1.000  N
  H2040    1.0000 0.69127  0.97752  0.09390  Biso   1.000  H
  C1918    1.0000 0.82710  0.65723  0.14492  Biso   1.000  C
  C1919    1.0000 0.34279  0.16987  0.14492  Biso   1.000  C
  C1920    1.0000 0.34273  0.16987  0.14492  Biso   1.000  C
  C1921    1.0000 0.18515  0.36646  0.07450  Biso   1.000  C
  C1922    1.0000 0.18519  0.36653  0.07450  Biso   1.000  C
  C1923    1.0000 0.18525  0.36653  0.07450  Biso   1.000  C
  C1924    1.0000 0.63073  0.90342  0.07709  Biso   1.000  C
  C1925    1.0000 0.63085  0.90342  0.07709  Biso   1.000  C
  C1926    1.0000 0.76099  0.61348  0.13533  Biso   1.000  C
  C1927    1.0000 0.78399  0.61449  0.15578  Biso   1.000  C
  H2041    1.0000 0.88226  0.65272  0.14370  Biso   1.000  H
  C1928    1.0000 0.78405  0.61449  0.15578  Biso   1.000  C
  H2042    1.0000 0.88231  0.65272  0.14370  Biso   1.000  H
  C1929    1.0000 0.38652  0.14753  0.13533  Biso   1.000  C
  C1930    1.0000 0.38549  0.16947  0.15578  Biso   1.000  C
  H2043    1.0000 0.34728  0.22957  0.14370  Biso   1.000  H
  C1931    1.0000 0.38646  0.14753  0.13533  Biso   1.000  C
  C1932    1.0000 0.38543  0.16947  0.15578  Biso   1.000  C
  C1933    1.0000 0.27262  0.36922  0.07709  Biso   1.000  C
  C1934    1.0000 0.20011  0.46048  0.07227  Biso   1.000  C
  H2044    1.0000 0.15862  0.32890  0.06780  Biso   1.000  H
  C1935    1.0000 0.27256  0.36922  0.07709  Biso   1.000  C
  C1936    1.0000 0.20005  0.46048  0.07227  Biso   1.000  C
  H2045    1.0000 0.15857  0.32890  0.06780  Biso   1.000  H
  H2046    1.0000 0.59462  0.89333  0.08390  Biso   1.000  H
  C1937    1.0000 0.58640  0.92630  0.06769  Biso   1.000  C
  C1938    1.0000 0.63348  0.81869  0.07450  Biso   1.000  C
  C1939    1.0000 0.58645  0.92630  0.06769  Biso   1.000  C
  C1940    1.0000 0.63354  0.81869  0.07450  Biso   1.000  C
  N286     1.0000 0.80883  0.65158  0.12487  Biso   1.000  N
  H2047    1.0000 0.70873  0.62378  0.13610  Biso   1.000  H
  C1941    1.0000 0.72935  0.51394  0.13533  Biso   1.000  C
  N287     1.0000 0.80892  0.65164  0.12487  Biso   1.000  N
  H2048    1.0000 0.70884  0.62378  0.13610  Biso   1.000  H
  N288     1.0000 0.80889  0.65158  0.12487  Biso   1.000  N
  N289     1.0000 0.80886  0.65164  0.12487  Biso   1.000  N
  C1942    1.0000 0.74588  0.51320  0.15558  Biso   1.000  C
  H2049    1.0000 0.73496  0.62742  0.15740  Biso   1.000  H
  H2050    1.0000 0.82932  0.64128  0.16170  Biso   1.000  H
  C1943    1.0000 0.74594  0.51320  0.15558  Biso   1.000  C
  H2051    1.0000 0.82944  0.64128  0.16170  Biso   1.000  H
  N290     1.0000 0.34839  0.15728  0.12487  Biso   1.000  N
  H2052    1.0000 0.37618  0.08500  0.13610  Biso   1.000  H
  C1944    1.0000 0.48607  0.21537  0.13533  Biso   1.000  C
  C1945    1.0000 0.48679  0.23266  0.15558  Biso   1.000  C
  H2053    1.0000 0.37263  0.10762  0.15740  Biso   1.000  H
  H2054    1.0000 0.35867  0.18811  0.16170  Biso   1.000  H
  C1946    1.0000 0.48677  0.23273  0.15558  Biso   1.000  C
  H2055    1.0000 0.37257  0.10762  0.15740  Biso   1.000  H
  C1947    1.0000 0.48673  0.23266  0.15558  Biso   1.000  C
  C1948    1.0000 0.48683  0.23273  0.15558  Biso   1.000  C
  H2056    1.0000 0.35873  0.18811  0.16170  Biso   1.000  H
  N291     1.0000 0.25741  0.27829  0.07888  Biso   1.000  N
  H2057    1.0000 0.29868  0.40536  0.08390  Biso   1.000  H
  C1949    1.0000 0.33991  0.41357  0.06769  Biso   1.000  C
  N292     1.0000 0.25735  0.27829  0.07888  Biso   1.000  N
  H2058    1.0000 0.29871  0.40543  0.08390  Biso   1.000  H
  C1950    1.0000 0.33985  0.41357  0.06769  Biso   1.000  C
  C1951    1.0000 0.26889  0.50631  0.06319  Biso   1.000  C
  H2059    1.0000 0.14236  0.45597  0.07010  Biso   1.000  H
  H2060    1.0000 0.22138  0.49696  0.07900  Biso   1.000  H
  H2061    1.0000 0.22141  0.49703  0.07900  Biso   1.000  H
  C1952    1.0000 0.26895  0.50631  0.06319  Biso   1.000  C
  H2062    1.0000 0.14242  0.45597  0.07010  Biso   1.000  H
  H2063    1.0000 0.58261  0.98028  0.06960  Biso   1.000  H
  H2064    1.0000 0.62357  0.94003  0.06100  Biso   1.000  H
  C1953    1.0000 0.49184  0.84722  0.06547  Biso   1.000  C
  H2065    1.0000 0.62363  0.94003  0.06100  Biso   1.000  H
  C1954    1.0000 0.49195  0.84722  0.06547  Biso   1.000  C
  N293     1.0000 0.67354  0.79554  0.08347  Biso   1.000  N
  C1955    1.0000 0.53944  0.73961  0.07227  Biso   1.000  C
  H2066    1.0000 0.67111  0.82973  0.06780  Biso   1.000  H
  N294     1.0000 0.67366  0.79554  0.08347  Biso   1.000  N
  C1956    1.0000 0.53956  0.73961  0.07227  Biso   1.000  C
  H2067    1.0000 0.67117  0.82973  0.06780  Biso   1.000  H
  C1957    1.0000 0.76878  0.67722  0.11794  Biso   1.000  C
  C1958    1.0000 0.76884  0.67722  0.11794  Biso   1.000  C
  H2068    1.0000 0.68707  0.48453  0.12920  Biso   1.000  H
  H2069    1.0000 0.78143  0.50493  0.13430  Biso   1.000  H
  C1959    1.0000 0.68332  0.47168  0.14592  Biso   1.000  C
  H2070    1.0000 0.68719  0.48453  0.12920  Biso   1.000  H
  H2071    1.0000 0.78149  0.50493  0.13430  Biso   1.000  H
  C1960    1.0000 0.68347  0.47175  0.14592  Biso   1.000  C
  C1961    1.0000 0.68344  0.47168  0.14592  Biso   1.000  C
  C1962    1.0000 0.68336  0.47175  0.14592  Biso   1.000  C
  H2072    1.0000 0.79579  0.50008  0.15510  Biso   1.000  H
  H2073    1.0000 0.79583  0.50015  0.15510  Biso   1.000  H
  H2074    1.0000 0.71270  0.48649  0.16250  Biso   1.000  H
  H2075    1.0000 0.71276  0.48649  0.16250  Biso   1.000  H
  C1963    1.0000 0.32277  0.09160  0.11794  Biso   1.000  C
  C1964    1.0000 0.32283  0.09160  0.11794  Biso   1.000  C
  H2076    1.0000 0.51546  0.20258  0.12920  Biso   1.000  H
  H2077    1.0000 0.49507  0.27661  0.13430  Biso   1.000  H
  C1965    1.0000 0.52828  0.21166  0.14592  Biso   1.000  C
  C1966    1.0000 0.52832  0.21173  0.14592  Biso   1.000  C
  C1967    1.0000 0.52823  0.21166  0.14592  Biso   1.000  C
  H2078    1.0000 0.51552  0.20258  0.12920  Biso   1.000  H
  H2079    1.0000 0.49513  0.27661  0.13430  Biso   1.000  H
  H2080    1.0000 0.49991  0.29573  0.15510  Biso   1.000  H
  H2081    1.0000 0.51352  0.22620  0.16250  Biso   1.000  H
  H2082    1.0000 0.51346  0.22620  0.16250  Biso   1.000  H
  C1968    1.0000 0.27207  0.26308  0.08856  Biso   1.000  C
  C1969    1.0000 0.27213  0.26308  0.08856  Biso   1.000  C
  H2083    1.0000 0.31638  0.37642  0.06100  Biso   1.000  H
  H2084    1.0000 0.39772  0.41741  0.06960  Biso   1.000  H
  C1970    1.0000 0.35527  0.50806  0.06547  Biso   1.000  C
  H2085    1.0000 0.39766  0.41741  0.06960  Biso   1.000  H
  H2086    1.0000 0.31644  0.37642  0.06100  Biso   1.000  H
  H2087    1.0000 0.24363  0.47421  0.05620  Biso   1.000  H
  H2088    1.0000 0.28106  0.56877  0.06230  Biso   1.000  H
  H2089    1.0000 0.24357  0.47421  0.05620  Biso   1.000  H
  H2090    1.0000 0.28112  0.56877  0.06230  Biso   1.000  H
  H2091    1.0000 0.45319  0.83800  0.07190  Biso   1.000  H
  H2092    1.0000 0.46552  0.86163  0.05910  Biso   1.000  H
  C1971    1.0000 0.49372  0.76263  0.06319  Biso   1.000  C
  H2093    1.0000 0.46558  0.86163  0.05910  Biso   1.000  H
  C1972    1.0000 0.49377  0.76263  0.06319  Biso   1.000  C
  C1973    1.0000 0.74082  0.78753  0.08100  Biso   1.000  C
  C1974    1.0000 0.74088  0.78753  0.08100  Biso   1.000  C
  H2094    1.0000 0.54404  0.68644  0.07010  Biso   1.000  H
  H2095    1.0000 0.50293  0.72440  0.07900  Biso   1.000  H
  H2096    1.0000 0.50305  0.72440  0.07900  Biso   1.000  H
  C1975    1.0000 0.80397  0.70690  0.10692  Biso   1.000  C
  H2097    1.0000 0.71526  0.67648  0.12010  Biso   1.000  H
  H2098    1.0000 0.66187  0.40640  0.14570  Biso   1.000  H
  H2099    1.0000 0.63031  0.47942  0.14690  Biso   1.000  H
  C1976    1.0000 0.29312  0.09712  0.10692  Biso   1.000  C
  H2100    1.0000 0.32346  0.03877  0.12010  Biso   1.000  H
  C1977    1.0000 0.29307  0.09712  0.10692  Biso   1.000  C
  H2101    1.0000 0.32349  0.03883  0.12010  Biso   1.000  H
  H2102    1.0000 0.32355  0.03883  0.12010  Biso   1.000  H
  H2103    1.0000 0.59355  0.25548  0.14570  Biso   1.000  H
  H2104    1.0000 0.52057  0.15089  0.14690  Biso   1.000  H
  H2105    1.0000 0.59361  0.25548  0.14570  Biso   1.000  H
  H2106    1.0000 0.52063  0.15089  0.14690  Biso   1.000  H
  C1978    1.0000 0.26897  0.17808  0.09235  Biso   1.000  C
  H2107    1.0000 0.28629  0.30878  0.09390  Biso   1.000  H
  C1979    1.0000 0.26903  0.17808  0.09235  Biso   1.000  C
  H2108    1.0000 0.38476  0.54676  0.07190  Biso   1.000  H
  H2109    1.0000 0.39612  0.53451  0.05910  Biso   1.000  H
  H2110    1.0000 0.39607  0.53451  0.05910  Biso   1.000  H
  H2111    1.0000 0.38482  0.54676  0.07190  Biso   1.000  H
  H2112    1.0000 0.52573  0.76942  0.05620  Biso   1.000  H
  H2113    1.0000 0.43118  0.71228  0.06230  Biso   1.000  H
  H2114    1.0000 0.52579  0.76942  0.05620  Biso   1.000  H
  H2115    1.0000 0.43124  0.71228  0.06230  Biso   1.000  H
  H2116    1.0000 0.76086  0.79904  0.07360  Biso   1.000  H
  C1980    1.0000 0.79017  0.76162  0.08865  Biso   1.000  C
  H2117    1.0000 0.76097  0.79904  0.07360  Biso   1.000  H
  C1981    1.0000 0.75600  0.73221  0.09945  Biso   1.000  C
  C1982    1.0000 0.88096  0.70771  0.10293  Biso   1.000  C
  C1983    1.0000 0.88101  0.70771  0.10293  Biso   1.000  C
  C1984    1.0000 0.29228  0.17330  0.10293  Biso   1.000  C
  C1985    1.0000 0.29234  0.17330  0.10293  Biso   1.000  C
  C1986    1.0000 0.26778  0.02382  0.09945  Biso   1.000  C
  C1987    1.0000 0.26784  0.02382  0.09945  Biso   1.000  C
  C1988    1.0000 0.24120  0.10600  0.08547  Biso   1.000  C
  C1989    1.0000 0.24115  0.10600  0.08547  Biso   1.000  C
  C1990    1.0000 0.86482  0.75879  0.08547  Biso   1.000  C
  H2118    1.0000 0.70155  0.72938  0.10170  Biso   1.000  H
  C1991    1.0000 0.90904  0.73099  0.09235  Biso   1.000  C
  C1992    1.0000 0.90909  0.73099  0.09235  Biso   1.000  C
  H2119    1.0000 0.91447  0.69162  0.10770  Biso   1.000  H
  H2120    1.0000 0.30840  0.22290  0.10770  Biso   1.000  H
  H2121    1.0000 0.27059  0.97220  0.10170  Biso   1.000  H
  C1993    1.0000 0.23841  0.02860  0.08865  Biso   1.000  C
  C1994    1.0000 0.23835  0.02860  0.08865  Biso   1.000  C
  H2122    1.0000 0.22326  0.10997  0.07820  Biso   1.000  H
  H2123    1.0000 0.22331  0.10997  0.07820  Biso   1.000  H
  H2124    1.0000 0.88666  0.77669  0.07820  Biso   1.000  H
  C1995    1.0000 0.99101  0.72790  0.08856  Biso   1.000  C
  C1996    1.0000 0.21247  0.95329  0.08100  Biso   1.000  C
  N295     1.0000 0.02094  0.74264  0.07888  Biso   1.000  N
  H2125    1.0000 0.02255  0.71370  0.09390  Biso   1.000  H
  H2126    1.0000 0.02244  0.71370  0.09390  Biso   1.000  H
  N296     1.0000 0.20455  0.87812  0.08347  Biso   1.000  N
  H2127    1.0000 0.20104  0.96191  0.07360  Biso   1.000  H
  C1997    1.0000 0.09668  0.72743  0.07709  Biso   1.000  C
  C1998    1.0000 0.09656  0.72743  0.07709  Biso   1.000  C
  C1999    1.0000 0.18133  0.81478  0.07450  Biso   1.000  C
  C2000    1.0000 0.18122  0.81478  0.07450  Biso   1.000  C
  H2128    1.0000 0.10670  0.70131  0.08390  Biso   1.000  H
  C2001    1.0000 0.07369  0.66012  0.06769  Biso   1.000  C
  H2129    1.0000 0.10665  0.70131  0.08390  Biso   1.000  H
  C2002    1.0000 0.26039  0.79991  0.07227  Biso   1.000  C
  H2130    1.0000 0.17030  0.84144  0.06780  Biso   1.000  H
  C2003    1.0000 0.26033  0.79991  0.07227  Biso   1.000  C
  H2131    1.0000 0.06003  0.68361  0.06100  Biso   1.000  H
  H2132    1.0000 0.01973  0.60231  0.06960  Biso   1.000  H
  C2004    1.0000 0.15278  0.64471  0.06547  Biso   1.000  C
  H2133    1.0000 0.27560  0.77858  0.07900  Biso   1.000  H
  H2134    1.0000 0.31359  0.85759  0.07010  Biso   1.000  H
  C2005    1.0000 0.23748  0.73113  0.06319  Biso   1.000  C
  C2006    1.0000 0.23742  0.73113  0.06319  Biso   1.000  C
  H2135    1.0000 0.16205  0.61523  0.07190  Biso   1.000  H
  H2136    1.0000 0.13844  0.60393  0.05910  Biso   1.000  H
  H2137    1.0000 0.23061  0.75643  0.05620  Biso   1.000  H
  H2138    1.0000 0.28772  0.71888  0.06230  Biso   1.000  H
  C2007    1.0000 0.50623  0.23737  0.56319  Biso   1.000  C
  C2008    1.0000 0.50811  0.15278  0.56547  Biso   1.000  C
  H2139    1.0000 0.47421  0.23058  0.55620  Biso   1.000  H
  H2140    1.0000 0.56882  0.28772  0.56230  Biso   1.000  H
  C2009    1.0000 0.46050  0.26039  0.57227  Biso   1.000  C
  C2010    1.0000 0.50805  0.15278  0.56547  Biso   1.000  C
  H2141    1.0000 0.47415  0.23058  0.55620  Biso   1.000  H
  H2142    1.0000 0.56876  0.28772  0.56230  Biso   1.000  H
  C2011    1.0000 0.46044  0.26039  0.57227  Biso   1.000  C
  C2012    1.0000 0.41360  0.07370  0.56769  Biso   1.000  C
  H2143    1.0000 0.54681  0.16200  0.57190  Biso   1.000  H
  H2144    1.0000 0.53448  0.13837  0.55910  Biso   1.000  H
  C2013    1.0000 0.50628  0.23737  0.56319  Biso   1.000  C
  C2014    1.0000 0.41355  0.07370  0.56769  Biso   1.000  C
  H2145    1.0000 0.54676  0.16200  0.57190  Biso   1.000  H
  H2146    1.0000 0.45596  0.31356  0.57010  Biso   1.000  H
  H2147    1.0000 0.49701  0.27560  0.57900  Biso   1.000  H
  C2015    1.0000 0.36652  0.18131  0.57450  Biso   1.000  C
  H2148    1.0000 0.45599  0.31363  0.57010  Biso   1.000  H
  H2149    1.0000 0.49695  0.27560  0.57900  Biso   1.000  H
  C2016    1.0000 0.36646  0.18131  0.57450  Biso   1.000  C
  H2150    1.0000 0.45605  0.31363  0.57010  Biso   1.000  H
  C2017    1.0000 0.36921  0.09658  0.57709  Biso   1.000  C
  H2151    1.0000 0.37637  0.05997  0.56100  Biso   1.000  H
  H2152    1.0000 0.41739  0.01972  0.56960  Biso   1.000  H
  C2018    1.0000 0.36915  0.09658  0.57709  Biso   1.000  C
  H2153    1.0000 0.37641  0.06003  0.56100  Biso   1.000  H
  N297     1.0000 0.32640  0.20446  0.58347  Biso   1.000  N
  H2154    1.0000 0.32889  0.17027  0.56780  Biso   1.000  H
  N298     1.0000 0.32637  0.20453  0.58347  Biso   1.000  N
  N299     1.0000 0.32634  0.20446  0.58347  Biso   1.000  N
  N300     1.0000 0.32643  0.20453  0.58347  Biso   1.000  N
  N301     1.0000 0.27829  0.02093  0.57888  Biso   1.000  N
  H2155    1.0000 0.40538  0.10667  0.58390  Biso   1.000  H
  N302     1.0000 0.27834  0.02093  0.57888  Biso   1.000  N
  C2019    1.0000 0.25918  0.21247  0.58100  Biso   1.000  C
  C2020    1.0000 0.26308  0.99098  0.58856  Biso   1.000  C
  C2021    1.0000 0.26302  0.99098  0.58856  Biso   1.000  C
  H2156    1.0000 0.23908  0.20096  0.57360  Biso   1.000  H
  C2022    1.0000 0.20977  0.23838  0.58865  Biso   1.000  C
  H2157    1.0000 0.23912  0.20103  0.57360  Biso   1.000  H
  C2023    1.0000 0.20983  0.23838  0.58865  Biso   1.000  C
  H2158    1.0000 0.30879  0.02248  0.59390  Biso   1.000  H
  C2024    1.0000 0.17812  0.90907  0.59235  Biso   1.000  C
  C2025    1.0000 0.13518  0.24121  0.58547  Biso   1.000  C
  C2026    1.0000 0.24400  0.26779  0.59945  Biso   1.000  C
  C2027    1.0000 0.13523  0.24121  0.58547  Biso   1.000  C
  C2028    1.0000 0.10597  0.86479  0.58547  Biso   1.000  C
  C2029    1.0000 0.17330  0.88101  0.60293  Biso   1.000  C
  H2159    1.0000 0.11329  0.22331  0.57820  Biso   1.000  H
  C2030    1.0000 0.09091  0.26901  0.59235  Biso   1.000  C
  H2160    1.0000 0.11334  0.22331  0.57820  Biso   1.000  H
  H2161    1.0000 0.29839  0.27062  0.60170  Biso   1.000  H
  C2031    1.0000 0.19598  0.29310  0.60692  Biso   1.000  C
  H2162    1.0000 0.29845  0.27062  0.60170  Biso   1.000  H
  C2032    1.0000 0.19603  0.29310  0.60692  Biso   1.000  C
  H2163    1.0000 0.11006  0.88673  0.57820  Biso   1.000  H
  C2033    1.0000 0.02864  0.79022  0.58865  Biso   1.000  C
  H2164    1.0000 0.10994  0.88673  0.57820  Biso   1.000  H
  H2165    1.0000 0.22299  0.91453  0.60770  Biso   1.000  H
  C2034    1.0000 0.09715  0.80402  0.60692  Biso   1.000  C
  H2166    1.0000 0.22293  0.91453  0.60770  Biso   1.000  H
  C2035    1.0000 0.11899  0.29229  0.60293  Biso   1.000  C
  C2036    1.0000 0.00899  0.27210  0.58856  Biso   1.000  C
  C2037    1.0000 0.00905  0.27210  0.58856  Biso   1.000  C
  C2038    1.0000 0.23122  0.32278  0.61794  Biso   1.000  C
  C2039    1.0000 0.23116  0.32278  0.61794  Biso   1.000  C
  C2040    1.0000 0.95323  0.74082  0.58100  Biso   1.000  C
  C2041    1.0000 0.95335  0.74082  0.58100  Biso   1.000  C
  C2042    1.0000 0.02384  0.75603  0.59945  Biso   1.000  C
  C2043    1.0000 0.09161  0.76882  0.61794  Biso   1.000  C
  C2044    1.0000 0.09155  0.76882  0.61794  Biso   1.000  C
  H2167    1.0000 0.08547  0.30838  0.60770  Biso   1.000  H
  H2168    1.0000 0.08553  0.30838  0.60770  Biso   1.000  H
  N303     1.0000 0.97906  0.25736  0.57888  Biso   1.000  N
  H2169    1.0000 0.97750  0.28630  0.59390  Biso   1.000  H
  N304     1.0000 0.97910  0.25743  0.57888  Biso   1.000  N
  H2170    1.0000 0.97745  0.28630  0.59390  Biso   1.000  H
  N305     1.0000 0.19111  0.34842  0.62487  Biso   1.000  N
  H2171    1.0000 0.28468  0.32352  0.62010  Biso   1.000  H
  H2172    1.0000 0.28474  0.32352  0.62010  Biso   1.000  H
  N306     1.0000 0.87812  0.67359  0.58347  Biso   1.000  N
  H2173    1.0000 0.96186  0.76088  0.57360  Biso   1.000  H
  H2174    1.0000 0.97220  0.70158  0.60170  Biso   1.000  H
  N307     1.0000 0.15731  0.80893  0.62487  Biso   1.000  N
  H2175    1.0000 0.03881  0.71531  0.62010  Biso   1.000  H
  H2176    1.0000 0.03875  0.71531  0.62010  Biso   1.000  H
  C2045    1.0000 0.90338  0.27257  0.57709  Biso   1.000  C
  C2046    1.0000 0.23901  0.38652  0.63533  Biso   1.000  C
  C2047    1.0000 0.81479  0.63354  0.57450  Biso   1.000  C
  C2048    1.0000 0.14757  0.76101  0.63533  Biso   1.000  C
  C2049    1.0000 0.14745  0.76101  0.63533  Biso   1.000  C
  H2177    1.0000 0.89330  0.29869  0.58390  Biso   1.000  H
  C2050    1.0000 0.92631  0.33988  0.56769  Biso   1.000  C
  C2051    1.0000 0.81873  0.18522  0.57450  Biso   1.000  C
  C2052    1.0000 0.92625  0.33988  0.56769  Biso   1.000  C
  C2053    1.0000 0.81867  0.18522  0.57450  Biso   1.000  C
  H2178    1.0000 0.89324  0.29869  0.58390  Biso   1.000  H
  H2179    1.0000 0.29122  0.37622  0.63610  Biso   1.000  H
  C2054    1.0000 0.27065  0.48606  0.63533  Biso   1.000  C
  C2055    1.0000 0.17290  0.34277  0.64492  Biso   1.000  C
  C2056    1.0000 0.27069  0.48612  0.63533  Biso   1.000  C
  C2057    1.0000 0.17284  0.34277  0.64492  Biso   1.000  C
  H2180    1.0000 0.29116  0.37622  0.63610  Biso   1.000  H
  C2058    1.0000 0.27075  0.48612  0.63533  Biso   1.000  C
  C2059    1.0000 0.72738  0.63078  0.57709  Biso   1.000  C
  C2060    1.0000 0.79984  0.53952  0.57227  Biso   1.000  C
  H2181    1.0000 0.84138  0.67110  0.56780  Biso   1.000  H
  C2061    1.0000 0.79989  0.53952  0.57227  Biso   1.000  C
  H2182    1.0000 0.84143  0.67110  0.56780  Biso   1.000  H
  H2183    1.0000 0.08503  0.70878  0.63610  Biso   1.000  H
  C2062    1.0000 0.21547  0.72931  0.63533  Biso   1.000  C
  C2063    1.0000 0.16995  0.82710  0.64492  Biso   1.000  C
  C2064    1.0000 0.21542  0.72931  0.63533  Biso   1.000  C
  C2065    1.0000 0.16983  0.82710  0.64492  Biso   1.000  C
  H2184    1.0000 0.93997  0.31639  0.56100  Biso   1.000  H
  H2185    1.0000 0.98027  0.39769  0.56960  Biso   1.000  H
  C2066    1.0000 0.84722  0.35529  0.56547  Biso   1.000  C
  C2067    1.0000 0.84717  0.35529  0.56547  Biso   1.000  C
  N308     1.0000 0.79551  0.12188  0.58347  Biso   1.000  N
  C2068    1.0000 0.73961  0.20009  0.57227  Biso   1.000  C
  H2186    1.0000 0.82970  0.15856  0.56780  Biso   1.000  H
  N309     1.0000 0.79545  0.12188  0.58347  Biso   1.000  N
  H2187    1.0000 0.82968  0.15863  0.56780  Biso   1.000  H
  H2188    1.0000 0.82965  0.15856  0.56780  Biso   1.000  H
  C2069    1.0000 0.73955  0.20009  0.57227  Biso   1.000  C
  H2189    1.0000 0.31287  0.51547  0.62920  Biso   1.000  H
  H2190    1.0000 0.21851  0.49507  0.63430  Biso   1.000  H
  C2070    1.0000 0.31662  0.52832  0.64592  Biso   1.000  C
  H2191    1.0000 0.21845  0.49507  0.63430  Biso   1.000  H
  C2071    1.0000 0.31656  0.52832  0.64592  Biso   1.000  C
  N310     1.0000 0.14921  0.24619  0.64532  Biso   1.000  N
  C2072    1.0000 0.21601  0.38551  0.65578  Biso   1.000  C
  H2192    1.0000 0.11769  0.34728  0.64370  Biso   1.000  H
  N311     1.0000 0.14915  0.24619  0.64532  Biso   1.000  N
  C2073    1.0000 0.21595  0.38551  0.65578  Biso   1.000  C
  N312     1.0000 0.74253  0.72171  0.57888  Biso   1.000  N
  H2193    1.0000 0.70132  0.59464  0.58390  Biso   1.000  H
  C2074    1.0000 0.66009  0.58643  0.56769  Biso   1.000  C
  N313     1.0000 0.74259  0.72171  0.57888  Biso   1.000  N
  C2075    1.0000 0.73105  0.49369  0.56319  Biso   1.000  C
  H2194    1.0000 0.85758  0.54403  0.57010  Biso   1.000  H
  H2195    1.0000 0.77862  0.50304  0.57900  Biso   1.000  H
  H2196    1.0000 0.77868  0.50304  0.57900  Biso   1.000  H
  H2197    1.0000 0.20259  0.68711  0.62920  Biso   1.000  H
  H2198    1.0000 0.27662  0.78154  0.63430  Biso   1.000  H
  C2076    1.0000 0.21170  0.68341  0.64592  Biso   1.000  C
  N314     1.0000 0.09705  0.85079  0.64532  Biso   1.000  N
  C2077    1.0000 0.16951  0.78403  0.65578  Biso   1.000  C
  H2199    1.0000 0.22960  0.88229  0.64370  Biso   1.000  H
  N315     1.0000 0.09693  0.85079  0.64532  Biso   1.000  N
  H2200    1.0000 0.83801  0.38477  0.57190  Biso   1.000  H
  H2201    1.0000 0.86161  0.39607  0.55910  Biso   1.000  H
  C2078    1.0000 0.76258  0.26887  0.56319  Biso   1.000  C
  H2202    1.0000 0.83795  0.38477  0.57190  Biso   1.000  H
  H2203    1.0000 0.86156  0.39607  0.55910  Biso   1.000  H
  C2079    1.0000 0.78753  0.04671  0.58100  Biso   1.000  C
  C2080    1.0000 0.78747  0.04671  0.58100  Biso   1.000  C
  H2204    1.0000 0.68641  0.14241  0.57010  Biso   1.000  H
  H2205    1.0000 0.72440  0.22142  0.57900  Biso   1.000  H
  H2206    1.0000 0.68635  0.14241  0.57010  Biso   1.000  H
  H2207    1.0000 0.33813  0.59360  0.64570  Biso   1.000  H
  H2208    1.0000 0.36969  0.52058  0.64690  Biso   1.000  H
  C2081    1.0000 0.25412  0.48680  0.65558  Biso   1.000  C
  H2209    1.0000 0.33807  0.59360  0.64570  Biso   1.000  H
  C2082    1.0000 0.25406  0.48680  0.65558  Biso   1.000  C
  C2083    1.0000 0.06524  0.18993  0.64639  Biso   1.000  C
  C2084    1.0000 0.06518  0.18993  0.64639  Biso   1.000  C
  H2210    1.0000 0.26498  0.37258  0.65740  Biso   1.000  H
  H2211    1.0000 0.17062  0.35872  0.66170  Biso   1.000  H
  H2212    1.0000 0.17056  0.35872  0.66170  Biso   1.000  H
  H2213    1.0000 0.26504  0.37258  0.65740  Biso   1.000  H
  C2085    1.0000 0.72787  0.73692  0.58856  Biso   1.000  C
  H2214    1.0000 0.68356  0.62358  0.56100  Biso   1.000  H
  H2215    1.0000 0.60222  0.58259  0.56960  Biso   1.000  H
  C2086    1.0000 0.64467  0.49194  0.56547  Biso   1.000  C
  H2216    1.0000 0.60228  0.58259  0.56960  Biso   1.000  H
  C2087    1.0000 0.64479  0.49194  0.56547  Biso   1.000  C
  H2217    1.0000 0.75631  0.52579  0.55620  Biso   1.000  H
  H2218    1.0000 0.71894  0.43123  0.56230  Biso   1.000  H
  H2219    1.0000 0.75637  0.52579  0.55620  Biso   1.000  H
  H2220    1.0000 0.25555  0.66187  0.64570  Biso   1.000  H
  H2221    1.0000 0.15094  0.63031  0.64690  Biso   1.000  H
  C2088    1.0000 0.23276  0.74593  0.65558  Biso   1.000  C
  H2222    1.0000 0.25558  0.66194  0.64570  Biso   1.000  H
  H2223    1.0000 0.25549  0.66187  0.64570  Biso   1.000  H
  H2224    1.0000 0.25552  0.66194  0.64570  Biso   1.000  H
  C2089    1.0000 0.23265  0.74593  0.65558  Biso   1.000  C
  C2090    1.0000 0.12476  0.93478  0.64639  Biso   1.000  C
  C2091    1.0000 0.12470  0.93478  0.64639  Biso   1.000  C
  H2225    1.0000 0.10765  0.73503  0.65740  Biso   1.000  H
  H2226    1.0000 0.18811  0.82939  0.66170  Biso   1.000  H
  H2227    1.0000 0.76939  0.24357  0.55620  Biso   1.000  H
  H2228    1.0000 0.71234  0.28112  0.56230  Biso   1.000  H
  H2229    1.0000 0.71228  0.28112  0.56230  Biso   1.000  H
  H2230    1.0000 0.76933  0.24357  0.55620  Biso   1.000  H
  C2092    1.0000 0.76159  0.97140  0.58865  Biso   1.000  C
  H2231    1.0000 0.79902  0.03809  0.57360  Biso   1.000  H
  H2232    1.0000 0.79896  0.03809  0.57360  Biso   1.000  H
  H2233    1.0000 0.20421  0.49992  0.65510  Biso   1.000  H
  H2234    1.0000 0.28730  0.51351  0.66250  Biso   1.000  H
  H2235    1.0000 0.02361  0.21099  0.64690  Biso   1.000  H
  C2093    1.0000 0.03222  0.09079  0.64686  Biso   1.000  C
  C2094    1.0000 0.03216  0.09079  0.64686  Biso   1.000  C
  H2236    1.0000 0.02355  0.21099  0.64690  Biso   1.000  H
  C2095    1.0000 0.73103  0.82192  0.59235  Biso   1.000  C
  H2237    1.0000 0.71365  0.69122  0.59390  Biso   1.000  H
  H2238    1.0000 0.71371  0.69122  0.59390  Biso   1.000  H
  H2239    1.0000 0.61524  0.45324  0.57190  Biso   1.000  H
  H2240    1.0000 0.60382  0.46549  0.55910  Biso   1.000  H
  H2241    1.0000 0.60388  0.46549  0.55910  Biso   1.000  H
  H2242    1.0000 0.29570  0.79581  0.65510  Biso   1.000  H
  H2243    1.0000 0.22622  0.71269  0.66250  Biso   1.000  H
  H2244    1.0000 0.29564  0.79581  0.65510  Biso   1.000  H
  H2245    1.0000 0.18741  0.97638  0.64690  Biso   1.000  H
  C2096    1.0000 0.05864  0.96783  0.64686  Biso   1.000  C
  H2246    1.0000 0.18735  0.97638  0.64690  Biso   1.000  H
  C2097    1.0000 0.73216  0.97618  0.59945  Biso   1.000  C
  C2098    1.0000 0.75880  0.89400  0.58547  Biso   1.000  C
  C2099    1.0000 0.75885  0.89400  0.58547  Biso   1.000  C
  C2100    1.0000 0.09392  0.05822  0.64676  Biso   1.000  C
  C2101    1.0000 0.09386  0.05822  0.64676  Biso   1.000  C
  C2102    1.0000 0.94177  0.03567  0.64676  Biso   1.000  C
  C2103    1.0000 0.70766  0.82670  0.60293  Biso   1.000  C
  C2104    1.0000 0.96431  0.90611  0.64676  Biso   1.000  C
  C2105    1.0000 0.96436  0.90611  0.64676  Biso   1.000  C
  C2106    1.0000 0.70682  0.90288  0.60692  Biso   1.000  C
  C2107    1.0000 0.70688  0.90288  0.60692  Biso   1.000  C
  H2247    1.0000 0.72941  0.02780  0.60170  Biso   1.000  H
  H2248    1.0000 0.72935  0.02780  0.60170  Biso   1.000  H
  H2249    1.0000 0.77669  0.89003  0.57820  Biso   1.000  H
  H2250    1.0000 0.15712  0.09813  0.64660  Biso   1.000  H
  H2251    1.0000 0.15707  0.09813  0.64660  Biso   1.000  H
  C2108    1.0000 0.90914  0.94138  0.64686  Biso   1.000  C
  C2109    1.0000 0.90926  0.94138  0.64686  Biso   1.000  C
  H2252    1.0000 0.90193  0.05902  0.64660  Biso   1.000  H
  H2253    1.0000 0.90187  0.05902  0.64660  Biso   1.000  H
  H2254    1.0000 0.69154  0.77710  0.60770  Biso   1.000  H
  H2255    1.0000 0.69166  0.77710  0.60770  Biso   1.000  H
  H2256    1.0000 0.94098  0.84292  0.64660  Biso   1.000  H
  H2257    1.0000 0.94104  0.84292  0.64660  Biso   1.000  H
  C2110    1.0000 0.67717  0.90840  0.61794  Biso   1.000  C
  C2111    1.0000 0.81012  0.87529  0.64639  Biso   1.000  C
  N316     1.0000 0.65161  0.84272  0.62487  Biso   1.000  N
  H2258    1.0000 0.67648  0.96123  0.62010  Biso   1.000  H
  N317     1.0000 0.75375  0.90302  0.64532  Biso   1.000  N
  H2259    1.0000 0.78899  0.81263  0.64690  Biso   1.000  H
  N318     1.0000 0.75381  0.90302  0.64532  Biso   1.000  N
  C2112    1.0000 0.61342  0.85247  0.63533  Biso   1.000  C
  C2113    1.0000 0.61354  0.85247  0.63533  Biso   1.000  C
  C2114    1.0000 0.65715  0.83013  0.64492  Biso   1.000  C
  C2115    1.0000 0.65727  0.83013  0.64492  Biso   1.000  C
  H2260    1.0000 0.62376  0.91500  0.63610  Biso   1.000  H
  C2116    1.0000 0.51393  0.78463  0.63533  Biso   1.000  C
  H2261    1.0000 0.62387  0.91500  0.63610  Biso   1.000  H
  C2117    1.0000 0.61451  0.83053  0.65578  Biso   1.000  C
  H2262    1.0000 0.65266  0.77043  0.64370  Biso   1.000  H
  H2263    1.0000 0.65272  0.77043  0.64370  Biso   1.000  H
  H2264    1.0000 0.48454  0.79742  0.62920  Biso   1.000  H
  H2265    1.0000 0.50487  0.72339  0.63430  Biso   1.000  H
  C2118    1.0000 0.47172  0.78834  0.64592  Biso   1.000  C
  C2119    1.0000 0.47177  0.78834  0.64592  Biso   1.000  C
  C2120    1.0000 0.51321  0.76734  0.65558  Biso   1.000  C
  H2266    1.0000 0.62731  0.89238  0.65740  Biso   1.000  H
  H2267    1.0000 0.64133  0.81189  0.66170  Biso   1.000  H
  H2268    1.0000 0.62737  0.89238  0.65740  Biso   1.000  H
  H2269    1.0000 0.40645  0.74452  0.64570  Biso   1.000  H
  H2270    1.0000 0.47937  0.84911  0.64690  Biso   1.000  H
  H2271    1.0000 0.50009  0.70427  0.65510  Biso   1.000  H
  H2272    1.0000 0.48648  0.77380  0.66250  Biso   1.000  H
  H2273    1.0000 0.50013  0.70434  0.65510  Biso   1.000  H
  C2121    1.0000 0.50623  0.23737  0.56319  Biso   1.000  C
  C2122    1.0000 0.46050  0.26039  0.57227  Biso   1.000  C
  C2123    1.0000 0.50805  0.15278  0.56547  Biso   1.000  C
  H2274    1.0000 0.47415  0.23058  0.55620  Biso   1.000  H
  H2275    1.0000 0.56876  0.28772  0.56230  Biso   1.000  H
  C2124    1.0000 0.50811  0.15278  0.56547  Biso   1.000  C
  H2276    1.0000 0.47421  0.23058  0.55620  Biso   1.000  H
  H2277    1.0000 0.56882  0.28772  0.56230  Biso   1.000  H
  C2125    1.0000 0.46044  0.26039  0.57227  Biso   1.000  C
  C2126    1.0000 0.50628  0.23737  0.56319  Biso   1.000  C
  H2278    1.0000 0.45596  0.31356  0.57010  Biso   1.000  H
  H2279    1.0000 0.49695  0.27560  0.57900  Biso   1.000  H
  C2127    1.0000 0.36646  0.18131  0.57450  Biso   1.000  C
  H2280    1.0000 0.49701  0.27560  0.57900  Biso   1.000  H
  C2128    1.0000 0.36652  0.18131  0.57450  Biso   1.000  C
  H2281    1.0000 0.45599  0.31363  0.57010  Biso   1.000  H
  H2282    1.0000 0.45605  0.31363  0.57010  Biso   1.000  H
  H2283    1.0000 0.53448  0.13837  0.55910  Biso   1.000  H
  C2129    1.0000 0.41355  0.07370  0.56769  Biso   1.000  C
  H2284    1.0000 0.54676  0.16200  0.57190  Biso   1.000  H
  C2130    1.0000 0.41360  0.07370  0.56769  Biso   1.000  C
  H2285    1.0000 0.54681  0.16200  0.57190  Biso   1.000  H
  H2286    1.0000 0.32889  0.17027  0.56780  Biso   1.000  H
  C2131    1.0000 0.36915  0.09658  0.57709  Biso   1.000  C
  C2132    1.0000 0.36921  0.09658  0.57709  Biso   1.000  C
  N319     1.0000 0.32640  0.20446  0.58347  Biso   1.000  N
  N320     1.0000 0.32637  0.20453  0.58347  Biso   1.000  N
  N321     1.0000 0.32634  0.20446  0.58347  Biso   1.000  N
  N322     1.0000 0.32643  0.20453  0.58347  Biso   1.000  N
  H2287    1.0000 0.41739  0.01972  0.56960  Biso   1.000  H
  H2288    1.0000 0.37637  0.05997  0.56100  Biso   1.000  H
  H2289    1.0000 0.37641  0.06003  0.56100  Biso   1.000  H
  N323     1.0000 0.27829  0.02093  0.57888  Biso   1.000  N
  H2290    1.0000 0.40538  0.10667  0.58390  Biso   1.000  H
  N324     1.0000 0.27834  0.02093  0.57888  Biso   1.000  N
  C2133    1.0000 0.25918  0.21247  0.58100  Biso   1.000  C
  C2134    1.0000 0.26308  0.99098  0.58856  Biso   1.000  C
  C2135    1.0000 0.26302  0.99098  0.58856  Biso   1.000  C
  C2136    1.0000 0.20977  0.23838  0.58865  Biso   1.000  C
  H2291    1.0000 0.23908  0.20096  0.57360  Biso   1.000  H
  H2292    1.0000 0.23912  0.20103  0.57360  Biso   1.000  H
  C2137    1.0000 0.20983  0.23838  0.58865  Biso   1.000  C
  H2293    1.0000 0.30879  0.02248  0.59390  Biso   1.000  H
  C2138    1.0000 0.17812  0.90907  0.59235  Biso   1.000  C
  C2139    1.0000 0.13518  0.24121  0.58547  Biso   1.000  C
  C2140    1.0000 0.24400  0.26779  0.59945  Biso   1.000  C
  C2141    1.0000 0.13523  0.24121  0.58547  Biso   1.000  C
  C2142    1.0000 0.17330  0.88101  0.60293  Biso   1.000  C
  C2143    1.0000 0.10597  0.86479  0.58547  Biso   1.000  C
  H2294    1.0000 0.11329  0.22331  0.57820  Biso   1.000  H
  C2144    1.0000 0.09091  0.26901  0.59235  Biso   1.000  C
  H2295    1.0000 0.11334  0.22331  0.57820  Biso   1.000  H
  H2296    1.0000 0.29839  0.27062  0.60170  Biso   1.000  H
  C2145    1.0000 0.19598  0.29310  0.60692  Biso   1.000  C
  H2297    1.0000 0.29845  0.27062  0.60170  Biso   1.000  H
  C2146    1.0000 0.19603  0.29310  0.60692  Biso   1.000  C
  H2298    1.0000 0.22299  0.91453  0.60770  Biso   1.000  H
  C2147    1.0000 0.09715  0.80402  0.60692  Biso   1.000  C
  H2299    1.0000 0.22293  0.91453  0.60770  Biso   1.000  H
  H2300    1.0000 0.11006  0.88673  0.57820  Biso   1.000  H
  C2148    1.0000 0.02864  0.79022  0.58865  Biso   1.000  C
  H2301    1.0000 0.10994  0.88673  0.57820  Biso   1.000  H
  C2149    1.0000 0.11899  0.29229  0.60293  Biso   1.000  C
  C2150    1.0000 0.00899  0.27210  0.58856  Biso   1.000  C
  C2151    1.0000 0.00905  0.27210  0.58856  Biso   1.000  C
  C2152    1.0000 0.23116  0.32278  0.61794  Biso   1.000  C
  C2153    1.0000 0.23122  0.32278  0.61794  Biso   1.000  C
  C2154    1.0000 0.02384  0.75603  0.59945  Biso   1.000  C
  C2155    1.0000 0.09161  0.76882  0.61794  Biso   1.000  C
  C2156    1.0000 0.09155  0.76882  0.61794  Biso   1.000  C
  C2157    1.0000 0.95323  0.74082  0.58100  Biso   1.000  C
  C2158    1.0000 0.95335  0.74082  0.58100  Biso   1.000  C
  H2302    1.0000 0.08547  0.30838  0.60770  Biso   1.000  H
  H2303    1.0000 0.08553  0.30838  0.60770  Biso   1.000  H
  N325     1.0000 0.97906  0.25736  0.57888  Biso   1.000  N
  H2304    1.0000 0.97750  0.28630  0.59390  Biso   1.000  H
  N326     1.0000 0.97910  0.25743  0.57888  Biso   1.000  N
  H2305    1.0000 0.97745  0.28630  0.59390  Biso   1.000  H
  N327     1.0000 0.19111  0.34842  0.62487  Biso   1.000  N
  H2306    1.0000 0.28468  0.32352  0.62010  Biso   1.000  H
  H2307    1.0000 0.28474  0.32352  0.62010  Biso   1.000  H
  H2308    1.0000 0.97220  0.70158  0.60170  Biso   1.000  H
  N328     1.0000 0.15731  0.80893  0.62487  Biso   1.000  N
  H2309    1.0000 0.03881  0.71531  0.62010  Biso   1.000  H
  H2310    1.0000 0.03875  0.71531  0.62010  Biso   1.000  H
  H2311    1.0000 0.96186  0.76088  0.57360  Biso   1.000  H
  N329     1.0000 0.87812  0.67359  0.58347  Biso   1.000  N
  C2159    1.0000 0.90338  0.27257  0.57709  Biso   1.000  C
  C2160    1.0000 0.23901  0.38652  0.63533  Biso   1.000  C
  C2161    1.0000 0.14757  0.76101  0.63533  Biso   1.000  C
  C2162    1.0000 0.14745  0.76101  0.63533  Biso   1.000  C
  C2163    1.0000 0.81479  0.63354  0.57450  Biso   1.000  C
  H2312    1.0000 0.89330  0.29869  0.58390  Biso   1.000  H
  C2164    1.0000 0.92631  0.33988  0.56769  Biso   1.000  C
  C2165    1.0000 0.81873  0.18522  0.57450  Biso   1.000  C
  C2166    1.0000 0.92625  0.33988  0.56769  Biso   1.000  C
  C2167    1.0000 0.81867  0.18522  0.57450  Biso   1.000  C
  H2313    1.0000 0.89324  0.29869  0.58390  Biso   1.000  H
  H2314    1.0000 0.29122  0.37622  0.63610  Biso   1.000  H
  C2168    1.0000 0.27065  0.48606  0.63533  Biso   1.000  C
  C2169    1.0000 0.17284  0.34277  0.64492  Biso   1.000  C
  C2170    1.0000 0.17290  0.34277  0.64492  Biso   1.000  C
  C2171    1.0000 0.27069  0.48612  0.63533  Biso   1.000  C
  H2315    1.0000 0.29116  0.37622  0.63610  Biso   1.000  H
  C2172    1.0000 0.27075  0.48612  0.63533  Biso   1.000  C
  H2316    1.0000 0.08503  0.70878  0.63610  Biso   1.000  H
  C2173    1.0000 0.21547  0.72931  0.63533  Biso   1.000  C
  C2174    1.0000 0.16995  0.82710  0.64492  Biso   1.000  C
  C2175    1.0000 0.21542  0.72931  0.63533  Biso   1.000  C
  C2176    1.0000 0.16983  0.82710  0.64492  Biso   1.000  C
  C2177    1.0000 0.72738  0.63078  0.57709  Biso   1.000  C
  C2178    1.0000 0.79984  0.53952  0.57227  Biso   1.000  C
  H2317    1.0000 0.84138  0.67110  0.56780  Biso   1.000  H
  C2179    1.0000 0.79989  0.53952  0.57227  Biso   1.000  C
  H2318    1.0000 0.84143  0.67110  0.56780  Biso   1.000  H
  H2319    1.0000 0.93997  0.31639  0.56100  Biso   1.000  H
  H2320    1.0000 0.98027  0.39769  0.56960  Biso   1.000  H
  C2180    1.0000 0.84722  0.35529  0.56547  Biso   1.000  C
  C2181    1.0000 0.84717  0.35529  0.56547  Biso   1.000  C
  N330     1.0000 0.79551  0.12188  0.58347  Biso   1.000  N
  C2182    1.0000 0.73961  0.20009  0.57227  Biso   1.000  C
  H2321    1.0000 0.82970  0.15856  0.56780  Biso   1.000  H
  N331     1.0000 0.79545  0.12188  0.58347  Biso   1.000  N
  H2322    1.0000 0.82968  0.15863  0.56780  Biso   1.000  H
  H2323    1.0000 0.82965  0.15856  0.56780  Biso   1.000  H
  C2183    1.0000 0.73955  0.20009  0.57227  Biso   1.000  C
  H2324    1.0000 0.31287  0.51547  0.62920  Biso   1.000  H
  C2184    1.0000 0.31662  0.52832  0.64592  Biso   1.000  C
  H2325    1.0000 0.21845  0.49507  0.63430  Biso   1.000  H
  H2326    1.0000 0.21851  0.49507  0.63430  Biso   1.000  H
  C2185    1.0000 0.31656  0.52832  0.64592  Biso   1.000  C
  C2186    1.0000 0.21601  0.38551  0.65578  Biso   1.000  C
  H2327    1.0000 0.11769  0.34728  0.64370  Biso   1.000  H
  N332     1.0000 0.14915  0.24619  0.64532  Biso   1.000  N
  N333     1.0000 0.14921  0.24619  0.64532  Biso   1.000  N
  C2187    1.0000 0.21595  0.38551  0.65578  Biso   1.000  C
  H2328    1.0000 0.27662  0.78154  0.63430  Biso   1.000  H
  H2329    1.0000 0.20259  0.68711  0.62920  Biso   1.000  H
  C2188    1.0000 0.21170  0.68341  0.64592  Biso   1.000  C
  H2330    1.0000 0.22960  0.88229  0.64370  Biso   1.000  H
  C2189    1.0000 0.16951  0.78403  0.65578  Biso   1.000  C
  N334     1.0000 0.09705  0.85079  0.64532  Biso   1.000  N
  N335     1.0000 0.09693  0.85079  0.64532  Biso   1.000  N
  H2331    1.0000 0.70132  0.59464  0.58390  Biso   1.000  H
  C2190    1.0000 0.66009  0.58643  0.56769  Biso   1.000  C
  N336     1.0000 0.74253  0.72171  0.57888  Biso   1.000  N
  N337     1.0000 0.74259  0.72171  0.57888  Biso   1.000  N
  C2191    1.0000 0.73105  0.49369  0.56319  Biso   1.000  C
  H2332    1.0000 0.85758  0.54403  0.57010  Biso   1.000  H
  H2333    1.0000 0.77862  0.50304  0.57900  Biso   1.000  H
  H2334    1.0000 0.77868  0.50304  0.57900  Biso   1.000  H
  H2335    1.0000 0.83801  0.38477  0.57190  Biso   1.000  H
  H2336    1.0000 0.86161  0.39607  0.55910  Biso   1.000  H
  C2192    1.0000 0.76258  0.26887  0.56319  Biso   1.000  C
  H2337    1.0000 0.83795  0.38477  0.57190  Biso   1.000  H
  H2338    1.0000 0.86156  0.39607  0.55910  Biso   1.000  H
  C2193    1.0000 0.78753  0.04671  0.58100  Biso   1.000  C
  C2194    1.0000 0.78747  0.04671  0.58100  Biso   1.000  C
  H2339    1.0000 0.68641  0.14241  0.57010  Biso   1.000  H
  H2340    1.0000 0.72440  0.22142  0.57900  Biso   1.000  H
  H2341    1.0000 0.68635  0.14241  0.57010  Biso   1.000  H
  H2342    1.0000 0.36969  0.52058  0.64690  Biso   1.000  H
  H2343    1.0000 0.33807  0.59360  0.64570  Biso   1.000  H
  C2195    1.0000 0.25406  0.48680  0.65558  Biso   1.000  C
  H2344    1.0000 0.33813  0.59360  0.64570  Biso   1.000  H
  C2196    1.0000 0.25412  0.48680  0.65558  Biso   1.000  C
  H2345    1.0000 0.26498  0.37258  0.65740  Biso   1.000  H
  H2346    1.0000 0.17062  0.35872  0.66170  Biso   1.000  H
  H2347    1.0000 0.17056  0.35872  0.66170  Biso   1.000  H
  H2348    1.0000 0.26504  0.37258  0.65740  Biso   1.000  H
  C2197    1.0000 0.06518  0.18993  0.64639  Biso   1.000  C
  C2198    1.0000 0.06524  0.18993  0.64639  Biso   1.000  C
  H2349    1.0000 0.25555  0.66187  0.64570  Biso   1.000  H
  H2350    1.0000 0.15094  0.63031  0.64690  Biso   1.000  H
  C2199    1.0000 0.23276  0.74593  0.65558  Biso   1.000  C
  H2351    1.0000 0.25558  0.66194  0.64570  Biso   1.000  H
  H2352    1.0000 0.25549  0.66187  0.64570  Biso   1.000  H
  H2353    1.0000 0.25552  0.66194  0.64570  Biso   1.000  H
  C2200    1.0000 0.23265  0.74593  0.65558  Biso   1.000  C
  H2354    1.0000 0.18811  0.82939  0.66170  Biso   1.000  H
  H2355    1.0000 0.10765  0.73503  0.65740  Biso   1.000  H
  C2201    1.0000 0.12476  0.93478  0.64639  Biso   1.000  C
  C2202    1.0000 0.12470  0.93478  0.64639  Biso   1.000  C
  H2356    1.0000 0.68356  0.62358  0.56100  Biso   1.000  H
  H2357    1.0000 0.60222  0.58259  0.56960  Biso   1.000  H
  C2203    1.0000 0.64467  0.49194  0.56547  Biso   1.000  C
  H2358    1.0000 0.60228  0.58259  0.56960  Biso   1.000  H
  C2204    1.0000 0.64479  0.49194  0.56547  Biso   1.000  C
  C2205    1.0000 0.72787  0.73692  0.58856  Biso   1.000  C
  H2359    1.0000 0.75631  0.52579  0.55620  Biso   1.000  H
  H2360    1.0000 0.71894  0.43123  0.56230  Biso   1.000  H
  H2361    1.0000 0.75637  0.52579  0.55620  Biso   1.000  H
  H2362    1.0000 0.76939  0.24357  0.55620  Biso   1.000  H
  H2363    1.0000 0.71234  0.28112  0.56230  Biso   1.000  H
  H2364    1.0000 0.71228  0.28112  0.56230  Biso   1.000  H
  H2365    1.0000 0.76933  0.24357  0.55620  Biso   1.000  H
  C2206    1.0000 0.76159  0.97140  0.58865  Biso   1.000  C
  H2366    1.0000 0.79902  0.03809  0.57360  Biso   1.000  H
  H2367    1.0000 0.79896  0.03809  0.57360  Biso   1.000  H
  H2368    1.0000 0.20421  0.49992  0.65510  Biso   1.000  H
  H2369    1.0000 0.28730  0.51351  0.66250  Biso   1.000  H
  H2370    1.0000 0.02361  0.21099  0.64690  Biso   1.000  H
  C2207    1.0000 0.03216  0.09079  0.64686  Biso   1.000  C
  C2208    1.0000 0.03222  0.09079  0.64686  Biso   1.000  C
  H2371    1.0000 0.02355  0.21099  0.64690  Biso   1.000  H
  H2372    1.0000 0.29570  0.79581  0.65510  Biso   1.000  H
  H2373    1.0000 0.22622  0.71269  0.66250  Biso   1.000  H
  H2374    1.0000 0.29564  0.79581  0.65510  Biso   1.000  H
  C2209    1.0000 0.05864  0.96783  0.64686  Biso   1.000  C
  H2375    1.0000 0.18741  0.97638  0.64690  Biso   1.000  H
  H2376    1.0000 0.18735  0.97638  0.64690  Biso   1.000  H
  H2377    1.0000 0.61524  0.45324  0.57190  Biso   1.000  H
  H2378    1.0000 0.60382  0.46549  0.55910  Biso   1.000  H
  H2379    1.0000 0.60388  0.46549  0.55910  Biso   1.000  H
  C2210    1.0000 0.73103  0.82192  0.59235  Biso   1.000  C
  H2380    1.0000 0.71365  0.69122  0.59390  Biso   1.000  H
  H2381    1.0000 0.71371  0.69122  0.59390  Biso   1.000  H
  C2211    1.0000 0.73216  0.97618  0.59945  Biso   1.000  C
  C2212    1.0000 0.75880  0.89400  0.58547  Biso   1.000  C
  C2213    1.0000 0.75885  0.89400  0.58547  Biso   1.000  C
  C2214    1.0000 0.09386  0.05822  0.64676  Biso   1.000  C
  C2215    1.0000 0.09392  0.05822  0.64676  Biso   1.000  C
  C2216    1.0000 0.94177  0.03567  0.64676  Biso   1.000  C
  C2217    1.0000 0.96431  0.90611  0.64676  Biso   1.000  C
  C2218    1.0000 0.96436  0.90611  0.64676  Biso   1.000  C
  C2219    1.0000 0.70766  0.82670  0.60293  Biso   1.000  C
  C2220    1.0000 0.70682  0.90288  0.60692  Biso   1.000  C
  C2221    1.0000 0.70688  0.90288  0.60692  Biso   1.000  C
  H2382    1.0000 0.72941  0.02780  0.60170  Biso   1.000  H
  H2383    1.0000 0.72935  0.02780  0.60170  Biso   1.000  H
  H2384    1.0000 0.77669  0.89003  0.57820  Biso   1.000  H
  H2385    1.0000 0.15707  0.09813  0.64660  Biso   1.000  H
  H2386    1.0000 0.15712  0.09813  0.64660  Biso   1.000  H
  C2222    1.0000 0.90914  0.94138  0.64686  Biso   1.000  C
  C2223    1.0000 0.90926  0.94138  0.64686  Biso   1.000  C
  H2387    1.0000 0.90193  0.05902  0.64660  Biso   1.000  H
  H2388    1.0000 0.90187  0.05902  0.64660  Biso   1.000  H
  H2389    1.0000 0.94098  0.84292  0.64660  Biso   1.000  H
  H2390    1.0000 0.94104  0.84292  0.64660  Biso   1.000  H
  H2391    1.0000 0.69154  0.77710  0.60770  Biso   1.000  H
  H2392    1.0000 0.69166  0.77710  0.60770  Biso   1.000  H
  C2224    1.0000 0.67717  0.90840  0.61794  Biso   1.000  C
  C2225    1.0000 0.81012  0.87529  0.64639  Biso   1.000  C
  N338     1.0000 0.65161  0.84272  0.62487  Biso   1.000  N
  H2393    1.0000 0.67648  0.96123  0.62010  Biso   1.000  H
  N339     1.0000 0.75375  0.90302  0.64532  Biso   1.000  N
  H2394    1.0000 0.78899  0.81263  0.64690  Biso   1.000  H
  N340     1.0000 0.75381  0.90302  0.64532  Biso   1.000  N
  C2226    1.0000 0.61342  0.85247  0.63533  Biso   1.000  C
  C2227    1.0000 0.61354  0.85247  0.63533  Biso   1.000  C
  C2228    1.0000 0.65715  0.83013  0.64492  Biso   1.000  C
  C2229    1.0000 0.65727  0.83013  0.64492  Biso   1.000  C
  C2230    1.0000 0.51393  0.78463  0.63533  Biso   1.000  C
  H2395    1.0000 0.62376  0.91500  0.63610  Biso   1.000  H
  H2396    1.0000 0.62387  0.91500  0.63610  Biso   1.000  H
  C2231    1.0000 0.61451  0.83053  0.65578  Biso   1.000  C
  H2397    1.0000 0.65266  0.77043  0.64370  Biso   1.000  H
  H2398    1.0000 0.65272  0.77043  0.64370  Biso   1.000  H
  H2399    1.0000 0.48454  0.79742  0.62920  Biso   1.000  H
  H2400    1.0000 0.50487  0.72339  0.63430  Biso   1.000  H
  C2232    1.0000 0.47172  0.78834  0.64592  Biso   1.000  C
  C2233    1.0000 0.47177  0.78834  0.64592  Biso   1.000  C
  C2234    1.0000 0.51321  0.76734  0.65558  Biso   1.000  C
  H2401    1.0000 0.62731  0.89238  0.65740  Biso   1.000  H
  H2402    1.0000 0.64133  0.81189  0.66170  Biso   1.000  H
  H2403    1.0000 0.62737  0.89238  0.65740  Biso   1.000  H
  H2404    1.0000 0.40645  0.74452  0.64570  Biso   1.000  H
  H2405    1.0000 0.47937  0.84911  0.64690  Biso   1.000  H
  H2406    1.0000 0.48648  0.77380  0.66250  Biso   1.000  H
  H2407    1.0000 0.50009  0.70427  0.65510  Biso   1.000  H
  H2408    1.0000 0.50013  0.70434  0.65510  Biso   1.000  H
  C2235    1.0000 0.50623  0.23737  0.56319  Biso   1.000  C
  C2236    1.0000 0.46050  0.26039  0.57227  Biso   1.000  C
  C2237    1.0000 0.50811  0.15278  0.56547  Biso   1.000  C
  H2409    1.0000 0.47421  0.23058  0.55620  Biso   1.000  H
  H2410    1.0000 0.56882  0.28772  0.56230  Biso   1.000  H
  C2238    1.0000 0.50805  0.15278  0.56547  Biso   1.000  C
  H2411    1.0000 0.47415  0.23058  0.55620  Biso   1.000  H
  H2412    1.0000 0.56876  0.28772  0.56230  Biso   1.000  H
  C2239    1.0000 0.46044  0.26039  0.57227  Biso   1.000  C
  C2240    1.0000 0.50628  0.23737  0.56319  Biso   1.000  C
  H2413    1.0000 0.45596  0.31356  0.57010  Biso   1.000  H
  H2414    1.0000 0.49701  0.27560  0.57900  Biso   1.000  H
  C2241    1.0000 0.36652  0.18131  0.57450  Biso   1.000  C
  H2415    1.0000 0.45599  0.31363  0.57010  Biso   1.000  H
  H2416    1.0000 0.49695  0.27560  0.57900  Biso   1.000  H
  C2242    1.0000 0.36646  0.18131  0.57450  Biso   1.000  C
  H2417    1.0000 0.45605  0.31363  0.57010  Biso   1.000  H
  H2418    1.0000 0.53448  0.13837  0.55910  Biso   1.000  H
  C2243    1.0000 0.41360  0.07370  0.56769  Biso   1.000  C
  H2419    1.0000 0.54681  0.16200  0.57190  Biso   1.000  H
  C2244    1.0000 0.41355  0.07370  0.56769  Biso   1.000  C
  H2420    1.0000 0.54676  0.16200  0.57190  Biso   1.000  H
  H2421    1.0000 0.32889  0.17027  0.56780  Biso   1.000  H
  N341     1.0000 0.32640  0.20446  0.58347  Biso   1.000  N
  C2245    1.0000 0.36921  0.09658  0.57709  Biso   1.000  C
  N342     1.0000 0.32637  0.20453  0.58347  Biso   1.000  N
  C2246    1.0000 0.36915  0.09658  0.57709  Biso   1.000  C
  N343     1.0000 0.32634  0.20446  0.58347  Biso   1.000  N
  N344     1.0000 0.32643  0.20453  0.58347  Biso   1.000  N
  H2422    1.0000 0.41739  0.01972  0.56960  Biso   1.000  H
  H2423    1.0000 0.37637  0.05997  0.56100  Biso   1.000  H
  H2424    1.0000 0.37641  0.06003  0.56100  Biso   1.000  H
  C2247    1.0000 0.25918  0.21247  0.58100  Biso   1.000  C
  N345     1.0000 0.27829  0.02093  0.57888  Biso   1.000  N
  H2425    1.0000 0.40538  0.10667  0.58390  Biso   1.000  H
  N346     1.0000 0.27834  0.02093  0.57888  Biso   1.000  N
  C2248    1.0000 0.20977  0.23838  0.58865  Biso   1.000  C
  H2426    1.0000 0.23908  0.20096  0.57360  Biso   1.000  H
  H2427    1.0000 0.23912  0.20103  0.57360  Biso   1.000  H
  C2249    1.0000 0.20983  0.23838  0.58865  Biso   1.000  C
  C2250    1.0000 0.26308  0.99098  0.58856  Biso   1.000  C
  C2251    1.0000 0.26302  0.99098  0.58856  Biso   1.000  C
  C2252    1.0000 0.13518  0.24121  0.58547  Biso   1.000  C
  C2253    1.0000 0.24400  0.26779  0.59945  Biso   1.000  C
  C2254    1.0000 0.13523  0.24121  0.58547  Biso   1.000  C
  H2428    1.0000 0.30879  0.02248  0.59390  Biso   1.000  H
  C2255    1.0000 0.17812  0.90907  0.59235  Biso   1.000  C
  H2429    1.0000 0.11329  0.22331  0.57820  Biso   1.000  H
  C2256    1.0000 0.09091  0.26901  0.59235  Biso   1.000  C
  H2430    1.0000 0.11334  0.22331  0.57820  Biso   1.000  H
  H2431    1.0000 0.29839  0.27062  0.60170  Biso   1.000  H
  C2257    1.0000 0.19598  0.29310  0.60692  Biso   1.000  C
  H2432    1.0000 0.29845  0.27062  0.60170  Biso   1.000  H
  C2258    1.0000 0.19603  0.29310  0.60692  Biso   1.000  C
  C2259    1.0000 0.17330  0.88101  0.60293  Biso   1.000  C
  C2260    1.0000 0.10597  0.86479  0.58547  Biso   1.000  C
  C2261    1.0000 0.11899  0.29229  0.60293  Biso   1.000  C
  C2262    1.0000 0.00899  0.27210  0.58856  Biso   1.000  C
  C2263    1.0000 0.00905  0.27210  0.58856  Biso   1.000  C
  C2264    1.0000 0.23122  0.32278  0.61794  Biso   1.000  C
  C2265    1.0000 0.23116  0.32278  0.61794  Biso   1.000  C
  H2433    1.0000 0.22299  0.91453  0.60770  Biso   1.000  H
  C2266    1.0000 0.09715  0.80402  0.60692  Biso   1.000  C
  H2434    1.0000 0.22293  0.91453  0.60770  Biso   1.000  H
  H2435    1.0000 0.11006  0.88673  0.57820  Biso   1.000  H
  C2267    1.0000 0.02864  0.79022  0.58865  Biso   1.000  C
  H2436    1.0000 0.10994  0.88673  0.57820  Biso   1.000  H
  H2437    1.0000 0.08547  0.30838  0.60770  Biso   1.000  H
  H2438    1.0000 0.08553  0.30838  0.60770  Biso   1.000  H
  N347     1.0000 0.97906  0.25736  0.57888  Biso   1.000  N
  H2439    1.0000 0.97750  0.28630  0.59390  Biso   1.000  H
  N348     1.0000 0.97910  0.25743  0.57888  Biso   1.000  N
  H2440    1.0000 0.97745  0.28630  0.59390  Biso   1.000  H
  N349     1.0000 0.19111  0.34842  0.62487  Biso   1.000  N
  H2441    1.0000 0.28468  0.32352  0.62010  Biso   1.000  H
  H2442    1.0000 0.28474  0.32352  0.62010  Biso   1.000  H
  C2268    1.0000 0.02384  0.75603  0.59945  Biso   1.000  C
  C2269    1.0000 0.09161  0.76882  0.61794  Biso   1.000  C
  C2270    1.0000 0.09155  0.76882  0.61794  Biso   1.000  C
  C2271    1.0000 0.95323  0.74082  0.58100  Biso   1.000  C
  C2272    1.0000 0.95335  0.74082  0.58100  Biso   1.000  C
  C2273    1.0000 0.90338  0.27257  0.57709  Biso   1.000  C
  C2274    1.0000 0.23901  0.38652  0.63533  Biso   1.000  C
  H2443    1.0000 0.97220  0.70158  0.60170  Biso   1.000  H
  N350     1.0000 0.15731  0.80893  0.62487  Biso   1.000  N
  H2444    1.0000 0.03881  0.71531  0.62010  Biso   1.000  H
  H2445    1.0000 0.03875  0.71531  0.62010  Biso   1.000  H
  H2446    1.0000 0.96186  0.76088  0.57360  Biso   1.000  H
  N351     1.0000 0.87812  0.67359  0.58347  Biso   1.000  N
  H2447    1.0000 0.89330  0.29869  0.58390  Biso   1.000  H
  C2275    1.0000 0.92631  0.33988  0.56769  Biso   1.000  C
  C2276    1.0000 0.81873  0.18522  0.57450  Biso   1.000  C
  C2277    1.0000 0.92625  0.33988  0.56769  Biso   1.000  C
  C2278    1.0000 0.81867  0.18522  0.57450  Biso   1.000  C
  H2448    1.0000 0.89324  0.29869  0.58390  Biso   1.000  H
  H2449    1.0000 0.29122  0.37622  0.63610  Biso   1.000  H
  C2279    1.0000 0.27065  0.48606  0.63533  Biso   1.000  C
  C2280    1.0000 0.17290  0.34277  0.64492  Biso   1.000  C
  C2281    1.0000 0.27069  0.48612  0.63533  Biso   1.000  C
  C2282    1.0000 0.17284  0.34277  0.64492  Biso   1.000  C
  H2450    1.0000 0.29116  0.37622  0.63610  Biso   1.000  H
  C2283    1.0000 0.27075  0.48612  0.63533  Biso   1.000  C
  C2284    1.0000 0.14757  0.76101  0.63533  Biso   1.000  C
  C2285    1.0000 0.14745  0.76101  0.63533  Biso   1.000  C
  C2286    1.0000 0.81479  0.63354  0.57450  Biso   1.000  C
  H2451    1.0000 0.93997  0.31639  0.56100  Biso   1.000  H
  H2452    1.0000 0.98027  0.39769  0.56960  Biso   1.000  H
  C2287    1.0000 0.84722  0.35529  0.56547  Biso   1.000  C
  C2288    1.0000 0.84717  0.35529  0.56547  Biso   1.000  C
  N352     1.0000 0.79551  0.12188  0.58347  Biso   1.000  N
  C2289    1.0000 0.73961  0.20009  0.57227  Biso   1.000  C
  H2453    1.0000 0.82970  0.15856  0.56780  Biso   1.000  H
  N353     1.0000 0.79545  0.12188  0.58347  Biso   1.000  N
  H2454    1.0000 0.82968  0.15863  0.56780  Biso   1.000  H
  H2455    1.0000 0.82965  0.15856  0.56780  Biso   1.000  H
  C2290    1.0000 0.73955  0.20009  0.57227  Biso   1.000  C
  H2456    1.0000 0.31287  0.51547  0.62920  Biso   1.000  H
  C2291    1.0000 0.31662  0.52832  0.64592  Biso   1.000  C
  H2457    1.0000 0.21851  0.49507  0.63430  Biso   1.000  H
  H2458    1.0000 0.21845  0.49507  0.63430  Biso   1.000  H
  C2292    1.0000 0.31656  0.52832  0.64592  Biso   1.000  C
  H2459    1.0000 0.11769  0.34728  0.64370  Biso   1.000  H
  C2293    1.0000 0.21601  0.38551  0.65578  Biso   1.000  C
  N354     1.0000 0.14921  0.24619  0.64532  Biso   1.000  N
  N355     1.0000 0.14915  0.24619  0.64532  Biso   1.000  N
  C2294    1.0000 0.21595  0.38551  0.65578  Biso   1.000  C
  H2460    1.0000 0.08503  0.70878  0.63610  Biso   1.000  H
  C2295    1.0000 0.21547  0.72931  0.63533  Biso   1.000  C
  C2296    1.0000 0.16995  0.82710  0.64492  Biso   1.000  C
  C2297    1.0000 0.21542  0.72931  0.63533  Biso   1.000  C
  C2298    1.0000 0.16983  0.82710  0.64492  Biso   1.000  C
  C2299    1.0000 0.72738  0.63078  0.57709  Biso   1.000  C
  C2300    1.0000 0.79984  0.53952  0.57227  Biso   1.000  C
  H2461    1.0000 0.84138  0.67110  0.56780  Biso   1.000  H
  C2301    1.0000 0.79989  0.53952  0.57227  Biso   1.000  C
  H2462    1.0000 0.84143  0.67110  0.56780  Biso   1.000  H
  H2463    1.0000 0.83801  0.38477  0.57190  Biso   1.000  H
  H2464    1.0000 0.86161  0.39607  0.55910  Biso   1.000  H
  C2302    1.0000 0.76258  0.26887  0.56319  Biso   1.000  C
  H2465    1.0000 0.83795  0.38477  0.57190  Biso   1.000  H
  H2466    1.0000 0.86156  0.39607  0.55910  Biso   1.000  H
  C2303    1.0000 0.78753  0.04671  0.58100  Biso   1.000  C
  C2304    1.0000 0.78747  0.04671  0.58100  Biso   1.000  C
  H2467    1.0000 0.68641  0.14241  0.57010  Biso   1.000  H
  H2468    1.0000 0.72440  0.22142  0.57900  Biso   1.000  H
  H2469    1.0000 0.68635  0.14241  0.57010  Biso   1.000  H
  H2470    1.0000 0.36969  0.52058  0.64690  Biso   1.000  H
  H2471    1.0000 0.33813  0.59360  0.64570  Biso   1.000  H
  C2305    1.0000 0.25412  0.48680  0.65558  Biso   1.000  C
  H2472    1.0000 0.33807  0.59360  0.64570  Biso   1.000  H
  C2306    1.0000 0.25406  0.48680  0.65558  Biso   1.000  C
  H2473    1.0000 0.26498  0.37258  0.65740  Biso   1.000  H
  H2474    1.0000 0.17062  0.35872  0.66170  Biso   1.000  H
  H2475    1.0000 0.17056  0.35872  0.66170  Biso   1.000  H
  H2476    1.0000 0.26504  0.37258  0.65740  Biso   1.000  H
  C2307    1.0000 0.06524  0.18993  0.64639  Biso   1.000  C
  C2308    1.0000 0.06518  0.18993  0.64639  Biso   1.000  C
  H2477    1.0000 0.20259  0.68711  0.62920  Biso   1.000  H
  H2478    1.0000 0.27662  0.78154  0.63430  Biso   1.000  H
  C2309    1.0000 0.21170  0.68341  0.64592  Biso   1.000  C
  C2310    1.0000 0.16951  0.78403  0.65578  Biso   1.000  C
  H2479    1.0000 0.22960  0.88229  0.64370  Biso   1.000  H
  N356     1.0000 0.09705  0.85079  0.64532  Biso   1.000  N
  N357     1.0000 0.09693  0.85079  0.64532  Biso   1.000  N
  H2480    1.0000 0.70132  0.59464  0.58390  Biso   1.000  H
  C2311    1.0000 0.66009  0.58643  0.56769  Biso   1.000  C
  N358     1.0000 0.74253  0.72171  0.57888  Biso   1.000  N
  N359     1.0000 0.74259  0.72171  0.57888  Biso   1.000  N
  C2312    1.0000 0.73105  0.49369  0.56319  Biso   1.000  C
  H2481    1.0000 0.85758  0.54403  0.57010  Biso   1.000  H
  H2482    1.0000 0.77862  0.50304  0.57900  Biso   1.000  H
  H2483    1.0000 0.77868  0.50304  0.57900  Biso   1.000  H
  H2484    1.0000 0.76939  0.24357  0.55620  Biso   1.000  H
  H2485    1.0000 0.71234  0.28112  0.56230  Biso   1.000  H
  H2486    1.0000 0.71228  0.28112  0.56230  Biso   1.000  H
  H2487    1.0000 0.76933  0.24357  0.55620  Biso   1.000  H
  C2313    1.0000 0.76159  0.97140  0.58865  Biso   1.000  C
  H2488    1.0000 0.79902  0.03809  0.57360  Biso   1.000  H
  H2489    1.0000 0.79896  0.03809  0.57360  Biso   1.000  H
  H2490    1.0000 0.20421  0.49992  0.65510  Biso   1.000  H
  H2491    1.0000 0.28730  0.51351  0.66250  Biso   1.000  H
  H2492    1.0000 0.02361  0.21099  0.64690  Biso   1.000  H
  C2314    1.0000 0.03222  0.09079  0.64686  Biso   1.000  C
  C2315    1.0000 0.03216  0.09079  0.64686  Biso   1.000  C
  H2493    1.0000 0.02355  0.21099  0.64690  Biso   1.000  H
  H2494    1.0000 0.25555  0.66187  0.64570  Biso   1.000  H
  H2495    1.0000 0.15094  0.63031  0.64690  Biso   1.000  H
  C2316    1.0000 0.23276  0.74593  0.65558  Biso   1.000  C
  H2496    1.0000 0.25558  0.66194  0.64570  Biso   1.000  H
  H2497    1.0000 0.25549  0.66187  0.64570  Biso   1.000  H
  H2498    1.0000 0.25552  0.66194  0.64570  Biso   1.000  H
  C2317    1.0000 0.23265  0.74593  0.65558  Biso   1.000  C
  H2499    1.0000 0.18811  0.82939  0.66170  Biso   1.000  H
  H2500    1.0000 0.10765  0.73503  0.65740  Biso   1.000  H
  C2318    1.0000 0.12476  0.93478  0.64639  Biso   1.000  C
  C2319    1.0000 0.12470  0.93478  0.64639  Biso   1.000  C
  H2501    1.0000 0.68356  0.62358  0.56100  Biso   1.000  H
  H2502    1.0000 0.60222  0.58259  0.56960  Biso   1.000  H
  C2320    1.0000 0.64467  0.49194  0.56547  Biso   1.000  C
  H2503    1.0000 0.60228  0.58259  0.56960  Biso   1.000  H
  C2321    1.0000 0.64479  0.49194  0.56547  Biso   1.000  C
  C2322    1.0000 0.72787  0.73692  0.58856  Biso   1.000  C
  H2504    1.0000 0.75631  0.52579  0.55620  Biso   1.000  H
  H2505    1.0000 0.71894  0.43123  0.56230  Biso   1.000  H
  H2506    1.0000 0.75637  0.52579  0.55620  Biso   1.000  H
  C2323    1.0000 0.73216  0.97618  0.59945  Biso   1.000  C
  C2324    1.0000 0.75880  0.89400  0.58547  Biso   1.000  C
  C2325    1.0000 0.75885  0.89400  0.58547  Biso   1.000  C
  C2326    1.0000 0.94177  0.03567  0.64676  Biso   1.000  C
  C2327    1.0000 0.09392  0.05822  0.64676  Biso   1.000  C
  C2328    1.0000 0.09386  0.05822  0.64676  Biso   1.000  C
  H2507    1.0000 0.29570  0.79581  0.65510  Biso   1.000  H
  H2508    1.0000 0.22622  0.71269  0.66250  Biso   1.000  H
  H2509    1.0000 0.29564  0.79581  0.65510  Biso   1.000  H
  C2329    1.0000 0.05864  0.96783  0.64686  Biso   1.000  C
  H2510    1.0000 0.18741  0.97638  0.64690  Biso   1.000  H
  H2511    1.0000 0.18735  0.97638  0.64690  Biso   1.000  H
  H2512    1.0000 0.61524  0.45324  0.57190  Biso   1.000  H
  H2513    1.0000 0.60382  0.46549  0.55910  Biso   1.000  H
  H2514    1.0000 0.60388  0.46549  0.55910  Biso   1.000  H
  C2330    1.0000 0.73103  0.82192  0.59235  Biso   1.000  C
  H2515    1.0000 0.71365  0.69122  0.59390  Biso   1.000  H
  H2516    1.0000 0.71371  0.69122  0.59390  Biso   1.000  H
  C2331    1.0000 0.70682  0.90288  0.60692  Biso   1.000  C
  C2332    1.0000 0.70688  0.90288  0.60692  Biso   1.000  C
  H2517    1.0000 0.72941  0.02780  0.60170  Biso   1.000  H
  H2518    1.0000 0.72935  0.02780  0.60170  Biso   1.000  H
  H2519    1.0000 0.77669  0.89003  0.57820  Biso   1.000  H
  C2333    1.0000 0.90914  0.94138  0.64686  Biso   1.000  C
  C2334    1.0000 0.90926  0.94138  0.64686  Biso   1.000  C
  H2520    1.0000 0.90193  0.05902  0.64660  Biso   1.000  H
  H2521    1.0000 0.90187  0.05902  0.64660  Biso   1.000  H
  H2522    1.0000 0.15712  0.09813  0.64660  Biso   1.000  H
  H2523    1.0000 0.15707  0.09813  0.64660  Biso   1.000  H
  C2335    1.0000 0.96431  0.90611  0.64676  Biso   1.000  C
  C2336    1.0000 0.96436  0.90611  0.64676  Biso   1.000  C
  C2337    1.0000 0.70766  0.82670  0.60293  Biso   1.000  C
  C2338    1.0000 0.67717  0.90840  0.61794  Biso   1.000  C
  C2339    1.0000 0.81012  0.87529  0.64639  Biso   1.000  C
  H2524    1.0000 0.94098  0.84292  0.64660  Biso   1.000  H
  H2525    1.0000 0.94104  0.84292  0.64660  Biso   1.000  H
  H2526    1.0000 0.69154  0.77710  0.60770  Biso   1.000  H
  H2527    1.0000 0.69166  0.77710  0.60770  Biso   1.000  H
  N360     1.0000 0.65161  0.84272  0.62487  Biso   1.000  N
  H2528    1.0000 0.67648  0.96123  0.62010  Biso   1.000  H
  N361     1.0000 0.75375  0.90302  0.64532  Biso   1.000  N
  H2529    1.0000 0.78899  0.81263  0.64690  Biso   1.000  H
  N362     1.0000 0.75381  0.90302  0.64532  Biso   1.000  N
  C2340    1.0000 0.61342  0.85247  0.63533  Biso   1.000  C
  C2341    1.0000 0.61354  0.85247  0.63533  Biso   1.000  C
  C2342    1.0000 0.65715  0.83013  0.64492  Biso   1.000  C
  C2343    1.0000 0.65727  0.83013  0.64492  Biso   1.000  C
  C2344    1.0000 0.51393  0.78463  0.63533  Biso   1.000  C
  H2530    1.0000 0.62376  0.91500  0.63610  Biso   1.000  H
  H2531    1.0000 0.62387  0.91500  0.63610  Biso   1.000  H
  C2345    1.0000 0.61451  0.83053  0.65578  Biso   1.000  C
  H2532    1.0000 0.65266  0.77043  0.64370  Biso   1.000  H
  H2533    1.0000 0.65272  0.77043  0.64370  Biso   1.000  H
  H2534    1.0000 0.48454  0.79742  0.62920  Biso   1.000  H
  H2535    1.0000 0.50487  0.72339  0.63430  Biso   1.000  H
  C2346    1.0000 0.47172  0.78834  0.64592  Biso   1.000  C
  C2347    1.0000 0.47177  0.78834  0.64592  Biso   1.000  C
  C2348    1.0000 0.51321  0.76734  0.65558  Biso   1.000  C
  H2536    1.0000 0.62731  0.89238  0.65740  Biso   1.000  H
  H2537    1.0000 0.64133  0.81189  0.66170  Biso   1.000  H
  H2538    1.0000 0.62737  0.89238  0.65740  Biso   1.000  H
  H2539    1.0000 0.40645  0.74452  0.64570  Biso   1.000  H
  H2540    1.0000 0.47937  0.84911  0.64690  Biso   1.000  H
  H2541    1.0000 0.50009  0.70427  0.65510  Biso   1.000  H
  H2542    1.0000 0.48648  0.77380  0.66250  Biso   1.000  H
  H2543    1.0000 0.50013  0.70434  0.65510  Biso   1.000  H
  C2349    1.0000 0.50623  0.23737  0.56319  Biso   1.000  C
  C2350    1.0000 0.46050  0.26039  0.57227  Biso   1.000  C
  C2351    1.0000 0.46044  0.26039  0.57227  Biso   1.000  C
  C2352    1.0000 0.50811  0.15278  0.56547  Biso   1.000  C
  C2353    1.0000 0.50805  0.15278  0.56547  Biso   1.000  C
  H2544    1.0000 0.47421  0.23058  0.55620  Biso   1.000  H
  H2545    1.0000 0.56882  0.28772  0.56230  Biso   1.000  H
  H2546    1.0000 0.47415  0.23058  0.55620  Biso   1.000  H
  H2547    1.0000 0.56876  0.28772  0.56230  Biso   1.000  H
  C2354    1.0000 0.36652  0.18131  0.57450  Biso   1.000  C
  C2355    1.0000 0.36646  0.18131  0.57450  Biso   1.000  C
  C2356    1.0000 0.50628  0.23737  0.56319  Biso   1.000  C
  H2548    1.0000 0.45596  0.31356  0.57010  Biso   1.000  H
  H2549    1.0000 0.49701  0.27560  0.57900  Biso   1.000  H
  H2550    1.0000 0.45599  0.31363  0.57010  Biso   1.000  H
  H2551    1.0000 0.49695  0.27560  0.57900  Biso   1.000  H
  H2552    1.0000 0.45605  0.31363  0.57010  Biso   1.000  H
  C2357    1.0000 0.41360  0.07370  0.56769  Biso   1.000  C
  C2358    1.0000 0.41355  0.07370  0.56769  Biso   1.000  C
  H2553    1.0000 0.53448  0.13837  0.55910  Biso   1.000  H
  H2554    1.0000 0.54681  0.16200  0.57190  Biso   1.000  H
  H2555    1.0000 0.54676  0.16200  0.57190  Biso   1.000  H
  N363     1.0000 0.32640  0.20446  0.58347  Biso   1.000  N
  N364     1.0000 0.32637  0.20453  0.58347  Biso   1.000  N
  N365     1.0000 0.32634  0.20446  0.58347  Biso   1.000  N
  N366     1.0000 0.32643  0.20453  0.58347  Biso   1.000  N
  H2556    1.0000 0.32889  0.17027  0.56780  Biso   1.000  H
  C2359    1.0000 0.36921  0.09658  0.57709  Biso   1.000  C
  C2360    1.0000 0.36915  0.09658  0.57709  Biso   1.000  C
  H2557    1.0000 0.41739  0.01972  0.56960  Biso   1.000  H
  H2558    1.0000 0.37637  0.05997  0.56100  Biso   1.000  H
  H2559    1.0000 0.37641  0.06003  0.56100  Biso   1.000  H
  C2361    1.0000 0.25918  0.21247  0.58100  Biso   1.000  C
  H2560    1.0000 0.40538  0.10667  0.58390  Biso   1.000  H
  N367     1.0000 0.27829  0.02093  0.57888  Biso   1.000  N
  N368     1.0000 0.27834  0.02093  0.57888  Biso   1.000  N
  H2561    1.0000 0.23908  0.20096  0.57360  Biso   1.000  H
  C2362    1.0000 0.20977  0.23838  0.58865  Biso   1.000  C
  H2562    1.0000 0.23912  0.20103  0.57360  Biso   1.000  H
  C2363    1.0000 0.20983  0.23838  0.58865  Biso   1.000  C
  C2364    1.0000 0.26308  0.99098  0.58856  Biso   1.000  C
  C2365    1.0000 0.26302  0.99098  0.58856  Biso   1.000  C
  C2366    1.0000 0.24400  0.26779  0.59945  Biso   1.000  C
  C2367    1.0000 0.13518  0.24121  0.58547  Biso   1.000  C
  C2368    1.0000 0.13523  0.24121  0.58547  Biso   1.000  C
  H2563    1.0000 0.30879  0.02248  0.59390  Biso   1.000  H
  C2369    1.0000 0.17812  0.90907  0.59235  Biso   1.000  C
  H2564    1.0000 0.29839  0.27062  0.60170  Biso   1.000  H
  C2370    1.0000 0.19598  0.29310  0.60692  Biso   1.000  C
  H2565    1.0000 0.29845  0.27062  0.60170  Biso   1.000  H
  C2371    1.0000 0.19603  0.29310  0.60692  Biso   1.000  C
  C2372    1.0000 0.09091  0.26901  0.59235  Biso   1.000  C
  H2566    1.0000 0.11329  0.22331  0.57820  Biso   1.000  H
  H2567    1.0000 0.11334  0.22331  0.57820  Biso   1.000  H
  C2373    1.0000 0.17330  0.88101  0.60293  Biso   1.000  C
  C2374    1.0000 0.10597  0.86479  0.58547  Biso   1.000  C
  C2375    1.0000 0.11899  0.29229  0.60293  Biso   1.000  C
  C2376    1.0000 0.23122  0.32278  0.61794  Biso   1.000  C
  C2377    1.0000 0.23116  0.32278  0.61794  Biso   1.000  C
  C2378    1.0000 0.00899  0.27210  0.58856  Biso   1.000  C
  C2379    1.0000 0.00905  0.27210  0.58856  Biso   1.000  C
  H2568    1.0000 0.22299  0.91453  0.60770  Biso   1.000  H
  C2380    1.0000 0.09715  0.80402  0.60692  Biso   1.000  C
  H2569    1.0000 0.22293  0.91453  0.60770  Biso   1.000  H
  H2570    1.0000 0.11006  0.88673  0.57820  Biso   1.000  H
  C2381    1.0000 0.02864  0.79022  0.58865  Biso   1.000  C
  H2571    1.0000 0.10994  0.88673  0.57820  Biso   1.000  H
  H2572    1.0000 0.08547  0.30838  0.60770  Biso   1.000  H
  H2573    1.0000 0.08553  0.30838  0.60770  Biso   1.000  H
  N369     1.0000 0.19111  0.34842  0.62487  Biso   1.000  N
  H2574    1.0000 0.28468  0.32352  0.62010  Biso   1.000  H
  H2575    1.0000 0.28474  0.32352  0.62010  Biso   1.000  H
  N370     1.0000 0.97906  0.25736  0.57888  Biso   1.000  N
  H2576    1.0000 0.97750  0.28630  0.59390  Biso   1.000  H
  N371     1.0000 0.97910  0.25743  0.57888  Biso   1.000  N
  H2577    1.0000 0.97745  0.28630  0.59390  Biso   1.000  H
  C2382    1.0000 0.02384  0.75603  0.59945  Biso   1.000  C
  C2383    1.0000 0.09161  0.76882  0.61794  Biso   1.000  C
  C2384    1.0000 0.09155  0.76882  0.61794  Biso   1.000  C
  C2385    1.0000 0.95323  0.74082  0.58100  Biso   1.000  C
  C2386    1.0000 0.95335  0.74082  0.58100  Biso   1.000  C
  C2387    1.0000 0.23901  0.38652  0.63533  Biso   1.000  C
  C2388    1.0000 0.90338  0.27257  0.57709  Biso   1.000  C
  H2578    1.0000 0.97220  0.70158  0.60170  Biso   1.000  H
  N372     1.0000 0.15731  0.80893  0.62487  Biso   1.000  N
  H2579    1.0000 0.03881  0.71531  0.62010  Biso   1.000  H
  H2580    1.0000 0.03875  0.71531  0.62010  Biso   1.000  H
  H2581    1.0000 0.96186  0.76088  0.57360  Biso   1.000  H
  N373     1.0000 0.87812  0.67359  0.58347  Biso   1.000  N
  H2582    1.0000 0.29122  0.37622  0.63610  Biso   1.000  H
  C2389    1.0000 0.27065  0.48606  0.63533  Biso   1.000  C
  C2390    1.0000 0.17290  0.34277  0.64492  Biso   1.000  C
  C2391    1.0000 0.27069  0.48612  0.63533  Biso   1.000  C
  C2392    1.0000 0.17284  0.34277  0.64492  Biso   1.000  C
  H2583    1.0000 0.29116  0.37622  0.63610  Biso   1.000  H
  C2393    1.0000 0.27075  0.48612  0.63533  Biso   1.000  C
  H2584    1.0000 0.89330  0.29869  0.58390  Biso   1.000  H
  C2394    1.0000 0.92631  0.33988  0.56769  Biso   1.000  C
  C2395    1.0000 0.81873  0.18522  0.57450  Biso   1.000  C
  C2396    1.0000 0.92625  0.33988  0.56769  Biso   1.000  C
  C2397    1.0000 0.81867  0.18522  0.57450  Biso   1.000  C
  H2585    1.0000 0.89324  0.29869  0.58390  Biso   1.000  H
  C2398    1.0000 0.14757  0.76101  0.63533  Biso   1.000  C
  C2399    1.0000 0.14745  0.76101  0.63533  Biso   1.000  C
  C2400    1.0000 0.81479  0.63354  0.57450  Biso   1.000  C
  H2586    1.0000 0.31287  0.51547  0.62920  Biso   1.000  H
  H2587    1.0000 0.21851  0.49507  0.63430  Biso   1.000  H
  C2401    1.0000 0.31662  0.52832  0.64592  Biso   1.000  C
  H2588    1.0000 0.21845  0.49507  0.63430  Biso   1.000  H
  C2402    1.0000 0.31656  0.52832  0.64592  Biso   1.000  C
  H2589    1.0000 0.11769  0.34728  0.64370  Biso   1.000  H
  N374     1.0000 0.14921  0.24619  0.64532  Biso   1.000  N
  C2403    1.0000 0.21601  0.38551  0.65578  Biso   1.000  C
  N375     1.0000 0.14915  0.24619  0.64532  Biso   1.000  N
  C2404    1.0000 0.21595  0.38551  0.65578  Biso   1.000  C
  H2590    1.0000 0.93997  0.31639  0.56100  Biso   1.000  H
  H2591    1.0000 0.98027  0.39769  0.56960  Biso   1.000  H
  C2405    1.0000 0.84722  0.35529  0.56547  Biso   1.000  C
  C2406    1.0000 0.84717  0.35529  0.56547  Biso   1.000  C
  N376     1.0000 0.79551  0.12188  0.58347  Biso   1.000  N
  C2407    1.0000 0.73961  0.20009  0.57227  Biso   1.000  C
  H2592    1.0000 0.82970  0.15856  0.56780  Biso   1.000  H
  N377     1.0000 0.79545  0.12188  0.58347  Biso   1.000  N
  H2593    1.0000 0.82968  0.15863  0.56780  Biso   1.000  H
  H2594    1.0000 0.82965  0.15856  0.56780  Biso   1.000  H
  C2408    1.0000 0.73955  0.20009  0.57227  Biso   1.000  C
  H2595    1.0000 0.08503  0.70878  0.63610  Biso   1.000  H
  C2409    1.0000 0.21547  0.72931  0.63533  Biso   1.000  C
  C2410    1.0000 0.16995  0.82710  0.64492  Biso   1.000  C
  C2411    1.0000 0.21542  0.72931  0.63533  Biso   1.000  C
  C2412    1.0000 0.16983  0.82710  0.64492  Biso   1.000  C
  C2413    1.0000 0.72738  0.63078  0.57709  Biso   1.000  C
  C2414    1.0000 0.79984  0.53952  0.57227  Biso   1.000  C
  H2596    1.0000 0.84138  0.67110  0.56780  Biso   1.000  H
  C2415    1.0000 0.79989  0.53952  0.57227  Biso   1.000  C
  H2597    1.0000 0.84143  0.67110  0.56780  Biso   1.000  H
  H2598    1.0000 0.36969  0.52058  0.64690  Biso   1.000  H
  H2599    1.0000 0.33813  0.59360  0.64570  Biso   1.000  H
  C2416    1.0000 0.25412  0.48680  0.65558  Biso   1.000  C
  H2600    1.0000 0.33807  0.59360  0.64570  Biso   1.000  H
  C2417    1.0000 0.25406  0.48680  0.65558  Biso   1.000  C
  C2418    1.0000 0.06524  0.18993  0.64639  Biso   1.000  C
  C2419    1.0000 0.06518  0.18993  0.64639  Biso   1.000  C
  H2601    1.0000 0.26498  0.37258  0.65740  Biso   1.000  H
  H2602    1.0000 0.17062  0.35872  0.66170  Biso   1.000  H
  H2603    1.0000 0.17056  0.35872  0.66170  Biso   1.000  H
  H2604    1.0000 0.26504  0.37258  0.65740  Biso   1.000  H
  H2605    1.0000 0.83801  0.38477  0.57190  Biso   1.000  H
  H2606    1.0000 0.86161  0.39607  0.55910  Biso   1.000  H
  C2420    1.0000 0.76258  0.26887  0.56319  Biso   1.000  C
  H2607    1.0000 0.83795  0.38477  0.57190  Biso   1.000  H
  H2608    1.0000 0.86156  0.39607  0.55910  Biso   1.000  H
  C2421    1.0000 0.78753  0.04671  0.58100  Biso   1.000  C
  C2422    1.0000 0.78747  0.04671  0.58100  Biso   1.000  C
  H2609    1.0000 0.68641  0.14241  0.57010  Biso   1.000  H
  H2610    1.0000 0.72440  0.22142  0.57900  Biso   1.000  H
  H2611    1.0000 0.68635  0.14241  0.57010  Biso   1.000  H
  H2612    1.0000 0.27662  0.78154  0.63430  Biso   1.000  H
  H2613    1.0000 0.20259  0.68711  0.62920  Biso   1.000  H
  C2423    1.0000 0.21170  0.68341  0.64592  Biso   1.000  C
  H2614    1.0000 0.22960  0.88229  0.64370  Biso   1.000  H
  C2424    1.0000 0.16951  0.78403  0.65578  Biso   1.000  C
  N378     1.0000 0.09705  0.85079  0.64532  Biso   1.000  N
  N379     1.0000 0.09693  0.85079  0.64532  Biso   1.000  N
  H2615    1.0000 0.70132  0.59464  0.58390  Biso   1.000  H
  C2425    1.0000 0.66009  0.58643  0.56769  Biso   1.000  C
  N380     1.0000 0.74253  0.72171  0.57888  Biso   1.000  N
  N381     1.0000 0.74259  0.72171  0.57888  Biso   1.000  N
  C2426    1.0000 0.73105  0.49369  0.56319  Biso   1.000  C
  H2616    1.0000 0.85758  0.54403  0.57010  Biso   1.000  H
  H2617    1.0000 0.77862  0.50304  0.57900  Biso   1.000  H
  H2618    1.0000 0.77868  0.50304  0.57900  Biso   1.000  H
  H2619    1.0000 0.20421  0.49992  0.65510  Biso   1.000  H
  H2620    1.0000 0.28730  0.51351  0.66250  Biso   1.000  H
  H2621    1.0000 0.02361  0.21099  0.64690  Biso   1.000  H
  C2427    1.0000 0.03222  0.09079  0.64686  Biso   1.000  C
  C2428    1.0000 0.03216  0.09079  0.64686  Biso   1.000  C
  H2622    1.0000 0.02355  0.21099  0.64690  Biso   1.000  H
  H2623    1.0000 0.76939  0.24357  0.55620  Biso   1.000  H
  H2624    1.0000 0.71234  0.28112  0.56230  Biso   1.000  H
  H2625    1.0000 0.71228  0.28112  0.56230  Biso   1.000  H
  H2626    1.0000 0.76933  0.24357  0.55620  Biso   1.000  H
  C2429    1.0000 0.76159  0.97140  0.58865  Biso   1.000  C
  H2627    1.0000 0.79902  0.03809  0.57360  Biso   1.000  H
  H2628    1.0000 0.79896  0.03809  0.57360  Biso   1.000  H
  H2629    1.0000 0.25555  0.66187  0.64570  Biso   1.000  H
  H2630    1.0000 0.15094  0.63031  0.64690  Biso   1.000  H
  C2430    1.0000 0.23276  0.74593  0.65558  Biso   1.000  C
  H2631    1.0000 0.25558  0.66194  0.64570  Biso   1.000  H
  H2632    1.0000 0.25549  0.66187  0.64570  Biso   1.000  H
  H2633    1.0000 0.25552  0.66194  0.64570  Biso   1.000  H
  C2431    1.0000 0.23265  0.74593  0.65558  Biso   1.000  C
  H2634    1.0000 0.18811  0.82939  0.66170  Biso   1.000  H
  H2635    1.0000 0.10765  0.73503  0.65740  Biso   1.000  H
  C2432    1.0000 0.12476  0.93478  0.64639  Biso   1.000  C
  C2433    1.0000 0.12470  0.93478  0.64639  Biso   1.000  C
  H2636    1.0000 0.68356  0.62358  0.56100  Biso   1.000  H
  H2637    1.0000 0.60222  0.58259  0.56960  Biso   1.000  H
  C2434    1.0000 0.64467  0.49194  0.56547  Biso   1.000  C
  H2638    1.0000 0.60228  0.58259  0.56960  Biso   1.000  H
  C2435    1.0000 0.64479  0.49194  0.56547  Biso   1.000  C
  C2436    1.0000 0.72787  0.73692  0.58856  Biso   1.000  C
  H2639    1.0000 0.75631  0.52579  0.55620  Biso   1.000  H
  H2640    1.0000 0.71894  0.43123  0.56230  Biso   1.000  H
  H2641    1.0000 0.75637  0.52579  0.55620  Biso   1.000  H
  C2437    1.0000 0.94177  0.03567  0.64676  Biso   1.000  C
  C2438    1.0000 0.09392  0.05822  0.64676  Biso   1.000  C
  C2439    1.0000 0.09386  0.05822  0.64676  Biso   1.000  C
  C2440    1.0000 0.73216  0.97618  0.59945  Biso   1.000  C
  C2441    1.0000 0.75880  0.89400  0.58547  Biso   1.000  C
  C2442    1.0000 0.75885  0.89400  0.58547  Biso   1.000  C
  H2642    1.0000 0.29570  0.79581  0.65510  Biso   1.000  H
  H2643    1.0000 0.22622  0.71269  0.66250  Biso   1.000  H
  H2644    1.0000 0.29564  0.79581  0.65510  Biso   1.000  H
  C2443    1.0000 0.05864  0.96783  0.64686  Biso   1.000  C
  H2645    1.0000 0.18741  0.97638  0.64690  Biso   1.000  H
  H2646    1.0000 0.18735  0.97638  0.64690  Biso   1.000  H
  H2647    1.0000 0.61524  0.45324  0.57190  Biso   1.000  H
  H2648    1.0000 0.60382  0.46549  0.55910  Biso   1.000  H
  H2649    1.0000 0.60388  0.46549  0.55910  Biso   1.000  H
  C2444    1.0000 0.73103  0.82192  0.59235  Biso   1.000  C
  H2650    1.0000 0.71365  0.69122  0.59390  Biso   1.000  H
  H2651    1.0000 0.71371  0.69122  0.59390  Biso   1.000  H
  C2445    1.0000 0.90914  0.94138  0.64686  Biso   1.000  C
  C2446    1.0000 0.90926  0.94138  0.64686  Biso   1.000  C
  H2652    1.0000 0.90193  0.05902  0.64660  Biso   1.000  H
  H2653    1.0000 0.90187  0.05902  0.64660  Biso   1.000  H
  H2654    1.0000 0.15712  0.09813  0.64660  Biso   1.000  H
  H2655    1.0000 0.15707  0.09813  0.64660  Biso   1.000  H
  C2447    1.0000 0.70682  0.90288  0.60692  Biso   1.000  C
  C2448    1.0000 0.70688  0.90288  0.60692  Biso   1.000  C
  H2656    1.0000 0.72941  0.02780  0.60170  Biso   1.000  H
  H2657    1.0000 0.72935  0.02780  0.60170  Biso   1.000  H
  H2658    1.0000 0.77669  0.89003  0.57820  Biso   1.000  H
  C2449    1.0000 0.96431  0.90611  0.64676  Biso   1.000  C
  C2450    1.0000 0.96436  0.90611  0.64676  Biso   1.000  C
  C2451    1.0000 0.70766  0.82670  0.60293  Biso   1.000  C
  C2452    1.0000 0.81012  0.87529  0.64639  Biso   1.000  C
  C2453    1.0000 0.67717  0.90840  0.61794  Biso   1.000  C
  H2659    1.0000 0.94098  0.84292  0.64660  Biso   1.000  H
  H2660    1.0000 0.94104  0.84292  0.64660  Biso   1.000  H
  H2661    1.0000 0.69154  0.77710  0.60770  Biso   1.000  H
  H2662    1.0000 0.69166  0.77710  0.60770  Biso   1.000  H
  N382     1.0000 0.75375  0.90302  0.64532  Biso   1.000  N
  H2663    1.0000 0.78899  0.81263  0.64690  Biso   1.000  H
  N383     1.0000 0.75381  0.90302  0.64532  Biso   1.000  N
  N384     1.0000 0.65161  0.84272  0.62487  Biso   1.000  N
  H2664    1.0000 0.67648  0.96123  0.62010  Biso   1.000  H
  C2454    1.0000 0.65715  0.83013  0.64492  Biso   1.000  C
  C2455    1.0000 0.65727  0.83013  0.64492  Biso   1.000  C
  C2456    1.0000 0.61342  0.85247  0.63533  Biso   1.000  C
  C2457    1.0000 0.61354  0.85247  0.63533  Biso   1.000  C
  C2458    1.0000 0.61451  0.83053  0.65578  Biso   1.000  C
  H2665    1.0000 0.65266  0.77043  0.64370  Biso   1.000  H
  H2666    1.0000 0.65272  0.77043  0.64370  Biso   1.000  H
  C2459    1.0000 0.51393  0.78463  0.63533  Biso   1.000  C
  H2667    1.0000 0.62376  0.91500  0.63610  Biso   1.000  H
  H2668    1.0000 0.62387  0.91500  0.63610  Biso   1.000  H
  C2460    1.0000 0.51321  0.76734  0.65558  Biso   1.000  C
  H2669    1.0000 0.62731  0.89238  0.65740  Biso   1.000  H
  H2670    1.0000 0.64133  0.81189  0.66170  Biso   1.000  H
  H2671    1.0000 0.62737  0.89238  0.65740  Biso   1.000  H
  H2672    1.0000 0.48454  0.79742  0.62920  Biso   1.000  H
  H2673    1.0000 0.50487  0.72339  0.63430  Biso   1.000  H
  C2461    1.0000 0.47172  0.78834  0.64592  Biso   1.000  C
  C2462    1.0000 0.47177  0.78834  0.64592  Biso   1.000  C
  H2674    1.0000 0.48648  0.77380  0.66250  Biso   1.000  H
  H2675    1.0000 0.50009  0.70427  0.65510  Biso   1.000  H
  H2676    1.0000 0.50013  0.70434  0.65510  Biso   1.000  H
  H2677    1.0000 0.40645  0.74452  0.64570  Biso   1.000  H
  H2678    1.0000 0.47937  0.84911  0.64690  Biso   1.000  H
  C2463    1.0000 0.39016  0.86291  0.59165  Biso   1.000  C
  C2464    1.0000 0.46765  0.95518  0.59330  Biso   1.000  C
  H2679    1.0000 0.39518  0.83962  0.58440  Biso   1.000  H
  H2680    1.0000 0.33320  0.86439  0.59180  Biso   1.000  H
  C2465    1.0000 0.38974  0.80274  0.60060  Biso   1.000  C
  C2466    1.0000 0.45862  0.99482  0.60466  Biso   1.000  C
  H2681    1.0000 0.46981  0.99482  0.58720  Biso   1.000  H
  H2682    1.0000 0.52448  0.95343  0.59320  Biso   1.000  H
  C2467    1.0000 0.38582  0.84433  0.61224  Biso   1.000  C
  H2683    1.0000 0.44470  0.79782  0.60010  Biso   1.000  H
  H2684    1.0000 0.33684  0.74169  0.59980  Biso   1.000  H
  N385     1.0000 0.53873  0.08393  0.60542  Biso   1.000  N
  H2685    1.0000 0.40281  0.99953  0.60480  Biso   1.000  H
  C2468    1.0000 0.45791  0.93593  0.61393  Biso   1.000  C
  H2686    1.0000 0.32749  0.84272  0.61290  Biso   1.000  H
  H2687    1.0000 0.38818  0.80590  0.61810  Biso   1.000  H
  C2469    1.0000 0.52487  0.14901  0.60448  Biso   1.000  C
  N386     1.0000 0.44746  0.97483  0.62411  Biso   1.000  N
  H2688    1.0000 0.51677  0.93707  0.61410  Biso   1.000  H
  C2470    1.0000 0.59669  0.24437  0.60436  Biso   1.000  C
  H2689    1.0000 0.46441  0.13602  0.60380  Biso   1.000  H
  C2471    1.0000 0.50575  0.99758  0.63138  Biso   1.000  C
  C2472    1.0000 0.57933  0.31632  0.60426  Biso   1.000  C
  C2473    1.0000 0.68370  0.26302  0.60426  Biso   1.000  C
  C2474    1.0000 0.50432  0.03062  0.64273  Biso   1.000  C
  H2690    1.0000 0.55754  0.99367  0.62950  Biso   1.000  H
  C2475    1.0000 0.64769  0.40327  0.60436  Biso   1.000  C
  H2691    1.0000 0.51878  0.30387  0.60410  Biso   1.000  H
  C2476    1.0000 0.75554  0.35226  0.60436  Biso   1.000  C
  H2692    1.0000 0.69607  0.21490  0.60410  Biso   1.000  H
  C2477    1.0000 0.57097  0.04361  0.64981  Biso   1.000  C
  C2478    1.0000 0.43550  0.04812  0.64616  Biso   1.000  C
  C2479    1.0000 0.62409  0.47508  0.60448  Biso   1.000  C
  C2480    1.0000 0.73702  0.42070  0.60426  Biso   1.000  C
  C2481    1.0000 0.85099  0.37588  0.60448  Biso   1.000  C
  H2693    1.0000 0.61858  0.03439  0.64740  Biso   1.000  H
  C2482    1.0000 0.56909  0.07121  0.66087  Biso   1.000  C
  C2483    1.0000 0.43277  0.07437  0.65677  Biso   1.000  C
  H2694    1.0000 0.39068  0.04173  0.64110  Biso   1.000  H
  N387     1.0000 0.54521  0.46129  0.60542  Biso   1.000  N
  H2695    1.0000 0.67159  0.53559  0.60380  Biso   1.000  H
  H2696    1.0000 0.78511  0.48121  0.60410  Biso   1.000  H
  N388     1.0000 0.91608  0.45476  0.60542  Biso   1.000  N
  H2697    1.0000 0.86396  0.32837  0.60380  Biso   1.000  H
  C2484    1.0000 0.50161  0.08581  0.66379  Biso   1.000  C
  C2485    1.0000 0.63850  0.08332  0.66906  Biso   1.000  C
  C2486    1.0000 0.36159  0.09591  0.65979  Biso   1.000  C
  C2487    1.0000 0.53618  0.54138  0.60466  Biso   1.000  C
  C2488    1.0000 0.00516  0.46378  0.60466  Biso   1.000  C
  H2698    1.0000 0.50110  0.10519  0.67110  Biso   1.000  H
  N389     1.0000 0.70377  0.07269  0.66631  Biso   1.000  N
  H2699    1.0000 0.63381  0.09900  0.67640  Biso   1.000  H
  N390     1.0000 0.35569  0.12108  0.66971  Biso   1.000  N
  H2700    1.0000 0.31960  0.09119  0.65440  Biso   1.000  H
  C2489    1.0000 0.48755  0.53236  0.59330  Biso   1.000  C
  H2701    1.0000 0.59666  0.59717  0.60480  Biso   1.000  H
  C2490    1.0000 0.47803  0.54212  0.61393  Biso   1.000  C
  H2702    1.0000 0.00049  0.40327  0.60480  Biso   1.000  H
  C2491    1.0000 0.04478  0.51237  0.59330  Biso   1.000  C
  C2492    1.0000 0.06405  0.52199  0.61393  Biso   1.000  C
  C2493    1.0000 0.76698  0.08359  0.67516  Biso   1.000  C
  C2494    1.0000 0.27737  0.13427  0.67129  Biso   1.000  C
  C2495    1.0000 0.47281  0.60989  0.59165  Biso   1.000  C
  H2703    1.0000 0.52500  0.53021  0.58720  Biso   1.000  H
  H2704    1.0000 0.42895  0.47556  0.59320  Biso   1.000  H
  C2496    1.0000 0.45852  0.61420  0.61224  Biso   1.000  C
  N391     1.0000 0.52740  0.55262  0.62411  Biso   1.000  N
  H2705    1.0000 0.42028  0.48316  0.61410  Biso   1.000  H
  H2706    1.0000 0.00518  0.47502  0.58720  Biso   1.000  H
  H2707    1.0000 0.04658  0.57099  0.59320  Biso   1.000  H
  C2497    1.0000 0.13705  0.52718  0.59165  Biso   1.000  C
  N392     1.0000 0.02519  0.47259  0.62411  Biso   1.000  N
  C2498    1.0000 0.15570  0.54151  0.61224  Biso   1.000  C
  H2708    1.0000 0.06287  0.57967  0.61410  Biso   1.000  H
  C2499    1.0000 0.86568  0.14308  0.67129  Biso   1.000  C
  H2709    1.0000 0.75549  0.11132  0.68170  Biso   1.000  H
  C2500    1.0000 0.75067  0.98977  0.67806  Biso   1.000  C
  C2501    1.0000 0.31659  0.23300  0.67516  Biso   1.000  C
  H2710    1.0000 0.24357  0.12390  0.66420  Biso   1.000  H
  C2502    1.0000 0.21900  0.07349  0.67976  Biso   1.000  C
  H2711    1.0000 0.44437  0.60478  0.58440  Biso   1.000  H
  H2712    1.0000 0.53120  0.66676  0.59180  Biso   1.000  H
  C2503    1.0000 0.41298  0.61029  0.60060  Biso   1.000  C
  H2713    1.0000 0.51518  0.67248  0.61290  Biso   1.000  H
  H2714    1.0000 0.41768  0.61178  0.61810  Biso   1.000  H
  C2504    1.0000 0.49178  0.49420  0.63138  Biso   1.000  C
  H2715    1.0000 0.16034  0.55558  0.58440  Biso   1.000  H
  H2716    1.0000 0.13559  0.46876  0.59180  Biso   1.000  H
  C2505    1.0000 0.19728  0.58701  0.60060  Biso   1.000  C
  C2506    1.0000 0.00236  0.50820  0.63138  Biso   1.000  C
  H2717    1.0000 0.15729  0.48478  0.61290  Biso   1.000  H
  H2718    1.0000 0.19410  0.58230  0.61810  Biso   1.000  H
  N393     1.0000 0.87886  0.23461  0.66971  Biso   1.000  N
  H2719    1.0000 0.87609  0.11973  0.66420  Biso   1.000  H
  C2507    1.0000 0.92646  0.14551  0.67976  Biso   1.000  C
  C2508    1.0000 0.81662  0.99542  0.68699  Biso   1.000  C
  H2720    1.0000 0.75843  0.96123  0.67140  Biso   1.000  H
  H2721    1.0000 0.68813  0.95188  0.68070  Biso   1.000  H
  N394     1.0000 0.36888  0.29620  0.66631  Biso   1.000  N
  C2509    1.0000 0.23912  0.24929  0.67806  Biso   1.000  C
  H2722    1.0000 0.35580  0.24451  0.68170  Biso   1.000  H
  H2723    1.0000 0.19542  0.01070  0.67730  Biso   1.000  H
  H2724    1.0000 0.25498  0.08238  0.68650  Biso   1.000  H
  C2510    1.0000 0.14378  0.08648  0.68242  Biso   1.000  C
  H2725    1.0000 0.35308  0.55531  0.60010  Biso   1.000  H
  H2726    1.0000 0.40492  0.66319  0.59980  Biso   1.000  H
  H2727    1.0000 0.43621  0.44251  0.62950  Biso   1.000  H
  C2511    1.0000 0.52627  0.49568  0.64273  Biso   1.000  C
  H2728    1.0000 0.20216  0.64691  0.60010  Biso   1.000  H
  H2729    1.0000 0.25826  0.59508  0.59980  Biso   1.000  H
  C2512    1.0000 0.96936  0.47367  0.64273  Biso   1.000  C
  H2730    1.0000 0.00626  0.56379  0.62950  Biso   1.000  H
  C2513    1.0000 0.90408  0.26571  0.65979  Biso   1.000  C
  H2731    1.0000 0.98929  0.18468  0.67730  Biso   1.000  H
  H2732    1.0000 0.91755  0.17256  0.68650  Biso   1.000  H
  C2514    1.0000 0.91347  0.05727  0.68242  Biso   1.000  C
  H2733    1.0000 0.80738  0.02100  0.69380  Biso   1.000  H
  H2734    1.0000 0.80702  0.93472  0.68860  Biso   1.000  H
  C2515    1.0000 0.44477  0.36148  0.66906  Biso   1.000  C
  C2516    1.0000 0.17878  0.18340  0.68699  Biso   1.000  C
  H2735    1.0000 0.20281  0.24161  0.67140  Biso   1.000  H
  H2736    1.0000 0.26377  0.31188  0.68070  Biso   1.000  H
  H2737    1.0000 0.10509  0.04173  0.68800  Biso   1.000  H
  H2738    1.0000 0.10718  0.07740  0.67580  Biso   1.000  H
  C2517    1.0000 0.47258  0.42898  0.64981  Biso   1.000  C
  C2518    1.0000 0.61259  0.56446  0.64616  Biso   1.000  C
  C2519    1.0000 0.95635  0.52738  0.64981  Biso   1.000  C
  C2520    1.0000 0.95187  0.38739  0.64616  Biso   1.000  C
  C2521    1.0000 0.92559  0.35838  0.65677  Biso   1.000  C
  H2739    1.0000 0.90881  0.22842  0.65440  Biso   1.000  H
  H2740    1.0000 0.95826  0.06340  0.68800  Biso   1.000  H
  H2741    1.0000 0.92258  0.02981  0.67580  Biso   1.000  H
  C2522    1.0000 0.50208  0.43087  0.66087  Biso   1.000  C
  H2742    1.0000 0.46520  0.36619  0.67640  Biso   1.000  H
  H2743    1.0000 0.12769  0.19302  0.68860  Biso   1.000  H
  H2744    1.0000 0.21358  0.19262  0.69380  Biso   1.000  H
  H2745    1.0000 0.41580  0.38140  0.64740  Biso   1.000  H
  C2523    1.0000 0.64157  0.56715  0.65677  Biso   1.000  C
  H2746    1.0000 0.65097  0.60929  0.64110  Biso   1.000  H
  C2524    1.0000 0.92879  0.49790  0.66087  Biso   1.000  C
  H2747    1.0000 0.96558  0.58418  0.64740  Biso   1.000  H
  H2748    1.0000 0.95824  0.34896  0.64110  Biso   1.000  H
  C2525    1.0000 0.91420  0.41579  0.66379  Biso   1.000  C
  C2526    1.0000 0.58415  0.49837  0.66379  Biso   1.000  C
  C2527    1.0000 0.73429  0.63836  0.65979  Biso   1.000  C
  C2528    1.0000 0.91668  0.55517  0.66906  Biso   1.000  C
  H2749    1.0000 0.89479  0.39587  0.67110  Biso   1.000  H
  H2750    1.0000 0.60412  0.49891  0.67110  Biso   1.000  H
  N395     1.0000 0.76540  0.64428  0.66971  Biso   1.000  N
  H2751    1.0000 0.77155  0.68036  0.65440  Biso   1.000  H
  N396     1.0000 0.92731  0.63109  0.66631  Biso   1.000  N
  H2752    1.0000 0.90095  0.53478  0.67640  Biso   1.000  H
  C2529    1.0000 0.85688  0.72255  0.67129  Biso   1.000  C
  C2530    1.0000 0.91638  0.68338  0.67516  Biso   1.000  C
  H2753    1.0000 0.88027  0.75641  0.66420  Biso   1.000  H
  C2531    1.0000 0.85450  0.78097  0.67976  Biso   1.000  C
  H2754    1.0000 0.88870  0.64421  0.68170  Biso   1.000  H
  C2532    1.0000 0.01014  0.76085  0.67806  Biso   1.000  C
  H2755    1.0000 0.81531  0.80460  0.67730  Biso   1.000  H
  H2756    1.0000 0.82740  0.74497  0.68650  Biso   1.000  H
  C2533    1.0000 0.94267  0.85615  0.68242  Biso   1.000  C
  C2534    1.0000 0.00456  0.82115  0.68699  Biso   1.000  C
  H2757    1.0000 0.03880  0.79719  0.67140  Biso   1.000  H
  H2758    1.0000 0.04803  0.73615  0.68070  Biso   1.000  H
  H2759    1.0000 0.93655  0.89485  0.68800  Biso   1.000  H
  H2760    1.0000 0.97019  0.89276  0.67580  Biso   1.000  H
  H2761    1.0000 0.97895  0.78636  0.69380  Biso   1.000  H
  H2762    1.0000 0.06528  0.87230  0.68860  Biso   1.000  H
  C2535    1.0000 0.50773  0.20938  0.06669  Biso   1.000  C
  C2536    1.0000 0.45642  0.23650  0.05774  Biso   1.000  C
  H2763    1.0000 0.56885  0.26086  0.06800  Biso   1.000  H
  H2764    1.0000 0.47432  0.19302  0.07370  Biso   1.000  H
  C2537    1.0000 0.51420  0.12848  0.06223  Biso   1.000  C
  C2538    1.0000 0.45636  0.23650  0.05774  Biso   1.000  C
  H2765    1.0000 0.56889  0.26093  0.06800  Biso   1.000  H
  H2766    1.0000 0.47426  0.19302  0.07370  Biso   1.000  H
  C2539    1.0000 0.51414  0.12848  0.06223  Biso   1.000  C
  H2767    1.0000 0.56894  0.26093  0.06800  Biso   1.000  H
  C2540    1.0000 0.36001  0.15291  0.05598  Biso   1.000  C
  H2768    1.0000 0.45160  0.28852  0.06040  Biso   1.000  H
  H2769    1.0000 0.49010  0.25339  0.05070  Biso   1.000  H
  C2541    1.0000 0.50779  0.20938  0.06669  Biso   1.000  C
  C2542    1.0000 0.35995  0.15291  0.05598  Biso   1.000  C
  H2770    1.0000 0.49005  0.25339  0.05070  Biso   1.000  H
  H2771    1.0000 0.54801  0.11239  0.06750  Biso   1.000  H
  H2772    1.0000 0.54688  0.14477  0.05510  Biso   1.000  H
  C2543    1.0000 0.41749  0.04637  0.06056  Biso   1.000  C
  H2773    1.0000 0.54795  0.11239  0.06750  Biso   1.000  H
  H2774    1.0000 0.54683  0.14477  0.05510  Biso   1.000  H
  C2544    1.0000 0.41743  0.04637  0.06056  Biso   1.000  C
  N397     1.0000 0.31690  0.17707  0.04756  Biso   1.000  N
  H2775    1.0000 0.32449  0.13723  0.06290  Biso   1.000  H
  C2545    1.0000 0.36867  0.07208  0.05188  Biso   1.000  C
  N398     1.0000 0.31684  0.17707  0.04756  Biso   1.000  N
  H2776    1.0000 0.32454  0.13723  0.06290  Biso   1.000  H
  H2777    1.0000 0.38387  0.03089  0.06760  Biso   1.000  H
  H2778    1.0000 0.38393  0.03089  0.06760  Biso   1.000  H
  H2779    1.0000 0.42114  0.99340  0.05800  Biso   1.000  H
  C2546    1.0000 0.25612  0.19470  0.05005  Biso   1.000  C
  C2547    1.0000 0.25606  0.19470  0.05005  Biso   1.000  C
  H2780    1.0000 0.40131  0.08642  0.04470  Biso   1.000  H
  H2781    1.0000 0.40125  0.08642  0.04470  Biso   1.000  H
  N399     1.0000 0.27558  0.99838  0.05061  Biso   1.000  N
  C2548    1.0000 0.20358  0.20817  0.04219  Biso   1.000  C
  H2782    1.0000 0.24509  0.19921  0.05760  Biso   1.000  H
  H2783    1.0000 0.24515  0.19921  0.05760  Biso   1.000  H
  C2549    1.0000 0.25139  0.97880  0.04077  Biso   1.000  C
  C2550    1.0000 0.14311  0.23610  0.04510  Biso   1.000  C
  C2551    1.0000 0.20892  0.19100  0.03099  Biso   1.000  C
  C2552    1.0000 0.14305  0.23610  0.04510  Biso   1.000  C
  C2553    1.0000 0.20887  0.19100  0.03099  Biso   1.000  C
  H2784    1.0000 0.29511  0.00888  0.03520  Biso   1.000  H
  H2785    1.0000 0.29505  0.00888  0.03520  Biso   1.000  H
  C2554    1.0000 0.15756  0.91062  0.03732  Biso   1.000  C
  C2555    1.0000 0.15750  0.91062  0.03732  Biso   1.000  C
  C2556    1.0000 0.08939  0.24686  0.03732  Biso   1.000  C
  H2786    1.0000 0.13809  0.24821  0.05260  Biso   1.000  H
  C2557    1.0000 0.08943  0.24693  0.03732  Biso   1.000  C
  C2558    1.0000 0.08934  0.24686  0.03732  Biso   1.000  C
  C2559    1.0000 0.15920  0.20662  0.02306  Biso   1.000  C
  H2787    1.0000 0.24689  0.16832  0.02880  Biso   1.000  H
  H2788    1.0000 0.24695  0.16832  0.02880  Biso   1.000  H
  C2560    1.0000 0.13613  0.89911  0.02655  Biso   1.000  C
  C2561    1.0000 0.09306  0.85692  0.04510  Biso   1.000  C
  C2562    1.0000 0.13607  0.89911  0.02655  Biso   1.000  C
  C2563    1.0000 0.09294  0.85692  0.04510  Biso   1.000  C
  C2564    1.0000 0.02117  0.27257  0.04077  Biso   1.000  C
  C2565    1.0000 0.10088  0.23697  0.02655  Biso   1.000  C
  C2566    1.0000 0.02123  0.27257  0.04077  Biso   1.000  C
  C2567    1.0000 0.16832  0.19302  0.01110  Biso   1.000  C
  C2568    1.0000 0.16826  0.19302  0.01110  Biso   1.000  C
  C2569    1.0000 0.04742  0.84083  0.02306  Biso   1.000  C
  H2789    1.0000 0.18174  0.93088  0.02120  Biso   1.000  H
  H2790    1.0000 0.18162  0.93088  0.02120  Biso   1.000  H
  H2791    1.0000 0.11018  0.86190  0.05260  Biso   1.000  H
  C2570    1.0000 0.00458  0.79641  0.04219  Biso   1.000  C
  H2792    1.0000 0.11012  0.86190  0.05260  Biso   1.000  H
  N400     1.0000 0.00164  0.27722  0.05061  Biso   1.000  N
  N401     1.0000 0.00158  0.27722  0.05061  Biso   1.000  N
  H2793    1.0000 0.99108  0.28617  0.03520  Biso   1.000  H
  H2794    1.0000 0.99102  0.28617  0.03520  Biso   1.000  H
  H2795    1.0000 0.06908  0.25077  0.02120  Biso   1.000  H
  C2571    1.0000 0.25067  0.20467  0.00720  Biso   1.000  C
  C2572    1.0000 0.19328  0.26416  0.00368  Biso   1.000  C
  C2573    1.0000 0.19331  0.26423  0.00368  Biso   1.000  C
  C2574    1.0000 0.09299  0.16092  0.00383  Biso   1.000  C
  C2575    1.0000 0.15319  0.10950  0.00712  Biso   1.000  C
  C2576    1.0000 0.98204  0.79109  0.03099  Biso   1.000  C
  C2577    1.0000 0.98216  0.79109  0.03099  Biso   1.000  C
  C2578    1.0000 0.02466  0.83168  0.01110  Biso   1.000  C
  C2579    1.0000 0.93858  0.74392  0.05005  Biso   1.000  C
  C2580    1.0000 0.92792  0.29660  0.05188  Biso   1.000  C
  C2581    1.0000 0.92787  0.29660  0.05188  Biso   1.000  C
  H2796    1.0000 0.29860  0.22102  0.01230  Biso   1.000  H
  C2582    1.0000 0.26422  0.19329  0.99632  Biso   1.000  C
  C2583    1.0000 0.26416  0.19329  0.99632  Biso   1.000  C
  H2797    1.0000 0.20220  0.32069  0.00610  Biso   1.000  H
  C2584    1.0000 0.20468  0.25070  0.99280  Biso   1.000  C
  C2585    1.0000 0.20473  0.25070  0.99280  Biso   1.000  C
  H2798    1.0000 0.03479  0.14557  0.00640  Biso   1.000  H
  C2586    1.0000 0.10946  0.15318  0.99288  Biso   1.000  C
  H2799    1.0000 0.13678  0.06199  0.01220  Biso   1.000  H
  C2587    1.0000 0.16092  0.09301  0.99617  Biso   1.000  C
  H2800    1.0000 0.92133  0.75314  0.02880  Biso   1.000  H
  H2801    1.0000 0.92139  0.75314  0.02880  Biso   1.000  H
  C2588    1.0000 0.95398  0.74930  0.00720  Biso   1.000  C
  C2589    1.0000 0.95634  0.84682  0.00712  Biso   1.000  C
  C2590    1.0000 0.07098  0.80671  0.00368  Biso   1.000  C
  C2591    1.0000 0.07087  0.80671  0.00368  Biso   1.000  C
  C2592    1.0000 0.06785  0.90699  0.00383  Biso   1.000  C
  N402     1.0000 0.86019  0.68307  0.04756  Biso   1.000  N
  H2802    1.0000 0.95409  0.75489  0.05760  Biso   1.000  H
  N403     1.0000 0.86028  0.68314  0.04756  Biso   1.000  N
  N404     1.0000 0.86025  0.68307  0.04756  Biso   1.000  N
  N405     1.0000 0.86022  0.68314  0.04756  Biso   1.000  N
  C2593    1.0000 0.84709  0.20709  0.05598  Biso   1.000  C
  C2594    1.0000 0.95363  0.37110  0.06056  Biso   1.000  C
  H2803    1.0000 0.91359  0.31491  0.04470  Biso   1.000  H
  C2595    1.0000 0.95358  0.37110  0.06056  Biso   1.000  C
  C2596    1.0000 0.84703  0.20709  0.05598  Biso   1.000  C
  H2804    1.0000 0.32071  0.20218  0.99390  Biso   1.000  H
  C2597    1.0000 0.19298  0.16832  0.98890  Biso   1.000  C
  H2805    1.0000 0.32065  0.20218  0.99390  Biso   1.000  H
  C2598    1.0000 0.19304  0.16832  0.98890  Biso   1.000  C
  H2806    1.0000 0.22100  0.29862  0.98770  Biso   1.000  H
  H2807    1.0000 0.06200  0.13682  0.98780  Biso   1.000  H
  H2808    1.0000 0.14557  0.03480  0.99360  Biso   1.000  H
  C2599    1.0000 0.92912  0.73584  0.99632  Biso   1.000  C
  H2809    1.0000 0.92238  0.70138  0.01230  Biso   1.000  H
  C2600    1.0000 0.93207  0.83908  0.99617  Biso   1.000  C
  H2810    1.0000 0.92518  0.86318  0.01220  Biso   1.000  H
  C2601    1.0000 0.04606  0.79533  0.99280  Biso   1.000  C
  C2602    1.0000 0.04600  0.79533  0.99280  Biso   1.000  C
  H2811    1.0000 0.11853  0.79782  0.00610  Biso   1.000  H
  C2603    1.0000 0.04364  0.89050  0.99288  Biso   1.000  C
  H2812    1.0000 0.11083  0.96520  0.00640  Biso   1.000  H
  C2604    1.0000 0.79284  0.64000  0.05598  Biso   1.000  C
  C2605    1.0000 0.79290  0.64000  0.05598  Biso   1.000  C
  N406     1.0000 0.82288  0.13979  0.04756  Biso   1.000  N
  H2813    1.0000 0.86278  0.18730  0.06290  Biso   1.000  H
  C2606    1.0000 0.76349  0.21988  0.05774  Biso   1.000  C
  C2607    1.0000 0.76343  0.21988  0.05774  Biso   1.000  C
  H2814    1.0000 0.00659  0.42770  0.05800  Biso   1.000  H
  H2815    1.0000 0.00665  0.42770  0.05800  Biso   1.000  H
  C2608    1.0000 0.87153  0.38571  0.06223  Biso   1.000  C
  H2816    1.0000 0.96912  0.35300  0.06760  Biso   1.000  H
  C2609    1.0000 0.87147  0.38571  0.06223  Biso   1.000  C
  H2817    1.0000 0.96906  0.35300  0.06760  Biso   1.000  H
  C2610    1.0000 0.20659  0.15917  0.97694  Biso   1.000  C
  C2611    1.0000 0.20653  0.15917  0.97694  Biso   1.000  C
  H2818    1.0000 0.88150  0.67931  0.99390  Biso   1.000  H
  C2612    1.0000 0.97530  0.80698  0.98890  Biso   1.000  C
  H2819    1.0000 0.88156  0.67931  0.99390  Biso   1.000  H
  H2820    1.0000 0.88927  0.85443  0.99360  Biso   1.000  H
  H2821    1.0000 0.07763  0.77898  0.98770  Biso   1.000  H
  H2822    1.0000 0.07758  0.77898  0.98770  Biso   1.000  H
  H2823    1.0000 0.07480  0.93801  0.98780  Biso   1.000  H
  H2824    1.0000 0.81271  0.67554  0.06290  Biso   1.000  H
  C2613    1.0000 0.78003  0.54363  0.05774  Biso   1.000  C
  C2614    1.0000 0.70334  0.63132  0.05188  Biso   1.000  C
  H2825    1.0000 0.81276  0.67554  0.06290  Biso   1.000  H
  C2615    1.0000 0.78009  0.54363  0.05774  Biso   1.000  C
  C2616    1.0000 0.70346  0.63132  0.05188  Biso   1.000  C
  C2617    1.0000 0.80530  0.06138  0.05005  Biso   1.000  C
  C2618    1.0000 0.80524  0.06138  0.05005  Biso   1.000  C
  H2826    1.0000 0.71148  0.16307  0.06040  Biso   1.000  H
  H2827    1.0000 0.74661  0.23670  0.05070  Biso   1.000  H
  C2619    1.0000 0.79064  0.29842  0.06669  Biso   1.000  C
  C2620    1.0000 0.79058  0.29842  0.06669  Biso   1.000  C
  H2828    1.0000 0.74655  0.23670  0.05070  Biso   1.000  H
  H2829    1.0000 0.88760  0.43558  0.06750  Biso   1.000  H
  H2830    1.0000 0.85517  0.40206  0.05510  Biso   1.000  H
  H2831    1.0000 0.88755  0.43558  0.06750  Biso   1.000  H
  C2621    1.0000 0.23701  0.10089  0.97345  Biso   1.000  C
  C2622    1.0000 0.19101  0.20891  0.96901  Biso   1.000  C
  C2623    1.0000 0.23696  0.10089  0.97345  Biso   1.000  C
  C2624    1.0000 0.95259  0.79338  0.97694  Biso   1.000  C
  C2625    1.0000 0.95265  0.79338  0.97694  Biso   1.000  C
  H2832    1.0000 0.83686  0.54840  0.06040  Biso   1.000  H
  H2833    1.0000 0.76323  0.50991  0.05070  Biso   1.000  H
  C2626    1.0000 0.70163  0.49221  0.06669  Biso   1.000  C
  H2834    1.0000 0.76329  0.50991  0.05070  Biso   1.000  H
  N407     1.0000 0.72272  0.72440  0.05061  Biso   1.000  N
  C2627    1.0000 0.62894  0.58253  0.06056  Biso   1.000  C
  H2835    1.0000 0.68510  0.59868  0.04470  Biso   1.000  H
  N408     1.0000 0.72278  0.72440  0.05061  Biso   1.000  N
  H2836    1.0000 0.68513  0.59875  0.04470  Biso   1.000  H
  C2628    1.0000 0.79173  0.99542  0.04219  Biso   1.000  C
  C2629    1.0000 0.79179  0.99542  0.04219  Biso   1.000  C
  H2837    1.0000 0.80082  0.04590  0.05760  Biso   1.000  H
  H2838    1.0000 0.80077  0.04590  0.05760  Biso   1.000  H
  H2839    1.0000 0.73911  0.30797  0.06800  Biso   1.000  H
  H2840    1.0000 0.80704  0.28132  0.07370  Biso   1.000  H
  H2841    1.0000 0.73905  0.30797  0.06800  Biso   1.000  H
  H2842    1.0000 0.80698  0.28132  0.07370  Biso   1.000  H
  H2843    1.0000 0.25080  0.06912  0.97880  Biso   1.000  H
  C2630    1.0000 0.24688  0.08938  0.96268  Biso   1.000  C
  C2631    1.0000 0.20816  0.20359  0.95781  Biso   1.000  C
  H2844    1.0000 0.16825  0.24686  0.97120  Biso   1.000  H
  H2845    1.0000 0.16829  0.24693  0.97120  Biso   1.000  H
  C2632    1.0000 0.20822  0.20359  0.95781  Biso   1.000  C
  H2846    1.0000 0.16835  0.24693  0.97120  Biso   1.000  H
  C2633    1.0000 0.86391  0.76303  0.97345  Biso   1.000  C
  C2634    1.0000 0.86397  0.76303  0.97345  Biso   1.000  C
  C2635    1.0000 0.01792  0.80900  0.96901  Biso   1.000  C
  H2847    1.0000 0.69194  0.43110  0.06800  Biso   1.000  H
  H2848    1.0000 0.71874  0.52572  0.07370  Biso   1.000  H
  C2636    1.0000 0.61427  0.48581  0.06223  Biso   1.000  C
  H2849    1.0000 0.69200  0.43110  0.06800  Biso   1.000  H
  C2637    1.0000 0.72738  0.74863  0.04077  Biso   1.000  C
  H2850    1.0000 0.57222  0.57889  0.05800  Biso   1.000  H
  H2851    1.0000 0.64695  0.61611  0.06760  Biso   1.000  H
  H2852    1.0000 0.57233  0.57889  0.05800  Biso   1.000  H
  H2853    1.0000 0.64701  0.61611  0.06760  Biso   1.000  H
  C2638    1.0000 0.76389  0.90699  0.04510  Biso   1.000  C
  C2639    1.0000 0.76395  0.90699  0.04510  Biso   1.000  C
  C2640    1.0000 0.80903  0.01790  0.03099  Biso   1.000  C
  C2641    1.0000 0.80897  0.01790  0.03099  Biso   1.000  C
  C2642    1.0000 0.27259  0.02120  0.95923  Biso   1.000  C
  C2643    1.0000 0.23608  0.14308  0.95490  Biso   1.000  C
  C2644    1.0000 0.19466  0.25608  0.94995  Biso   1.000  C
  C2645    1.0000 0.19472  0.25608  0.94995  Biso   1.000  C
  H2854    1.0000 0.81825  0.74923  0.97880  Biso   1.000  H
  C2646    1.0000 0.84247  0.75314  0.96268  Biso   1.000  C
  H2855    1.0000 0.81831  0.74923  0.97880  Biso   1.000  H
  C2647    1.0000 0.84253  0.75314  0.96268  Biso   1.000  C
  C2648    1.0000 0.99535  0.79183  0.95781  Biso   1.000  C
  C2649    1.0000 0.99547  0.79183  0.95781  Biso   1.000  C
  H2856    1.0000 0.07857  0.83168  0.97120  Biso   1.000  H
  H2857    1.0000 0.56439  0.45203  0.06750  Biso   1.000  H
  H2858    1.0000 0.59786  0.45310  0.05510  Biso   1.000  H
  H2859    1.0000 0.56445  0.45203  0.06750  Biso   1.000  H
  H2860    1.0000 0.59792  0.45310  0.05510  Biso   1.000  H
  H2861    1.0000 0.71372  0.70488  0.03520  Biso   1.000  H
  C2650    1.0000 0.75310  0.84251  0.03732  Biso   1.000  C
  H2862    1.0000 0.71384  0.70488  0.03520  Biso   1.000  H
  H2863    1.0000 0.75179  0.88989  0.05260  Biso   1.000  H
  H2864    1.0000 0.75185  0.88989  0.05260  Biso   1.000  H
  C2651    1.0000 0.79335  0.95262  0.02306  Biso   1.000  C
  C2652    1.0000 0.79341  0.95262  0.02306  Biso   1.000  C
  H2865    1.0000 0.83169  0.07861  0.02880  Biso   1.000  H
  H2866    1.0000 0.28623  0.99112  0.96480  Biso   1.000  H
  N409     1.0000 0.27720  0.00162  0.94939  Biso   1.000  N
  H2867    1.0000 0.24822  0.13810  0.94740  Biso   1.000  H
  H2868    1.0000 0.24816  0.13810  0.94740  Biso   1.000  H
  N410     1.0000 0.17711  0.31693  0.95244  Biso   1.000  N
  H2869    1.0000 0.19920  0.24511  0.94240  Biso   1.000  H
  C2653    1.0000 0.90696  0.76390  0.95490  Biso   1.000  C
  C2654    1.0000 0.74854  0.72743  0.95923  Biso   1.000  C
  C2655    1.0000 0.74866  0.72743  0.95923  Biso   1.000  C
  C2656    1.0000 0.06142  0.80530  0.94995  Biso   1.000  C
  C2657    1.0000 0.76293  0.86392  0.02655  Biso   1.000  C
  C2658    1.0000 0.76305  0.86392  0.02655  Biso   1.000  C
  C2659    1.0000 0.80702  0.97530  0.01110  Biso   1.000  C
  C2660    1.0000 0.29659  0.92792  0.94812  Biso   1.000  C
  C2661    1.0000 0.15290  0.36000  0.94402  Biso   1.000  C
  H2870    1.0000 0.88983  0.75179  0.94740  Biso   1.000  H
  H2871    1.0000 0.88988  0.75179  0.94740  Biso   1.000  H
  N411     1.0000 0.72442  0.72278  0.94939  Biso   1.000  N
  H2872    1.0000 0.70491  0.71383  0.96480  Biso   1.000  H
  H2873    1.0000 0.70497  0.71383  0.96480  Biso   1.000  H
  N412     1.0000 0.13983  0.82293  0.95244  Biso   1.000  N
  H2874    1.0000 0.04593  0.80079  0.94240  Biso   1.000  H
  N413     1.0000 0.13977  0.82293  0.95244  Biso   1.000  N
  H2875    1.0000 0.74921  0.81828  0.02120  Biso   1.000  H
  C2662    1.0000 0.73580  0.92913  0.00368  Biso   1.000  C
  C2663    1.0000 0.83910  0.93209  0.00383  Biso   1.000  C
  C2664    1.0000 0.79526  0.04597  0.00720  Biso   1.000  C
  C2665    1.0000 0.79530  0.04603  0.00720  Biso   1.000  C
  C2666    1.0000 0.89046  0.04368  0.00712  Biso   1.000  C
  C2667    1.0000 0.20710  0.84709  0.94402  Biso   1.000  C
  C2668    1.0000 0.37117  0.95363  0.93944  Biso   1.000  C
  H2876    1.0000 0.31490  0.91358  0.95530  Biso   1.000  H
  C2669    1.0000 0.20704  0.84709  0.94402  Biso   1.000  C
  C2670    1.0000 0.37106  0.95363  0.93944  Biso   1.000  C
  H2877    1.0000 0.13717  0.32446  0.93710  Biso   1.000  H
  C2671    1.0000 0.23646  0.45637  0.94226  Biso   1.000  C
  C2672    1.0000 0.07208  0.36868  0.94812  Biso   1.000  C
  H2878    1.0000 0.13723  0.32446  0.93710  Biso   1.000  H
  C2673    1.0000 0.23652  0.45637  0.94226  Biso   1.000  C
  C2674    1.0000 0.63132  0.70340  0.94812  Biso   1.000  C
  C2675    1.0000 0.74924  0.95403  0.99280  Biso   1.000  C
  C2676    1.0000 0.74935  0.95403  0.99280  Biso   1.000  C
  H2879    1.0000 0.67921  0.88148  0.00610  Biso   1.000  H
  H2880    1.0000 0.67927  0.88148  0.00610  Biso   1.000  H
  C2677    1.0000 0.84684  0.95632  0.99288  Biso   1.000  C
  H2881    1.0000 0.85438  0.88922  0.00640  Biso   1.000  H
  C2678    1.0000 0.80666  0.07087  0.99632  Biso   1.000  C
  H2882    1.0000 0.77902  0.07760  0.01230  Biso   1.000  H
  H2883    1.0000 0.77896  0.07760  0.01230  Biso   1.000  H
  C2679    1.0000 0.90695  0.06791  0.99617  Biso   1.000  C
  H2884    1.0000 0.93795  0.07477  0.01220  Biso   1.000  H
  H2885    1.0000 0.18732  0.86277  0.93710  Biso   1.000  H
  C2680    1.0000 0.21998  0.76350  0.94226  Biso   1.000  C
  H2886    1.0000 0.18735  0.86284  0.93710  Biso   1.000  H
  C2681    1.0000 0.21986  0.76350  0.94226  Biso   1.000  C
  C2682    1.0000 0.38578  0.87152  0.93777  Biso   1.000  C
  H2887    1.0000 0.35303  0.96911  0.93240  Biso   1.000  H
  C2683    1.0000 0.38572  0.87152  0.93777  Biso   1.000  C
  H2888    1.0000 0.42767  0.00660  0.94200  Biso   1.000  H
  H2889    1.0000 0.42773  0.00660  0.94200  Biso   1.000  H
  H2890    1.0000 0.28851  0.45160  0.93960  Biso   1.000  H
  H2891    1.0000 0.25338  0.49009  0.94930  Biso   1.000  H
  C2684    1.0000 0.20943  0.50779  0.93331  Biso   1.000  C
  H2892    1.0000 0.28845  0.45160  0.93960  Biso   1.000  H
  C2685    1.0000 0.20937  0.50779  0.93331  Biso   1.000  C
  H2893    1.0000 0.25344  0.49009  0.94930  Biso   1.000  H
  N414     1.0000 0.99838  0.27560  0.94939  Biso   1.000  N
  C2686    1.0000 0.04641  0.41747  0.93944  Biso   1.000  C
  H2894    1.0000 0.08642  0.40132  0.95530  Biso   1.000  H
  C2687    1.0000 0.04635  0.41747  0.93944  Biso   1.000  C
  H2895    1.0000 0.08636  0.40132  0.95530  Biso   1.000  H
  C2688    1.0000 0.63994  0.79291  0.94402  Biso   1.000  C
  C2689    1.0000 0.58253  0.62890  0.93944  Biso   1.000  C
  H2896    1.0000 0.59868  0.68509  0.95530  Biso   1.000  H
  C2690    1.0000 0.64006  0.79291  0.94402  Biso   1.000  C
  H2897    1.0000 0.70142  0.92240  0.98770  Biso   1.000  H
  C2691    1.0000 0.83172  0.02470  0.98890  Biso   1.000  C
  C2692    1.0000 0.83167  0.02470  0.98890  Biso   1.000  C
  H2898    1.0000 0.86318  0.92523  0.98780  Biso   1.000  H
  H2899    1.0000 0.79779  0.11852  0.99390  Biso   1.000  H
  H2900    1.0000 0.96516  0.11078  0.99360  Biso   1.000  H
  H2901    1.0000 0.16313  0.71148  0.93960  Biso   1.000  H
  H2902    1.0000 0.23677  0.74661  0.94930  Biso   1.000  H
  C2693    1.0000 0.29847  0.79062  0.93331  Biso   1.000  C
  H2903    1.0000 0.16317  0.71154  0.93960  Biso   1.000  H
  H2904    1.0000 0.23665  0.74661  0.94930  Biso   1.000  H
  C2694    1.0000 0.29835  0.79062  0.93331  Biso   1.000  C
  H2905    1.0000 0.16305  0.71154  0.93960  Biso   1.000  H
  H2906    1.0000 0.43561  0.88761  0.93250  Biso   1.000  H
  H2907    1.0000 0.40218  0.85523  0.94490  Biso   1.000  H
  H2908    1.0000 0.40206  0.85523  0.94490  Biso   1.000  H
  H2909    1.0000 0.26090  0.56890  0.93200  Biso   1.000  H
  H2910    1.0000 0.19302  0.47428  0.92630  Biso   1.000  H
  C2695    1.0000 0.12852  0.51419  0.93777  Biso   1.000  C
  H2911    1.0000 0.19296  0.47428  0.92630  Biso   1.000  H
  C2696    1.0000 0.12846  0.51419  0.93777  Biso   1.000  C
  C2697    1.0000 0.97881  0.25137  0.95923  Biso   1.000  C
  C2698    1.0000 0.97875  0.25137  0.95923  Biso   1.000  C
  H2912    1.0000 0.99338  0.42111  0.94200  Biso   1.000  H
  H2913    1.0000 0.03090  0.38389  0.93240  Biso   1.000  H
  N415     1.0000 0.68304  0.86021  0.95244  Biso   1.000  N
  H2914    1.0000 0.67542  0.81270  0.93710  Biso   1.000  H
  C2699    1.0000 0.54361  0.78012  0.94226  Biso   1.000  C
  N416     1.0000 0.68315  0.86021  0.95244  Biso   1.000  N
  H2915    1.0000 0.67548  0.81270  0.93710  Biso   1.000  H
  C2700    1.0000 0.48582  0.61429  0.93777  Biso   1.000  C
  H2916    1.0000 0.57883  0.57230  0.94200  Biso   1.000  H
  H2917    1.0000 0.61612  0.64700  0.93240  Biso   1.000  H
  H2918    1.0000 0.57894  0.57230  0.94200  Biso   1.000  H
  C2701    1.0000 0.84079  0.04738  0.97694  Biso   1.000  C
  C2702    1.0000 0.84073  0.04738  0.97694  Biso   1.000  C
  H2919    1.0000 0.30799  0.73914  0.93200  Biso   1.000  H
  H2920    1.0000 0.28129  0.80698  0.92630  Biso   1.000  H
  H2921    1.0000 0.28124  0.80698  0.92630  Biso   1.000  H
  H2922    1.0000 0.11236  0.54797  0.93250  Biso   1.000  H
  H2923    1.0000 0.14481  0.54690  0.94490  Biso   1.000  H
  H2924    1.0000 0.14475  0.54690  0.94490  Biso   1.000  H
  H2925    1.0000 0.11242  0.54797  0.93250  Biso   1.000  H
  C2703    1.0000 0.91059  0.15749  0.96268  Biso   1.000  C
  C2704    1.0000 0.91053  0.15749  0.96268  Biso   1.000  C
  H2926    1.0000 0.00890  0.29512  0.96480  Biso   1.000  H
  H2927    1.0000 0.00896  0.29512  0.96480  Biso   1.000  H
  C2705    1.0000 0.74386  0.93862  0.94995  Biso   1.000  C
  C2706    1.0000 0.74398  0.93862  0.94995  Biso   1.000  C
  H2928    1.0000 0.54841  0.83693  0.93960  Biso   1.000  H
  H2929    1.0000 0.50991  0.76330  0.94930  Biso   1.000  H
  C2707    1.0000 0.49222  0.70158  0.93331  Biso   1.000  C
  H2930    1.0000 0.54847  0.83693  0.93960  Biso   1.000  H
  H2931    1.0000 0.45202  0.56442  0.93250  Biso   1.000  H
  H2932    1.0000 0.45310  0.59794  0.94490  Biso   1.000  H
  C2708    1.0000 0.79113  0.98210  0.96901  Biso   1.000  C
  C2709    1.0000 0.89907  0.13608  0.97345  Biso   1.000  C
  C2710    1.0000 0.85690  0.09301  0.95490  Biso   1.000  C
  C2711    1.0000 0.85685  0.09301  0.95490  Biso   1.000  C
  H2933    1.0000 0.75487  0.95410  0.94240  Biso   1.000  H
  C2712    1.0000 0.79637  0.00458  0.95781  Biso   1.000  C
  H2934    1.0000 0.43108  0.69203  0.93200  Biso   1.000  H
  H2935    1.0000 0.52571  0.71868  0.92630  Biso   1.000  H
  H2936    1.0000 0.75308  0.92139  0.97120  Biso   1.000  H
  H2937    1.0000 0.93092  0.18172  0.97880  Biso   1.000  H
  H2938    1.0000 0.93086  0.18172  0.97880  Biso   1.000  H
  H2939    1.0000 0.86190  0.11011  0.94740  Biso   1.000  H
  C2713    1.0000 0.50773  0.20938  0.06669  Biso   1.000  C
  C2714    1.0000 0.45642  0.23650  0.05774  Biso   1.000  C
  H2940    1.0000 0.56885  0.26086  0.06800  Biso   1.000  H
  H2941    1.0000 0.47432  0.19302  0.07370  Biso   1.000  H
  C2715    1.0000 0.51420  0.12848  0.06223  Biso   1.000  C
  C2716    1.0000 0.45636  0.23650  0.05774  Biso   1.000  C
  H2942    1.0000 0.56889  0.26093  0.06800  Biso   1.000  H
  H2943    1.0000 0.47426  0.19302  0.07370  Biso   1.000  H
  C2717    1.0000 0.51414  0.12848  0.06223  Biso   1.000  C
  H2944    1.0000 0.56894  0.26093  0.06800  Biso   1.000  H
  C2718    1.0000 0.36001  0.15291  0.05598  Biso   1.000  C
  H2945    1.0000 0.45160  0.28852  0.06040  Biso   1.000  H
  H2946    1.0000 0.49010  0.25339  0.05070  Biso   1.000  H
  C2719    1.0000 0.50779  0.20938  0.06669  Biso   1.000  C
  C2720    1.0000 0.35995  0.15291  0.05598  Biso   1.000  C
  H2947    1.0000 0.49005  0.25339  0.05070  Biso   1.000  H
  H2948    1.0000 0.54801  0.11239  0.06750  Biso   1.000  H
  H2949    1.0000 0.54688  0.14477  0.05510  Biso   1.000  H
  C2721    1.0000 0.41749  0.04637  0.06056  Biso   1.000  C
  H2950    1.0000 0.54795  0.11239  0.06750  Biso   1.000  H
  H2951    1.0000 0.54683  0.14477  0.05510  Biso   1.000  H
  C2722    1.0000 0.41743  0.04637  0.06056  Biso   1.000  C
  N417     1.0000 0.31690  0.17707  0.04756  Biso   1.000  N
  H2952    1.0000 0.32449  0.13723  0.06290  Biso   1.000  H
  C2723    1.0000 0.36867  0.07208  0.05188  Biso   1.000  C
  N418     1.0000 0.31684  0.17707  0.04756  Biso   1.000  N
  H2953    1.0000 0.32454  0.13723  0.06290  Biso   1.000  H
  H2954    1.0000 0.38387  0.03089  0.06760  Biso   1.000  H
  H2955    1.0000 0.38393  0.03089  0.06760  Biso   1.000  H
  H2956    1.0000 0.42114  0.99340  0.05800  Biso   1.000  H
  C2724    1.0000 0.25612  0.19470  0.05005  Biso   1.000  C
  C2725    1.0000 0.25606  0.19470  0.05005  Biso   1.000  C
  N419     1.0000 0.27558  0.99838  0.05061  Biso   1.000  N
  H2957    1.0000 0.40131  0.08642  0.04470  Biso   1.000  H
  H2958    1.0000 0.40125  0.08642  0.04470  Biso   1.000  H
  C2726    1.0000 0.20358  0.20817  0.04219  Biso   1.000  C
  H2959    1.0000 0.24509  0.19921  0.05760  Biso   1.000  H
  H2960    1.0000 0.24515  0.19921  0.05760  Biso   1.000  H
  C2727    1.0000 0.25139  0.97880  0.04077  Biso   1.000  C
  C2728    1.0000 0.14311  0.23610  0.04510  Biso   1.000  C
  C2729    1.0000 0.20892  0.19100  0.03099  Biso   1.000  C
  C2730    1.0000 0.14305  0.23610  0.04510  Biso   1.000  C
  C2731    1.0000 0.20887  0.19100  0.03099  Biso   1.000  C
  H2961    1.0000 0.29511  0.00888  0.03520  Biso   1.000  H
  H2962    1.0000 0.29505  0.00888  0.03520  Biso   1.000  H
  C2732    1.0000 0.15756  0.91062  0.03732  Biso   1.000  C
  C2733    1.0000 0.15750  0.91062  0.03732  Biso   1.000  C
  C2734    1.0000 0.08939  0.24686  0.03732  Biso   1.000  C
  H2963    1.0000 0.13809  0.24821  0.05260  Biso   1.000  H
  C2735    1.0000 0.08943  0.24693  0.03732  Biso   1.000  C
  C2736    1.0000 0.08934  0.24686  0.03732  Biso   1.000  C
  C2737    1.0000 0.15920  0.20662  0.02306  Biso   1.000  C
  H2964    1.0000 0.24689  0.16832  0.02880  Biso   1.000  H
  H2965    1.0000 0.24695  0.16832  0.02880  Biso   1.000  H
  C2738    1.0000 0.13613  0.89911  0.02655  Biso   1.000  C
  C2739    1.0000 0.09306  0.85692  0.04510  Biso   1.000  C
  C2740    1.0000 0.13607  0.89911  0.02655  Biso   1.000  C
  C2741    1.0000 0.09294  0.85692  0.04510  Biso   1.000  C
  C2742    1.0000 0.02117  0.27257  0.04077  Biso   1.000  C
  C2743    1.0000 0.10088  0.23697  0.02655  Biso   1.000  C
  C2744    1.0000 0.02123  0.27257  0.04077  Biso   1.000  C
  C2745    1.0000 0.16832  0.19302  0.01110  Biso   1.000  C
  C2746    1.0000 0.16826  0.19302  0.01110  Biso   1.000  C
  C2747    1.0000 0.04742  0.84083  0.02306  Biso   1.000  C
  H2966    1.0000 0.18174  0.93088  0.02120  Biso   1.000  H
  H2967    1.0000 0.18162  0.93088  0.02120  Biso   1.000  H
  H2968    1.0000 0.11018  0.86190  0.05260  Biso   1.000  H
  C2748    1.0000 0.00458  0.79641  0.04219  Biso   1.000  C
  H2969    1.0000 0.11012  0.86190  0.05260  Biso   1.000  H
  N420     1.0000 0.00164  0.27722  0.05061  Biso   1.000  N
  N421     1.0000 0.00158  0.27722  0.05061  Biso   1.000  N
  H2970    1.0000 0.99108  0.28617  0.03520  Biso   1.000  H
  H2971    1.0000 0.99102  0.28617  0.03520  Biso   1.000  H
  H2972    1.0000 0.06908  0.25077  0.02120  Biso   1.000  H
  C2749    1.0000 0.25067  0.20467  0.00720  Biso   1.000  C
  C2750    1.0000 0.19328  0.26416  0.00368  Biso   1.000  C
  C2751    1.0000 0.19331  0.26423  0.00368  Biso   1.000  C
  C2752    1.0000 0.09299  0.16092  0.00383  Biso   1.000  C
  C2753    1.0000 0.15319  0.10950  0.00712  Biso   1.000  C
  C2754    1.0000 0.98204  0.79109  0.03099  Biso   1.000  C
  C2755    1.0000 0.98216  0.79109  0.03099  Biso   1.000  C
  C2756    1.0000 0.02466  0.83168  0.01110  Biso   1.000  C
  C2757    1.0000 0.93858  0.74392  0.05005  Biso   1.000  C
  C2758    1.0000 0.92792  0.29660  0.05188  Biso   1.000  C
  C2759    1.0000 0.92787  0.29660  0.05188  Biso   1.000  C
  H2973    1.0000 0.29860  0.22102  0.01230  Biso   1.000  H
  C2760    1.0000 0.26422  0.19329  0.99632  Biso   1.000  C
  C2761    1.0000 0.26416  0.19329  0.99632  Biso   1.000  C
  H2974    1.0000 0.20220  0.32069  0.00610  Biso   1.000  H
  C2762    1.0000 0.20468  0.25070  0.99280  Biso   1.000  C
  C2763    1.0000 0.20473  0.25070  0.99280  Biso   1.000  C
  C2764    1.0000 0.10946  0.15318  0.99288  Biso   1.000  C
  H2975    1.0000 0.03479  0.14557  0.00640  Biso   1.000  H
  C2765    1.0000 0.16092  0.09301  0.99617  Biso   1.000  C
  H2976    1.0000 0.13678  0.06199  0.01220  Biso   1.000  H
  H2977    1.0000 0.92133  0.75314  0.02880  Biso   1.000  H
  H2978    1.0000 0.92139  0.75314  0.02880  Biso   1.000  H
  C2766    1.0000 0.95398  0.74930  0.00720  Biso   1.000  C
  C2767    1.0000 0.95634  0.84682  0.00712  Biso   1.000  C
  C2768    1.0000 0.07098  0.80671  0.00368  Biso   1.000  C
  C2769    1.0000 0.07087  0.80671  0.00368  Biso   1.000  C
  C2770    1.0000 0.06785  0.90699  0.00383  Biso   1.000  C
  H2979    1.0000 0.95409  0.75489  0.05760  Biso   1.000  H
  N422     1.0000 0.86019  0.68307  0.04756  Biso   1.000  N
  N423     1.0000 0.86028  0.68314  0.04756  Biso   1.000  N
  N424     1.0000 0.86025  0.68307  0.04756  Biso   1.000  N
  N425     1.0000 0.86022  0.68314  0.04756  Biso   1.000  N
  C2771    1.0000 0.84709  0.20709  0.05598  Biso   1.000  C
  C2772    1.0000 0.95363  0.37110  0.06056  Biso   1.000  C
  H2980    1.0000 0.91359  0.31491  0.04470  Biso   1.000  H
  C2773    1.0000 0.95358  0.37110  0.06056  Biso   1.000  C
  C2774    1.0000 0.84703  0.20709  0.05598  Biso   1.000  C
  H2981    1.0000 0.32071  0.20218  0.99390  Biso   1.000  H
  C2775    1.0000 0.19298  0.16832  0.98890  Biso   1.000  C
  H2982    1.0000 0.32065  0.20218  0.99390  Biso   1.000  H
  C2776    1.0000 0.19304  0.16832  0.98890  Biso   1.000  C
  H2983    1.0000 0.22100  0.29862  0.98770  Biso   1.000  H
  H2984    1.0000 0.06200  0.13682  0.98780  Biso   1.000  H
  H2985    1.0000 0.14557  0.03480  0.99360  Biso   1.000  H
  C2777    1.0000 0.92912  0.73584  0.99632  Biso   1.000  C
  H2986    1.0000 0.92238  0.70138  0.01230  Biso   1.000  H
  C2778    1.0000 0.93207  0.83908  0.99617  Biso   1.000  C
  H2987    1.0000 0.92518  0.86318  0.01220  Biso   1.000  H
  H2988    1.0000 0.11853  0.79782  0.00610  Biso   1.000  H
  C2779    1.0000 0.04606  0.79533  0.99280  Biso   1.000  C
  C2780    1.0000 0.04600  0.79533  0.99280  Biso   1.000  C
  C2781    1.0000 0.04364  0.89050  0.99288  Biso   1.000  C
  H2989    1.0000 0.11083  0.96520  0.00640  Biso   1.000  H
  C2782    1.0000 0.79284  0.64000  0.05598  Biso   1.000  C
  C2783    1.0000 0.79290  0.64000  0.05598  Biso   1.000  C
  N426     1.0000 0.82288  0.13979  0.04756  Biso   1.000  N
  H2990    1.0000 0.86278  0.18730  0.06290  Biso   1.000  H
  C2784    1.0000 0.76349  0.21988  0.05774  Biso   1.000  C
  C2785    1.0000 0.76343  0.21988  0.05774  Biso   1.000  C
  H2991    1.0000 0.00659  0.42770  0.05800  Biso   1.000  H
  H2992    1.0000 0.00665  0.42770  0.05800  Biso   1.000  H
  C2786    1.0000 0.87153  0.38571  0.06223  Biso   1.000  C
  H2993    1.0000 0.96912  0.35300  0.06760  Biso   1.000  H
  C2787    1.0000 0.87147  0.38571  0.06223  Biso   1.000  C
  H2994    1.0000 0.96906  0.35300  0.06760  Biso   1.000  H
  C2788    1.0000 0.20659  0.15917  0.97694  Biso   1.000  C
  C2789    1.0000 0.20653  0.15917  0.97694  Biso   1.000  C
  C2790    1.0000 0.97530  0.80698  0.98890  Biso   1.000  C
  H2995    1.0000 0.88150  0.67931  0.99390  Biso   1.000  H
  H2996    1.0000 0.88156  0.67931  0.99390  Biso   1.000  H
  H2997    1.0000 0.88927  0.85443  0.99360  Biso   1.000  H
  H2998    1.0000 0.07763  0.77898  0.98770  Biso   1.000  H
  H2999    1.0000 0.07758  0.77898  0.98770  Biso   1.000  H
  H3000    1.0000 0.07480  0.93801  0.98780  Biso   1.000  H
  H3001    1.0000 0.81271  0.67554  0.06290  Biso   1.000  H
  C2791    1.0000 0.78003  0.54363  0.05774  Biso   1.000  C
  C2792    1.0000 0.70334  0.63132  0.05188  Biso   1.000  C
  H3002    1.0000 0.81276  0.67554  0.06290  Biso   1.000  H
  C2793    1.0000 0.78009  0.54363  0.05774  Biso   1.000  C
  C2794    1.0000 0.70346  0.63132  0.05188  Biso   1.000  C
  C2795    1.0000 0.80530  0.06138  0.05005  Biso   1.000  C
  C2796    1.0000 0.80524  0.06138  0.05005  Biso   1.000  C
  H3003    1.0000 0.71148  0.16307  0.06040  Biso   1.000  H
  H3004    1.0000 0.74661  0.23670  0.05070  Biso   1.000  H
  C2797    1.0000 0.79064  0.29842  0.06669  Biso   1.000  C
  C2798    1.0000 0.79058  0.29842  0.06669  Biso   1.000  C
  H3005    1.0000 0.74655  0.23670  0.05070  Biso   1.000  H
  H3006    1.0000 0.88760  0.43558  0.06750  Biso   1.000  H
  H3007    1.0000 0.85517  0.40206  0.05510  Biso   1.000  H
  H3008    1.0000 0.88755  0.43558  0.06750  Biso   1.000  H
  C2799    1.0000 0.23701  0.10089  0.97345  Biso   1.000  C
  C2800    1.0000 0.19101  0.20891  0.96901  Biso   1.000  C
  C2801    1.0000 0.23696  0.10089  0.97345  Biso   1.000  C
  C2802    1.0000 0.95259  0.79338  0.97694  Biso   1.000  C
  C2803    1.0000 0.95265  0.79338  0.97694  Biso   1.000  C
  H3009    1.0000 0.83686  0.54840  0.06040  Biso   1.000  H
  H3010    1.0000 0.76323  0.50991  0.05070  Biso   1.000  H
  C2804    1.0000 0.70163  0.49221  0.06669  Biso   1.000  C
  H3011    1.0000 0.76329  0.50991  0.05070  Biso   1.000  H
  H3012    1.0000 0.68513  0.59875  0.04470  Biso   1.000  H
  N427     1.0000 0.72272  0.72440  0.05061  Biso   1.000  N
  C2805    1.0000 0.62894  0.58253  0.06056  Biso   1.000  C
  H3013    1.0000 0.68510  0.59868  0.04470  Biso   1.000  H
  N428     1.0000 0.72278  0.72440  0.05061  Biso   1.000  N
  C2806    1.0000 0.79173  0.99542  0.04219  Biso   1.000  C
  C2807    1.0000 0.79179  0.99542  0.04219  Biso   1.000  C
  H3014    1.0000 0.80082  0.04590  0.05760  Biso   1.000  H
  H3015    1.0000 0.80077  0.04590  0.05760  Biso   1.000  H
  H3016    1.0000 0.73911  0.30797  0.06800  Biso   1.000  H
  H3017    1.0000 0.80704  0.28132  0.07370  Biso   1.000  H
  H3018    1.0000 0.73905  0.30797  0.06800  Biso   1.000  H
  H3019    1.0000 0.80698  0.28132  0.07370  Biso   1.000  H
  H3020    1.0000 0.25080  0.06912  0.97880  Biso   1.000  H
  C2808    1.0000 0.24688  0.08938  0.96268  Biso   1.000  C
  C2809    1.0000 0.20816  0.20359  0.95781  Biso   1.000  C
  H3021    1.0000 0.16825  0.24686  0.97120  Biso   1.000  H
  H3022    1.0000 0.16829  0.24693  0.97120  Biso   1.000  H
  C2810    1.0000 0.20822  0.20359  0.95781  Biso   1.000  C
  H3023    1.0000 0.16835  0.24693  0.97120  Biso   1.000  H
  C2811    1.0000 0.01792  0.80900  0.96901  Biso   1.000  C
  C2812    1.0000 0.86391  0.76303  0.97345  Biso   1.000  C
  C2813    1.0000 0.86397  0.76303  0.97345  Biso   1.000  C
  H3024    1.0000 0.69194  0.43110  0.06800  Biso   1.000  H
  H3025    1.0000 0.71874  0.52572  0.07370  Biso   1.000  H
  C2814    1.0000 0.61427  0.48581  0.06223  Biso   1.000  C
  H3026    1.0000 0.69200  0.43110  0.06800  Biso   1.000  H
  C2815    1.0000 0.72738  0.74863  0.04077  Biso   1.000  C
  H3027    1.0000 0.57222  0.57889  0.05800  Biso   1.000  H
  H3028    1.0000 0.64695  0.61611  0.06760  Biso   1.000  H
  H3029    1.0000 0.57233  0.57889  0.05800  Biso   1.000  H
  H3030    1.0000 0.64701  0.61611  0.06760  Biso   1.000  H
  C2816    1.0000 0.76389  0.90699  0.04510  Biso   1.000  C
  C2817    1.0000 0.76395  0.90699  0.04510  Biso   1.000  C
  C2818    1.0000 0.80903  0.01790  0.03099  Biso   1.000  C
  C2819    1.0000 0.80897  0.01790  0.03099  Biso   1.000  C
  C2820    1.0000 0.27259  0.02120  0.95923  Biso   1.000  C
  C2821    1.0000 0.23608  0.14308  0.95490  Biso   1.000  C
  C2822    1.0000 0.19466  0.25608  0.94995  Biso   1.000  C
  C2823    1.0000 0.19472  0.25608  0.94995  Biso   1.000  C
  C2824    1.0000 0.99535  0.79183  0.95781  Biso   1.000  C
  C2825    1.0000 0.99547  0.79183  0.95781  Biso   1.000  C
  H3031    1.0000 0.07857  0.83168  0.97120  Biso   1.000  H
  H3032    1.0000 0.81825  0.74923  0.97880  Biso   1.000  H
  C2826    1.0000 0.84247  0.75314  0.96268  Biso   1.000  C
  H3033    1.0000 0.81831  0.74923  0.97880  Biso   1.000  H
  C2827    1.0000 0.84253  0.75314  0.96268  Biso   1.000  C
  H3034    1.0000 0.56439  0.45203  0.06750  Biso   1.000  H
  H3035    1.0000 0.59786  0.45310  0.05510  Biso   1.000  H
  H3036    1.0000 0.56445  0.45203  0.06750  Biso   1.000  H
  H3037    1.0000 0.59792  0.45310  0.05510  Biso   1.000  H
  C2828    1.0000 0.75310  0.84251  0.03732  Biso   1.000  C
  H3038    1.0000 0.71372  0.70488  0.03520  Biso   1.000  H
  H3039    1.0000 0.71384  0.70488  0.03520  Biso   1.000  H
  H3040    1.0000 0.75179  0.88989  0.05260  Biso   1.000  H
  H3041    1.0000 0.75185  0.88989  0.05260  Biso   1.000  H
  C2829    1.0000 0.79335  0.95262  0.02306  Biso   1.000  C
  C2830    1.0000 0.79341  0.95262  0.02306  Biso   1.000  C
  H3042    1.0000 0.83169  0.07861  0.02880  Biso   1.000  H
  H3043    1.0000 0.28623  0.99112  0.96480  Biso   1.000  H
  N429     1.0000 0.27720  0.00162  0.94939  Biso   1.000  N
  H3044    1.0000 0.24822  0.13810  0.94740  Biso   1.000  H
  H3045    1.0000 0.24816  0.13810  0.94740  Biso   1.000  H
  N430     1.0000 0.17711  0.31693  0.95244  Biso   1.000  N
  H3046    1.0000 0.19920  0.24511  0.94240  Biso   1.000  H
  C2831    1.0000 0.06142  0.80530  0.94995  Biso   1.000  C
  C2832    1.0000 0.90696  0.76390  0.95490  Biso   1.000  C
  C2833    1.0000 0.74854  0.72743  0.95923  Biso   1.000  C
  C2834    1.0000 0.74866  0.72743  0.95923  Biso   1.000  C
  C2835    1.0000 0.76293  0.86392  0.02655  Biso   1.000  C
  C2836    1.0000 0.76305  0.86392  0.02655  Biso   1.000  C
  C2837    1.0000 0.80702  0.97530  0.01110  Biso   1.000  C
  C2838    1.0000 0.29659  0.92792  0.94812  Biso   1.000  C
  C2839    1.0000 0.15290  0.36000  0.94402  Biso   1.000  C
  N431     1.0000 0.13983  0.82293  0.95244  Biso   1.000  N
  H3047    1.0000 0.04593  0.80079  0.94240  Biso   1.000  H
  N432     1.0000 0.13977  0.82293  0.95244  Biso   1.000  N
  H3048    1.0000 0.88983  0.75179  0.94740  Biso   1.000  H
  H3049    1.0000 0.88988  0.75179  0.94740  Biso   1.000  H
  N433     1.0000 0.72442  0.72278  0.94939  Biso   1.000  N
  H3050    1.0000 0.70491  0.71383  0.96480  Biso   1.000  H
  H3051    1.0000 0.70497  0.71383  0.96480  Biso   1.000  H
  H3052    1.0000 0.74921  0.81828  0.02120  Biso   1.000  H
  C2840    1.0000 0.73580  0.92913  0.00368  Biso   1.000  C
  C2841    1.0000 0.83910  0.93209  0.00383  Biso   1.000  C
  C2842    1.0000 0.79526  0.04597  0.00720  Biso   1.000  C
  C2843    1.0000 0.79530  0.04603  0.00720  Biso   1.000  C
  C2844    1.0000 0.89046  0.04368  0.00712  Biso   1.000  C
  H3053    1.0000 0.31490  0.91358  0.95530  Biso   1.000  H
  C2845    1.0000 0.20710  0.84709  0.94402  Biso   1.000  C
  C2846    1.0000 0.37117  0.95363  0.93944  Biso   1.000  C
  C2847    1.0000 0.20704  0.84709  0.94402  Biso   1.000  C
  C2848    1.0000 0.37106  0.95363  0.93944  Biso   1.000  C
  H3054    1.0000 0.13717  0.32446  0.93710  Biso   1.000  H
  C2849    1.0000 0.23646  0.45637  0.94226  Biso   1.000  C
  C2850    1.0000 0.07208  0.36868  0.94812  Biso   1.000  C
  H3055    1.0000 0.13723  0.32446  0.93710  Biso   1.000  H
  C2851    1.0000 0.23652  0.45637  0.94226  Biso   1.000  C
  C2852    1.0000 0.63132  0.70340  0.94812  Biso   1.000  C
  C2853    1.0000 0.74924  0.95403  0.99280  Biso   1.000  C
  C2854    1.0000 0.74935  0.95403  0.99280  Biso   1.000  C
  H3056    1.0000 0.67921  0.88148  0.00610  Biso   1.000  H
  H3057    1.0000 0.67927  0.88148  0.00610  Biso   1.000  H
  C2855    1.0000 0.84684  0.95632  0.99288  Biso   1.000  C
  H3058    1.0000 0.85438  0.88922  0.00640  Biso   1.000  H
  C2856    1.0000 0.80666  0.07087  0.99632  Biso   1.000  C
  H3059    1.0000 0.77902  0.07760  0.01230  Biso   1.000  H
  H3060    1.0000 0.77896  0.07760  0.01230  Biso   1.000  H
  C2857    1.0000 0.90695  0.06791  0.99617  Biso   1.000  C
  H3061    1.0000 0.93795  0.07477  0.01220  Biso   1.000  H
  H3062    1.0000 0.18732  0.86277  0.93710  Biso   1.000  H
  C2858    1.0000 0.21998  0.76350  0.94226  Biso   1.000  C
  H3063    1.0000 0.18735  0.86284  0.93710  Biso   1.000  H
  C2859    1.0000 0.21986  0.76350  0.94226  Biso   1.000  C
  C2860    1.0000 0.38578  0.87152  0.93777  Biso   1.000  C
  H3064    1.0000 0.35303  0.96911  0.93240  Biso   1.000  H
  C2861    1.0000 0.38572  0.87152  0.93777  Biso   1.000  C
  H3065    1.0000 0.42767  0.00660  0.94200  Biso   1.000  H
  H3066    1.0000 0.42773  0.00660  0.94200  Biso   1.000  H
  H3067    1.0000 0.28851  0.45160  0.93960  Biso   1.000  H
  H3068    1.0000 0.25338  0.49009  0.94930  Biso   1.000  H
  C2862    1.0000 0.20943  0.50779  0.93331  Biso   1.000  C
  H3069    1.0000 0.28845  0.45160  0.93960  Biso   1.000  H
  C2863    1.0000 0.20937  0.50779  0.93331  Biso   1.000  C
  H3070    1.0000 0.25344  0.49009  0.94930  Biso   1.000  H
  N434     1.0000 0.99838  0.27560  0.94939  Biso   1.000  N
  C2864    1.0000 0.04641  0.41747  0.93944  Biso   1.000  C
  H3071    1.0000 0.08642  0.40132  0.95530  Biso   1.000  H
  C2865    1.0000 0.04635  0.41747  0.93944  Biso   1.000  C
  H3072    1.0000 0.08636  0.40132  0.95530  Biso   1.000  H
  H3073    1.0000 0.59868  0.68509  0.95530  Biso   1.000  H
  C2866    1.0000 0.63994  0.79291  0.94402  Biso   1.000  C
  C2867    1.0000 0.58253  0.62890  0.93944  Biso   1.000  C
  C2868    1.0000 0.64006  0.79291  0.94402  Biso   1.000  C
  H3074    1.0000 0.70142  0.92240  0.98770  Biso   1.000  H
  C2869    1.0000 0.83172  0.02470  0.98890  Biso   1.000  C
  C2870    1.0000 0.83167  0.02470  0.98890  Biso   1.000  C
  H3075    1.0000 0.86318  0.92523  0.98780  Biso   1.000  H
  H3076    1.0000 0.79779  0.11852  0.99390  Biso   1.000  H
  H3077    1.0000 0.96516  0.11078  0.99360  Biso   1.000  H
  H3078    1.0000 0.16313  0.71148  0.93960  Biso   1.000  H
  H3079    1.0000 0.23677  0.74661  0.94930  Biso   1.000  H
  C2871    1.0000 0.29847  0.79062  0.93331  Biso   1.000  C
  H3080    1.0000 0.16317  0.71154  0.93960  Biso   1.000  H
  H3081    1.0000 0.23665  0.74661  0.94930  Biso   1.000  H
  C2872    1.0000 0.29835  0.79062  0.93331  Biso   1.000  C
  H3082    1.0000 0.16305  0.71154  0.93960  Biso   1.000  H
  H3083    1.0000 0.43561  0.88761  0.93250  Biso   1.000  H
  H3084    1.0000 0.40218  0.85523  0.94490  Biso   1.000  H
  H3085    1.0000 0.40206  0.85523  0.94490  Biso   1.000  H
  H3086    1.0000 0.26090  0.56890  0.93200  Biso   1.000  H
  H3087    1.0000 0.19302  0.47428  0.92630  Biso   1.000  H
  C2873    1.0000 0.12852  0.51419  0.93777  Biso   1.000  C
  H3088    1.0000 0.19296  0.47428  0.92630  Biso   1.000  H
  C2874    1.0000 0.12846  0.51419  0.93777  Biso   1.000  C
  C2875    1.0000 0.97881  0.25137  0.95923  Biso   1.000  C
  C2876    1.0000 0.97875  0.25137  0.95923  Biso   1.000  C
  H3089    1.0000 0.99338  0.42111  0.94200  Biso   1.000  H
  H3090    1.0000 0.03090  0.38389  0.93240  Biso   1.000  H
  C2877    1.0000 0.54361  0.78012  0.94226  Biso   1.000  C
  N435     1.0000 0.68304  0.86021  0.95244  Biso   1.000  N
  H3091    1.0000 0.67542  0.81270  0.93710  Biso   1.000  H
  N436     1.0000 0.68315  0.86021  0.95244  Biso   1.000  N
  H3092    1.0000 0.67548  0.81270  0.93710  Biso   1.000  H
  C2878    1.0000 0.48582  0.61429  0.93777  Biso   1.000  C
  H3093    1.0000 0.57883  0.57230  0.94200  Biso   1.000  H
  H3094    1.0000 0.61612  0.64700  0.93240  Biso   1.000  H
  H3095    1.0000 0.57894  0.57230  0.94200  Biso   1.000  H
  C2879    1.0000 0.84079  0.04738  0.97694  Biso   1.000  C
  C2880    1.0000 0.84073  0.04738  0.97694  Biso   1.000  C
  H3096    1.0000 0.30799  0.73914  0.93200  Biso   1.000  H
  H3097    1.0000 0.28129  0.80698  0.92630  Biso   1.000  H
  H3098    1.0000 0.28124  0.80698  0.92630  Biso   1.000  H
  H3099    1.0000 0.11236  0.54797  0.93250  Biso   1.000  H
  H3100    1.0000 0.14481  0.54690  0.94490  Biso   1.000  H
  H3101    1.0000 0.14475  0.54690  0.94490  Biso   1.000  H
  H3102    1.0000 0.11242  0.54797  0.93250  Biso   1.000  H
  C2881    1.0000 0.91059  0.15749  0.96268  Biso   1.000  C
  C2882    1.0000 0.91053  0.15749  0.96268  Biso   1.000  C
  H3103    1.0000 0.00890  0.29512  0.96480  Biso   1.000  H
  H3104    1.0000 0.00896  0.29512  0.96480  Biso   1.000  H
  H3105    1.0000 0.50991  0.76330  0.94930  Biso   1.000  H
  H3106    1.0000 0.54841  0.83693  0.93960  Biso   1.000  H
  C2883    1.0000 0.49222  0.70158  0.93331  Biso   1.000  C
  H3107    1.0000 0.54847  0.83693  0.93960  Biso   1.000  H
  C2884    1.0000 0.74386  0.93862  0.94995  Biso   1.000  C
  C2885    1.0000 0.74398  0.93862  0.94995  Biso   1.000  C
  H3108    1.0000 0.45202  0.56442  0.93250  Biso   1.000  H
  H3109    1.0000 0.45310  0.59794  0.94490  Biso   1.000  H
  C2886    1.0000 0.79113  0.98210  0.96901  Biso   1.000  C
  C2887    1.0000 0.89907  0.13608  0.97345  Biso   1.000  C
  C2888    1.0000 0.85690  0.09301  0.95490  Biso   1.000  C
  C2889    1.0000 0.85685  0.09301  0.95490  Biso   1.000  C
  H3110    1.0000 0.43108  0.69203  0.93200  Biso   1.000  H
  H3111    1.0000 0.52571  0.71868  0.92630  Biso   1.000  H
  H3112    1.0000 0.75487  0.95410  0.94240  Biso   1.000  H
  C2890    1.0000 0.79637  0.00458  0.95781  Biso   1.000  C
  H3113    1.0000 0.75308  0.92139  0.97120  Biso   1.000  H
  H3114    1.0000 0.93092  0.18172  0.97880  Biso   1.000  H
  H3115    1.0000 0.93086  0.18172  0.97880  Biso   1.000  H
  H3116    1.0000 0.86190  0.11011  0.94740  Biso   1.000  H
  C2891    1.0000 0.50773  0.20938  0.06669  Biso   1.000  C
  C2892    1.0000 0.45636  0.23650  0.05774  Biso   1.000  C
  H3117    1.0000 0.56885  0.26086  0.06800  Biso   1.000  H
  H3118    1.0000 0.47426  0.19302  0.07370  Biso   1.000  H
  C2893    1.0000 0.51414  0.12848  0.06223  Biso   1.000  C
  C2894    1.0000 0.45642  0.23650  0.05774  Biso   1.000  C
  H3119    1.0000 0.47432  0.19302  0.07370  Biso   1.000  H
  C2895    1.0000 0.51420  0.12848  0.06223  Biso   1.000  C
  H3120    1.0000 0.56889  0.26093  0.06800  Biso   1.000  H
  H3121    1.0000 0.56894  0.26093  0.06800  Biso   1.000  H
  C2896    1.0000 0.50779  0.20938  0.06669  Biso   1.000  C
  H3122    1.0000 0.45160  0.28852  0.06040  Biso   1.000  H
  C2897    1.0000 0.35995  0.15291  0.05598  Biso   1.000  C
  H3123    1.0000 0.49005  0.25339  0.05070  Biso   1.000  H
  C2898    1.0000 0.36001  0.15291  0.05598  Biso   1.000  C
  H3124    1.0000 0.49010  0.25339  0.05070  Biso   1.000  H
  H3125    1.0000 0.54688  0.14477  0.05510  Biso   1.000  H
  C2899    1.0000 0.41749  0.04637  0.06056  Biso   1.000  C
  H3126    1.0000 0.54795  0.11239  0.06750  Biso   1.000  H
  H3127    1.0000 0.54801  0.11239  0.06750  Biso   1.000  H
  H3128    1.0000 0.54683  0.14477  0.05510  Biso   1.000  H
  C2900    1.0000 0.41743  0.04637  0.06056  Biso   1.000  C
  H3129    1.0000 0.32449  0.13723  0.06290  Biso   1.000  H
  C2901    1.0000 0.36867  0.07208  0.05188  Biso   1.000  C
  N437     1.0000 0.31684  0.17707  0.04756  Biso   1.000  N
  N438     1.0000 0.31690  0.17707  0.04756  Biso   1.000  N
  H3130    1.0000 0.32454  0.13723  0.06290  Biso   1.000  H
  H3131    1.0000 0.38387  0.03089  0.06760  Biso   1.000  H
  H3132    1.0000 0.42114  0.99340  0.05800  Biso   1.000  H
  H3133    1.0000 0.38393  0.03089  0.06760  Biso   1.000  H
  N439     1.0000 0.27558  0.99838  0.05061  Biso   1.000  N
  H3134    1.0000 0.40125  0.08642  0.04470  Biso   1.000  H
  H3135    1.0000 0.40131  0.08642  0.04470  Biso   1.000  H
  C2902    1.0000 0.25606  0.19470  0.05005  Biso   1.000  C
  C2903    1.0000 0.25612  0.19470  0.05005  Biso   1.000  C
  C2904    1.0000 0.25139  0.97880  0.04077  Biso   1.000  C
  C2905    1.0000 0.20358  0.20817  0.04219  Biso   1.000  C
  H3136    1.0000 0.24509  0.19921  0.05760  Biso   1.000  H
  H3137    1.0000 0.24515  0.19921  0.05760  Biso   1.000  H
  H3138    1.0000 0.29505  0.00888  0.03520  Biso   1.000  H
  H3139    1.0000 0.29511  0.00888  0.03520  Biso   1.000  H
  C2906    1.0000 0.15756  0.91062  0.03732  Biso   1.000  C
  C2907    1.0000 0.15750  0.91062  0.03732  Biso   1.000  C
  C2908    1.0000 0.14305  0.23610  0.04510  Biso   1.000  C
  C2909    1.0000 0.20887  0.19100  0.03099  Biso   1.000  C
  C2910    1.0000 0.14311  0.23610  0.04510  Biso   1.000  C
  C2911    1.0000 0.20892  0.19100  0.03099  Biso   1.000  C
  C2912    1.0000 0.13613  0.89911  0.02655  Biso   1.000  C
  C2913    1.0000 0.09306  0.85692  0.04510  Biso   1.000  C
  C2914    1.0000 0.13607  0.89911  0.02655  Biso   1.000  C
  C2915    1.0000 0.09294  0.85692  0.04510  Biso   1.000  C
  H3140    1.0000 0.13809  0.24821  0.05260  Biso   1.000  H
  C2916    1.0000 0.08943  0.24693  0.03732  Biso   1.000  C
  C2917    1.0000 0.08939  0.24686  0.03732  Biso   1.000  C
  C2918    1.0000 0.08934  0.24686  0.03732  Biso   1.000  C
  C2919    1.0000 0.15920  0.20662  0.02306  Biso   1.000  C
  H3141    1.0000 0.24689  0.16832  0.02880  Biso   1.000  H
  H3142    1.0000 0.24695  0.16832  0.02880  Biso   1.000  H
  C2920    1.0000 0.04742  0.84083  0.02306  Biso   1.000  C
  H3143    1.0000 0.18174  0.93088  0.02120  Biso   1.000  H
  H3144    1.0000 0.18162  0.93088  0.02120  Biso   1.000  H
  H3145    1.0000 0.11018  0.86190  0.05260  Biso   1.000  H
  C2921    1.0000 0.00458  0.79641  0.04219  Biso   1.000  C
  H3146    1.0000 0.11012  0.86190  0.05260  Biso   1.000  H
  C2922    1.0000 0.02117  0.27257  0.04077  Biso   1.000  C
  C2923    1.0000 0.10088  0.23697  0.02655  Biso   1.000  C
  C2924    1.0000 0.02123  0.27257  0.04077  Biso   1.000  C
  C2925    1.0000 0.16832  0.19302  0.01110  Biso   1.000  C
  C2926    1.0000 0.16826  0.19302  0.01110  Biso   1.000  C
  C2927    1.0000 0.98204  0.79109  0.03099  Biso   1.000  C
  C2928    1.0000 0.98216  0.79109  0.03099  Biso   1.000  C
  C2929    1.0000 0.02466  0.83168  0.01110  Biso   1.000  C
  C2930    1.0000 0.93858  0.74392  0.05005  Biso   1.000  C
  N440     1.0000 0.00158  0.27722  0.05061  Biso   1.000  N
  N441     1.0000 0.00164  0.27722  0.05061  Biso   1.000  N
  H3147    1.0000 0.99108  0.28617  0.03520  Biso   1.000  H
  H3148    1.0000 0.99102  0.28617  0.03520  Biso   1.000  H
  H3149    1.0000 0.06908  0.25077  0.02120  Biso   1.000  H
  C2931    1.0000 0.25067  0.20467  0.00720  Biso   1.000  C
  C2932    1.0000 0.19328  0.26416  0.00368  Biso   1.000  C
  C2933    1.0000 0.19331  0.26423  0.00368  Biso   1.000  C
  C2934    1.0000 0.09299  0.16092  0.00383  Biso   1.000  C
  C2935    1.0000 0.15319  0.10950  0.00712  Biso   1.000  C
  H3150    1.0000 0.92133  0.75314  0.02880  Biso   1.000  H
  H3151    1.0000 0.92139  0.75314  0.02880  Biso   1.000  H
  C2936    1.0000 0.95398  0.74930  0.00720  Biso   1.000  C
  C2937    1.0000 0.95634  0.84682  0.00712  Biso   1.000  C
  C2938    1.0000 0.07098  0.80671  0.00368  Biso   1.000  C
  C2939    1.0000 0.07087  0.80671  0.00368  Biso   1.000  C
  C2940    1.0000 0.06785  0.90699  0.00383  Biso   1.000  C
  H3152    1.0000 0.95409  0.75489  0.05760  Biso   1.000  H
  N442     1.0000 0.86019  0.68307  0.04756  Biso   1.000  N
  N443     1.0000 0.86028  0.68314  0.04756  Biso   1.000  N
  N444     1.0000 0.86025  0.68307  0.04756  Biso   1.000  N
  N445     1.0000 0.86022  0.68314  0.04756  Biso   1.000  N
  C2941    1.0000 0.92792  0.29660  0.05188  Biso   1.000  C
  C2942    1.0000 0.92787  0.29660  0.05188  Biso   1.000  C
  H3153    1.0000 0.29860  0.22102  0.01230  Biso   1.000  H
  C2943    1.0000 0.26422  0.19329  0.99632  Biso   1.000  C
  C2944    1.0000 0.26416  0.19329  0.99632  Biso   1.000  C
  H3154    1.0000 0.20220  0.32069  0.00610  Biso   1.000  H
  C2945    1.0000 0.20468  0.25070  0.99280  Biso   1.000  C
  C2946    1.0000 0.20473  0.25070  0.99280  Biso   1.000  C
  C2947    1.0000 0.10946  0.15318  0.99288  Biso   1.000  C
  H3155    1.0000 0.03479  0.14557  0.00640  Biso   1.000  H
  C2948    1.0000 0.16092  0.09301  0.99617  Biso   1.000  C
  H3156    1.0000 0.13678  0.06199  0.01220  Biso   1.000  H
  C2949    1.0000 0.92912  0.73584  0.99632  Biso   1.000  C
  H3157    1.0000 0.92238  0.70138  0.01230  Biso   1.000  H
  C2950    1.0000 0.93207  0.83908  0.99617  Biso   1.000  C
  H3158    1.0000 0.92518  0.86318  0.01220  Biso   1.000  H
  H3159    1.0000 0.11853  0.79782  0.00610  Biso   1.000  H
  C2951    1.0000 0.04606  0.79533  0.99280  Biso   1.000  C
  C2952    1.0000 0.04600  0.79533  0.99280  Biso   1.000  C
  C2953    1.0000 0.04364  0.89050  0.99288  Biso   1.000  C
  H3160    1.0000 0.11083  0.96520  0.00640  Biso   1.000  H
  C2954    1.0000 0.79284  0.64000  0.05598  Biso   1.000  C
  C2955    1.0000 0.79290  0.64000  0.05598  Biso   1.000  C
  C2956    1.0000 0.84709  0.20709  0.05598  Biso   1.000  C
  C2957    1.0000 0.95363  0.37110  0.06056  Biso   1.000  C
  H3161    1.0000 0.91359  0.31491  0.04470  Biso   1.000  H
  C2958    1.0000 0.95358  0.37110  0.06056  Biso   1.000  C
  C2959    1.0000 0.84703  0.20709  0.05598  Biso   1.000  C
  H3162    1.0000 0.32071  0.20218  0.99390  Biso   1.000  H
  C2960    1.0000 0.19298  0.16832  0.98890  Biso   1.000  C
  H3163    1.0000 0.32065  0.20218  0.99390  Biso   1.000  H
  C2961    1.0000 0.19304  0.16832  0.98890  Biso   1.000  C
  H3164    1.0000 0.22100  0.29862  0.98770  Biso   1.000  H
  H3165    1.0000 0.06200  0.13682  0.98780  Biso   1.000  H
  H3166    1.0000 0.14557  0.03480  0.99360  Biso   1.000  H
  C2962    1.0000 0.97530  0.80698  0.98890  Biso   1.000  C
  H3167    1.0000 0.88150  0.67931  0.99390  Biso   1.000  H
  H3168    1.0000 0.88156  0.67931  0.99390  Biso   1.000  H
  H3169    1.0000 0.88927  0.85443  0.99360  Biso   1.000  H
  H3170    1.0000 0.07763  0.77898  0.98770  Biso   1.000  H
  H3171    1.0000 0.07758  0.77898  0.98770  Biso   1.000  H
  H3172    1.0000 0.07480  0.93801  0.98780  Biso   1.000  H
  H3173    1.0000 0.81271  0.67554  0.06290  Biso   1.000  H
  C2963    1.0000 0.78003  0.54363  0.05774  Biso   1.000  C
  C2964    1.0000 0.70334  0.63132  0.05188  Biso   1.000  C
  H3174    1.0000 0.81276  0.67554  0.06290  Biso   1.000  H
  C2965    1.0000 0.78009  0.54363  0.05774  Biso   1.000  C
  C2966    1.0000 0.70346  0.63132  0.05188  Biso   1.000  C
  N446     1.0000 0.82288  0.13979  0.04756  Biso   1.000  N
  H3175    1.0000 0.86278  0.18730  0.06290  Biso   1.000  H
  C2967    1.0000 0.76349  0.21988  0.05774  Biso   1.000  C
  C2968    1.0000 0.76343  0.21988  0.05774  Biso   1.000  C
  H3176    1.0000 0.00659  0.42770  0.05800  Biso   1.000  H
  C2969    1.0000 0.87153  0.38571  0.06223  Biso   1.000  C
  H3177    1.0000 0.96912  0.35300  0.06760  Biso   1.000  H
  C2970    1.0000 0.87147  0.38571  0.06223  Biso   1.000  C
  H3178    1.0000 0.96906  0.35300  0.06760  Biso   1.000  H
  H3179    1.0000 0.00665  0.42770  0.05800  Biso   1.000  H
  C2971    1.0000 0.20659  0.15917  0.97694  Biso   1.000  C
  C2972    1.0000 0.20653  0.15917  0.97694  Biso   1.000  C
  C2973    1.0000 0.95259  0.79338  0.97694  Biso   1.000  C
  C2974    1.0000 0.95265  0.79338  0.97694  Biso   1.000  C
  H3180    1.0000 0.83686  0.54840  0.06040  Biso   1.000  H
  H3181    1.0000 0.76323  0.50991  0.05070  Biso   1.000  H
  C2975    1.0000 0.70163  0.49221  0.06669  Biso   1.000  C
  H3182    1.0000 0.76329  0.50991  0.05070  Biso   1.000  H
  H3183    1.0000 0.68513  0.59875  0.04470  Biso   1.000  H
  N447     1.0000 0.72272  0.72440  0.05061  Biso   1.000  N
  C2976    1.0000 0.62894  0.58253  0.06056  Biso   1.000  C
  H3184    1.0000 0.68510  0.59868  0.04470  Biso   1.000  H
  N448     1.0000 0.72278  0.72440  0.05061  Biso   1.000  N
  C2977    1.0000 0.80530  0.06138  0.05005  Biso   1.000  C
  C2978    1.0000 0.80524  0.06138  0.05005  Biso   1.000  C
  H3185    1.0000 0.71148  0.16307  0.06040  Biso   1.000  H
  H3186    1.0000 0.74661  0.23670  0.05070  Biso   1.000  H
  C2979    1.0000 0.79064  0.29842  0.06669  Biso   1.000  C
  C2980    1.0000 0.79058  0.29842  0.06669  Biso   1.000  C
  H3187    1.0000 0.74655  0.23670  0.05070  Biso   1.000  H
  H3188    1.0000 0.88760  0.43558  0.06750  Biso   1.000  H
  H3189    1.0000 0.85517  0.40206  0.05510  Biso   1.000  H
  H3190    1.0000 0.88755  0.43558  0.06750  Biso   1.000  H
  C2981    1.0000 0.23701  0.10089  0.97345  Biso   1.000  C
  C2982    1.0000 0.19101  0.20891  0.96901  Biso   1.000  C
  C2983    1.0000 0.23696  0.10089  0.97345  Biso   1.000  C
  C2984    1.0000 0.01792  0.80900  0.96901  Biso   1.000  C
  C2985    1.0000 0.86391  0.76303  0.97345  Biso   1.000  C
  C2986    1.0000 0.86397  0.76303  0.97345  Biso   1.000  C
  H3191    1.0000 0.69194  0.43110  0.06800  Biso   1.000  H
  H3192    1.0000 0.71874  0.52572  0.07370  Biso   1.000  H
  C2987    1.0000 0.61427  0.48581  0.06223  Biso   1.000  C
  H3193    1.0000 0.69200  0.43110  0.06800  Biso   1.000  H
  C2988    1.0000 0.72738  0.74863  0.04077  Biso   1.000  C
  H3194    1.0000 0.57222  0.57889  0.05800  Biso   1.000  H
  H3195    1.0000 0.64695  0.61611  0.06760  Biso   1.000  H
  H3196    1.0000 0.57233  0.57889  0.05800  Biso   1.000  H
  H3197    1.0000 0.64701  0.61611  0.06760  Biso   1.000  H
  C2989    1.0000 0.79173  0.99542  0.04219  Biso   1.000  C
  C2990    1.0000 0.79179  0.99542  0.04219  Biso   1.000  C
  H3198    1.0000 0.80082  0.04590  0.05760  Biso   1.000  H
  H3199    1.0000 0.80077  0.04590  0.05760  Biso   1.000  H
  H3200    1.0000 0.73911  0.30797  0.06800  Biso   1.000  H
  H3201    1.0000 0.80704  0.28132  0.07370  Biso   1.000  H
  H3202    1.0000 0.73905  0.30797  0.06800  Biso   1.000  H
  H3203    1.0000 0.80698  0.28132  0.07370  Biso   1.000  H
  H3204    1.0000 0.25080  0.06912  0.97880  Biso   1.000  H
  C2991    1.0000 0.24688  0.08938  0.96268  Biso   1.000  C
  C2992    1.0000 0.20816  0.20359  0.95781  Biso   1.000  C
  H3205    1.0000 0.16825  0.24686  0.97120  Biso   1.000  H
  H3206    1.0000 0.16829  0.24693  0.97120  Biso   1.000  H
  C2993    1.0000 0.20822  0.20359  0.95781  Biso   1.000  C
  H3207    1.0000 0.16835  0.24693  0.97120  Biso   1.000  H
  C2994    1.0000 0.99535  0.79183  0.95781  Biso   1.000  C
  C2995    1.0000 0.99547  0.79183  0.95781  Biso   1.000  C
  H3208    1.0000 0.07857  0.83168  0.97120  Biso   1.000  H
  H3209    1.0000 0.81825  0.74923  0.97880  Biso   1.000  H
  C2996    1.0000 0.84247  0.75314  0.96268  Biso   1.000  C
  H3210    1.0000 0.81831  0.74923  0.97880  Biso   1.000  H
  C2997    1.0000 0.84253  0.75314  0.96268  Biso   1.000  C
  H3211    1.0000 0.56439  0.45203  0.06750  Biso   1.000  H
  H3212    1.0000 0.59786  0.45310  0.05510  Biso   1.000  H
  H3213    1.0000 0.56445  0.45203  0.06750  Biso   1.000  H
  H3214    1.0000 0.59792  0.45310  0.05510  Biso   1.000  H
  C2998    1.0000 0.75310  0.84251  0.03732  Biso   1.000  C
  H3215    1.0000 0.71372  0.70488  0.03520  Biso   1.000  H
  H3216    1.0000 0.71384  0.70488  0.03520  Biso   1.000  H
  C2999    1.0000 0.76389  0.90699  0.04510  Biso   1.000  C
  C3000    1.0000 0.76395  0.90699  0.04510  Biso   1.000  C
  C3001    1.0000 0.80903  0.01790  0.03099  Biso   1.000  C
  C3002    1.0000 0.80897  0.01790  0.03099  Biso   1.000  C
  C3003    1.0000 0.27259  0.02120  0.95923  Biso   1.000  C
  C3004    1.0000 0.23608  0.14308  0.95490  Biso   1.000  C
  C3005    1.0000 0.19466  0.25608  0.94995  Biso   1.000  C
  C3006    1.0000 0.19472  0.25608  0.94995  Biso   1.000  C
  C3007    1.0000 0.06142  0.80530  0.94995  Biso   1.000  C
  C3008    1.0000 0.90696  0.76390  0.95490  Biso   1.000  C
  C3009    1.0000 0.74854  0.72743  0.95923  Biso   1.000  C
  C3010    1.0000 0.74866  0.72743  0.95923  Biso   1.000  C
  C3011    1.0000 0.76293  0.86392  0.02655  Biso   1.000  C
  C3012    1.0000 0.76305  0.86392  0.02655  Biso   1.000  C
  H3217    1.0000 0.75179  0.88989  0.05260  Biso   1.000  H
  H3218    1.0000 0.75185  0.88989  0.05260  Biso   1.000  H
  C3013    1.0000 0.79335  0.95262  0.02306  Biso   1.000  C
  C3014    1.0000 0.79341  0.95262  0.02306  Biso   1.000  C
  H3219    1.0000 0.83169  0.07861  0.02880  Biso   1.000  H
  H3220    1.0000 0.28623  0.99112  0.96480  Biso   1.000  H
  N449     1.0000 0.27720  0.00162  0.94939  Biso   1.000  N
  H3221    1.0000 0.24822  0.13810  0.94740  Biso   1.000  H
  H3222    1.0000 0.24816  0.13810  0.94740  Biso   1.000  H
  N450     1.0000 0.17711  0.31693  0.95244  Biso   1.000  N
  H3223    1.0000 0.19920  0.24511  0.94240  Biso   1.000  H
  N451     1.0000 0.13983  0.82293  0.95244  Biso   1.000  N
  H3224    1.0000 0.04593  0.80079  0.94240  Biso   1.000  H
  N452     1.0000 0.13977  0.82293  0.95244  Biso   1.000  N
  H3225    1.0000 0.88983  0.75179  0.94740  Biso   1.000  H
  H3226    1.0000 0.88988  0.75179  0.94740  Biso   1.000  H
  N453     1.0000 0.72442  0.72278  0.94939  Biso   1.000  N
  H3227    1.0000 0.70491  0.71383  0.96480  Biso   1.000  H
  H3228    1.0000 0.70497  0.71383  0.96480  Biso   1.000  H
  H3229    1.0000 0.74921  0.81828  0.02120  Biso   1.000  H
  C3015    1.0000 0.80702  0.97530  0.01110  Biso   1.000  C
  C3016    1.0000 0.29659  0.92792  0.94812  Biso   1.000  C
  C3017    1.0000 0.15290  0.36000  0.94402  Biso   1.000  C
  C3018    1.0000 0.20710  0.84709  0.94402  Biso   1.000  C
  C3019    1.0000 0.20704  0.84709  0.94402  Biso   1.000  C
  C3020    1.0000 0.63132  0.70340  0.94812  Biso   1.000  C
  C3021    1.0000 0.73580  0.92913  0.00368  Biso   1.000  C
  C3022    1.0000 0.83910  0.93209  0.00383  Biso   1.000  C
  C3023    1.0000 0.79526  0.04597  0.00720  Biso   1.000  C
  C3024    1.0000 0.79530  0.04603  0.00720  Biso   1.000  C
  C3025    1.0000 0.89046  0.04368  0.00712  Biso   1.000  C
  H3230    1.0000 0.31490  0.91358  0.95530  Biso   1.000  H
  C3026    1.0000 0.37117  0.95363  0.93944  Biso   1.000  C
  C3027    1.0000 0.37106  0.95363  0.93944  Biso   1.000  C
  H3231    1.0000 0.13717  0.32446  0.93710  Biso   1.000  H
  C3028    1.0000 0.23646  0.45637  0.94226  Biso   1.000  C
  C3029    1.0000 0.07208  0.36868  0.94812  Biso   1.000  C
  H3232    1.0000 0.13723  0.32446  0.93710  Biso   1.000  H
  C3030    1.0000 0.23652  0.45637  0.94226  Biso   1.000  C
  H3233    1.0000 0.18732  0.86277  0.93710  Biso   1.000  H
  C3031    1.0000 0.21998  0.76350  0.94226  Biso   1.000  C
  H3234    1.0000 0.18735  0.86284  0.93710  Biso   1.000  H
  C3032    1.0000 0.21986  0.76350  0.94226  Biso   1.000  C
  H3235    1.0000 0.59868  0.68509  0.95530  Biso   1.000  H
  C3033    1.0000 0.63994  0.79291  0.94402  Biso   1.000  C
  C3034    1.0000 0.58253  0.62890  0.93944  Biso   1.000  C
  C3035    1.0000 0.64006  0.79291  0.94402  Biso   1.000  C
  C3036    1.0000 0.74924  0.95403  0.99280  Biso   1.000  C
  C3037    1.0000 0.74935  0.95403  0.99280  Biso   1.000  C
  H3236    1.0000 0.67921  0.88148  0.00610  Biso   1.000  H
  H3237    1.0000 0.67927  0.88148  0.00610  Biso   1.000  H
  C3038    1.0000 0.84684  0.95632  0.99288  Biso   1.000  C
  H3238    1.0000 0.85438  0.88922  0.00640  Biso   1.000  H
  C3039    1.0000 0.80666  0.07087  0.99632  Biso   1.000  C
  H3239    1.0000 0.77902  0.07760  0.01230  Biso   1.000  H
  H3240    1.0000 0.77896  0.07760  0.01230  Biso   1.000  H
  C3040    1.0000 0.90695  0.06791  0.99617  Biso   1.000  C
  H3241    1.0000 0.93795  0.07477  0.01220  Biso   1.000  H
  C3041    1.0000 0.38578  0.87152  0.93777  Biso   1.000  C
  H3242    1.0000 0.35303  0.96911  0.93240  Biso   1.000  H
  C3042    1.0000 0.38572  0.87152  0.93777  Biso   1.000  C
  H3243    1.0000 0.42767  0.00660  0.94200  Biso   1.000  H
  H3244    1.0000 0.42773  0.00660  0.94200  Biso   1.000  H
  H3245    1.0000 0.28851  0.45160  0.93960  Biso   1.000  H
  H3246    1.0000 0.25338  0.49009  0.94930  Biso   1.000  H
  C3043    1.0000 0.20943  0.50779  0.93331  Biso   1.000  C
  H3247    1.0000 0.28845  0.45160  0.93960  Biso   1.000  H
  C3044    1.0000 0.20937  0.50779  0.93331  Biso   1.000  C
  H3248    1.0000 0.25344  0.49009  0.94930  Biso   1.000  H
  N454     1.0000 0.99838  0.27560  0.94939  Biso   1.000  N
  C3045    1.0000 0.04641  0.41747  0.93944  Biso   1.000  C
  H3249    1.0000 0.08642  0.40132  0.95530  Biso   1.000  H
  C3046    1.0000 0.04635  0.41747  0.93944  Biso   1.000  C
  H3250    1.0000 0.08636  0.40132  0.95530  Biso   1.000  H
  H3251    1.0000 0.16313  0.71148  0.93960  Biso   1.000  H
  H3252    1.0000 0.23677  0.74661  0.94930  Biso   1.000  H
  C3047    1.0000 0.29847  0.79062  0.93331  Biso   1.000  C
  H3253    1.0000 0.16317  0.71154  0.93960  Biso   1.000  H
  H3254    1.0000 0.23665  0.74661  0.94930  Biso   1.000  H
  C3048    1.0000 0.29835  0.79062  0.93331  Biso   1.000  C
  H3255    1.0000 0.16305  0.71154  0.93960  Biso   1.000  H
  C3049    1.0000 0.54361  0.78012  0.94226  Biso   1.000  C
  N455     1.0000 0.68304  0.86021  0.95244  Biso   1.000  N
  H3256    1.0000 0.67542  0.81270  0.93710  Biso   1.000  H
  N456     1.0000 0.68315  0.86021  0.95244  Biso   1.000  N
  H3257    1.0000 0.67548  0.81270  0.93710  Biso   1.000  H
  C3050    1.0000 0.48582  0.61429  0.93777  Biso   1.000  C
  H3258    1.0000 0.57883  0.57230  0.94200  Biso   1.000  H
  H3259    1.0000 0.61612  0.64700  0.93240  Biso   1.000  H
  H3260    1.0000 0.57894  0.57230  0.94200  Biso   1.000  H
  H3261    1.0000 0.70142  0.92240  0.98770  Biso   1.000  H
  C3051    1.0000 0.83172  0.02470  0.98890  Biso   1.000  C
  C3052    1.0000 0.83167  0.02470  0.98890  Biso   1.000  C
  H3262    1.0000 0.86318  0.92523  0.98780  Biso   1.000  H
  H3263    1.0000 0.79779  0.11852  0.99390  Biso   1.000  H
  H3264    1.0000 0.96516  0.11078  0.99360  Biso   1.000  H
  H3265    1.0000 0.43561  0.88761  0.93250  Biso   1.000  H
  H3266    1.0000 0.40218  0.85523  0.94490  Biso   1.000  H
  H3267    1.0000 0.40206  0.85523  0.94490  Biso   1.000  H
  H3268    1.0000 0.26090  0.56890  0.93200  Biso   1.000  H
  H3269    1.0000 0.19302  0.47428  0.92630  Biso   1.000  H
  C3053    1.0000 0.12852  0.51419  0.93777  Biso   1.000  C
  H3270    1.0000 0.19296  0.47428  0.92630  Biso   1.000  H
  C3054    1.0000 0.12846  0.51419  0.93777  Biso   1.000  C
  C3055    1.0000 0.97881  0.25137  0.95923  Biso   1.000  C
  C3056    1.0000 0.97875  0.25137  0.95923  Biso   1.000  C
  H3271    1.0000 0.99338  0.42111  0.94200  Biso   1.000  H
  H3272    1.0000 0.03090  0.38389  0.93240  Biso   1.000  H
  H3273    1.0000 0.30799  0.73914  0.93200  Biso   1.000  H
  H3274    1.0000 0.28129  0.80698  0.92630  Biso   1.000  H
  H3275    1.0000 0.28124  0.80698  0.92630  Biso   1.000  H
  H3276    1.0000 0.50991  0.76330  0.94930  Biso   1.000  H
  H3277    1.0000 0.54841  0.83693  0.93960  Biso   1.000  H
  C3057    1.0000 0.49222  0.70158  0.93331  Biso   1.000  C
  H3278    1.0000 0.54847  0.83693  0.93960  Biso   1.000  H
  C3058    1.0000 0.74386  0.93862  0.94995  Biso   1.000  C
  C3059    1.0000 0.74398  0.93862  0.94995  Biso   1.000  C
  H3279    1.0000 0.45202  0.56442  0.93250  Biso   1.000  H
  H3280    1.0000 0.45310  0.59794  0.94490  Biso   1.000  H
  C3060    1.0000 0.84079  0.04738  0.97694  Biso   1.000  C
  C3061    1.0000 0.84073  0.04738  0.97694  Biso   1.000  C
  H3281    1.0000 0.11236  0.54797  0.93250  Biso   1.000  H
  H3282    1.0000 0.14481  0.54690  0.94490  Biso   1.000  H
  H3283    1.0000 0.14475  0.54690  0.94490  Biso   1.000  H
  H3284    1.0000 0.11242  0.54797  0.93250  Biso   1.000  H
  C3062    1.0000 0.91059  0.15749  0.96268  Biso   1.000  C
  C3063    1.0000 0.91053  0.15749  0.96268  Biso   1.000  C
  H3285    1.0000 0.00890  0.29512  0.96480  Biso   1.000  H
  H3286    1.0000 0.00896  0.29512  0.96480  Biso   1.000  H
  H3287    1.0000 0.43108  0.69203  0.93200  Biso   1.000  H
  H3288    1.0000 0.52571  0.71868  0.92630  Biso   1.000  H
  H3289    1.0000 0.75487  0.95410  0.94240  Biso   1.000  H
  C3064    1.0000 0.79637  0.00458  0.95781  Biso   1.000  C
  C3065    1.0000 0.79113  0.98210  0.96901  Biso   1.000  C
  C3066    1.0000 0.89907  0.13608  0.97345  Biso   1.000  C
  C3067    1.0000 0.85690  0.09301  0.95490  Biso   1.000  C
  C3068    1.0000 0.85685  0.09301  0.95490  Biso   1.000  C
  H3290    1.0000 0.75308  0.92139  0.97120  Biso   1.000  H
  H3291    1.0000 0.93092  0.18172  0.97880  Biso   1.000  H
  H3292    1.0000 0.93086  0.18172  0.97880  Biso   1.000  H
  H3293    1.0000 0.86190  0.11011  0.94740  Biso   1.000  H
  C3069    1.0000 0.50773  0.20938  0.06669  Biso   1.000  C
  C3070    1.0000 0.45636  0.23650  0.05774  Biso   1.000  C
  H3294    1.0000 0.56885  0.26086  0.06800  Biso   1.000  H
  H3295    1.0000 0.47426  0.19302  0.07370  Biso   1.000  H
  C3071    1.0000 0.51414  0.12848  0.06223  Biso   1.000  C
  C3072    1.0000 0.45642  0.23650  0.05774  Biso   1.000  C
  H3296    1.0000 0.47432  0.19302  0.07370  Biso   1.000  H
  C3073    1.0000 0.51420  0.12848  0.06223  Biso   1.000  C
  H3297    1.0000 0.56889  0.26093  0.06800  Biso   1.000  H
  H3298    1.0000 0.56894  0.26093  0.06800  Biso   1.000  H
  C3074    1.0000 0.50779  0.20938  0.06669  Biso   1.000  C
  H3299    1.0000 0.45160  0.28852  0.06040  Biso   1.000  H
  C3075    1.0000 0.35995  0.15291  0.05598  Biso   1.000  C
  H3300    1.0000 0.49005  0.25339  0.05070  Biso   1.000  H
  C3076    1.0000 0.36001  0.15291  0.05598  Biso   1.000  C
  H3301    1.0000 0.49010  0.25339  0.05070  Biso   1.000  H
  H3302    1.0000 0.54688  0.14477  0.05510  Biso   1.000  H
  C3077    1.0000 0.41749  0.04637  0.06056  Biso   1.000  C
  H3303    1.0000 0.54795  0.11239  0.06750  Biso   1.000  H
  H3304    1.0000 0.54801  0.11239  0.06750  Biso   1.000  H
  H3305    1.0000 0.54683  0.14477  0.05510  Biso   1.000  H
  C3078    1.0000 0.41743  0.04637  0.06056  Biso   1.000  C
  H3306    1.0000 0.32449  0.13723  0.06290  Biso   1.000  H
  C3079    1.0000 0.36867  0.07208  0.05188  Biso   1.000  C
  N457     1.0000 0.31684  0.17707  0.04756  Biso   1.000  N
  N458     1.0000 0.31690  0.17707  0.04756  Biso   1.000  N
  H3307    1.0000 0.32454  0.13723  0.06290  Biso   1.000  H
  H3308    1.0000 0.38387  0.03089  0.06760  Biso   1.000  H
  H3309    1.0000 0.42114  0.99340  0.05800  Biso   1.000  H
  H3310    1.0000 0.38393  0.03089  0.06760  Biso   1.000  H
  N459     1.0000 0.27558  0.99838  0.05061  Biso   1.000  N
  H3311    1.0000 0.40125  0.08642  0.04470  Biso   1.000  H
  H3312    1.0000 0.40131  0.08642  0.04470  Biso   1.000  H
  C3080    1.0000 0.25606  0.19470  0.05005  Biso   1.000  C
  C3081    1.0000 0.25612  0.19470  0.05005  Biso   1.000  C
  C3082    1.0000 0.25139  0.97880  0.04077  Biso   1.000  C
  C3083    1.0000 0.20358  0.20817  0.04219  Biso   1.000  C
  H3313    1.0000 0.24509  0.19921  0.05760  Biso   1.000  H
  H3314    1.0000 0.24515  0.19921  0.05760  Biso   1.000  H
  H3315    1.0000 0.29505  0.00888  0.03520  Biso   1.000  H
  H3316    1.0000 0.29511  0.00888  0.03520  Biso   1.000  H
  C3084    1.0000 0.15756  0.91062  0.03732  Biso   1.000  C
  C3085    1.0000 0.15750  0.91062  0.03732  Biso   1.000  C
  C3086    1.0000 0.14305  0.23610  0.04510  Biso   1.000  C
  C3087    1.0000 0.20887  0.19100  0.03099  Biso   1.000  C
  C3088    1.0000 0.14311  0.23610  0.04510  Biso   1.000  C
  C3089    1.0000 0.20892  0.19100  0.03099  Biso   1.000  C
  C3090    1.0000 0.13613  0.89911  0.02655  Biso   1.000  C
  C3091    1.0000 0.09306  0.85692  0.04510  Biso   1.000  C
  C3092    1.0000 0.13607  0.89911  0.02655  Biso   1.000  C
  C3093    1.0000 0.09294  0.85692  0.04510  Biso   1.000  C
  H3317    1.0000 0.13809  0.24821  0.05260  Biso   1.000  H
  C3094    1.0000 0.08943  0.24693  0.03732  Biso   1.000  C
  C3095    1.0000 0.08939  0.24686  0.03732  Biso   1.000  C
  C3096    1.0000 0.08934  0.24686  0.03732  Biso   1.000  C
  C3097    1.0000 0.15920  0.20662  0.02306  Biso   1.000  C
  H3318    1.0000 0.24689  0.16832  0.02880  Biso   1.000  H
  H3319    1.0000 0.24695  0.16832  0.02880  Biso   1.000  H
  C3098    1.0000 0.04742  0.84083  0.02306  Biso   1.000  C
  H3320    1.0000 0.18174  0.93088  0.02120  Biso   1.000  H
  H3321    1.0000 0.18162  0.93088  0.02120  Biso   1.000  H
  H3322    1.0000 0.11018  0.86190  0.05260  Biso   1.000  H
  C3099    1.0000 0.00458  0.79641  0.04219  Biso   1.000  C
  H3323    1.0000 0.11012  0.86190  0.05260  Biso   1.000  H
  C3100    1.0000 0.02117  0.27257  0.04077  Biso   1.000  C
  C3101    1.0000 0.10088  0.23697  0.02655  Biso   1.000  C
  C3102    1.0000 0.02123  0.27257  0.04077  Biso   1.000  C
  C3103    1.0000 0.16832  0.19302  0.01110  Biso   1.000  C
  C3104    1.0000 0.16826  0.19302  0.01110  Biso   1.000  C
  C3105    1.0000 0.98204  0.79109  0.03099  Biso   1.000  C
  C3106    1.0000 0.98216  0.79109  0.03099  Biso   1.000  C
  C3107    1.0000 0.02466  0.83168  0.01110  Biso   1.000  C
  C3108    1.0000 0.93858  0.74392  0.05005  Biso   1.000  C
  N460     1.0000 0.00158  0.27722  0.05061  Biso   1.000  N
  N461     1.0000 0.00164  0.27722  0.05061  Biso   1.000  N
  H3324    1.0000 0.99108  0.28617  0.03520  Biso   1.000  H
  H3325    1.0000 0.99102  0.28617  0.03520  Biso   1.000  H
  H3326    1.0000 0.06908  0.25077  0.02120  Biso   1.000  H
  C3109    1.0000 0.25067  0.20467  0.00720  Biso   1.000  C
  C3110    1.0000 0.19328  0.26416  0.00368  Biso   1.000  C
  C3111    1.0000 0.19331  0.26423  0.00368  Biso   1.000  C
  C3112    1.0000 0.09299  0.16092  0.00383  Biso   1.000  C
  C3113    1.0000 0.15319  0.10950  0.00712  Biso   1.000  C
  H3327    1.0000 0.92133  0.75314  0.02880  Biso   1.000  H
  H3328    1.0000 0.92139  0.75314  0.02880  Biso   1.000  H
  C3114    1.0000 0.95398  0.74930  0.00720  Biso   1.000  C
  C3115    1.0000 0.95634  0.84682  0.00712  Biso   1.000  C
  C3116    1.0000 0.07098  0.80671  0.00368  Biso   1.000  C
  C3117    1.0000 0.07087  0.80671  0.00368  Biso   1.000  C
  C3118    1.0000 0.06785  0.90699  0.00383  Biso   1.000  C
  H3329    1.0000 0.95409  0.75489  0.05760  Biso   1.000  H
  N462     1.0000 0.86019  0.68307  0.04756  Biso   1.000  N
  N463     1.0000 0.86028  0.68314  0.04756  Biso   1.000  N
  N464     1.0000 0.86025  0.68307  0.04756  Biso   1.000  N
  N465     1.0000 0.86022  0.68314  0.04756  Biso   1.000  N
  C3119    1.0000 0.92792  0.29660  0.05188  Biso   1.000  C
  C3120    1.0000 0.92787  0.29660  0.05188  Biso   1.000  C
  H3330    1.0000 0.29860  0.22102  0.01230  Biso   1.000  H
  C3121    1.0000 0.26422  0.19329  0.99632  Biso   1.000  C
  C3122    1.0000 0.26416  0.19329  0.99632  Biso   1.000  C
  H3331    1.0000 0.20220  0.32069  0.00610  Biso   1.000  H
  C3123    1.0000 0.20468  0.25070  0.99280  Biso   1.000  C
  C3124    1.0000 0.20473  0.25070  0.99280  Biso   1.000  C
  C3125    1.0000 0.10946  0.15318  0.99288  Biso   1.000  C
  H3332    1.0000 0.03479  0.14557  0.00640  Biso   1.000  H
  C3126    1.0000 0.16092  0.09301  0.99617  Biso   1.000  C
  H3333    1.0000 0.13678  0.06199  0.01220  Biso   1.000  H
  C3127    1.0000 0.92912  0.73584  0.99632  Biso   1.000  C
  H3334    1.0000 0.92238  0.70138  0.01230  Biso   1.000  H
  C3128    1.0000 0.93207  0.83908  0.99617  Biso   1.000  C
  H3335    1.0000 0.92518  0.86318  0.01220  Biso   1.000  H
  H3336    1.0000 0.11853  0.79782  0.00610  Biso   1.000  H
  C3129    1.0000 0.04606  0.79533  0.99280  Biso   1.000  C
  C3130    1.0000 0.04600  0.79533  0.99280  Biso   1.000  C
  C3131    1.0000 0.04364  0.89050  0.99288  Biso   1.000  C
  H3337    1.0000 0.11083  0.96520  0.00640  Biso   1.000  H
  C3132    1.0000 0.79284  0.64000  0.05598  Biso   1.000  C
  C3133    1.0000 0.79290  0.64000  0.05598  Biso   1.000  C
  C3134    1.0000 0.84709  0.20709  0.05598  Biso   1.000  C
  C3135    1.0000 0.95363  0.37110  0.06056  Biso   1.000  C
  H3338    1.0000 0.91359  0.31491  0.04470  Biso   1.000  H
  C3136    1.0000 0.95358  0.37110  0.06056  Biso   1.000  C
  C3137    1.0000 0.84703  0.20709  0.05598  Biso   1.000  C
  H3339    1.0000 0.32071  0.20218  0.99390  Biso   1.000  H
  C3138    1.0000 0.19298  0.16832  0.98890  Biso   1.000  C
  H3340    1.0000 0.32065  0.20218  0.99390  Biso   1.000  H
  C3139    1.0000 0.19304  0.16832  0.98890  Biso   1.000  C
  H3341    1.0000 0.22100  0.29862  0.98770  Biso   1.000  H
  H3342    1.0000 0.06200  0.13682  0.98780  Biso   1.000  H
  H3343    1.0000 0.14557  0.03480  0.99360  Biso   1.000  H
  C3140    1.0000 0.97530  0.80698  0.98890  Biso   1.000  C
  H3344    1.0000 0.88150  0.67931  0.99390  Biso   1.000  H
  H3345    1.0000 0.88156  0.67931  0.99390  Biso   1.000  H
  H3346    1.0000 0.88927  0.85443  0.99360  Biso   1.000  H
  H3347    1.0000 0.07763  0.77898  0.98770  Biso   1.000  H
  H3348    1.0000 0.07758  0.77898  0.98770  Biso   1.000  H
  H3349    1.0000 0.07480  0.93801  0.98780  Biso   1.000  H
  H3350    1.0000 0.81271  0.67554  0.06290  Biso   1.000  H
  C3141    1.0000 0.78003  0.54363  0.05774  Biso   1.000  C
  C3142    1.0000 0.70334  0.63132  0.05188  Biso   1.000  C
  H3351    1.0000 0.81276  0.67554  0.06290  Biso   1.000  H
  C3143    1.0000 0.78009  0.54363  0.05774  Biso   1.000  C
  C3144    1.0000 0.70346  0.63132  0.05188  Biso   1.000  C
  N466     1.0000 0.82288  0.13979  0.04756  Biso   1.000  N
  H3352    1.0000 0.86278  0.18730  0.06290  Biso   1.000  H
  C3145    1.0000 0.76349  0.21988  0.05774  Biso   1.000  C
  C3146    1.0000 0.76343  0.21988  0.05774  Biso   1.000  C
  H3353    1.0000 0.00659  0.42770  0.05800  Biso   1.000  H
  C3147    1.0000 0.87153  0.38571  0.06223  Biso   1.000  C
  H3354    1.0000 0.96912  0.35300  0.06760  Biso   1.000  H
  C3148    1.0000 0.87147  0.38571  0.06223  Biso   1.000  C
  H3355    1.0000 0.96906  0.35300  0.06760  Biso   1.000  H
  H3356    1.0000 0.00665  0.42770  0.05800  Biso   1.000  H
  C3149    1.0000 0.20659  0.15917  0.97694  Biso   1.000  C
  C3150    1.0000 0.20653  0.15917  0.97694  Biso   1.000  C
  C3151    1.0000 0.95259  0.79338  0.97694  Biso   1.000  C
  C3152    1.0000 0.95265  0.79338  0.97694  Biso   1.000  C
  H3357    1.0000 0.83686  0.54840  0.06040  Biso   1.000  H
  H3358    1.0000 0.76323  0.50991  0.05070  Biso   1.000  H
  C3153    1.0000 0.70163  0.49221  0.06669  Biso   1.000  C
  H3359    1.0000 0.76329  0.50991  0.05070  Biso   1.000  H
  H3360    1.0000 0.68513  0.59875  0.04470  Biso   1.000  H
  N467     1.0000 0.72272  0.72440  0.05061  Biso   1.000  N
  C3154    1.0000 0.62894  0.58253  0.06056  Biso   1.000  C
  H3361    1.0000 0.68510  0.59868  0.04470  Biso   1.000  H
  N468     1.0000 0.72278  0.72440  0.05061  Biso   1.000  N
  C3155    1.0000 0.80530  0.06138  0.05005  Biso   1.000  C
  C3156    1.0000 0.80524  0.06138  0.05005  Biso   1.000  C
  H3362    1.0000 0.71148  0.16307  0.06040  Biso   1.000  H
  H3363    1.0000 0.74661  0.23670  0.05070  Biso   1.000  H
  C3157    1.0000 0.79064  0.29842  0.06669  Biso   1.000  C
  C3158    1.0000 0.79058  0.29842  0.06669  Biso   1.000  C
  H3364    1.0000 0.74655  0.23670  0.05070  Biso   1.000  H
  H3365    1.0000 0.88760  0.43558  0.06750  Biso   1.000  H
  H3366    1.0000 0.85517  0.40206  0.05510  Biso   1.000  H
  H3367    1.0000 0.88755  0.43558  0.06750  Biso   1.000  H
  C3159    1.0000 0.23701  0.10089  0.97345  Biso   1.000  C
  C3160    1.0000 0.19101  0.20891  0.96901  Biso   1.000  C
  C3161    1.0000 0.23696  0.10089  0.97345  Biso   1.000  C
  C3162    1.0000 0.01792  0.80900  0.96901  Biso   1.000  C
  C3163    1.0000 0.86391  0.76303  0.97345  Biso   1.000  C
  C3164    1.0000 0.86397  0.76303  0.97345  Biso   1.000  C
  H3368    1.0000 0.69194  0.43110  0.06800  Biso   1.000  H
  H3369    1.0000 0.71874  0.52572  0.07370  Biso   1.000  H
  C3165    1.0000 0.61427  0.48581  0.06223  Biso   1.000  C
  H3370    1.0000 0.69200  0.43110  0.06800  Biso   1.000  H
  C3166    1.0000 0.72738  0.74863  0.04077  Biso   1.000  C
  H3371    1.0000 0.57222  0.57889  0.05800  Biso   1.000  H
  H3372    1.0000 0.64695  0.61611  0.06760  Biso   1.000  H
  H3373    1.0000 0.57233  0.57889  0.05800  Biso   1.000  H
  H3374    1.0000 0.64701  0.61611  0.06760  Biso   1.000  H
  C3167    1.0000 0.79173  0.99542  0.04219  Biso   1.000  C
  C3168    1.0000 0.79179  0.99542  0.04219  Biso   1.000  C
  H3375    1.0000 0.80082  0.04590  0.05760  Biso   1.000  H
  H3376    1.0000 0.80077  0.04590  0.05760  Biso   1.000  H
  H3377    1.0000 0.73911  0.30797  0.06800  Biso   1.000  H
  H3378    1.0000 0.80704  0.28132  0.07370  Biso   1.000  H
  H3379    1.0000 0.73905  0.30797  0.06800  Biso   1.000  H
  H3380    1.0000 0.80698  0.28132  0.07370  Biso   1.000  H
  H3381    1.0000 0.25080  0.06912  0.97880  Biso   1.000  H
  C3169    1.0000 0.24688  0.08938  0.96268  Biso   1.000  C
  C3170    1.0000 0.20816  0.20359  0.95781  Biso   1.000  C
  H3382    1.0000 0.16825  0.24686  0.97120  Biso   1.000  H
  H3383    1.0000 0.16829  0.24693  0.97120  Biso   1.000  H
  C3171    1.0000 0.20822  0.20359  0.95781  Biso   1.000  C
  H3384    1.0000 0.16835  0.24693  0.97120  Biso   1.000  H
  C3172    1.0000 0.99535  0.79183  0.95781  Biso   1.000  C
  C3173    1.0000 0.99547  0.79183  0.95781  Biso   1.000  C
  H3385    1.0000 0.07857  0.83168  0.97120  Biso   1.000  H
  H3386    1.0000 0.81825  0.74923  0.97880  Biso   1.000  H
  C3174    1.0000 0.84247  0.75314  0.96268  Biso   1.000  C
  H3387    1.0000 0.81831  0.74923  0.97880  Biso   1.000  H
  C3175    1.0000 0.84253  0.75314  0.96268  Biso   1.000  C
  H3388    1.0000 0.56439  0.45203  0.06750  Biso   1.000  H
  H3389    1.0000 0.59786  0.45310  0.05510  Biso   1.000  H
  H3390    1.0000 0.56445  0.45203  0.06750  Biso   1.000  H
  H3391    1.0000 0.59792  0.45310  0.05510  Biso   1.000  H
  C3176    1.0000 0.75310  0.84251  0.03732  Biso   1.000  C
  H3392    1.0000 0.71372  0.70488  0.03520  Biso   1.000  H
  H3393    1.0000 0.71384  0.70488  0.03520  Biso   1.000  H
  C3177    1.0000 0.76389  0.90699  0.04510  Biso   1.000  C
  C3178    1.0000 0.76395  0.90699  0.04510  Biso   1.000  C
  C3179    1.0000 0.80903  0.01790  0.03099  Biso   1.000  C
  C3180    1.0000 0.80897  0.01790  0.03099  Biso   1.000  C
  C3181    1.0000 0.27259  0.02120  0.95923  Biso   1.000  C
  C3182    1.0000 0.23608  0.14308  0.95490  Biso   1.000  C
  C3183    1.0000 0.19466  0.25608  0.94995  Biso   1.000  C
  C3184    1.0000 0.19472  0.25608  0.94995  Biso   1.000  C
  C3185    1.0000 0.06142  0.80530  0.94995  Biso   1.000  C
  C3186    1.0000 0.90696  0.76390  0.95490  Biso   1.000  C
  C3187    1.0000 0.74854  0.72743  0.95923  Biso   1.000  C
  C3188    1.0000 0.74866  0.72743  0.95923  Biso   1.000  C
  C3189    1.0000 0.76293  0.86392  0.02655  Biso   1.000  C
  C3190    1.0000 0.76305  0.86392  0.02655  Biso   1.000  C
  H3394    1.0000 0.75179  0.88989  0.05260  Biso   1.000  H
  H3395    1.0000 0.75185  0.88989  0.05260  Biso   1.000  H
  C3191    1.0000 0.79335  0.95262  0.02306  Biso   1.000  C
  C3192    1.0000 0.79341  0.95262  0.02306  Biso   1.000  C
  H3396    1.0000 0.83169  0.07861  0.02880  Biso   1.000  H
  H3397    1.0000 0.28623  0.99112  0.96480  Biso   1.000  H
  N469     1.0000 0.27720  0.00162  0.94939  Biso   1.000  N
  H3398    1.0000 0.24822  0.13810  0.94740  Biso   1.000  H
  H3399    1.0000 0.24816  0.13810  0.94740  Biso   1.000  H
  N470     1.0000 0.17711  0.31693  0.95244  Biso   1.000  N
  H3400    1.0000 0.19920  0.24511  0.94240  Biso   1.000  H
  N471     1.0000 0.13983  0.82293  0.95244  Biso   1.000  N
  H3401    1.0000 0.04593  0.80079  0.94240  Biso   1.000  H
  N472     1.0000 0.13977  0.82293  0.95244  Biso   1.000  N
  H3402    1.0000 0.88983  0.75179  0.94740  Biso   1.000  H
  H3403    1.0000 0.88988  0.75179  0.94740  Biso   1.000  H
  N473     1.0000 0.72442  0.72278  0.94939  Biso   1.000  N
  H3404    1.0000 0.70491  0.71383  0.96480  Biso   1.000  H
  H3405    1.0000 0.70497  0.71383  0.96480  Biso   1.000  H
  H3406    1.0000 0.74921  0.81828  0.02120  Biso   1.000  H
  C3193    1.0000 0.80702  0.97530  0.01110  Biso   1.000  C
  C3194    1.0000 0.29659  0.92792  0.94812  Biso   1.000  C
  C3195    1.0000 0.15290  0.36000  0.94402  Biso   1.000  C
  C3196    1.0000 0.20710  0.84709  0.94402  Biso   1.000  C
  C3197    1.0000 0.20704  0.84709  0.94402  Biso   1.000  C
  C3198    1.0000 0.63132  0.70340  0.94812  Biso   1.000  C
  C3199    1.0000 0.73580  0.92913  0.00368  Biso   1.000  C
  C3200    1.0000 0.83910  0.93209  0.00383  Biso   1.000  C
  C3201    1.0000 0.79526  0.04597  0.00720  Biso   1.000  C
  C3202    1.0000 0.79530  0.04603  0.00720  Biso   1.000  C
  C3203    1.0000 0.89046  0.04368  0.00712  Biso   1.000  C
  H3407    1.0000 0.31490  0.91358  0.95530  Biso   1.000  H
  C3204    1.0000 0.37117  0.95363  0.93944  Biso   1.000  C
  C3205    1.0000 0.37106  0.95363  0.93944  Biso   1.000  C
  H3408    1.0000 0.13717  0.32446  0.93710  Biso   1.000  H
  C3206    1.0000 0.23646  0.45637  0.94226  Biso   1.000  C
  C3207    1.0000 0.07208  0.36868  0.94812  Biso   1.000  C
  H3409    1.0000 0.13723  0.32446  0.93710  Biso   1.000  H
  C3208    1.0000 0.23652  0.45637  0.94226  Biso   1.000  C
  H3410    1.0000 0.18732  0.86277  0.93710  Biso   1.000  H
  C3209    1.0000 0.21998  0.76350  0.94226  Biso   1.000  C
  H3411    1.0000 0.18735  0.86284  0.93710  Biso   1.000  H
  C3210    1.0000 0.21986  0.76350  0.94226  Biso   1.000  C
  H3412    1.0000 0.59868  0.68509  0.95530  Biso   1.000  H
  C3211    1.0000 0.63994  0.79291  0.94402  Biso   1.000  C
  C3212    1.0000 0.58253  0.62890  0.93944  Biso   1.000  C
  C3213    1.0000 0.64006  0.79291  0.94402  Biso   1.000  C
  C3214    1.0000 0.74924  0.95403  0.99280  Biso   1.000  C
  C3215    1.0000 0.74935  0.95403  0.99280  Biso   1.000  C
  H3413    1.0000 0.67921  0.88148  0.00610  Biso   1.000  H
  H3414    1.0000 0.67927  0.88148  0.00610  Biso   1.000  H
  C3216    1.0000 0.84684  0.95632  0.99288  Biso   1.000  C
  H3415    1.0000 0.85438  0.88922  0.00640  Biso   1.000  H
  C3217    1.0000 0.80666  0.07087  0.99632  Biso   1.000  C
  H3416    1.0000 0.77902  0.07760  0.01230  Biso   1.000  H
  H3417    1.0000 0.77896  0.07760  0.01230  Biso   1.000  H
  C3218    1.0000 0.90695  0.06791  0.99617  Biso   1.000  C
  H3418    1.0000 0.93795  0.07477  0.01220  Biso   1.000  H
  C3219    1.0000 0.38578  0.87152  0.93777  Biso   1.000  C
  H3419    1.0000 0.35303  0.96911  0.93240  Biso   1.000  H
  C3220    1.0000 0.38572  0.87152  0.93777  Biso   1.000  C
  H3420    1.0000 0.42767  0.00660  0.94200  Biso   1.000  H
  H3421    1.0000 0.42773  0.00660  0.94200  Biso   1.000  H
  H3422    1.0000 0.28851  0.45160  0.93960  Biso   1.000  H
  H3423    1.0000 0.25338  0.49009  0.94930  Biso   1.000  H
  C3221    1.0000 0.20943  0.50779  0.93331  Biso   1.000  C
  H3424    1.0000 0.28845  0.45160  0.93960  Biso   1.000  H
  C3222    1.0000 0.20937  0.50779  0.93331  Biso   1.000  C
  H3425    1.0000 0.25344  0.49009  0.94930  Biso   1.000  H
  N474     1.0000 0.99838  0.27560  0.94939  Biso   1.000  N
  C3223    1.0000 0.04641  0.41747  0.93944  Biso   1.000  C
  H3426    1.0000 0.08642  0.40132  0.95530  Biso   1.000  H
  C3224    1.0000 0.04635  0.41747  0.93944  Biso   1.000  C
  H3427    1.0000 0.08636  0.40132  0.95530  Biso   1.000  H
  H3428    1.0000 0.16313  0.71148  0.93960  Biso   1.000  H
  H3429    1.0000 0.23677  0.74661  0.94930  Biso   1.000  H
  C3225    1.0000 0.29847  0.79062  0.93331  Biso   1.000  C
  H3430    1.0000 0.16317  0.71154  0.93960  Biso   1.000  H
  H3431    1.0000 0.23665  0.74661  0.94930  Biso   1.000  H
  C3226    1.0000 0.29835  0.79062  0.93331  Biso   1.000  C
  H3432    1.0000 0.16305  0.71154  0.93960  Biso   1.000  H
  C3227    1.0000 0.54361  0.78012  0.94226  Biso   1.000  C
  N475     1.0000 0.68304  0.86021  0.95244  Biso   1.000  N
  H3433    1.0000 0.67542  0.81270  0.93710  Biso   1.000  H
  N476     1.0000 0.68315  0.86021  0.95244  Biso   1.000  N
  H3434    1.0000 0.67548  0.81270  0.93710  Biso   1.000  H
  C3228    1.0000 0.48582  0.61429  0.93777  Biso   1.000  C
  H3435    1.0000 0.57883  0.57230  0.94200  Biso   1.000  H
  H3436    1.0000 0.61612  0.64700  0.93240  Biso   1.000  H
  H3437    1.0000 0.57894  0.57230  0.94200  Biso   1.000  H
  H3438    1.0000 0.70142  0.92240  0.98770  Biso   1.000  H
  C3229    1.0000 0.83172  0.02470  0.98890  Biso   1.000  C
  C3230    1.0000 0.83167  0.02470  0.98890  Biso   1.000  C
  H3439    1.0000 0.86318  0.92523  0.98780  Biso   1.000  H
  H3440    1.0000 0.79779  0.11852  0.99390  Biso   1.000  H
  H3441    1.0000 0.96516  0.11078  0.99360  Biso   1.000  H
  H3442    1.0000 0.43561  0.88761  0.93250  Biso   1.000  H
  H3443    1.0000 0.40218  0.85523  0.94490  Biso   1.000  H
  H3444    1.0000 0.40206  0.85523  0.94490  Biso   1.000  H
  H3445    1.0000 0.26090  0.56890  0.93200  Biso   1.000  H
  H3446    1.0000 0.19302  0.47428  0.92630  Biso   1.000  H
  C3231    1.0000 0.12852  0.51419  0.93777  Biso   1.000  C
  H3447    1.0000 0.19296  0.47428  0.92630  Biso   1.000  H
  C3232    1.0000 0.12846  0.51419  0.93777  Biso   1.000  C
  C3233    1.0000 0.97881  0.25137  0.95923  Biso   1.000  C
  C3234    1.0000 0.97875  0.25137  0.95923  Biso   1.000  C
  H3448    1.0000 0.99338  0.42111  0.94200  Biso   1.000  H
  H3449    1.0000 0.03090  0.38389  0.93240  Biso   1.000  H
  H3450    1.0000 0.30799  0.73914  0.93200  Biso   1.000  H
  H3451    1.0000 0.28129  0.80698  0.92630  Biso   1.000  H
  H3452    1.0000 0.28124  0.80698  0.92630  Biso   1.000  H
  H3453    1.0000 0.50991  0.76330  0.94930  Biso   1.000  H
  H3454    1.0000 0.54841  0.83693  0.93960  Biso   1.000  H
  C3235    1.0000 0.49222  0.70158  0.93331  Biso   1.000  C
  H3455    1.0000 0.54847  0.83693  0.93960  Biso   1.000  H
  C3236    1.0000 0.74386  0.93862  0.94995  Biso   1.000  C
  C3237    1.0000 0.74398  0.93862  0.94995  Biso   1.000  C
  H3456    1.0000 0.45202  0.56442  0.93250  Biso   1.000  H
  H3457    1.0000 0.45310  0.59794  0.94490  Biso   1.000  H
  C3238    1.0000 0.84079  0.04738  0.97694  Biso   1.000  C
  C3239    1.0000 0.84073  0.04738  0.97694  Biso   1.000  C
  H3458    1.0000 0.11236  0.54797  0.93250  Biso   1.000  H
  H3459    1.0000 0.14481  0.54690  0.94490  Biso   1.000  H
  H3460    1.0000 0.14475  0.54690  0.94490  Biso   1.000  H
  H3461    1.0000 0.11242  0.54797  0.93250  Biso   1.000  H
  C3240    1.0000 0.91059  0.15749  0.96268  Biso   1.000  C
  C3241    1.0000 0.91053  0.15749  0.96268  Biso   1.000  C
  H3462    1.0000 0.00890  0.29512  0.96480  Biso   1.000  H
  H3463    1.0000 0.00896  0.29512  0.96480  Biso   1.000  H
  H3464    1.0000 0.43108  0.69203  0.93200  Biso   1.000  H
  H3465    1.0000 0.52571  0.71868  0.92630  Biso   1.000  H
  H3466    1.0000 0.75487  0.95410  0.94240  Biso   1.000  H
  C3242    1.0000 0.79637  0.00458  0.95781  Biso   1.000  C
  C3243    1.0000 0.79113  0.98210  0.96901  Biso   1.000  C
  C3244    1.0000 0.89907  0.13608  0.97345  Biso   1.000  C
  C3245    1.0000 0.85690  0.09301  0.95490  Biso   1.000  C
  C3246    1.0000 0.85685  0.09301  0.95490  Biso   1.000  C
  H3467    1.0000 0.75308  0.92139  0.97120  Biso   1.000  H
  H3468    1.0000 0.93092  0.18172  0.97880  Biso   1.000  H
  H3469    1.0000 0.93086  0.18172  0.97880  Biso   1.000  H
  H3470    1.0000 0.86190  0.11011  0.94740  Biso   1.000  H
  C3247    1.0000 0.50773  0.20938  0.06669  Biso   1.000  C
  C3248    1.0000 0.45642  0.23650  0.05774  Biso   1.000  C
  H3471    1.0000 0.56885  0.26086  0.06800  Biso   1.000  H
  H3472    1.0000 0.47432  0.19302  0.07370  Biso   1.000  H
  C3249    1.0000 0.51420  0.12848  0.06223  Biso   1.000  C
  C3250    1.0000 0.45636  0.23650  0.05774  Biso   1.000  C
  H3473    1.0000 0.56889  0.26093  0.06800  Biso   1.000  H
  H3474    1.0000 0.47426  0.19302  0.07370  Biso   1.000  H
  C3251    1.0000 0.51414  0.12848  0.06223  Biso   1.000  C
  H3475    1.0000 0.56894  0.26093  0.06800  Biso   1.000  H
  C3252    1.0000 0.50779  0.20938  0.06669  Biso   1.000  C
  H3476    1.0000 0.45160  0.28852  0.06040  Biso   1.000  H
  C3253    1.0000 0.36001  0.15291  0.05598  Biso   1.000  C
  H3477    1.0000 0.49010  0.25339  0.05070  Biso   1.000  H
  C3254    1.0000 0.35995  0.15291  0.05598  Biso   1.000  C
  H3478    1.0000 0.49005  0.25339  0.05070  Biso   1.000  H
  H3479    1.0000 0.54688  0.14477  0.05510  Biso   1.000  H
  C3255    1.0000 0.41749  0.04637  0.06056  Biso   1.000  C
  H3480    1.0000 0.54801  0.11239  0.06750  Biso   1.000  H
  H3481    1.0000 0.54795  0.11239  0.06750  Biso   1.000  H
  H3482    1.0000 0.54683  0.14477  0.05510  Biso   1.000  H
  C3256    1.0000 0.41743  0.04637  0.06056  Biso   1.000  C
  H3483    1.0000 0.32449  0.13723  0.06290  Biso   1.000  H
  C3257    1.0000 0.36867  0.07208  0.05188  Biso   1.000  C
  N477     1.0000 0.31690  0.17707  0.04756  Biso   1.000  N
  N478     1.0000 0.31684  0.17707  0.04756  Biso   1.000  N
  H3484    1.0000 0.32454  0.13723  0.06290  Biso   1.000  H
  H3485    1.0000 0.38387  0.03089  0.06760  Biso   1.000  H
  H3486    1.0000 0.42114  0.99340  0.05800  Biso   1.000  H
  H3487    1.0000 0.38393  0.03089  0.06760  Biso   1.000  H
  N479     1.0000 0.27558  0.99838  0.05061  Biso   1.000  N
  H3488    1.0000 0.40131  0.08642  0.04470  Biso   1.000  H
  H3489    1.0000 0.40125  0.08642  0.04470  Biso   1.000  H
  C3258    1.0000 0.25612  0.19470  0.05005  Biso   1.000  C
  C3259    1.0000 0.25606  0.19470  0.05005  Biso   1.000  C
  C3260    1.0000 0.25139  0.97880  0.04077  Biso   1.000  C
  C3261    1.0000 0.20358  0.20817  0.04219  Biso   1.000  C
  H3490    1.0000 0.24509  0.19921  0.05760  Biso   1.000  H
  H3491    1.0000 0.24515  0.19921  0.05760  Biso   1.000  H
  C3262    1.0000 0.15756  0.91062  0.03732  Biso   1.000  C
  C3263    1.0000 0.15750  0.91062  0.03732  Biso   1.000  C
  H3492    1.0000 0.29511  0.00888  0.03520  Biso   1.000  H
  H3493    1.0000 0.29505  0.00888  0.03520  Biso   1.000  H
  C3264    1.0000 0.14311  0.23610  0.04510  Biso   1.000  C
  C3265    1.0000 0.20892  0.19100  0.03099  Biso   1.000  C
  C3266    1.0000 0.14305  0.23610  0.04510  Biso   1.000  C
  C3267    1.0000 0.20887  0.19100  0.03099  Biso   1.000  C
  C3268    1.0000 0.13613  0.89911  0.02655  Biso   1.000  C
  C3269    1.0000 0.09306  0.85692  0.04510  Biso   1.000  C
  C3270    1.0000 0.13607  0.89911  0.02655  Biso   1.000  C
  C3271    1.0000 0.09294  0.85692  0.04510  Biso   1.000  C
  H3494    1.0000 0.13809  0.24821  0.05260  Biso   1.000  H
  C3272    1.0000 0.08939  0.24686  0.03732  Biso   1.000  C
  C3273    1.0000 0.08943  0.24693  0.03732  Biso   1.000  C
  C3274    1.0000 0.08934  0.24686  0.03732  Biso   1.000  C
  C3275    1.0000 0.15920  0.20662  0.02306  Biso   1.000  C
  H3495    1.0000 0.24689  0.16832  0.02880  Biso   1.000  H
  H3496    1.0000 0.24695  0.16832  0.02880  Biso   1.000  H
  C3276    1.0000 0.04742  0.84083  0.02306  Biso   1.000  C
  H3497    1.0000 0.18174  0.93088  0.02120  Biso   1.000  H
  H3498    1.0000 0.18162  0.93088  0.02120  Biso   1.000  H
  H3499    1.0000 0.11018  0.86190  0.05260  Biso   1.000  H
  C3277    1.0000 0.00458  0.79641  0.04219  Biso   1.000  C
  H3500    1.0000 0.11012  0.86190  0.05260  Biso   1.000  H
  C3278    1.0000 0.02117  0.27257  0.04077  Biso   1.000  C
  C3279    1.0000 0.10088  0.23697  0.02655  Biso   1.000  C
  C3280    1.0000 0.02123  0.27257  0.04077  Biso   1.000  C
  C3281    1.0000 0.16832  0.19302  0.01110  Biso   1.000  C
  C3282    1.0000 0.16826  0.19302  0.01110  Biso   1.000  C
  C3283    1.0000 0.98204  0.79109  0.03099  Biso   1.000  C
  C3284    1.0000 0.98216  0.79109  0.03099  Biso   1.000  C
  C3285    1.0000 0.02466  0.83168  0.01110  Biso   1.000  C
  C3286    1.0000 0.93858  0.74392  0.05005  Biso   1.000  C
  H3501    1.0000 0.99108  0.28617  0.03520  Biso   1.000  H
  H3502    1.0000 0.99102  0.28617  0.03520  Biso   1.000  H
  N480     1.0000 0.00164  0.27722  0.05061  Biso   1.000  N
  N481     1.0000 0.00158  0.27722  0.05061  Biso   1.000  N
  H3503    1.0000 0.06908  0.25077  0.02120  Biso   1.000  H
  C3287    1.0000 0.25067  0.20467  0.00720  Biso   1.000  C
  C3288    1.0000 0.19328  0.26416  0.00368  Biso   1.000  C
  C3289    1.0000 0.19331  0.26423  0.00368  Biso   1.000  C
  C3290    1.0000 0.09299  0.16092  0.00383  Biso   1.000  C
  C3291    1.0000 0.15319  0.10950  0.00712  Biso   1.000  C
  H3504    1.0000 0.92133  0.75314  0.02880  Biso   1.000  H
  H3505    1.0000 0.92139  0.75314  0.02880  Biso   1.000  H
  C3292    1.0000 0.95398  0.74930  0.00720  Biso   1.000  C
  C3293    1.0000 0.95634  0.84682  0.00712  Biso   1.000  C
  C3294    1.0000 0.07098  0.80671  0.00368  Biso   1.000  C
  C3295    1.0000 0.07087  0.80671  0.00368  Biso   1.000  C
  C3296    1.0000 0.06785  0.90699  0.00383  Biso   1.000  C
  H3506    1.0000 0.95409  0.75489  0.05760  Biso   1.000  H
  N482     1.0000 0.86019  0.68307  0.04756  Biso   1.000  N
  N483     1.0000 0.86028  0.68314  0.04756  Biso   1.000  N
  N484     1.0000 0.86025  0.68307  0.04756  Biso   1.000  N
  N485     1.0000 0.86022  0.68314  0.04756  Biso   1.000  N
  C3297    1.0000 0.92792  0.29660  0.05188  Biso   1.000  C
  C3298    1.0000 0.92787  0.29660  0.05188  Biso   1.000  C
  H3507    1.0000 0.29860  0.22102  0.01230  Biso   1.000  H
  C3299    1.0000 0.26422  0.19329  0.99632  Biso   1.000  C
  C3300    1.0000 0.26416  0.19329  0.99632  Biso   1.000  C
  H3508    1.0000 0.20220  0.32069  0.00610  Biso   1.000  H
  C3301    1.0000 0.20468  0.25070  0.99280  Biso   1.000  C
  C3302    1.0000 0.20473  0.25070  0.99280  Biso   1.000  C
  C3303    1.0000 0.10946  0.15318  0.99288  Biso   1.000  C
  H3509    1.0000 0.03479  0.14557  0.00640  Biso   1.000  H
  C3304    1.0000 0.16092  0.09301  0.99617  Biso   1.000  C
  H3510    1.0000 0.13678  0.06199  0.01220  Biso   1.000  H
  C3305    1.0000 0.92912  0.73584  0.99632  Biso   1.000  C
  H3511    1.0000 0.92238  0.70138  0.01230  Biso   1.000  H
  C3306    1.0000 0.93207  0.83908  0.99617  Biso   1.000  C
  H3512    1.0000 0.92518  0.86318  0.01220  Biso   1.000  H
  H3513    1.0000 0.11853  0.79782  0.00610  Biso   1.000  H
  C3307    1.0000 0.04606  0.79533  0.99280  Biso   1.000  C
  C3308    1.0000 0.04600  0.79533  0.99280  Biso   1.000  C
  C3309    1.0000 0.04364  0.89050  0.99288  Biso   1.000  C
  H3514    1.0000 0.11083  0.96520  0.00640  Biso   1.000  H
  C3310    1.0000 0.79284  0.64000  0.05598  Biso   1.000  C
  C3311    1.0000 0.79290  0.64000  0.05598  Biso   1.000  C
  C3312    1.0000 0.84709  0.20709  0.05598  Biso   1.000  C
  C3313    1.0000 0.95363  0.37110  0.06056  Biso   1.000  C
  H3515    1.0000 0.91359  0.31491  0.04470  Biso   1.000  H
  C3314    1.0000 0.95358  0.37110  0.06056  Biso   1.000  C
  C3315    1.0000 0.84703  0.20709  0.05598  Biso   1.000  C
  H3516    1.0000 0.32071  0.20218  0.99390  Biso   1.000  H
  C3316    1.0000 0.19298  0.16832  0.98890  Biso   1.000  C
  H3517    1.0000 0.32065  0.20218  0.99390  Biso   1.000  H
  C3317    1.0000 0.19304  0.16832  0.98890  Biso   1.000  C
  H3518    1.0000 0.22100  0.29862  0.98770  Biso   1.000  H
  H3519    1.0000 0.06200  0.13682  0.98780  Biso   1.000  H
  H3520    1.0000 0.14557  0.03480  0.99360  Biso   1.000  H
  C3318    1.0000 0.97530  0.80698  0.98890  Biso   1.000  C
  H3521    1.0000 0.88150  0.67931  0.99390  Biso   1.000  H
  H3522    1.0000 0.88156  0.67931  0.99390  Biso   1.000  H
  H3523    1.0000 0.88927  0.85443  0.99360  Biso   1.000  H
  H3524    1.0000 0.07763  0.77898  0.98770  Biso   1.000  H
  H3525    1.0000 0.07758  0.77898  0.98770  Biso   1.000  H
  H3526    1.0000 0.07480  0.93801  0.98780  Biso   1.000  H
  H3527    1.0000 0.81271  0.67554  0.06290  Biso   1.000  H
  C3319    1.0000 0.78003  0.54363  0.05774  Biso   1.000  C
  C3320    1.0000 0.70334  0.63132  0.05188  Biso   1.000  C
  H3528    1.0000 0.81276  0.67554  0.06290  Biso   1.000  H
  C3321    1.0000 0.78009  0.54363  0.05774  Biso   1.000  C
  C3322    1.0000 0.70346  0.63132  0.05188  Biso   1.000  C
  N486     1.0000 0.82288  0.13979  0.04756  Biso   1.000  N
  H3529    1.0000 0.86278  0.18730  0.06290  Biso   1.000  H
  C3323    1.0000 0.76349  0.21988  0.05774  Biso   1.000  C
  C3324    1.0000 0.76343  0.21988  0.05774  Biso   1.000  C
  H3530    1.0000 0.00659  0.42770  0.05800  Biso   1.000  H
  C3325    1.0000 0.87153  0.38571  0.06223  Biso   1.000  C
  H3531    1.0000 0.96912  0.35300  0.06760  Biso   1.000  H
  C3326    1.0000 0.87147  0.38571  0.06223  Biso   1.000  C
  H3532    1.0000 0.96906  0.35300  0.06760  Biso   1.000  H
  H3533    1.0000 0.00665  0.42770  0.05800  Biso   1.000  H
  C3327    1.0000 0.20659  0.15917  0.97694  Biso   1.000  C
  C3328    1.0000 0.20653  0.15917  0.97694  Biso   1.000  C
  C3329    1.0000 0.95259  0.79338  0.97694  Biso   1.000  C
  C3330    1.0000 0.95265  0.79338  0.97694  Biso   1.000  C
  H3534    1.0000 0.83686  0.54840  0.06040  Biso   1.000  H
  H3535    1.0000 0.76323  0.50991  0.05070  Biso   1.000  H
  C3331    1.0000 0.70163  0.49221  0.06669  Biso   1.000  C
  H3536    1.0000 0.76329  0.50991  0.05070  Biso   1.000  H
  H3537    1.0000 0.68513  0.59875  0.04470  Biso   1.000  H
  N487     1.0000 0.72272  0.72440  0.05061  Biso   1.000  N
  C3332    1.0000 0.62894  0.58253  0.06056  Biso   1.000  C
  H3538    1.0000 0.68510  0.59868  0.04470  Biso   1.000  H
  N488     1.0000 0.72278  0.72440  0.05061  Biso   1.000  N
  C3333    1.0000 0.80530  0.06138  0.05005  Biso   1.000  C
  C3334    1.0000 0.80524  0.06138  0.05005  Biso   1.000  C
  H3539    1.0000 0.71148  0.16307  0.06040  Biso   1.000  H
  H3540    1.0000 0.74661  0.23670  0.05070  Biso   1.000  H
  C3335    1.0000 0.79064  0.29842  0.06669  Biso   1.000  C
  C3336    1.0000 0.79058  0.29842  0.06669  Biso   1.000  C
  H3541    1.0000 0.74655  0.23670  0.05070  Biso   1.000  H
  H3542    1.0000 0.88760  0.43558  0.06750  Biso   1.000  H
  H3543    1.0000 0.85517  0.40206  0.05510  Biso   1.000  H
  H3544    1.0000 0.88755  0.43558  0.06750  Biso   1.000  H
  C3337    1.0000 0.23701  0.10089  0.97345  Biso   1.000  C
  C3338    1.0000 0.19101  0.20891  0.96901  Biso   1.000  C
  C3339    1.0000 0.23696  0.10089  0.97345  Biso   1.000  C
  C3340    1.0000 0.01792  0.80900  0.96901  Biso   1.000  C
  C3341    1.0000 0.86391  0.76303  0.97345  Biso   1.000  C
  C3342    1.0000 0.86397  0.76303  0.97345  Biso   1.000  C
  H3545    1.0000 0.69194  0.43110  0.06800  Biso   1.000  H
  H3546    1.0000 0.71874  0.52572  0.07370  Biso   1.000  H
  C3343    1.0000 0.61427  0.48581  0.06223  Biso   1.000  C
  H3547    1.0000 0.69200  0.43110  0.06800  Biso   1.000  H
  C3344    1.0000 0.72738  0.74863  0.04077  Biso   1.000  C
  H3548    1.0000 0.57222  0.57889  0.05800  Biso   1.000  H
  H3549    1.0000 0.64695  0.61611  0.06760  Biso   1.000  H
  H3550    1.0000 0.57233  0.57889  0.05800  Biso   1.000  H
  H3551    1.0000 0.64701  0.61611  0.06760  Biso   1.000  H
  C3345    1.0000 0.79173  0.99542  0.04219  Biso   1.000  C
  C3346    1.0000 0.79179  0.99542  0.04219  Biso   1.000  C
  H3552    1.0000 0.80082  0.04590  0.05760  Biso   1.000  H
  H3553    1.0000 0.80077  0.04590  0.05760  Biso   1.000  H
  H3554    1.0000 0.73911  0.30797  0.06800  Biso   1.000  H
  H3555    1.0000 0.80704  0.28132  0.07370  Biso   1.000  H
  H3556    1.0000 0.73905  0.30797  0.06800  Biso   1.000  H
  H3557    1.0000 0.80698  0.28132  0.07370  Biso   1.000  H
  H3558    1.0000 0.25080  0.06912  0.97880  Biso   1.000  H
  C3347    1.0000 0.24688  0.08938  0.96268  Biso   1.000  C
  C3348    1.0000 0.20816  0.20359  0.95781  Biso   1.000  C
  H3559    1.0000 0.16825  0.24686  0.97120  Biso   1.000  H
  H3560    1.0000 0.16829  0.24693  0.97120  Biso   1.000  H
  C3349    1.0000 0.20822  0.20359  0.95781  Biso   1.000  C
  H3561    1.0000 0.16835  0.24693  0.97120  Biso   1.000  H
  C3350    1.0000 0.99535  0.79183  0.95781  Biso   1.000  C
  C3351    1.0000 0.99547  0.79183  0.95781  Biso   1.000  C
  H3562    1.0000 0.07857  0.83168  0.97120  Biso   1.000  H
  H3563    1.0000 0.81825  0.74923  0.97880  Biso   1.000  H
  C3352    1.0000 0.84247  0.75314  0.96268  Biso   1.000  C
  H3564    1.0000 0.81831  0.74923  0.97880  Biso   1.000  H
  C3353    1.0000 0.84253  0.75314  0.96268  Biso   1.000  C
  H3565    1.0000 0.56439  0.45203  0.06750  Biso   1.000  H
  H3566    1.0000 0.59786  0.45310  0.05510  Biso   1.000  H
  H3567    1.0000 0.56445  0.45203  0.06750  Biso   1.000  H
  H3568    1.0000 0.59792  0.45310  0.05510  Biso   1.000  H
  C3354    1.0000 0.75310  0.84251  0.03732  Biso   1.000  C
  H3569    1.0000 0.71372  0.70488  0.03520  Biso   1.000  H
  H3570    1.0000 0.71384  0.70488  0.03520  Biso   1.000  H
  C3355    1.0000 0.76389  0.90699  0.04510  Biso   1.000  C
  C3356    1.0000 0.76395  0.90699  0.04510  Biso   1.000  C
  C3357    1.0000 0.80903  0.01790  0.03099  Biso   1.000  C
  C3358    1.0000 0.80897  0.01790  0.03099  Biso   1.000  C
  C3359    1.0000 0.27259  0.02120  0.95923  Biso   1.000  C
  C3360    1.0000 0.23608  0.14308  0.95490  Biso   1.000  C
  C3361    1.0000 0.19466  0.25608  0.94995  Biso   1.000  C
  C3362    1.0000 0.19472  0.25608  0.94995  Biso   1.000  C
  C3363    1.0000 0.06142  0.80530  0.94995  Biso   1.000  C
  C3364    1.0000 0.90696  0.76390  0.95490  Biso   1.000  C
  C3365    1.0000 0.74854  0.72743  0.95923  Biso   1.000  C
  C3366    1.0000 0.74866  0.72743  0.95923  Biso   1.000  C
  C3367    1.0000 0.76293  0.86392  0.02655  Biso   1.000  C
  C3368    1.0000 0.76305  0.86392  0.02655  Biso   1.000  C
  H3571    1.0000 0.75179  0.88989  0.05260  Biso   1.000  H
  H3572    1.0000 0.75185  0.88989  0.05260  Biso   1.000  H
  C3369    1.0000 0.79335  0.95262  0.02306  Biso   1.000  C
  C3370    1.0000 0.79341  0.95262  0.02306  Biso   1.000  C
  H3573    1.0000 0.83169  0.07861  0.02880  Biso   1.000  H
  H3574    1.0000 0.28623  0.99112  0.96480  Biso   1.000  H
  N489     1.0000 0.27720  0.00162  0.94939  Biso   1.000  N
  H3575    1.0000 0.24822  0.13810  0.94740  Biso   1.000  H
  H3576    1.0000 0.24816  0.13810  0.94740  Biso   1.000  H
  N490     1.0000 0.17711  0.31693  0.95244  Biso   1.000  N
  H3577    1.0000 0.19920  0.24511  0.94240  Biso   1.000  H
  N491     1.0000 0.13983  0.82293  0.95244  Biso   1.000  N
  H3578    1.0000 0.04593  0.80079  0.94240  Biso   1.000  H
  N492     1.0000 0.13977  0.82293  0.95244  Biso   1.000  N
  H3579    1.0000 0.88983  0.75179  0.94740  Biso   1.000  H
  H3580    1.0000 0.88988  0.75179  0.94740  Biso   1.000  H
  N493     1.0000 0.72442  0.72278  0.94939  Biso   1.000  N
  H3581    1.0000 0.70491  0.71383  0.96480  Biso   1.000  H
  H3582    1.0000 0.70497  0.71383  0.96480  Biso   1.000  H
  H3583    1.0000 0.74921  0.81828  0.02120  Biso   1.000  H
  C3371    1.0000 0.80702  0.97530  0.01110  Biso   1.000  C
  C3372    1.0000 0.29659  0.92792  0.94812  Biso   1.000  C
  C3373    1.0000 0.15290  0.36000  0.94402  Biso   1.000  C
  C3374    1.0000 0.20710  0.84709  0.94402  Biso   1.000  C
  C3375    1.0000 0.20704  0.84709  0.94402  Biso   1.000  C
  C3376    1.0000 0.63132  0.70340  0.94812  Biso   1.000  C
  C3377    1.0000 0.73580  0.92913  0.00368  Biso   1.000  C
  C3378    1.0000 0.83910  0.93209  0.00383  Biso   1.000  C
  C3379    1.0000 0.79526  0.04597  0.00720  Biso   1.000  C
  C3380    1.0000 0.79530  0.04603  0.00720  Biso   1.000  C
  C3381    1.0000 0.89046  0.04368  0.00712  Biso   1.000  C
  H3584    1.0000 0.31490  0.91358  0.95530  Biso   1.000  H
  C3382    1.0000 0.37117  0.95363  0.93944  Biso   1.000  C
  C3383    1.0000 0.37106  0.95363  0.93944  Biso   1.000  C
  H3585    1.0000 0.13717  0.32446  0.93710  Biso   1.000  H
  C3384    1.0000 0.23646  0.45637  0.94226  Biso   1.000  C
  C3385    1.0000 0.07208  0.36868  0.94812  Biso   1.000  C
  H3586    1.0000 0.13723  0.32446  0.93710  Biso   1.000  H
  C3386    1.0000 0.23652  0.45637  0.94226  Biso   1.000  C
  H3587    1.0000 0.18732  0.86277  0.93710  Biso   1.000  H
  C3387    1.0000 0.21998  0.76350  0.94226  Biso   1.000  C
  H3588    1.0000 0.18735  0.86284  0.93710  Biso   1.000  H
  C3388    1.0000 0.21986  0.76350  0.94226  Biso   1.000  C
  H3589    1.0000 0.59868  0.68509  0.95530  Biso   1.000  H
  C3389    1.0000 0.63994  0.79291  0.94402  Biso   1.000  C
  C3390    1.0000 0.58253  0.62890  0.93944  Biso   1.000  C
  C3391    1.0000 0.64006  0.79291  0.94402  Biso   1.000  C
  C3392    1.0000 0.74924  0.95403  0.99280  Biso   1.000  C
  C3393    1.0000 0.74935  0.95403  0.99280  Biso   1.000  C
  H3590    1.0000 0.67921  0.88148  0.00610  Biso   1.000  H
  H3591    1.0000 0.67927  0.88148  0.00610  Biso   1.000  H
  C3394    1.0000 0.84684  0.95632  0.99288  Biso   1.000  C
  H3592    1.0000 0.85438  0.88922  0.00640  Biso   1.000  H
  C3395    1.0000 0.80666  0.07087  0.99632  Biso   1.000  C
  H3593    1.0000 0.77902  0.07760  0.01230  Biso   1.000  H
  H3594    1.0000 0.77896  0.07760  0.01230  Biso   1.000  H
  C3396    1.0000 0.90695  0.06791  0.99617  Biso   1.000  C
  H3595    1.0000 0.93795  0.07477  0.01220  Biso   1.000  H
  C3397    1.0000 0.38578  0.87152  0.93777  Biso   1.000  C
  H3596    1.0000 0.35303  0.96911  0.93240  Biso   1.000  H
  C3398    1.0000 0.38572  0.87152  0.93777  Biso   1.000  C
  H3597    1.0000 0.42767  0.00660  0.94200  Biso   1.000  H
  H3598    1.0000 0.42773  0.00660  0.94200  Biso   1.000  H
  H3599    1.0000 0.28851  0.45160  0.93960  Biso   1.000  H
  H3600    1.0000 0.25338  0.49009  0.94930  Biso   1.000  H
  C3399    1.0000 0.20943  0.50779  0.93331  Biso   1.000  C
  H3601    1.0000 0.28845  0.45160  0.93960  Biso   1.000  H
  C3400    1.0000 0.20937  0.50779  0.93331  Biso   1.000  C
  H3602    1.0000 0.25344  0.49009  0.94930  Biso   1.000  H
  N494     1.0000 0.99838  0.27560  0.94939  Biso   1.000  N
  C3401    1.0000 0.04641  0.41747  0.93944  Biso   1.000  C
  H3603    1.0000 0.08642  0.40132  0.95530  Biso   1.000  H
  C3402    1.0000 0.04635  0.41747  0.93944  Biso   1.000  C
  H3604    1.0000 0.08636  0.40132  0.95530  Biso   1.000  H
  H3605    1.0000 0.16313  0.71148  0.93960  Biso   1.000  H
  H3606    1.0000 0.23677  0.74661  0.94930  Biso   1.000  H
  C3403    1.0000 0.29847  0.79062  0.93331  Biso   1.000  C
  H3607    1.0000 0.16317  0.71154  0.93960  Biso   1.000  H
  H3608    1.0000 0.23665  0.74661  0.94930  Biso   1.000  H
  C3404    1.0000 0.29835  0.79062  0.93331  Biso   1.000  C
  H3609    1.0000 0.16305  0.71154  0.93960  Biso   1.000  H
  C3405    1.0000 0.54361  0.78012  0.94226  Biso   1.000  C
  N495     1.0000 0.68304  0.86021  0.95244  Biso   1.000  N
  H3610    1.0000 0.67542  0.81270  0.93710  Biso   1.000  H
  N496     1.0000 0.68315  0.86021  0.95244  Biso   1.000  N
  H3611    1.0000 0.67548  0.81270  0.93710  Biso   1.000  H
  C3406    1.0000 0.48582  0.61429  0.93777  Biso   1.000  C
  H3612    1.0000 0.57883  0.57230  0.94200  Biso   1.000  H
  H3613    1.0000 0.61612  0.64700  0.93240  Biso   1.000  H
  H3614    1.0000 0.57894  0.57230  0.94200  Biso   1.000  H
  H3615    1.0000 0.70142  0.92240  0.98770  Biso   1.000  H
  C3407    1.0000 0.83172  0.02470  0.98890  Biso   1.000  C
  C3408    1.0000 0.83167  0.02470  0.98890  Biso   1.000  C
  H3616    1.0000 0.86318  0.92523  0.98780  Biso   1.000  H
  H3617    1.0000 0.79779  0.11852  0.99390  Biso   1.000  H
  H3618    1.0000 0.96516  0.11078  0.99360  Biso   1.000  H
  H3619    1.0000 0.43561  0.88761  0.93250  Biso   1.000  H
  H3620    1.0000 0.40218  0.85523  0.94490  Biso   1.000  H
  H3621    1.0000 0.40206  0.85523  0.94490  Biso   1.000  H
  H3622    1.0000 0.26090  0.56890  0.93200  Biso   1.000  H
  H3623    1.0000 0.19302  0.47428  0.92630  Biso   1.000  H
  C3409    1.0000 0.12852  0.51419  0.93777  Biso   1.000  C
  H3624    1.0000 0.19296  0.47428  0.92630  Biso   1.000  H
  C3410    1.0000 0.12846  0.51419  0.93777  Biso   1.000  C
  C3411    1.0000 0.97881  0.25137  0.95923  Biso   1.000  C
  C3412    1.0000 0.97875  0.25137  0.95923  Biso   1.000  C
  H3625    1.0000 0.99338  0.42111  0.94200  Biso   1.000  H
  H3626    1.0000 0.03090  0.38389  0.93240  Biso   1.000  H
  H3627    1.0000 0.30799  0.73914  0.93200  Biso   1.000  H
  H3628    1.0000 0.28129  0.80698  0.92630  Biso   1.000  H
  H3629    1.0000 0.28124  0.80698  0.92630  Biso   1.000  H
  H3630    1.0000 0.50991  0.76330  0.94930  Biso   1.000  H
  H3631    1.0000 0.54841  0.83693  0.93960  Biso   1.000  H
  C3413    1.0000 0.49222  0.70158  0.93331  Biso   1.000  C
  H3632    1.0000 0.54847  0.83693  0.93960  Biso   1.000  H
  C3414    1.0000 0.74386  0.93862  0.94995  Biso   1.000  C
  C3415    1.0000 0.74398  0.93862  0.94995  Biso   1.000  C
  H3633    1.0000 0.45202  0.56442  0.93250  Biso   1.000  H
  H3634    1.0000 0.45310  0.59794  0.94490  Biso   1.000  H
  C3416    1.0000 0.84079  0.04738  0.97694  Biso   1.000  C
  C3417    1.0000 0.84073  0.04738  0.97694  Biso   1.000  C
  H3635    1.0000 0.11236  0.54797  0.93250  Biso   1.000  H
  H3636    1.0000 0.14481  0.54690  0.94490  Biso   1.000  H
  H3637    1.0000 0.14475  0.54690  0.94490  Biso   1.000  H
  H3638    1.0000 0.11242  0.54797  0.93250  Biso   1.000  H
  C3418    1.0000 0.91059  0.15749  0.96268  Biso   1.000  C
  C3419    1.0000 0.91053  0.15749  0.96268  Biso   1.000  C
  H3639    1.0000 0.00890  0.29512  0.96480  Biso   1.000  H
  H3640    1.0000 0.00896  0.29512  0.96480  Biso   1.000  H
  H3641    1.0000 0.43108  0.69203  0.93200  Biso   1.000  H
  H3642    1.0000 0.52571  0.71868  0.92630  Biso   1.000  H
  H3643    1.0000 0.75487  0.95410  0.94240  Biso   1.000  H
  C3420    1.0000 0.79637  0.00458  0.95781  Biso   1.000  C
  C3421    1.0000 0.79113  0.98210  0.96901  Biso   1.000  C
  C3422    1.0000 0.89907  0.13608  0.97345  Biso   1.000  C
  C3423    1.0000 0.85690  0.09301  0.95490  Biso   1.000  C
  C3424    1.0000 0.85685  0.09301  0.95490  Biso   1.000  C
  H3644    1.0000 0.75308  0.92139  0.97120  Biso   1.000  H
  H3645    1.0000 0.93092  0.18172  0.97880  Biso   1.000  H
  H3646    1.0000 0.93086  0.18172  0.97880  Biso   1.000  H
  H3647    1.0000 0.86190  0.11011  0.94740  Biso   1.000  H
  C3425    1.0000 0.50773  0.20938  0.06669  Biso   1.000  C
  C3426    1.0000 0.45642  0.23650  0.05774  Biso   1.000  C
  H3648    1.0000 0.56885  0.26086  0.06800  Biso   1.000  H
  H3649    1.0000 0.47432  0.19302  0.07370  Biso   1.000  H
  C3427    1.0000 0.51420  0.12848  0.06223  Biso   1.000  C
  C3428    1.0000 0.45636  0.23650  0.05774  Biso   1.000  C
  H3650    1.0000 0.56889  0.26093  0.06800  Biso   1.000  H
  H3651    1.0000 0.47426  0.19302  0.07370  Biso   1.000  H
  C3429    1.0000 0.51414  0.12848  0.06223  Biso   1.000  C
  H3652    1.0000 0.56894  0.26093  0.06800  Biso   1.000  H
  C3430    1.0000 0.50779  0.20938  0.06669  Biso   1.000  C
  H3653    1.0000 0.45160  0.28852  0.06040  Biso   1.000  H
  C3431    1.0000 0.36001  0.15291  0.05598  Biso   1.000  C
  H3654    1.0000 0.49010  0.25339  0.05070  Biso   1.000  H
  C3432    1.0000 0.35995  0.15291  0.05598  Biso   1.000  C
  H3655    1.0000 0.49005  0.25339  0.05070  Biso   1.000  H
  H3656    1.0000 0.54688  0.14477  0.05510  Biso   1.000  H
  C3433    1.0000 0.41749  0.04637  0.06056  Biso   1.000  C
  H3657    1.0000 0.54801  0.11239  0.06750  Biso   1.000  H
  H3658    1.0000 0.54795  0.11239  0.06750  Biso   1.000  H
  H3659    1.0000 0.54683  0.14477  0.05510  Biso   1.000  H
  C3434    1.0000 0.41743  0.04637  0.06056  Biso   1.000  C
  H3660    1.0000 0.32449  0.13723  0.06290  Biso   1.000  H
  C3435    1.0000 0.36867  0.07208  0.05188  Biso   1.000  C
  N497     1.0000 0.31690  0.17707  0.04756  Biso   1.000  N
  N498     1.0000 0.31684  0.17707  0.04756  Biso   1.000  N
  H3661    1.0000 0.32454  0.13723  0.06290  Biso   1.000  H
  H3662    1.0000 0.38387  0.03089  0.06760  Biso   1.000  H
  H3663    1.0000 0.42114  0.99340  0.05800  Biso   1.000  H
  H3664    1.0000 0.38393  0.03089  0.06760  Biso   1.000  H
  N499     1.0000 0.27558  0.99838  0.05061  Biso   1.000  N
  H3665    1.0000 0.40131  0.08642  0.04470  Biso   1.000  H
  H3666    1.0000 0.40125  0.08642  0.04470  Biso   1.000  H
  C3436    1.0000 0.25612  0.19470  0.05005  Biso   1.000  C
  C3437    1.0000 0.25606  0.19470  0.05005  Biso   1.000  C
  C3438    1.0000 0.25139  0.97880  0.04077  Biso   1.000  C
  C3439    1.0000 0.20358  0.20817  0.04219  Biso   1.000  C
  H3667    1.0000 0.24509  0.19921  0.05760  Biso   1.000  H
  H3668    1.0000 0.24515  0.19921  0.05760  Biso   1.000  H
  C3440    1.0000 0.15756  0.91062  0.03732  Biso   1.000  C
  C3441    1.0000 0.15750  0.91062  0.03732  Biso   1.000  C
  H3669    1.0000 0.29511  0.00888  0.03520  Biso   1.000  H
  H3670    1.0000 0.29505  0.00888  0.03520  Biso   1.000  H
  C3442    1.0000 0.14311  0.23610  0.04510  Biso   1.000  C
  C3443    1.0000 0.20892  0.19100  0.03099  Biso   1.000  C
  C3444    1.0000 0.14305  0.23610  0.04510  Biso   1.000  C
  C3445    1.0000 0.20887  0.19100  0.03099  Biso   1.000  C
  C3446    1.0000 0.13613  0.89911  0.02655  Biso   1.000  C
  C3447    1.0000 0.09306  0.85692  0.04510  Biso   1.000  C
  C3448    1.0000 0.13607  0.89911  0.02655  Biso   1.000  C
  C3449    1.0000 0.09294  0.85692  0.04510  Biso   1.000  C
  H3671    1.0000 0.13809  0.24821  0.05260  Biso   1.000  H
  C3450    1.0000 0.08939  0.24686  0.03732  Biso   1.000  C
  C3451    1.0000 0.08943  0.24693  0.03732  Biso   1.000  C
  C3452    1.0000 0.08934  0.24686  0.03732  Biso   1.000  C
  C3453    1.0000 0.15920  0.20662  0.02306  Biso   1.000  C
  H3672    1.0000 0.24689  0.16832  0.02880  Biso   1.000  H
  H3673    1.0000 0.24695  0.16832  0.02880  Biso   1.000  H
  C3454    1.0000 0.04742  0.84083  0.02306  Biso   1.000  C
  H3674    1.0000 0.18174  0.93088  0.02120  Biso   1.000  H
  H3675    1.0000 0.18162  0.93088  0.02120  Biso   1.000  H
  H3676    1.0000 0.11018  0.86190  0.05260  Biso   1.000  H
  C3455    1.0000 0.00458  0.79641  0.04219  Biso   1.000  C
  H3677    1.0000 0.11012  0.86190  0.05260  Biso   1.000  H
  C3456    1.0000 0.02117  0.27257  0.04077  Biso   1.000  C
  C3457    1.0000 0.10088  0.23697  0.02655  Biso   1.000  C
  C3458    1.0000 0.02123  0.27257  0.04077  Biso   1.000  C
  C3459    1.0000 0.16832  0.19302  0.01110  Biso   1.000  C
  C3460    1.0000 0.16826  0.19302  0.01110  Biso   1.000  C
  C3461    1.0000 0.98204  0.79109  0.03099  Biso   1.000  C
  C3462    1.0000 0.98216  0.79109  0.03099  Biso   1.000  C
  C3463    1.0000 0.02466  0.83168  0.01110  Biso   1.000  C
  C3464    1.0000 0.93858  0.74392  0.05005  Biso   1.000  C
  H3678    1.0000 0.99108  0.28617  0.03520  Biso   1.000  H
  H3679    1.0000 0.99102  0.28617  0.03520  Biso   1.000  H
  N500     1.0000 0.00164  0.27722  0.05061  Biso   1.000  N
  N501     1.0000 0.00158  0.27722  0.05061  Biso   1.000  N
  H3680    1.0000 0.06908  0.25077  0.02120  Biso   1.000  H
  C3465    1.0000 0.25067  0.20467  0.00720  Biso   1.000  C
  C3466    1.0000 0.19328  0.26416  0.00368  Biso   1.000  C
  C3467    1.0000 0.19331  0.26423  0.00368  Biso   1.000  C
  C3468    1.0000 0.09299  0.16092  0.00383  Biso   1.000  C
  C3469    1.0000 0.15319  0.10950  0.00712  Biso   1.000  C
  H3681    1.0000 0.92133  0.75314  0.02880  Biso   1.000  H
  H3682    1.0000 0.92139  0.75314  0.02880  Biso   1.000  H
  C3470    1.0000 0.95398  0.74930  0.00720  Biso   1.000  C
  C3471    1.0000 0.95634  0.84682  0.00712  Biso   1.000  C
  C3472    1.0000 0.07098  0.80671  0.00368  Biso   1.000  C
  C3473    1.0000 0.07087  0.80671  0.00368  Biso   1.000  C
  C3474    1.0000 0.06785  0.90699  0.00383  Biso   1.000  C
  H3683    1.0000 0.95409  0.75489  0.05760  Biso   1.000  H
  N502     1.0000 0.86019  0.68307  0.04756  Biso   1.000  N
  N503     1.0000 0.86028  0.68314  0.04756  Biso   1.000  N
  N504     1.0000 0.86025  0.68307  0.04756  Biso   1.000  N
  N505     1.0000 0.86022  0.68314  0.04756  Biso   1.000  N
  C3475    1.0000 0.92792  0.29660  0.05188  Biso   1.000  C
  C3476    1.0000 0.92787  0.29660  0.05188  Biso   1.000  C
  H3684    1.0000 0.29860  0.22102  0.01230  Biso   1.000  H
  C3477    1.0000 0.26422  0.19329  0.99632  Biso   1.000  C
  C3478    1.0000 0.26416  0.19329  0.99632  Biso   1.000  C
  H3685    1.0000 0.20220  0.32069  0.00610  Biso   1.000  H
  C3479    1.0000 0.20468  0.25070  0.99280  Biso   1.000  C
  C3480    1.0000 0.20473  0.25070  0.99280  Biso   1.000  C
  C3481    1.0000 0.10946  0.15318  0.99288  Biso   1.000  C
  H3686    1.0000 0.03479  0.14557  0.00640  Biso   1.000  H
  C3482    1.0000 0.16092  0.09301  0.99617  Biso   1.000  C
  H3687    1.0000 0.13678  0.06199  0.01220  Biso   1.000  H
  C3483    1.0000 0.92912  0.73584  0.99632  Biso   1.000  C
  H3688    1.0000 0.92238  0.70138  0.01230  Biso   1.000  H
  C3484    1.0000 0.93207  0.83908  0.99617  Biso   1.000  C
  H3689    1.0000 0.92518  0.86318  0.01220  Biso   1.000  H
  H3690    1.0000 0.11853  0.79782  0.00610  Biso   1.000  H
  C3485    1.0000 0.04606  0.79533  0.99280  Biso   1.000  C
  C3486    1.0000 0.04600  0.79533  0.99280  Biso   1.000  C
  C3487    1.0000 0.04364  0.89050  0.99288  Biso   1.000  C
  H3691    1.0000 0.11083  0.96520  0.00640  Biso   1.000  H
  C3488    1.0000 0.79284  0.64000  0.05598  Biso   1.000  C
  C3489    1.0000 0.79290  0.64000  0.05598  Biso   1.000  C
  C3490    1.0000 0.84709  0.20709  0.05598  Biso   1.000  C
  C3491    1.0000 0.95363  0.37110  0.06056  Biso   1.000  C
  H3692    1.0000 0.91359  0.31491  0.04470  Biso   1.000  H
  C3492    1.0000 0.95358  0.37110  0.06056  Biso   1.000  C
  C3493    1.0000 0.84703  0.20709  0.05598  Biso   1.000  C
  H3693    1.0000 0.32071  0.20218  0.99390  Biso   1.000  H
  C3494    1.0000 0.19298  0.16832  0.98890  Biso   1.000  C
  H3694    1.0000 0.32065  0.20218  0.99390  Biso   1.000  H
  C3495    1.0000 0.19304  0.16832  0.98890  Biso   1.000  C
  H3695    1.0000 0.22100  0.29862  0.98770  Biso   1.000  H
  H3696    1.0000 0.06200  0.13682  0.98780  Biso   1.000  H
  H3697    1.0000 0.14557  0.03480  0.99360  Biso   1.000  H
  C3496    1.0000 0.97530  0.80698  0.98890  Biso   1.000  C
  H3698    1.0000 0.88150  0.67931  0.99390  Biso   1.000  H
  H3699    1.0000 0.88156  0.67931  0.99390  Biso   1.000  H
  H3700    1.0000 0.88927  0.85443  0.99360  Biso   1.000  H
  H3701    1.0000 0.07763  0.77898  0.98770  Biso   1.000  H
  H3702    1.0000 0.07758  0.77898  0.98770  Biso   1.000  H
  H3703    1.0000 0.07480  0.93801  0.98780  Biso   1.000  H
  H3704    1.0000 0.81271  0.67554  0.06290  Biso   1.000  H
  C3497    1.0000 0.78003  0.54363  0.05774  Biso   1.000  C
  C3498    1.0000 0.70334  0.63132  0.05188  Biso   1.000  C
  H3705    1.0000 0.81276  0.67554  0.06290  Biso   1.000  H
  C3499    1.0000 0.78009  0.54363  0.05774  Biso   1.000  C
  C3500    1.0000 0.70346  0.63132  0.05188  Biso   1.000  C
  N506     1.0000 0.82288  0.13979  0.04756  Biso   1.000  N
  H3706    1.0000 0.86278  0.18730  0.06290  Biso   1.000  H
  C3501    1.0000 0.76349  0.21988  0.05774  Biso   1.000  C
  C3502    1.0000 0.76343  0.21988  0.05774  Biso   1.000  C
  H3707    1.0000 0.00659  0.42770  0.05800  Biso   1.000  H
  C3503    1.0000 0.87153  0.38571  0.06223  Biso   1.000  C
  H3708    1.0000 0.96912  0.35300  0.06760  Biso   1.000  H
  C3504    1.0000 0.87147  0.38571  0.06223  Biso   1.000  C
  H3709    1.0000 0.96906  0.35300  0.06760  Biso   1.000  H
  H3710    1.0000 0.00665  0.42770  0.05800  Biso   1.000  H
  C3505    1.0000 0.20659  0.15917  0.97694  Biso   1.000  C
  C3506    1.0000 0.20653  0.15917  0.97694  Biso   1.000  C
  C3507    1.0000 0.95259  0.79338  0.97694  Biso   1.000  C
  C3508    1.0000 0.95265  0.79338  0.97694  Biso   1.000  C
  H3711    1.0000 0.83686  0.54840  0.06040  Biso   1.000  H
  H3712    1.0000 0.76323  0.50991  0.05070  Biso   1.000  H
  C3509    1.0000 0.70163  0.49221  0.06669  Biso   1.000  C
  H3713    1.0000 0.76329  0.50991  0.05070  Biso   1.000  H
  H3714    1.0000 0.68513  0.59875  0.04470  Biso   1.000  H
  N507     1.0000 0.72272  0.72440  0.05061  Biso   1.000  N
  C3510    1.0000 0.62894  0.58253  0.06056  Biso   1.000  C
  H3715    1.0000 0.68510  0.59868  0.04470  Biso   1.000  H
  N508     1.0000 0.72278  0.72440  0.05061  Biso   1.000  N
  C3511    1.0000 0.80530  0.06138  0.05005  Biso   1.000  C
  C3512    1.0000 0.80524  0.06138  0.05005  Biso   1.000  C
  H3716    1.0000 0.71148  0.16307  0.06040  Biso   1.000  H
  H3717    1.0000 0.74661  0.23670  0.05070  Biso   1.000  H
  C3513    1.0000 0.79064  0.29842  0.06669  Biso   1.000  C
  C3514    1.0000 0.79058  0.29842  0.06669  Biso   1.000  C
  H3718    1.0000 0.74655  0.23670  0.05070  Biso   1.000  H
  H3719    1.0000 0.88760  0.43558  0.06750  Biso   1.000  H
  H3720    1.0000 0.85517  0.40206  0.05510  Biso   1.000  H
  H3721    1.0000 0.88755  0.43558  0.06750  Biso   1.000  H
  C3515    1.0000 0.23701  0.10089  0.97345  Biso   1.000  C
  C3516    1.0000 0.19101  0.20891  0.96901  Biso   1.000  C
  C3517    1.0000 0.23696  0.10089  0.97345  Biso   1.000  C
  C3518    1.0000 0.01792  0.80900  0.96901  Biso   1.000  C
  C3519    1.0000 0.86391  0.76303  0.97345  Biso   1.000  C
  C3520    1.0000 0.86397  0.76303  0.97345  Biso   1.000  C
  H3722    1.0000 0.69194  0.43110  0.06800  Biso   1.000  H
  H3723    1.0000 0.71874  0.52572  0.07370  Biso   1.000  H
  C3521    1.0000 0.61427  0.48581  0.06223  Biso   1.000  C
  H3724    1.0000 0.69200  0.43110  0.06800  Biso   1.000  H
  C3522    1.0000 0.72738  0.74863  0.04077  Biso   1.000  C
  H3725    1.0000 0.57222  0.57889  0.05800  Biso   1.000  H
  H3726    1.0000 0.64695  0.61611  0.06760  Biso   1.000  H
  H3727    1.0000 0.57233  0.57889  0.05800  Biso   1.000  H
  H3728    1.0000 0.64701  0.61611  0.06760  Biso   1.000  H
  C3523    1.0000 0.79173  0.99542  0.04219  Biso   1.000  C
  C3524    1.0000 0.79179  0.99542  0.04219  Biso   1.000  C
  H3729    1.0000 0.80082  0.04590  0.05760  Biso   1.000  H
  H3730    1.0000 0.80077  0.04590  0.05760  Biso   1.000  H
  H3731    1.0000 0.73911  0.30797  0.06800  Biso   1.000  H
  H3732    1.0000 0.80704  0.28132  0.07370  Biso   1.000  H
  H3733    1.0000 0.73905  0.30797  0.06800  Biso   1.000  H
  H3734    1.0000 0.80698  0.28132  0.07370  Biso   1.000  H
  H3735    1.0000 0.25080  0.06912  0.97880  Biso   1.000  H
  C3525    1.0000 0.24688  0.08938  0.96268  Biso   1.000  C
  C3526    1.0000 0.20816  0.20359  0.95781  Biso   1.000  C
  H3736    1.0000 0.16825  0.24686  0.97120  Biso   1.000  H
  H3737    1.0000 0.16829  0.24693  0.97120  Biso   1.000  H
  C3527    1.0000 0.20822  0.20359  0.95781  Biso   1.000  C
  H3738    1.0000 0.16835  0.24693  0.97120  Biso   1.000  H
  C3528    1.0000 0.99535  0.79183  0.95781  Biso   1.000  C
  C3529    1.0000 0.99547  0.79183  0.95781  Biso   1.000  C
  H3739    1.0000 0.07857  0.83168  0.97120  Biso   1.000  H
  H3740    1.0000 0.81825  0.74923  0.97880  Biso   1.000  H
  C3530    1.0000 0.84247  0.75314  0.96268  Biso   1.000  C
  H3741    1.0000 0.81831  0.74923  0.97880  Biso   1.000  H
  C3531    1.0000 0.84253  0.75314  0.96268  Biso   1.000  C
  H3742    1.0000 0.56439  0.45203  0.06750  Biso   1.000  H
  H3743    1.0000 0.59786  0.45310  0.05510  Biso   1.000  H
  H3744    1.0000 0.56445  0.45203  0.06750  Biso   1.000  H
  H3745    1.0000 0.59792  0.45310  0.05510  Biso   1.000  H
  C3532    1.0000 0.75310  0.84251  0.03732  Biso   1.000  C
  H3746    1.0000 0.71372  0.70488  0.03520  Biso   1.000  H
  H3747    1.0000 0.71384  0.70488  0.03520  Biso   1.000  H
  C3533    1.0000 0.76389  0.90699  0.04510  Biso   1.000  C
  C3534    1.0000 0.76395  0.90699  0.04510  Biso   1.000  C
  C3535    1.0000 0.80903  0.01790  0.03099  Biso   1.000  C
  C3536    1.0000 0.80897  0.01790  0.03099  Biso   1.000  C
  C3537    1.0000 0.27259  0.02120  0.95923  Biso   1.000  C
  C3538    1.0000 0.23608  0.14308  0.95490  Biso   1.000  C
  C3539    1.0000 0.19466  0.25608  0.94995  Biso   1.000  C
  C3540    1.0000 0.19472  0.25608  0.94995  Biso   1.000  C
  C3541    1.0000 0.06142  0.80530  0.94995  Biso   1.000  C
  C3542    1.0000 0.90696  0.76390  0.95490  Biso   1.000  C
  C3543    1.0000 0.74854  0.72743  0.95923  Biso   1.000  C
  C3544    1.0000 0.74866  0.72743  0.95923  Biso   1.000  C
  C3545    1.0000 0.76293  0.86392  0.02655  Biso   1.000  C
  C3546    1.0000 0.76305  0.86392  0.02655  Biso   1.000  C
  H3748    1.0000 0.75179  0.88989  0.05260  Biso   1.000  H
  H3749    1.0000 0.75185  0.88989  0.05260  Biso   1.000  H
  C3547    1.0000 0.79335  0.95262  0.02306  Biso   1.000  C
  C3548    1.0000 0.79341  0.95262  0.02306  Biso   1.000  C
  H3750    1.0000 0.83169  0.07861  0.02880  Biso   1.000  H
  H3751    1.0000 0.28623  0.99112  0.96480  Biso   1.000  H
  N509     1.0000 0.27720  0.00162  0.94939  Biso   1.000  N
  H3752    1.0000 0.24822  0.13810  0.94740  Biso   1.000  H
  H3753    1.0000 0.24816  0.13810  0.94740  Biso   1.000  H
  N510     1.0000 0.17711  0.31693  0.95244  Biso   1.000  N
  H3754    1.0000 0.19920  0.24511  0.94240  Biso   1.000  H
  N511     1.0000 0.13983  0.82293  0.95244  Biso   1.000  N
  H3755    1.0000 0.04593  0.80079  0.94240  Biso   1.000  H
  N512     1.0000 0.13977  0.82293  0.95244  Biso   1.000  N
  H3756    1.0000 0.88983  0.75179  0.94740  Biso   1.000  H
  H3757    1.0000 0.88988  0.75179  0.94740  Biso   1.000  H
  N513     1.0000 0.72442  0.72278  0.94939  Biso   1.000  N
  H3758    1.0000 0.70491  0.71383  0.96480  Biso   1.000  H
  H3759    1.0000 0.70497  0.71383  0.96480  Biso   1.000  H
  H3760    1.0000 0.74921  0.81828  0.02120  Biso   1.000  H
  C3549    1.0000 0.80702  0.97530  0.01110  Biso   1.000  C
  C3550    1.0000 0.29659  0.92792  0.94812  Biso   1.000  C
  C3551    1.0000 0.15290  0.36000  0.94402  Biso   1.000  C
  C3552    1.0000 0.20710  0.84709  0.94402  Biso   1.000  C
  C3553    1.0000 0.20704  0.84709  0.94402  Biso   1.000  C
  C3554    1.0000 0.63132  0.70340  0.94812  Biso   1.000  C
  C3555    1.0000 0.73580  0.92913  0.00368  Biso   1.000  C
  C3556    1.0000 0.83910  0.93209  0.00383  Biso   1.000  C
  C3557    1.0000 0.79526  0.04597  0.00720  Biso   1.000  C
  C3558    1.0000 0.79530  0.04603  0.00720  Biso   1.000  C
  C3559    1.0000 0.89046  0.04368  0.00712  Biso   1.000  C
  H3761    1.0000 0.31490  0.91358  0.95530  Biso   1.000  H
  C3560    1.0000 0.37117  0.95363  0.93944  Biso   1.000  C
  C3561    1.0000 0.37106  0.95363  0.93944  Biso   1.000  C
  H3762    1.0000 0.13717  0.32446  0.93710  Biso   1.000  H
  C3562    1.0000 0.23646  0.45637  0.94226  Biso   1.000  C
  C3563    1.0000 0.07208  0.36868  0.94812  Biso   1.000  C
  H3763    1.0000 0.13723  0.32446  0.93710  Biso   1.000  H
  C3564    1.0000 0.23652  0.45637  0.94226  Biso   1.000  C
  H3764    1.0000 0.18732  0.86277  0.93710  Biso   1.000  H
  C3565    1.0000 0.21998  0.76350  0.94226  Biso   1.000  C
  H3765    1.0000 0.18735  0.86284  0.93710  Biso   1.000  H
  C3566    1.0000 0.21986  0.76350  0.94226  Biso   1.000  C
  H3766    1.0000 0.59868  0.68509  0.95530  Biso   1.000  H
  C3567    1.0000 0.63994  0.79291  0.94402  Biso   1.000  C
  C3568    1.0000 0.58253  0.62890  0.93944  Biso   1.000  C
  C3569    1.0000 0.64006  0.79291  0.94402  Biso   1.000  C
  C3570    1.0000 0.74924  0.95403  0.99280  Biso   1.000  C
  C3571    1.0000 0.74935  0.95403  0.99280  Biso   1.000  C
  H3767    1.0000 0.67921  0.88148  0.00610  Biso   1.000  H
  H3768    1.0000 0.67927  0.88148  0.00610  Biso   1.000  H
  C3572    1.0000 0.84684  0.95632  0.99288  Biso   1.000  C
  H3769    1.0000 0.85438  0.88922  0.00640  Biso   1.000  H
  C3573    1.0000 0.80666  0.07087  0.99632  Biso   1.000  C
  H3770    1.0000 0.77902  0.07760  0.01230  Biso   1.000  H
  H3771    1.0000 0.77896  0.07760  0.01230  Biso   1.000  H
  C3574    1.0000 0.90695  0.06791  0.99617  Biso   1.000  C
  H3772    1.0000 0.93795  0.07477  0.01220  Biso   1.000  H
  C3575    1.0000 0.38578  0.87152  0.93777  Biso   1.000  C
  H3773    1.0000 0.35303  0.96911  0.93240  Biso   1.000  H
  C3576    1.0000 0.38572  0.87152  0.93777  Biso   1.000  C
  H3774    1.0000 0.42767  0.00660  0.94200  Biso   1.000  H
  H3775    1.0000 0.42773  0.00660  0.94200  Biso   1.000  H
  H3776    1.0000 0.28851  0.45160  0.93960  Biso   1.000  H
  H3777    1.0000 0.25338  0.49009  0.94930  Biso   1.000  H
  C3577    1.0000 0.20943  0.50779  0.93331  Biso   1.000  C
  H3778    1.0000 0.28845  0.45160  0.93960  Biso   1.000  H
  C3578    1.0000 0.20937  0.50779  0.93331  Biso   1.000  C
  H3779    1.0000 0.25344  0.49009  0.94930  Biso   1.000  H
  N514     1.0000 0.99838  0.27560  0.94939  Biso   1.000  N
  C3579    1.0000 0.04641  0.41747  0.93944  Biso   1.000  C
  H3780    1.0000 0.08642  0.40132  0.95530  Biso   1.000  H
  C3580    1.0000 0.04635  0.41747  0.93944  Biso   1.000  C
  H3781    1.0000 0.08636  0.40132  0.95530  Biso   1.000  H
  H3782    1.0000 0.16313  0.71148  0.93960  Biso   1.000  H
  H3783    1.0000 0.23677  0.74661  0.94930  Biso   1.000  H
  C3581    1.0000 0.29847  0.79062  0.93331  Biso   1.000  C
  H3784    1.0000 0.16317  0.71154  0.93960  Biso   1.000  H
  H3785    1.0000 0.23665  0.74661  0.94930  Biso   1.000  H
  C3582    1.0000 0.29835  0.79062  0.93331  Biso   1.000  C
  H3786    1.0000 0.16305  0.71154  0.93960  Biso   1.000  H
  C3583    1.0000 0.54361  0.78012  0.94226  Biso   1.000  C
  N515     1.0000 0.68304  0.86021  0.95244  Biso   1.000  N
  H3787    1.0000 0.67542  0.81270  0.93710  Biso   1.000  H
  N516     1.0000 0.68315  0.86021  0.95244  Biso   1.000  N
  H3788    1.0000 0.67548  0.81270  0.93710  Biso   1.000  H
  C3584    1.0000 0.48582  0.61429  0.93777  Biso   1.000  C
  H3789    1.0000 0.57883  0.57230  0.94200  Biso   1.000  H
  H3790    1.0000 0.61612  0.64700  0.93240  Biso   1.000  H
  H3791    1.0000 0.57894  0.57230  0.94200  Biso   1.000  H
  H3792    1.0000 0.70142  0.92240  0.98770  Biso   1.000  H
  C3585    1.0000 0.83172  0.02470  0.98890  Biso   1.000  C
  C3586    1.0000 0.83167  0.02470  0.98890  Biso   1.000  C
  H3793    1.0000 0.86318  0.92523  0.98780  Biso   1.000  H
  H3794    1.0000 0.79779  0.11852  0.99390  Biso   1.000  H
  H3795    1.0000 0.96516  0.11078  0.99360  Biso   1.000  H
  H3796    1.0000 0.43561  0.88761  0.93250  Biso   1.000  H
  H3797    1.0000 0.40218  0.85523  0.94490  Biso   1.000  H
  H3798    1.0000 0.40206  0.85523  0.94490  Biso   1.000  H
  H3799    1.0000 0.26090  0.56890  0.93200  Biso   1.000  H
  H3800    1.0000 0.19302  0.47428  0.92630  Biso   1.000  H
  C3587    1.0000 0.12852  0.51419  0.93777  Biso   1.000  C
  H3801    1.0000 0.19296  0.47428  0.92630  Biso   1.000  H
  C3588    1.0000 0.12846  0.51419  0.93777  Biso   1.000  C
  C3589    1.0000 0.97881  0.25137  0.95923  Biso   1.000  C
  C3590    1.0000 0.97875  0.25137  0.95923  Biso   1.000  C
  H3802    1.0000 0.99338  0.42111  0.94200  Biso   1.000  H
  H3803    1.0000 0.03090  0.38389  0.93240  Biso   1.000  H
  H3804    1.0000 0.30799  0.73914  0.93200  Biso   1.000  H
  H3805    1.0000 0.28129  0.80698  0.92630  Biso   1.000  H
  H3806    1.0000 0.28124  0.80698  0.92630  Biso   1.000  H
  H3807    1.0000 0.50991  0.76330  0.94930  Biso   1.000  H
  H3808    1.0000 0.54841  0.83693  0.93960  Biso   1.000  H
  C3591    1.0000 0.49222  0.70158  0.93331  Biso   1.000  C
  H3809    1.0000 0.54847  0.83693  0.93960  Biso   1.000  H
  C3592    1.0000 0.74386  0.93862  0.94995  Biso   1.000  C
  C3593    1.0000 0.74398  0.93862  0.94995  Biso   1.000  C
  H3810    1.0000 0.45202  0.56442  0.93250  Biso   1.000  H
  H3811    1.0000 0.45310  0.59794  0.94490  Biso   1.000  H
  C3594    1.0000 0.84079  0.04738  0.97694  Biso   1.000  C
  C3595    1.0000 0.84073  0.04738  0.97694  Biso   1.000  C
  H3812    1.0000 0.11236  0.54797  0.93250  Biso   1.000  H
  H3813    1.0000 0.14481  0.54690  0.94490  Biso   1.000  H
  H3814    1.0000 0.14475  0.54690  0.94490  Biso   1.000  H
  H3815    1.0000 0.11242  0.54797  0.93250  Biso   1.000  H
  C3596    1.0000 0.91059  0.15749  0.96268  Biso   1.000  C
  C3597    1.0000 0.91053  0.15749  0.96268  Biso   1.000  C
  H3816    1.0000 0.00890  0.29512  0.96480  Biso   1.000  H
  H3817    1.0000 0.00896  0.29512  0.96480  Biso   1.000  H
  H3818    1.0000 0.43108  0.69203  0.93200  Biso   1.000  H
  H3819    1.0000 0.52571  0.71868  0.92630  Biso   1.000  H
  H3820    1.0000 0.75487  0.95410  0.94240  Biso   1.000  H
  C3598    1.0000 0.79637  0.00458  0.95781  Biso   1.000  C
  C3599    1.0000 0.79113  0.98210  0.96901  Biso   1.000  C
  C3600    1.0000 0.89907  0.13608  0.97345  Biso   1.000  C
  C3601    1.0000 0.85690  0.09301  0.95490  Biso   1.000  C
  C3602    1.0000 0.85685  0.09301  0.95490  Biso   1.000  C
  H3821    1.0000 0.75308  0.92139  0.97120  Biso   1.000  H
  H3822    1.0000 0.93092  0.18172  0.97880  Biso   1.000  H
  H3823    1.0000 0.93086  0.18172  0.97880  Biso   1.000  H
  H3824    1.0000 0.86190  0.11011  0.94740  Biso   1.000  H
  C3603    1.0000 0.50773  0.20938  0.06669  Biso   1.000  C
  C3604    1.0000 0.45642  0.23650  0.05774  Biso   1.000  C
  C3605    1.0000 0.45636  0.23650  0.05774  Biso   1.000  C
  C3606    1.0000 0.51420  0.12848  0.06223  Biso   1.000  C
  C3607    1.0000 0.51414  0.12848  0.06223  Biso   1.000  C
  H3825    1.0000 0.56885  0.26086  0.06800  Biso   1.000  H
  H3826    1.0000 0.47432  0.19302  0.07370  Biso   1.000  H
  H3827    1.0000 0.56889  0.26093  0.06800  Biso   1.000  H
  H3828    1.0000 0.47426  0.19302  0.07370  Biso   1.000  H
  H3829    1.0000 0.56894  0.26093  0.06800  Biso   1.000  H
  C3608    1.0000 0.36001  0.15291  0.05598  Biso   1.000  C
  C3609    1.0000 0.35995  0.15291  0.05598  Biso   1.000  C
  H3830    1.0000 0.45160  0.28852  0.06040  Biso   1.000  H
  H3831    1.0000 0.49010  0.25339  0.05070  Biso   1.000  H
  C3610    1.0000 0.50779  0.20938  0.06669  Biso   1.000  C
  H3832    1.0000 0.49005  0.25339  0.05070  Biso   1.000  H
  C3611    1.0000 0.41749  0.04637  0.06056  Biso   1.000  C
  C3612    1.0000 0.41743  0.04637  0.06056  Biso   1.000  C
  H3833    1.0000 0.54801  0.11239  0.06750  Biso   1.000  H
  H3834    1.0000 0.54688  0.14477  0.05510  Biso   1.000  H
  H3835    1.0000 0.54795  0.11239  0.06750  Biso   1.000  H
  H3836    1.0000 0.54683  0.14477  0.05510  Biso   1.000  H
  C3613    1.0000 0.36867  0.07208  0.05188  Biso   1.000  C
  N517     1.0000 0.31690  0.17707  0.04756  Biso   1.000  N
  H3837    1.0000 0.32449  0.13723  0.06290  Biso   1.000  H
  N518     1.0000 0.31684  0.17707  0.04756  Biso   1.000  N
  H3838    1.0000 0.32454  0.13723  0.06290  Biso   1.000  H
  H3839    1.0000 0.42114  0.99340  0.05800  Biso   1.000  H
  H3840    1.0000 0.38387  0.03089  0.06760  Biso   1.000  H
  H3841    1.0000 0.38393  0.03089  0.06760  Biso   1.000  H
  N519     1.0000 0.27558  0.99838  0.05061  Biso   1.000  N
  H3842    1.0000 0.40131  0.08642  0.04470  Biso   1.000  H
  H3843    1.0000 0.40125  0.08642  0.04470  Biso   1.000  H
  C3614    1.0000 0.25612  0.19470  0.05005  Biso   1.000  C
  C3615    1.0000 0.25606  0.19470  0.05005  Biso   1.000  C
  C3616    1.0000 0.25139  0.97880  0.04077  Biso   1.000  C
  C3617    1.0000 0.20358  0.20817  0.04219  Biso   1.000  C
  H3844    1.0000 0.24509  0.19921  0.05760  Biso   1.000  H
  H3845    1.0000 0.24515  0.19921  0.05760  Biso   1.000  H
  C3618    1.0000 0.15756  0.91062  0.03732  Biso   1.000  C
  C3619    1.0000 0.15750  0.91062  0.03732  Biso   1.000  C
  H3846    1.0000 0.29511  0.00888  0.03520  Biso   1.000  H
  H3847    1.0000 0.29505  0.00888  0.03520  Biso   1.000  H
  C3620    1.0000 0.14311  0.23610  0.04510  Biso   1.000  C
  C3621    1.0000 0.20892  0.19100  0.03099  Biso   1.000  C
  C3622    1.0000 0.14305  0.23610  0.04510  Biso   1.000  C
  C3623    1.0000 0.20887  0.19100  0.03099  Biso   1.000  C
  C3624    1.0000 0.13613  0.89911  0.02655  Biso   1.000  C
  C3625    1.0000 0.09306  0.85692  0.04510  Biso   1.000  C
  C3626    1.0000 0.13607  0.89911  0.02655  Biso   1.000  C
  C3627    1.0000 0.09294  0.85692  0.04510  Biso   1.000  C
  H3848    1.0000 0.13809  0.24821  0.05260  Biso   1.000  H
  C3628    1.0000 0.08939  0.24686  0.03732  Biso   1.000  C
  C3629    1.0000 0.08943  0.24693  0.03732  Biso   1.000  C
  C3630    1.0000 0.08934  0.24686  0.03732  Biso   1.000  C
  C3631    1.0000 0.15920  0.20662  0.02306  Biso   1.000  C
  H3849    1.0000 0.24689  0.16832  0.02880  Biso   1.000  H
  H3850    1.0000 0.24695  0.16832  0.02880  Biso   1.000  H
  C3632    1.0000 0.04742  0.84083  0.02306  Biso   1.000  C
  H3851    1.0000 0.18174  0.93088  0.02120  Biso   1.000  H
  H3852    1.0000 0.18162  0.93088  0.02120  Biso   1.000  H
  H3853    1.0000 0.11018  0.86190  0.05260  Biso   1.000  H
  C3633    1.0000 0.00458  0.79641  0.04219  Biso   1.000  C
  H3854    1.0000 0.11012  0.86190  0.05260  Biso   1.000  H
  C3634    1.0000 0.10088  0.23697  0.02655  Biso   1.000  C
  C3635    1.0000 0.02117  0.27257  0.04077  Biso   1.000  C
  C3636    1.0000 0.02123  0.27257  0.04077  Biso   1.000  C
  C3637    1.0000 0.16832  0.19302  0.01110  Biso   1.000  C
  C3638    1.0000 0.16826  0.19302  0.01110  Biso   1.000  C
  C3639    1.0000 0.98204  0.79109  0.03099  Biso   1.000  C
  C3640    1.0000 0.98216  0.79109  0.03099  Biso   1.000  C
  C3641    1.0000 0.02466  0.83168  0.01110  Biso   1.000  C
  C3642    1.0000 0.93858  0.74392  0.05005  Biso   1.000  C
  H3855    1.0000 0.06908  0.25077  0.02120  Biso   1.000  H
  H3856    1.0000 0.99108  0.28617  0.03520  Biso   1.000  H
  H3857    1.0000 0.99102  0.28617  0.03520  Biso   1.000  H
  N520     1.0000 0.00164  0.27722  0.05061  Biso   1.000  N
  N521     1.0000 0.00158  0.27722  0.05061  Biso   1.000  N
  C3643    1.0000 0.25067  0.20467  0.00720  Biso   1.000  C
  C3644    1.0000 0.19328  0.26416  0.00368  Biso   1.000  C
  C3645    1.0000 0.19331  0.26423  0.00368  Biso   1.000  C
  C3646    1.0000 0.09299  0.16092  0.00383  Biso   1.000  C
  C3647    1.0000 0.15319  0.10950  0.00712  Biso   1.000  C
  H3858    1.0000 0.92133  0.75314  0.02880  Biso   1.000  H
  H3859    1.0000 0.92139  0.75314  0.02880  Biso   1.000  H
  C3648    1.0000 0.95398  0.74930  0.00720  Biso   1.000  C
  C3649    1.0000 0.95634  0.84682  0.00712  Biso   1.000  C
  C3650    1.0000 0.07098  0.80671  0.00368  Biso   1.000  C
  C3651    1.0000 0.07087  0.80671  0.00368  Biso   1.000  C
  C3652    1.0000 0.06785  0.90699  0.00383  Biso   1.000  C
  H3860    1.0000 0.95409  0.75489  0.05760  Biso   1.000  H
  N522     1.0000 0.86019  0.68307  0.04756  Biso   1.000  N
  N523     1.0000 0.86028  0.68314  0.04756  Biso   1.000  N
  N524     1.0000 0.86025  0.68307  0.04756  Biso   1.000  N
  N525     1.0000 0.86022  0.68314  0.04756  Biso   1.000  N
  C3653    1.0000 0.92792  0.29660  0.05188  Biso   1.000  C
  C3654    1.0000 0.92787  0.29660  0.05188  Biso   1.000  C
  H3861    1.0000 0.29860  0.22102  0.01230  Biso   1.000  H
  C3655    1.0000 0.26422  0.19329  0.99632  Biso   1.000  C
  C3656    1.0000 0.26416  0.19329  0.99632  Biso   1.000  C
  H3862    1.0000 0.20220  0.32069  0.00610  Biso   1.000  H
  C3657    1.0000 0.20468  0.25070  0.99280  Biso   1.000  C
  C3658    1.0000 0.20473  0.25070  0.99280  Biso   1.000  C
  C3659    1.0000 0.10946  0.15318  0.99288  Biso   1.000  C
  H3863    1.0000 0.03479  0.14557  0.00640  Biso   1.000  H
  C3660    1.0000 0.16092  0.09301  0.99617  Biso   1.000  C
  H3864    1.0000 0.13678  0.06199  0.01220  Biso   1.000  H
  C3661    1.0000 0.92912  0.73584  0.99632  Biso   1.000  C
  H3865    1.0000 0.92238  0.70138  0.01230  Biso   1.000  H
  C3662    1.0000 0.93207  0.83908  0.99617  Biso   1.000  C
  H3866    1.0000 0.92518  0.86318  0.01220  Biso   1.000  H
  H3867    1.0000 0.11853  0.79782  0.00610  Biso   1.000  H
  C3663    1.0000 0.04606  0.79533  0.99280  Biso   1.000  C
  C3664    1.0000 0.04600  0.79533  0.99280  Biso   1.000  C
  C3665    1.0000 0.04364  0.89050  0.99288  Biso   1.000  C
  H3868    1.0000 0.11083  0.96520  0.00640  Biso   1.000  H
  C3666    1.0000 0.79284  0.64000  0.05598  Biso   1.000  C
  C3667    1.0000 0.79290  0.64000  0.05598  Biso   1.000  C
  C3668    1.0000 0.84709  0.20709  0.05598  Biso   1.000  C
  C3669    1.0000 0.95363  0.37110  0.06056  Biso   1.000  C
  H3869    1.0000 0.91359  0.31491  0.04470  Biso   1.000  H
  C3670    1.0000 0.95358  0.37110  0.06056  Biso   1.000  C
  C3671    1.0000 0.84703  0.20709  0.05598  Biso   1.000  C
  H3870    1.0000 0.32071  0.20218  0.99390  Biso   1.000  H
  C3672    1.0000 0.19298  0.16832  0.98890  Biso   1.000  C
  H3871    1.0000 0.32065  0.20218  0.99390  Biso   1.000  H
  C3673    1.0000 0.19304  0.16832  0.98890  Biso   1.000  C
  H3872    1.0000 0.22100  0.29862  0.98770  Biso   1.000  H
  H3873    1.0000 0.06200  0.13682  0.98780  Biso   1.000  H
  H3874    1.0000 0.14557  0.03480  0.99360  Biso   1.000  H
  C3674    1.0000 0.97530  0.80698  0.98890  Biso   1.000  C
  H3875    1.0000 0.88150  0.67931  0.99390  Biso   1.000  H
  H3876    1.0000 0.88156  0.67931  0.99390  Biso   1.000  H
  H3877    1.0000 0.88927  0.85443  0.99360  Biso   1.000  H
  H3878    1.0000 0.07763  0.77898  0.98770  Biso   1.000  H
  H3879    1.0000 0.07758  0.77898  0.98770  Biso   1.000  H
  H3880    1.0000 0.07480  0.93801  0.98780  Biso   1.000  H
  H3881    1.0000 0.81271  0.67554  0.06290  Biso   1.000  H
  C3675    1.0000 0.78003  0.54363  0.05774  Biso   1.000  C
  C3676    1.0000 0.70334  0.63132  0.05188  Biso   1.000  C
  H3882    1.0000 0.81276  0.67554  0.06290  Biso   1.000  H
  C3677    1.0000 0.78009  0.54363  0.05774  Biso   1.000  C
  C3678    1.0000 0.70346  0.63132  0.05188  Biso   1.000  C
  N526     1.0000 0.82288  0.13979  0.04756  Biso   1.000  N
  H3883    1.0000 0.86278  0.18730  0.06290  Biso   1.000  H
  C3679    1.0000 0.76349  0.21988  0.05774  Biso   1.000  C
  C3680    1.0000 0.76343  0.21988  0.05774  Biso   1.000  C
  C3681    1.0000 0.87153  0.38571  0.06223  Biso   1.000  C
  H3884    1.0000 0.96912  0.35300  0.06760  Biso   1.000  H
  C3682    1.0000 0.87147  0.38571  0.06223  Biso   1.000  C
  H3885    1.0000 0.96906  0.35300  0.06760  Biso   1.000  H
  H3886    1.0000 0.00659  0.42770  0.05800  Biso   1.000  H
  H3887    1.0000 0.00665  0.42770  0.05800  Biso   1.000  H
  C3683    1.0000 0.20659  0.15917  0.97694  Biso   1.000  C
  C3684    1.0000 0.20653  0.15917  0.97694  Biso   1.000  C
  C3685    1.0000 0.95259  0.79338  0.97694  Biso   1.000  C
  C3686    1.0000 0.95265  0.79338  0.97694  Biso   1.000  C
  H3888    1.0000 0.83686  0.54840  0.06040  Biso   1.000  H
  H3889    1.0000 0.76323  0.50991  0.05070  Biso   1.000  H
  C3687    1.0000 0.70163  0.49221  0.06669  Biso   1.000  C
  H3890    1.0000 0.76329  0.50991  0.05070  Biso   1.000  H
  H3891    1.0000 0.68513  0.59875  0.04470  Biso   1.000  H
  N527     1.0000 0.72272  0.72440  0.05061  Biso   1.000  N
  C3688    1.0000 0.62894  0.58253  0.06056  Biso   1.000  C
  H3892    1.0000 0.68510  0.59868  0.04470  Biso   1.000  H
  N528     1.0000 0.72278  0.72440  0.05061  Biso   1.000  N
  C3689    1.0000 0.80530  0.06138  0.05005  Biso   1.000  C
  C3690    1.0000 0.80524  0.06138  0.05005  Biso   1.000  C
  H3893    1.0000 0.71148  0.16307  0.06040  Biso   1.000  H
  H3894    1.0000 0.74661  0.23670  0.05070  Biso   1.000  H
  C3691    1.0000 0.79064  0.29842  0.06669  Biso   1.000  C
  C3692    1.0000 0.79058  0.29842  0.06669  Biso   1.000  C
  H3895    1.0000 0.74655  0.23670  0.05070  Biso   1.000  H
  H3896    1.0000 0.88760  0.43558  0.06750  Biso   1.000  H
  H3897    1.0000 0.85517  0.40206  0.05510  Biso   1.000  H
  H3898    1.0000 0.88755  0.43558  0.06750  Biso   1.000  H
  C3693    1.0000 0.23701  0.10089  0.97345  Biso   1.000  C
  C3694    1.0000 0.19101  0.20891  0.96901  Biso   1.000  C
  C3695    1.0000 0.23696  0.10089  0.97345  Biso   1.000  C
  C3696    1.0000 0.01792  0.80900  0.96901  Biso   1.000  C
  C3697    1.0000 0.86391  0.76303  0.97345  Biso   1.000  C
  C3698    1.0000 0.86397  0.76303  0.97345  Biso   1.000  C
  H3899    1.0000 0.69194  0.43110  0.06800  Biso   1.000  H
  H3900    1.0000 0.71874  0.52572  0.07370  Biso   1.000  H
  C3699    1.0000 0.61427  0.48581  0.06223  Biso   1.000  C
  H3901    1.0000 0.69200  0.43110  0.06800  Biso   1.000  H
  C3700    1.0000 0.72738  0.74863  0.04077  Biso   1.000  C
  H3902    1.0000 0.57222  0.57889  0.05800  Biso   1.000  H
  H3903    1.0000 0.64695  0.61611  0.06760  Biso   1.000  H
  H3904    1.0000 0.57233  0.57889  0.05800  Biso   1.000  H
  H3905    1.0000 0.64701  0.61611  0.06760  Biso   1.000  H
  C3701    1.0000 0.79173  0.99542  0.04219  Biso   1.000  C
  C3702    1.0000 0.79179  0.99542  0.04219  Biso   1.000  C
  H3906    1.0000 0.80082  0.04590  0.05760  Biso   1.000  H
  H3907    1.0000 0.80077  0.04590  0.05760  Biso   1.000  H
  H3908    1.0000 0.73911  0.30797  0.06800  Biso   1.000  H
  H3909    1.0000 0.80704  0.28132  0.07370  Biso   1.000  H
  H3910    1.0000 0.73905  0.30797  0.06800  Biso   1.000  H
  H3911    1.0000 0.80698  0.28132  0.07370  Biso   1.000  H
  H3912    1.0000 0.25080  0.06912  0.97880  Biso   1.000  H
  C3703    1.0000 0.24688  0.08938  0.96268  Biso   1.000  C
  C3704    1.0000 0.20816  0.20359  0.95781  Biso   1.000  C
  H3913    1.0000 0.16825  0.24686  0.97120  Biso   1.000  H
  H3914    1.0000 0.16829  0.24693  0.97120  Biso   1.000  H
  C3705    1.0000 0.20822  0.20359  0.95781  Biso   1.000  C
  H3915    1.0000 0.16835  0.24693  0.97120  Biso   1.000  H
  C3706    1.0000 0.99535  0.79183  0.95781  Biso   1.000  C
  C3707    1.0000 0.99547  0.79183  0.95781  Biso   1.000  C
  H3916    1.0000 0.07857  0.83168  0.97120  Biso   1.000  H
  H3917    1.0000 0.81825  0.74923  0.97880  Biso   1.000  H
  C3708    1.0000 0.84247  0.75314  0.96268  Biso   1.000  C
  H3918    1.0000 0.81831  0.74923  0.97880  Biso   1.000  H
  C3709    1.0000 0.84253  0.75314  0.96268  Biso   1.000  C
  H3919    1.0000 0.56439  0.45203  0.06750  Biso   1.000  H
  H3920    1.0000 0.59786  0.45310  0.05510  Biso   1.000  H
  H3921    1.0000 0.56445  0.45203  0.06750  Biso   1.000  H
  H3922    1.0000 0.59792  0.45310  0.05510  Biso   1.000  H
  C3710    1.0000 0.75310  0.84251  0.03732  Biso   1.000  C
  H3923    1.0000 0.71372  0.70488  0.03520  Biso   1.000  H
  H3924    1.0000 0.71384  0.70488  0.03520  Biso   1.000  H
  C3711    1.0000 0.76389  0.90699  0.04510  Biso   1.000  C
  C3712    1.0000 0.76395  0.90699  0.04510  Biso   1.000  C
  C3713    1.0000 0.80903  0.01790  0.03099  Biso   1.000  C
  C3714    1.0000 0.80897  0.01790  0.03099  Biso   1.000  C
  C3715    1.0000 0.27259  0.02120  0.95923  Biso   1.000  C
  C3716    1.0000 0.23608  0.14308  0.95490  Biso   1.000  C
  C3717    1.0000 0.19466  0.25608  0.94995  Biso   1.000  C
  C3718    1.0000 0.19472  0.25608  0.94995  Biso   1.000  C
  C3719    1.0000 0.06142  0.80530  0.94995  Biso   1.000  C
  C3720    1.0000 0.90696  0.76390  0.95490  Biso   1.000  C
  C3721    1.0000 0.74854  0.72743  0.95923  Biso   1.000  C
  C3722    1.0000 0.74866  0.72743  0.95923  Biso   1.000  C
  C3723    1.0000 0.76293  0.86392  0.02655  Biso   1.000  C
  C3724    1.0000 0.76305  0.86392  0.02655  Biso   1.000  C
  H3925    1.0000 0.75179  0.88989  0.05260  Biso   1.000  H
  H3926    1.0000 0.75185  0.88989  0.05260  Biso   1.000  H
  C3725    1.0000 0.79335  0.95262  0.02306  Biso   1.000  C
  C3726    1.0000 0.79341  0.95262  0.02306  Biso   1.000  C
  H3927    1.0000 0.83169  0.07861  0.02880  Biso   1.000  H
  H3928    1.0000 0.28623  0.99112  0.96480  Biso   1.000  H
  N529     1.0000 0.27720  0.00162  0.94939  Biso   1.000  N
  H3929    1.0000 0.24822  0.13810  0.94740  Biso   1.000  H
  H3930    1.0000 0.24816  0.13810  0.94740  Biso   1.000  H
  N530     1.0000 0.17711  0.31693  0.95244  Biso   1.000  N
  H3931    1.0000 0.19920  0.24511  0.94240  Biso   1.000  H
  N531     1.0000 0.13983  0.82293  0.95244  Biso   1.000  N
  H3932    1.0000 0.04593  0.80079  0.94240  Biso   1.000  H
  N532     1.0000 0.13977  0.82293  0.95244  Biso   1.000  N
  H3933    1.0000 0.88983  0.75179  0.94740  Biso   1.000  H
  H3934    1.0000 0.88988  0.75179  0.94740  Biso   1.000  H
  N533     1.0000 0.72442  0.72278  0.94939  Biso   1.000  N
  H3935    1.0000 0.70491  0.71383  0.96480  Biso   1.000  H
  H3936    1.0000 0.70497  0.71383  0.96480  Biso   1.000  H
  H3937    1.0000 0.74921  0.81828  0.02120  Biso   1.000  H
  C3727    1.0000 0.80702  0.97530  0.01110  Biso   1.000  C
  C3728    1.0000 0.29659  0.92792  0.94812  Biso   1.000  C
  C3729    1.0000 0.15290  0.36000  0.94402  Biso   1.000  C
  C3730    1.0000 0.20710  0.84709  0.94402  Biso   1.000  C
  C3731    1.0000 0.20704  0.84709  0.94402  Biso   1.000  C
  C3732    1.0000 0.63132  0.70340  0.94812  Biso   1.000  C
  C3733    1.0000 0.73580  0.92913  0.00368  Biso   1.000  C
  C3734    1.0000 0.83910  0.93209  0.00383  Biso   1.000  C
  C3735    1.0000 0.79526  0.04597  0.00720  Biso   1.000  C
  C3736    1.0000 0.79530  0.04603  0.00720  Biso   1.000  C
  C3737    1.0000 0.89046  0.04368  0.00712  Biso   1.000  C
  H3938    1.0000 0.31490  0.91358  0.95530  Biso   1.000  H
  C3738    1.0000 0.37117  0.95363  0.93944  Biso   1.000  C
  C3739    1.0000 0.37106  0.95363  0.93944  Biso   1.000  C
  H3939    1.0000 0.13717  0.32446  0.93710  Biso   1.000  H
  C3740    1.0000 0.23646  0.45637  0.94226  Biso   1.000  C
  C3741    1.0000 0.07208  0.36868  0.94812  Biso   1.000  C
  H3940    1.0000 0.13723  0.32446  0.93710  Biso   1.000  H
  C3742    1.0000 0.23652  0.45637  0.94226  Biso   1.000  C
  H3941    1.0000 0.18732  0.86277  0.93710  Biso   1.000  H
  C3743    1.0000 0.21998  0.76350  0.94226  Biso   1.000  C
  H3942    1.0000 0.18735  0.86284  0.93710  Biso   1.000  H
  C3744    1.0000 0.21986  0.76350  0.94226  Biso   1.000  C
  H3943    1.0000 0.59868  0.68509  0.95530  Biso   1.000  H
  C3745    1.0000 0.63994  0.79291  0.94402  Biso   1.000  C
  C3746    1.0000 0.58253  0.62890  0.93944  Biso   1.000  C
  C3747    1.0000 0.64006  0.79291  0.94402  Biso   1.000  C
  C3748    1.0000 0.74924  0.95403  0.99280  Biso   1.000  C
  C3749    1.0000 0.74935  0.95403  0.99280  Biso   1.000  C
  H3944    1.0000 0.67921  0.88148  0.00610  Biso   1.000  H
  H3945    1.0000 0.67927  0.88148  0.00610  Biso   1.000  H
  C3750    1.0000 0.84684  0.95632  0.99288  Biso   1.000  C
  H3946    1.0000 0.85438  0.88922  0.00640  Biso   1.000  H
  C3751    1.0000 0.80666  0.07087  0.99632  Biso   1.000  C
  H3947    1.0000 0.77902  0.07760  0.01230  Biso   1.000  H
  H3948    1.0000 0.77896  0.07760  0.01230  Biso   1.000  H
  C3752    1.0000 0.90695  0.06791  0.99617  Biso   1.000  C
  H3949    1.0000 0.93795  0.07477  0.01220  Biso   1.000  H
  C3753    1.0000 0.38578  0.87152  0.93777  Biso   1.000  C
  C3754    1.0000 0.38572  0.87152  0.93777  Biso   1.000  C
  H3950    1.0000 0.35303  0.96911  0.93240  Biso   1.000  H
  H3951    1.0000 0.42767  0.00660  0.94200  Biso   1.000  H
  H3952    1.0000 0.42773  0.00660  0.94200  Biso   1.000  H
  H3953    1.0000 0.28851  0.45160  0.93960  Biso   1.000  H
  H3954    1.0000 0.25338  0.49009  0.94930  Biso   1.000  H
  C3755    1.0000 0.20943  0.50779  0.93331  Biso   1.000  C
  H3955    1.0000 0.28845  0.45160  0.93960  Biso   1.000  H
  C3756    1.0000 0.20937  0.50779  0.93331  Biso   1.000  C
  H3956    1.0000 0.25344  0.49009  0.94930  Biso   1.000  H
  N534     1.0000 0.99838  0.27560  0.94939  Biso   1.000  N
  C3757    1.0000 0.04641  0.41747  0.93944  Biso   1.000  C
  H3957    1.0000 0.08642  0.40132  0.95530  Biso   1.000  H
  C3758    1.0000 0.04635  0.41747  0.93944  Biso   1.000  C
  H3958    1.0000 0.08636  0.40132  0.95530  Biso   1.000  H
  H3959    1.0000 0.16313  0.71148  0.93960  Biso   1.000  H
  H3960    1.0000 0.23677  0.74661  0.94930  Biso   1.000  H
  C3759    1.0000 0.29847  0.79062  0.93331  Biso   1.000  C
  H3961    1.0000 0.16317  0.71154  0.93960  Biso   1.000  H
  H3962    1.0000 0.23665  0.74661  0.94930  Biso   1.000  H
  C3760    1.0000 0.29835  0.79062  0.93331  Biso   1.000  C
  H3963    1.0000 0.16305  0.71154  0.93960  Biso   1.000  H
  C3761    1.0000 0.54361  0.78012  0.94226  Biso   1.000  C
  N535     1.0000 0.68304  0.86021  0.95244  Biso   1.000  N
  H3964    1.0000 0.67542  0.81270  0.93710  Biso   1.000  H
  N536     1.0000 0.68315  0.86021  0.95244  Biso   1.000  N
  H3965    1.0000 0.67548  0.81270  0.93710  Biso   1.000  H
  C3762    1.0000 0.48582  0.61429  0.93777  Biso   1.000  C
  H3966    1.0000 0.57883  0.57230  0.94200  Biso   1.000  H
  H3967    1.0000 0.61612  0.64700  0.93240  Biso   1.000  H
  H3968    1.0000 0.57894  0.57230  0.94200  Biso   1.000  H
  H3969    1.0000 0.70142  0.92240  0.98770  Biso   1.000  H
  C3763    1.0000 0.83172  0.02470  0.98890  Biso   1.000  C
  C3764    1.0000 0.83167  0.02470  0.98890  Biso   1.000  C
  H3970    1.0000 0.86318  0.92523  0.98780  Biso   1.000  H
  H3971    1.0000 0.79779  0.11852  0.99390  Biso   1.000  H
  H3972    1.0000 0.96516  0.11078  0.99360  Biso   1.000  H
  H3973    1.0000 0.43561  0.88761  0.93250  Biso   1.000  H
  H3974    1.0000 0.40218  0.85523  0.94490  Biso   1.000  H
  H3975    1.0000 0.40206  0.85523  0.94490  Biso   1.000  H
  H3976    1.0000 0.26090  0.56890  0.93200  Biso   1.000  H
  H3977    1.0000 0.19302  0.47428  0.92630  Biso   1.000  H
  C3765    1.0000 0.12852  0.51419  0.93777  Biso   1.000  C
  H3978    1.0000 0.19296  0.47428  0.92630  Biso   1.000  H
  C3766    1.0000 0.12846  0.51419  0.93777  Biso   1.000  C
  C3767    1.0000 0.97881  0.25137  0.95923  Biso   1.000  C
  C3768    1.0000 0.97875  0.25137  0.95923  Biso   1.000  C
  H3979    1.0000 0.99338  0.42111  0.94200  Biso   1.000  H
  H3980    1.0000 0.03090  0.38389  0.93240  Biso   1.000  H
  H3981    1.0000 0.30799  0.73914  0.93200  Biso   1.000  H
  H3982    1.0000 0.28129  0.80698  0.92630  Biso   1.000  H
  H3983    1.0000 0.28124  0.80698  0.92630  Biso   1.000  H
  H3984    1.0000 0.50991  0.76330  0.94930  Biso   1.000  H
  H3985    1.0000 0.54841  0.83693  0.93960  Biso   1.000  H
  C3769    1.0000 0.49222  0.70158  0.93331  Biso   1.000  C
  H3986    1.0000 0.54847  0.83693  0.93960  Biso   1.000  H
  C3770    1.0000 0.74386  0.93862  0.94995  Biso   1.000  C
  C3771    1.0000 0.74398  0.93862  0.94995  Biso   1.000  C
  H3987    1.0000 0.45202  0.56442  0.93250  Biso   1.000  H
  H3988    1.0000 0.45310  0.59794  0.94490  Biso   1.000  H
  C3772    1.0000 0.84079  0.04738  0.97694  Biso   1.000  C
  C3773    1.0000 0.84073  0.04738  0.97694  Biso   1.000  C
  H3989    1.0000 0.11236  0.54797  0.93250  Biso   1.000  H
  H3990    1.0000 0.14481  0.54690  0.94490  Biso   1.000  H
  H3991    1.0000 0.14475  0.54690  0.94490  Biso   1.000  H
  H3992    1.0000 0.11242  0.54797  0.93250  Biso   1.000  H
  C3774    1.0000 0.91059  0.15749  0.96268  Biso   1.000  C
  C3775    1.0000 0.91053  0.15749  0.96268  Biso   1.000  C
  H3993    1.0000 0.00890  0.29512  0.96480  Biso   1.000  H
  H3994    1.0000 0.00896  0.29512  0.96480  Biso   1.000  H
  H3995    1.0000 0.43108  0.69203  0.93200  Biso   1.000  H
  H3996    1.0000 0.52571  0.71868  0.92630  Biso   1.000  H
  H3997    1.0000 0.75487  0.95410  0.94240  Biso   1.000  H
  C3776    1.0000 0.79637  0.00458  0.95781  Biso   1.000  C
  C3777    1.0000 0.79113  0.98210  0.96901  Biso   1.000  C
  C3778    1.0000 0.89907  0.13608  0.97345  Biso   1.000  C
  C3779    1.0000 0.85690  0.09301  0.95490  Biso   1.000  C
  C3780    1.0000 0.85685  0.09301  0.95490  Biso   1.000  C
  H3998    1.0000 0.75308  0.92139  0.97120  Biso   1.000  H
  H3999    1.0000 0.93092  0.18172  0.97880  Biso   1.000  H
  H4000    1.0000 0.93086  0.18172  0.97880  Biso   1.000  H
  H4001    1.0000 0.86190  0.11011  0.94740  Biso   1.000  H
  C3781    1.0000 0.50773  0.20938  0.06669  Biso   1.000  C
  C3782    1.0000 0.45642  0.23650  0.05774  Biso   1.000  C
  C3783    1.0000 0.45636  0.23650  0.05774  Biso   1.000  C
  C3784    1.0000 0.51420  0.12848  0.06223  Biso   1.000  C
  C3785    1.0000 0.51414  0.12848  0.06223  Biso   1.000  C
  H4002    1.0000 0.56885  0.26086  0.06800  Biso   1.000  H
  H4003    1.0000 0.47432  0.19302  0.07370  Biso   1.000  H
  H4004    1.0000 0.56889  0.26093  0.06800  Biso   1.000  H
  H4005    1.0000 0.47426  0.19302  0.07370  Biso   1.000  H
  H4006    1.0000 0.56894  0.26093  0.06800  Biso   1.000  H
  C3786    1.0000 0.36001  0.15291  0.05598  Biso   1.000  C
  C3787    1.0000 0.35995  0.15291  0.05598  Biso   1.000  C
  H4007    1.0000 0.45160  0.28852  0.06040  Biso   1.000  H
  H4008    1.0000 0.49010  0.25339  0.05070  Biso   1.000  H
  C3788    1.0000 0.50779  0.20938  0.06669  Biso   1.000  C
  H4009    1.0000 0.49005  0.25339  0.05070  Biso   1.000  H
  C3789    1.0000 0.41749  0.04637  0.06056  Biso   1.000  C
  C3790    1.0000 0.41743  0.04637  0.06056  Biso   1.000  C
  H4010    1.0000 0.54801  0.11239  0.06750  Biso   1.000  H
  H4011    1.0000 0.54688  0.14477  0.05510  Biso   1.000  H
  H4012    1.0000 0.54795  0.11239  0.06750  Biso   1.000  H
  H4013    1.0000 0.54683  0.14477  0.05510  Biso   1.000  H
  C3791    1.0000 0.36867  0.07208  0.05188  Biso   1.000  C
  N537     1.0000 0.31690  0.17707  0.04756  Biso   1.000  N
  H4014    1.0000 0.32449  0.13723  0.06290  Biso   1.000  H
  N538     1.0000 0.31684  0.17707  0.04756  Biso   1.000  N
  H4015    1.0000 0.32454  0.13723  0.06290  Biso   1.000  H
  H4016    1.0000 0.42114  0.99340  0.05800  Biso   1.000  H
  H4017    1.0000 0.38387  0.03089  0.06760  Biso   1.000  H
  H4018    1.0000 0.38393  0.03089  0.06760  Biso   1.000  H
  N539     1.0000 0.27558  0.99838  0.05061  Biso   1.000  N
  H4019    1.0000 0.40131  0.08642  0.04470  Biso   1.000  H
  H4020    1.0000 0.40125  0.08642  0.04470  Biso   1.000  H
  C3792    1.0000 0.25612  0.19470  0.05005  Biso   1.000  C
  C3793    1.0000 0.25606  0.19470  0.05005  Biso   1.000  C
  C3794    1.0000 0.25139  0.97880  0.04077  Biso   1.000  C
  C3795    1.0000 0.20358  0.20817  0.04219  Biso   1.000  C
  H4021    1.0000 0.24509  0.19921  0.05760  Biso   1.000  H
  H4022    1.0000 0.24515  0.19921  0.05760  Biso   1.000  H
  C3796    1.0000 0.15756  0.91062  0.03732  Biso   1.000  C
  C3797    1.0000 0.15750  0.91062  0.03732  Biso   1.000  C
  H4023    1.0000 0.29511  0.00888  0.03520  Biso   1.000  H
  H4024    1.0000 0.29505  0.00888  0.03520  Biso   1.000  H
  C3798    1.0000 0.14311  0.23610  0.04510  Biso   1.000  C
  C3799    1.0000 0.20892  0.19100  0.03099  Biso   1.000  C
  C3800    1.0000 0.14305  0.23610  0.04510  Biso   1.000  C
  C3801    1.0000 0.20887  0.19100  0.03099  Biso   1.000  C
  C3802    1.0000 0.13613  0.89911  0.02655  Biso   1.000  C
  C3803    1.0000 0.09306  0.85692  0.04510  Biso   1.000  C
  C3804    1.0000 0.13607  0.89911  0.02655  Biso   1.000  C
  C3805    1.0000 0.09294  0.85692  0.04510  Biso   1.000  C
  H4025    1.0000 0.13809  0.24821  0.05260  Biso   1.000  H
  C3806    1.0000 0.08939  0.24686  0.03732  Biso   1.000  C
  C3807    1.0000 0.08943  0.24693  0.03732  Biso   1.000  C
  C3808    1.0000 0.08934  0.24686  0.03732  Biso   1.000  C
  C3809    1.0000 0.15920  0.20662  0.02306  Biso   1.000  C
  H4026    1.0000 0.24689  0.16832  0.02880  Biso   1.000  H
  H4027    1.0000 0.24695  0.16832  0.02880  Biso   1.000  H
  C3810    1.0000 0.04742  0.84083  0.02306  Biso   1.000  C
  H4028    1.0000 0.18174  0.93088  0.02120  Biso   1.000  H
  H4029    1.0000 0.18162  0.93088  0.02120  Biso   1.000  H
  H4030    1.0000 0.11018  0.86190  0.05260  Biso   1.000  H
  C3811    1.0000 0.00458  0.79641  0.04219  Biso   1.000  C
  H4031    1.0000 0.11012  0.86190  0.05260  Biso   1.000  H
  C3812    1.0000 0.10088  0.23697  0.02655  Biso   1.000  C
  C3813    1.0000 0.02117  0.27257  0.04077  Biso   1.000  C
  C3814    1.0000 0.02123  0.27257  0.04077  Biso   1.000  C
  C3815    1.0000 0.16832  0.19302  0.01110  Biso   1.000  C
  C3816    1.0000 0.16826  0.19302  0.01110  Biso   1.000  C
  C3817    1.0000 0.98204  0.79109  0.03099  Biso   1.000  C
  C3818    1.0000 0.98216  0.79109  0.03099  Biso   1.000  C
  C3819    1.0000 0.02466  0.83168  0.01110  Biso   1.000  C
  C3820    1.0000 0.93858  0.74392  0.05005  Biso   1.000  C
  H4032    1.0000 0.06908  0.25077  0.02120  Biso   1.000  H
  H4033    1.0000 0.99108  0.28617  0.03520  Biso   1.000  H
  H4034    1.0000 0.99102  0.28617  0.03520  Biso   1.000  H
  N540     1.0000 0.00164  0.27722  0.05061  Biso   1.000  N
  N541     1.0000 0.00158  0.27722  0.05061  Biso   1.000  N
  C3821    1.0000 0.25067  0.20467  0.00720  Biso   1.000  C
  C3822    1.0000 0.19328  0.26416  0.00368  Biso   1.000  C
  C3823    1.0000 0.19331  0.26423  0.00368  Biso   1.000  C
  C3824    1.0000 0.09299  0.16092  0.00383  Biso   1.000  C
  C3825    1.0000 0.15319  0.10950  0.00712  Biso   1.000  C
  H4035    1.0000 0.92133  0.75314  0.02880  Biso   1.000  H
  H4036    1.0000 0.92139  0.75314  0.02880  Biso   1.000  H
  C3826    1.0000 0.95398  0.74930  0.00720  Biso   1.000  C
  C3827    1.0000 0.95634  0.84682  0.00712  Biso   1.000  C
  C3828    1.0000 0.07098  0.80671  0.00368  Biso   1.000  C
  C3829    1.0000 0.07087  0.80671  0.00368  Biso   1.000  C
  C3830    1.0000 0.06785  0.90699  0.00383  Biso   1.000  C
  H4037    1.0000 0.95409  0.75489  0.05760  Biso   1.000  H
  N542     1.0000 0.86019  0.68307  0.04756  Biso   1.000  N
  N543     1.0000 0.86028  0.68314  0.04756  Biso   1.000  N
  N544     1.0000 0.86025  0.68307  0.04756  Biso   1.000  N
  N545     1.0000 0.86022  0.68314  0.04756  Biso   1.000  N
  C3831    1.0000 0.92792  0.29660  0.05188  Biso   1.000  C
  C3832    1.0000 0.92787  0.29660  0.05188  Biso   1.000  C
  H4038    1.0000 0.29860  0.22102  0.01230  Biso   1.000  H
  C3833    1.0000 0.26422  0.19329  0.99632  Biso   1.000  C
  C3834    1.0000 0.26416  0.19329  0.99632  Biso   1.000  C
  H4039    1.0000 0.20220  0.32069  0.00610  Biso   1.000  H
  C3835    1.0000 0.20468  0.25070  0.99280  Biso   1.000  C
  C3836    1.0000 0.20473  0.25070  0.99280  Biso   1.000  C
  C3837    1.0000 0.10946  0.15318  0.99288  Biso   1.000  C
  H4040    1.0000 0.03479  0.14557  0.00640  Biso   1.000  H
  C3838    1.0000 0.16092  0.09301  0.99617  Biso   1.000  C
  H4041    1.0000 0.13678  0.06199  0.01220  Biso   1.000  H
  C3839    1.0000 0.92912  0.73584  0.99632  Biso   1.000  C
  H4042    1.0000 0.92238  0.70138  0.01230  Biso   1.000  H
  C3840    1.0000 0.93207  0.83908  0.99617  Biso   1.000  C
  H4043    1.0000 0.92518  0.86318  0.01220  Biso   1.000  H
  H4044    1.0000 0.11853  0.79782  0.00610  Biso   1.000  H
  C3841    1.0000 0.04606  0.79533  0.99280  Biso   1.000  C
  C3842    1.0000 0.04600  0.79533  0.99280  Biso   1.000  C
  C3843    1.0000 0.04364  0.89050  0.99288  Biso   1.000  C
  H4045    1.0000 0.11083  0.96520  0.00640  Biso   1.000  H
  C3844    1.0000 0.79284  0.64000  0.05598  Biso   1.000  C
  C3845    1.0000 0.79290  0.64000  0.05598  Biso   1.000  C
  C3846    1.0000 0.84709  0.20709  0.05598  Biso   1.000  C
  C3847    1.0000 0.95363  0.37110  0.06056  Biso   1.000  C
  H4046    1.0000 0.91359  0.31491  0.04470  Biso   1.000  H
  C3848    1.0000 0.95358  0.37110  0.06056  Biso   1.000  C
  C3849    1.0000 0.84703  0.20709  0.05598  Biso   1.000  C
  H4047    1.0000 0.32071  0.20218  0.99390  Biso   1.000  H
  C3850    1.0000 0.19298  0.16832  0.98890  Biso   1.000  C
  H4048    1.0000 0.32065  0.20218  0.99390  Biso   1.000  H
  C3851    1.0000 0.19304  0.16832  0.98890  Biso   1.000  C
  H4049    1.0000 0.22100  0.29862  0.98770  Biso   1.000  H
  H4050    1.0000 0.06200  0.13682  0.98780  Biso   1.000  H
  H4051    1.0000 0.14557  0.03480  0.99360  Biso   1.000  H
  C3852    1.0000 0.97530  0.80698  0.98890  Biso   1.000  C
  H4052    1.0000 0.88150  0.67931  0.99390  Biso   1.000  H
  H4053    1.0000 0.88156  0.67931  0.99390  Biso   1.000  H
  H4054    1.0000 0.88927  0.85443  0.99360  Biso   1.000  H
  H4055    1.0000 0.07763  0.77898  0.98770  Biso   1.000  H
  H4056    1.0000 0.07758  0.77898  0.98770  Biso   1.000  H
  H4057    1.0000 0.07480  0.93801  0.98780  Biso   1.000  H
  H4058    1.0000 0.81271  0.67554  0.06290  Biso   1.000  H
  C3853    1.0000 0.78003  0.54363  0.05774  Biso   1.000  C
  C3854    1.0000 0.70334  0.63132  0.05188  Biso   1.000  C
  H4059    1.0000 0.81276  0.67554  0.06290  Biso   1.000  H
  C3855    1.0000 0.78009  0.54363  0.05774  Biso   1.000  C
  C3856    1.0000 0.70346  0.63132  0.05188  Biso   1.000  C
  N546     1.0000 0.82288  0.13979  0.04756  Biso   1.000  N
  H4060    1.0000 0.86278  0.18730  0.06290  Biso   1.000  H
  C3857    1.0000 0.76349  0.21988  0.05774  Biso   1.000  C
  C3858    1.0000 0.76343  0.21988  0.05774  Biso   1.000  C
  C3859    1.0000 0.87153  0.38571  0.06223  Biso   1.000  C
  H4061    1.0000 0.96912  0.35300  0.06760  Biso   1.000  H
  C3860    1.0000 0.87147  0.38571  0.06223  Biso   1.000  C
  H4062    1.0000 0.96906  0.35300  0.06760  Biso   1.000  H
  H4063    1.0000 0.00659  0.42770  0.05800  Biso   1.000  H
  H4064    1.0000 0.00665  0.42770  0.05800  Biso   1.000  H
  C3861    1.0000 0.20659  0.15917  0.97694  Biso   1.000  C
  C3862    1.0000 0.20653  0.15917  0.97694  Biso   1.000  C
  C3863    1.0000 0.95259  0.79338  0.97694  Biso   1.000  C
  C3864    1.0000 0.95265  0.79338  0.97694  Biso   1.000  C
  H4065    1.0000 0.83686  0.54840  0.06040  Biso   1.000  H
  H4066    1.0000 0.76323  0.50991  0.05070  Biso   1.000  H
  C3865    1.0000 0.70163  0.49221  0.06669  Biso   1.000  C
  H4067    1.0000 0.76329  0.50991  0.05070  Biso   1.000  H
  H4068    1.0000 0.68513  0.59875  0.04470  Biso   1.000  H
  N547     1.0000 0.72272  0.72440  0.05061  Biso   1.000  N
  C3866    1.0000 0.62894  0.58253  0.06056  Biso   1.000  C
  H4069    1.0000 0.68510  0.59868  0.04470  Biso   1.000  H
  N548     1.0000 0.72278  0.72440  0.05061  Biso   1.000  N
  C3867    1.0000 0.80530  0.06138  0.05005  Biso   1.000  C
  C3868    1.0000 0.80524  0.06138  0.05005  Biso   1.000  C
  H4070    1.0000 0.71148  0.16307  0.06040  Biso   1.000  H
  H4071    1.0000 0.74661  0.23670  0.05070  Biso   1.000  H
  C3869    1.0000 0.79064  0.29842  0.06669  Biso   1.000  C
  C3870    1.0000 0.79058  0.29842  0.06669  Biso   1.000  C
  H4072    1.0000 0.74655  0.23670  0.05070  Biso   1.000  H
  H4073    1.0000 0.88760  0.43558  0.06750  Biso   1.000  H
  H4074    1.0000 0.85517  0.40206  0.05510  Biso   1.000  H
  H4075    1.0000 0.88755  0.43558  0.06750  Biso   1.000  H
  C3871    1.0000 0.23701  0.10089  0.97345  Biso   1.000  C
  C3872    1.0000 0.19101  0.20891  0.96901  Biso   1.000  C
  C3873    1.0000 0.23696  0.10089  0.97345  Biso   1.000  C
  C3874    1.0000 0.01792  0.80900  0.96901  Biso   1.000  C
  C3875    1.0000 0.86391  0.76303  0.97345  Biso   1.000  C
  C3876    1.0000 0.86397  0.76303  0.97345  Biso   1.000  C
  H4076    1.0000 0.69194  0.43110  0.06800  Biso   1.000  H
  H4077    1.0000 0.71874  0.52572  0.07370  Biso   1.000  H
  C3877    1.0000 0.61427  0.48581  0.06223  Biso   1.000  C
  H4078    1.0000 0.69200  0.43110  0.06800  Biso   1.000  H
  C3878    1.0000 0.72738  0.74863  0.04077  Biso   1.000  C
  H4079    1.0000 0.57222  0.57889  0.05800  Biso   1.000  H
  H4080    1.0000 0.64695  0.61611  0.06760  Biso   1.000  H
  H4081    1.0000 0.57233  0.57889  0.05800  Biso   1.000  H
  H4082    1.0000 0.64701  0.61611  0.06760  Biso   1.000  H
  C3879    1.0000 0.79173  0.99542  0.04219  Biso   1.000  C
  C3880    1.0000 0.79179  0.99542  0.04219  Biso   1.000  C
  H4083    1.0000 0.80082  0.04590  0.05760  Biso   1.000  H
  H4084    1.0000 0.80077  0.04590  0.05760  Biso   1.000  H
  H4085    1.0000 0.73911  0.30797  0.06800  Biso   1.000  H
  H4086    1.0000 0.80704  0.28132  0.07370  Biso   1.000  H
  H4087    1.0000 0.73905  0.30797  0.06800  Biso   1.000  H
  H4088    1.0000 0.80698  0.28132  0.07370  Biso   1.000  H
  H4089    1.0000 0.25080  0.06912  0.97880  Biso   1.000  H
  C3881    1.0000 0.24688  0.08938  0.96268  Biso   1.000  C
  C3882    1.0000 0.20816  0.20359  0.95781  Biso   1.000  C
  H4090    1.0000 0.16825  0.24686  0.97120  Biso   1.000  H
  H4091    1.0000 0.16829  0.24693  0.97120  Biso   1.000  H
  C3883    1.0000 0.20822  0.20359  0.95781  Biso   1.000  C
  H4092    1.0000 0.16835  0.24693  0.97120  Biso   1.000  H
  C3884    1.0000 0.99535  0.79183  0.95781  Biso   1.000  C
  C3885    1.0000 0.99547  0.79183  0.95781  Biso   1.000  C
  H4093    1.0000 0.07857  0.83168  0.97120  Biso   1.000  H
  H4094    1.0000 0.81825  0.74923  0.97880  Biso   1.000  H
  C3886    1.0000 0.84247  0.75314  0.96268  Biso   1.000  C
  H4095    1.0000 0.81831  0.74923  0.97880  Biso   1.000  H
  C3887    1.0000 0.84253  0.75314  0.96268  Biso   1.000  C
  H4096    1.0000 0.56439  0.45203  0.06750  Biso   1.000  H
  H4097    1.0000 0.59786  0.45310  0.05510  Biso   1.000  H
  H4098    1.0000 0.56445  0.45203  0.06750  Biso   1.000  H
  H4099    1.0000 0.59792  0.45310  0.05510  Biso   1.000  H
  C3888    1.0000 0.75310  0.84251  0.03732  Biso   1.000  C
  H4100    1.0000 0.71372  0.70488  0.03520  Biso   1.000  H
  H4101    1.0000 0.71384  0.70488  0.03520  Biso   1.000  H
  C3889    1.0000 0.76389  0.90699  0.04510  Biso   1.000  C
  C3890    1.0000 0.76395  0.90699  0.04510  Biso   1.000  C
  C3891    1.0000 0.80903  0.01790  0.03099  Biso   1.000  C
  C3892    1.0000 0.80897  0.01790  0.03099  Biso   1.000  C
  C3893    1.0000 0.27259  0.02120  0.95923  Biso   1.000  C
  C3894    1.0000 0.23608  0.14308  0.95490  Biso   1.000  C
  C3895    1.0000 0.19466  0.25608  0.94995  Biso   1.000  C
  C3896    1.0000 0.19472  0.25608  0.94995  Biso   1.000  C
  C3897    1.0000 0.06142  0.80530  0.94995  Biso   1.000  C
  C3898    1.0000 0.90696  0.76390  0.95490  Biso   1.000  C
  C3899    1.0000 0.74854  0.72743  0.95923  Biso   1.000  C
  C3900    1.0000 0.74866  0.72743  0.95923  Biso   1.000  C
  C3901    1.0000 0.76293  0.86392  0.02655  Biso   1.000  C
  C3902    1.0000 0.76305  0.86392  0.02655  Biso   1.000  C
  H4102    1.0000 0.75179  0.88989  0.05260  Biso   1.000  H
  H4103    1.0000 0.75185  0.88989  0.05260  Biso   1.000  H
  C3903    1.0000 0.79335  0.95262  0.02306  Biso   1.000  C
  C3904    1.0000 0.79341  0.95262  0.02306  Biso   1.000  C
  H4104    1.0000 0.83169  0.07861  0.02880  Biso   1.000  H
  H4105    1.0000 0.28623  0.99112  0.96480  Biso   1.000  H
  N549     1.0000 0.27720  0.00162  0.94939  Biso   1.000  N
  H4106    1.0000 0.24822  0.13810  0.94740  Biso   1.000  H
  H4107    1.0000 0.24816  0.13810  0.94740  Biso   1.000  H
  N550     1.0000 0.17711  0.31693  0.95244  Biso   1.000  N
  H4108    1.0000 0.19920  0.24511  0.94240  Biso   1.000  H
  N551     1.0000 0.13983  0.82293  0.95244  Biso   1.000  N
  H4109    1.0000 0.04593  0.80079  0.94240  Biso   1.000  H
  N552     1.0000 0.13977  0.82293  0.95244  Biso   1.000  N
  H4110    1.0000 0.88983  0.75179  0.94740  Biso   1.000  H
  H4111    1.0000 0.88988  0.75179  0.94740  Biso   1.000  H
  N553     1.0000 0.72442  0.72278  0.94939  Biso   1.000  N
  H4112    1.0000 0.70491  0.71383  0.96480  Biso   1.000  H
  H4113    1.0000 0.70497  0.71383  0.96480  Biso   1.000  H
  H4114    1.0000 0.74921  0.81828  0.02120  Biso   1.000  H
  C3905    1.0000 0.80702  0.97530  0.01110  Biso   1.000  C
  C3906    1.0000 0.29659  0.92792  0.94812  Biso   1.000  C
  C3907    1.0000 0.15290  0.36000  0.94402  Biso   1.000  C
  C3908    1.0000 0.20710  0.84709  0.94402  Biso   1.000  C
  C3909    1.0000 0.20704  0.84709  0.94402  Biso   1.000  C
  C3910    1.0000 0.63132  0.70340  0.94812  Biso   1.000  C
  C3911    1.0000 0.73580  0.92913  0.00368  Biso   1.000  C
  C3912    1.0000 0.83910  0.93209  0.00383  Biso   1.000  C
  C3913    1.0000 0.79526  0.04597  0.00720  Biso   1.000  C
  C3914    1.0000 0.79530  0.04603  0.00720  Biso   1.000  C
  C3915    1.0000 0.89046  0.04368  0.00712  Biso   1.000  C
  H4115    1.0000 0.31490  0.91358  0.95530  Biso   1.000  H
  C3916    1.0000 0.37117  0.95363  0.93944  Biso   1.000  C
  C3917    1.0000 0.37106  0.95363  0.93944  Biso   1.000  C
  H4116    1.0000 0.13717  0.32446  0.93710  Biso   1.000  H
  C3918    1.0000 0.23646  0.45637  0.94226  Biso   1.000  C
  C3919    1.0000 0.07208  0.36868  0.94812  Biso   1.000  C
  H4117    1.0000 0.13723  0.32446  0.93710  Biso   1.000  H
  C3920    1.0000 0.23652  0.45637  0.94226  Biso   1.000  C
  H4118    1.0000 0.18732  0.86277  0.93710  Biso   1.000  H
  C3921    1.0000 0.21998  0.76350  0.94226  Biso   1.000  C
  H4119    1.0000 0.18735  0.86284  0.93710  Biso   1.000  H
  C3922    1.0000 0.21986  0.76350  0.94226  Biso   1.000  C
  H4120    1.0000 0.59868  0.68509  0.95530  Biso   1.000  H
  C3923    1.0000 0.63994  0.79291  0.94402  Biso   1.000  C
  C3924    1.0000 0.58253  0.62890  0.93944  Biso   1.000  C
  C3925    1.0000 0.64006  0.79291  0.94402  Biso   1.000  C
  C3926    1.0000 0.74924  0.95403  0.99280  Biso   1.000  C
  C3927    1.0000 0.74935  0.95403  0.99280  Biso   1.000  C
  H4121    1.0000 0.67921  0.88148  0.00610  Biso   1.000  H
  H4122    1.0000 0.67927  0.88148  0.00610  Biso   1.000  H
  C3928    1.0000 0.84684  0.95632  0.99288  Biso   1.000  C
  H4123    1.0000 0.85438  0.88922  0.00640  Biso   1.000  H
  C3929    1.0000 0.80666  0.07087  0.99632  Biso   1.000  C
  H4124    1.0000 0.77902  0.07760  0.01230  Biso   1.000  H
  H4125    1.0000 0.77896  0.07760  0.01230  Biso   1.000  H
  C3930    1.0000 0.90695  0.06791  0.99617  Biso   1.000  C
  H4126    1.0000 0.93795  0.07477  0.01220  Biso   1.000  H
  C3931    1.0000 0.38578  0.87152  0.93777  Biso   1.000  C
  C3932    1.0000 0.38572  0.87152  0.93777  Biso   1.000  C
  H4127    1.0000 0.35303  0.96911  0.93240  Biso   1.000  H
  H4128    1.0000 0.42767  0.00660  0.94200  Biso   1.000  H
  H4129    1.0000 0.42773  0.00660  0.94200  Biso   1.000  H
  H4130    1.0000 0.28851  0.45160  0.93960  Biso   1.000  H
  H4131    1.0000 0.25338  0.49009  0.94930  Biso   1.000  H
  C3933    1.0000 0.20943  0.50779  0.93331  Biso   1.000  C
  H4132    1.0000 0.28845  0.45160  0.93960  Biso   1.000  H
  C3934    1.0000 0.20937  0.50779  0.93331  Biso   1.000  C
  H4133    1.0000 0.25344  0.49009  0.94930  Biso   1.000  H
  N554     1.0000 0.99838  0.27560  0.94939  Biso   1.000  N
  C3935    1.0000 0.04641  0.41747  0.93944  Biso   1.000  C
  H4134    1.0000 0.08642  0.40132  0.95530  Biso   1.000  H
  C3936    1.0000 0.04635  0.41747  0.93944  Biso   1.000  C
  H4135    1.0000 0.08636  0.40132  0.95530  Biso   1.000  H
  H4136    1.0000 0.16313  0.71148  0.93960  Biso   1.000  H
  H4137    1.0000 0.23677  0.74661  0.94930  Biso   1.000  H
  C3937    1.0000 0.29847  0.79062  0.93331  Biso   1.000  C
  H4138    1.0000 0.16317  0.71154  0.93960  Biso   1.000  H
  H4139    1.0000 0.23665  0.74661  0.94930  Biso   1.000  H
  C3938    1.0000 0.29835  0.79062  0.93331  Biso   1.000  C
  H4140    1.0000 0.16305  0.71154  0.93960  Biso   1.000  H
  C3939    1.0000 0.54361  0.78012  0.94226  Biso   1.000  C
  N555     1.0000 0.68304  0.86021  0.95244  Biso   1.000  N
  H4141    1.0000 0.67542  0.81270  0.93710  Biso   1.000  H
  N556     1.0000 0.68315  0.86021  0.95244  Biso   1.000  N
  H4142    1.0000 0.67548  0.81270  0.93710  Biso   1.000  H
  C3940    1.0000 0.48582  0.61429  0.93777  Biso   1.000  C
  H4143    1.0000 0.57883  0.57230  0.94200  Biso   1.000  H
  H4144    1.0000 0.61612  0.64700  0.93240  Biso   1.000  H
  H4145    1.0000 0.57894  0.57230  0.94200  Biso   1.000  H
  H4146    1.0000 0.70142  0.92240  0.98770  Biso   1.000  H
  C3941    1.0000 0.83172  0.02470  0.98890  Biso   1.000  C
  C3942    1.0000 0.83167  0.02470  0.98890  Biso   1.000  C
  H4147    1.0000 0.86318  0.92523  0.98780  Biso   1.000  H
  H4148    1.0000 0.79779  0.11852  0.99390  Biso   1.000  H
  H4149    1.0000 0.96516  0.11078  0.99360  Biso   1.000  H
  H4150    1.0000 0.43561  0.88761  0.93250  Biso   1.000  H
  H4151    1.0000 0.40218  0.85523  0.94490  Biso   1.000  H
  H4152    1.0000 0.40206  0.85523  0.94490  Biso   1.000  H
  H4153    1.0000 0.26090  0.56890  0.93200  Biso   1.000  H
  H4154    1.0000 0.19302  0.47428  0.92630  Biso   1.000  H
  C3943    1.0000 0.12852  0.51419  0.93777  Biso   1.000  C
  H4155    1.0000 0.19296  0.47428  0.92630  Biso   1.000  H
  C3944    1.0000 0.12846  0.51419  0.93777  Biso   1.000  C
  C3945    1.0000 0.97881  0.25137  0.95923  Biso   1.000  C
  C3946    1.0000 0.97875  0.25137  0.95923  Biso   1.000  C
  H4156    1.0000 0.99338  0.42111  0.94200  Biso   1.000  H
  H4157    1.0000 0.03090  0.38389  0.93240  Biso   1.000  H
  H4158    1.0000 0.30799  0.73914  0.93200  Biso   1.000  H
  H4159    1.0000 0.28129  0.80698  0.92630  Biso   1.000  H
  H4160    1.0000 0.28124  0.80698  0.92630  Biso   1.000  H
  H4161    1.0000 0.50991  0.76330  0.94930  Biso   1.000  H
  H4162    1.0000 0.54841  0.83693  0.93960  Biso   1.000  H
  C3947    1.0000 0.49222  0.70158  0.93331  Biso   1.000  C
  H4163    1.0000 0.54847  0.83693  0.93960  Biso   1.000  H
  C3948    1.0000 0.74386  0.93862  0.94995  Biso   1.000  C
  C3949    1.0000 0.74398  0.93862  0.94995  Biso   1.000  C
  H4164    1.0000 0.45202  0.56442  0.93250  Biso   1.000  H
  H4165    1.0000 0.45310  0.59794  0.94490  Biso   1.000  H
  C3950    1.0000 0.84079  0.04738  0.97694  Biso   1.000  C
  C3951    1.0000 0.84073  0.04738  0.97694  Biso   1.000  C
  H4166    1.0000 0.11236  0.54797  0.93250  Biso   1.000  H
  H4167    1.0000 0.14481  0.54690  0.94490  Biso   1.000  H
  H4168    1.0000 0.14475  0.54690  0.94490  Biso   1.000  H
  H4169    1.0000 0.11242  0.54797  0.93250  Biso   1.000  H
  C3952    1.0000 0.91059  0.15749  0.96268  Biso   1.000  C
  C3953    1.0000 0.91053  0.15749  0.96268  Biso   1.000  C
  H4170    1.0000 0.00890  0.29512  0.96480  Biso   1.000  H
  H4171    1.0000 0.00896  0.29512  0.96480  Biso   1.000  H
  H4172    1.0000 0.43108  0.69203  0.93200  Biso   1.000  H
  H4173    1.0000 0.52571  0.71868  0.92630  Biso   1.000  H
  H4174    1.0000 0.75487  0.95410  0.94240  Biso   1.000  H
  C3954    1.0000 0.79637  0.00458  0.95781  Biso   1.000  C
  C3955    1.0000 0.79113  0.98210  0.96901  Biso   1.000  C
  C3956    1.0000 0.89907  0.13608  0.97345  Biso   1.000  C
  C3957    1.0000 0.85690  0.09301  0.95490  Biso   1.000  C
  C3958    1.0000 0.85685  0.09301  0.95490  Biso   1.000  C
  H4175    1.0000 0.75308  0.92139  0.97120  Biso   1.000  H
  H4176    1.0000 0.93092  0.18172  0.97880  Biso   1.000  H
  H4177    1.0000 0.93086  0.18172  0.97880  Biso   1.000  H
  H4178    1.0000 0.86190  0.11011  0.94740  Biso   1.000  H
  C3959    1.0000 0.30517  0.84763  0.68187  Biso   1.000  C
  C3960    1.0000 0.30631  0.90759  0.69149  Biso   1.000  C
  H4179    1.0000 0.32704  0.88343  0.67500  Biso   1.000  H
  H4180    1.0000 0.24311  0.79729  0.68060  Biso   1.000  H
  C3961    1.0000 0.36895  0.81001  0.68525  Biso   1.000  C
  C3962    1.0000 0.40156  0.98398  0.69386  Biso   1.000  C
  H4181    1.0000 0.26763  0.93317  0.68960  Biso   1.000  H
  H4182    1.0000 0.28136  0.87017  0.69820  Biso   1.000  H
  C3963    1.0000 0.46451  0.88781  0.68783  Biso   1.000  C
  H4183    1.0000 0.34405  0.77104  0.69180  Biso   1.000  H
  H4184    1.0000 0.37179  0.77312  0.67920  Biso   1.000  H
  N557     1.0000 0.39748  0.03957  0.70278  Biso   1.000  N
  H4185    1.0000 0.42610  0.02187  0.68710  Biso   1.000  H
  C3964    1.0000 0.46094  0.94771  0.69692  Biso   1.000  C
  H4186    1.0000 0.50276  0.86277  0.69020  Biso   1.000  H
  H4187    1.0000 0.49147  0.92402  0.68110  Biso   1.000  H
  C3965    1.0000 0.41021  0.11737  0.69994  Biso   1.000  C
  N558     1.0000 0.55479  0.01999  0.69882  Biso   1.000  N
  H4188    1.0000 0.43728  0.91123  0.70380  Biso   1.000  H
  C3966    1.0000 0.40418  0.17842  0.70809  Biso   1.000  C
  H4189    1.0000 0.42372  0.13602  0.69250  Biso   1.000  H
  C3967    1.0000 0.58629  0.02181  0.70837  Biso   1.000  C
  C3968    1.0000 0.42429  0.26329  0.70446  Biso   1.000  C
  C3969    1.0000 0.37681  0.15271  0.71887  Biso   1.000  C
  C3970    1.0000 0.67761  0.09463  0.71162  Biso   1.000  C
  H4190    1.0000 0.55069  0.97577  0.71350  Biso   1.000  H
  C3971    1.0000 0.41700  0.32238  0.71162  Biso   1.000  C
  H4191    1.0000 0.44308  0.28092  0.69710  Biso   1.000  H
  C3972    1.0000 0.36947  0.21180  0.72602  Biso   1.000  C
  H4192    1.0000 0.36308  0.09469  0.72130  Biso   1.000  H
  C3973    1.0000 0.73667  0.16099  0.70446  Biso   1.000  C
  C3974    1.0000 0.70337  0.09288  0.72239  Biso   1.000  C
  C3975    1.0000 0.43551  0.41371  0.70837  Biso   1.000  C
  C3976    1.0000 0.38948  0.29660  0.72239  Biso   1.000  C
  C3977    1.0000 0.36939  0.20022  0.73908  Biso   1.000  C
  C3978    1.0000 0.82159  0.22580  0.70809  Biso   1.000  C
  H4193    1.0000 0.71909  0.16220  0.69710  Biso   1.000  H
  C3979    1.0000 0.78818  0.15769  0.72602  Biso   1.000  C
  H4194    1.0000 0.66285  0.04738  0.72730  Biso   1.000  H
  N559     1.0000 0.46518  0.44520  0.69882  Biso   1.000  N
  H4195    1.0000 0.42510  0.44931  0.71350  Biso   1.000  H
  H4196    1.0000 0.38450  0.33712  0.72730  Biso   1.000  H
  C3980    1.0000 0.36950  0.26362  0.74620  Biso   1.000  C
  C3981    1.0000 0.36950  0.12269  0.74260  Biso   1.000  C
  C3982    1.0000 0.31963  0.22391  0.74580  Biso   1.000  C
  C3983    1.0000 0.41846  0.16139  0.74330  Biso   1.000  C
  C3984    1.0000 0.42089  0.27688  0.74560  Biso   1.000  C
  C3985    1.0000 0.32065  0.11347  0.74300  Biso   1.000  C
  C3986    1.0000 0.88258  0.29276  0.69994  Biso   1.000  C
  C3987    1.0000 0.84727  0.22412  0.71887  Biso   1.000  C
  C3988    1.0000 0.79976  0.16920  0.73908  Biso   1.000  C
  C3989    1.0000 0.48677  0.53909  0.69692  Biso   1.000  C
  C3990    1.0000 0.36948  0.24680  0.75740  Biso   1.000  C
  H4197    1.0000 0.36949  0.31571  0.74360  Biso   1.000  H
  C3991    1.0000 0.32072  0.20722  0.75700  Biso   1.000  C
  C3992    1.0000 0.41852  0.25709  0.75670  Biso   1.000  C
  C3993    1.0000 0.36948  0.10587  0.75380  Biso   1.000  C
  H4198    1.0000 0.36946  0.08157  0.73730  Biso   1.000  H
  C3994    1.0000 0.42091  0.14403  0.75440  Biso   1.000  C
  C3995    1.0000 0.31958  0.09570  0.75420  Biso   1.000  C
  H4199    1.0000 0.28647  0.25016  0.74290  Biso   1.000  H
  H4200    1.0000 0.45149  0.14631  0.73830  Biso   1.000  H
  H4201    1.0000 0.45388  0.33611  0.74270  Biso   1.000  H
  H4202    1.0000 0.28746  0.06528  0.73800  Biso   1.000  H
  N560     1.0000 0.96039  0.35791  0.70278  Biso   1.000  N
  H4203    1.0000 0.86397  0.28772  0.69250  Biso   1.000  H
  H4204    1.0000 0.90526  0.26840  0.72130  Biso   1.000  H
  C3996    1.0000 0.73639  0.10587  0.74620  Biso   1.000  C
  C3997    1.0000 0.87726  0.24680  0.74260  Biso   1.000  C
  C3998    1.0000 0.77607  0.09570  0.74580  Biso   1.000  C
  C3999    1.0000 0.83858  0.25709  0.74330  Biso   1.000  C
  C4000    1.0000 0.72312  0.14403  0.74560  Biso   1.000  C
  C4001    1.0000 0.88650  0.20722  0.74300  Biso   1.000  C
  C4002    1.0000 0.58252  0.59852  0.69386  Biso   1.000  C
  C4003    1.0000 0.42329  0.53545  0.68783  Biso   1.000  C
  H4205    1.0000 0.47393  0.56271  0.70380  Biso   1.000  H
  C4004    1.0000 0.36938  0.16920  0.76092  Biso   1.000  C
  H4206    1.0000 0.36952  0.28792  0.76270  Biso   1.000  H
  H4207    1.0000 0.28745  0.22216  0.76200  Biso   1.000  H
  H4208    1.0000 0.45149  0.30521  0.76170  Biso   1.000  H
  H4209    1.0000 0.36949  0.05377  0.75640  Biso   1.000  H
  H4210    1.0000 0.45389  0.11778  0.75730  Biso   1.000  H
  H4211    1.0000 0.28648  0.03628  0.75710  Biso   1.000  H
  C4005    1.0000 0.01599  0.41747  0.69386  Biso   1.000  C
  C4006    1.0000 0.75319  0.12269  0.75740  Biso   1.000  C
  H4212    1.0000 0.68429  0.05377  0.74360  Biso   1.000  H
  C4007    1.0000 0.79276  0.11347  0.75700  Biso   1.000  C
  C4008    1.0000 0.74287  0.16139  0.75670  Biso   1.000  C
  C4009    1.0000 0.89407  0.26362  0.75380  Biso   1.000  C
  H4213    1.0000 0.91840  0.28792  0.73730  Biso   1.000  H
  C4010    1.0000 0.85599  0.27688  0.75440  Biso   1.000  C
  C4011    1.0000 0.90429  0.22391  0.75420  Biso   1.000  C
  H4214    1.0000 0.74979  0.03628  0.74290  Biso   1.000  H
  H4215    1.0000 0.85366  0.30521  0.73830  Biso   1.000  H
  H4216    1.0000 0.66389  0.11778  0.74270  Biso   1.000  H
  H4217    1.0000 0.93465  0.22216  0.73800  Biso   1.000  H
  C4012    1.0000 0.60126  0.69368  0.69149  Biso   1.000  C
  N561     1.0000 0.64210  0.60249  0.70278  Biso   1.000  N
  H4218    1.0000 0.59580  0.57388  0.68710  Biso   1.000  H
  C4013    1.0000 0.44109  0.63109  0.68525  Biso   1.000  C
  H4219    1.0000 0.35996  0.49716  0.69020  Biso   1.000  H
  H4220    1.0000 0.43260  0.50860  0.68110  Biso   1.000  H
  C4014    1.0000 0.36951  0.15769  0.77398  Biso   1.000  C
  C4015    1.0000 0.05230  0.51318  0.69692  Biso   1.000  C
  H4221    1.0000 0.97812  0.40422  0.68710  Biso   1.000  H
  C4016    1.0000 0.09240  0.39870  0.69149  Biso   1.000  C
  C4017    1.0000 0.83078  0.20022  0.76092  Biso   1.000  C
  H4222    1.0000 0.71206  0.08157  0.76270  Biso   1.000  H
  H4223    1.0000 0.77776  0.06528  0.76200  Biso   1.000  H
  H4224    1.0000 0.69477  0.14631  0.76170  Biso   1.000  H
  H4225    1.0000 0.94616  0.31571  0.75640  Biso   1.000  H
  H4226    1.0000 0.88216  0.33611  0.75730  Biso   1.000  H
  H4227    1.0000 0.96369  0.25016  0.75710  Biso   1.000  H
  C4018    1.0000 0.54247  0.69489  0.68187  Biso   1.000  C
  H4228    1.0000 0.66560  0.73238  0.68960  Biso   1.000  H
  H4229    1.0000 0.58876  0.71858  0.69820  Biso   1.000  H
  C4019    1.0000 0.70719  0.58977  0.69994  Biso   1.000  C
  H4230    1.0000 0.42702  0.65599  0.69180  Biso   1.000  H
  H4231    1.0000 0.40129  0.62820  0.67920  Biso   1.000  H
  C4020    1.0000 0.38951  0.09288  0.77761  Biso   1.000  C
  C4021    1.0000 0.37679  0.22412  0.78113  Biso   1.000  C
  N562     1.0000 0.97999  0.53478  0.69882  Biso   1.000  N
  C4022    1.0000 0.11216  0.57671  0.68783  Biso   1.000  C
  H4232    1.0000 0.08878  0.52610  0.70380  Biso   1.000  H
  H4233    1.0000 0.06679  0.33442  0.68960  Biso   1.000  H
  H4234    1.0000 0.12978  0.41122  0.69820  Biso   1.000  H
  C4023    1.0000 0.15241  0.45752  0.68187  Biso   1.000  C
  C4024    1.0000 0.84228  0.21180  0.77398  Biso   1.000  C
  H4235    1.0000 0.55639  0.67295  0.67500  Biso   1.000  H
  H4236    1.0000 0.55417  0.75688  0.68060  Biso   1.000  H
  C4025    1.0000 0.77419  0.59576  0.70809  Biso   1.000  C
  H4237    1.0000 0.71230  0.57631  0.69250  Biso   1.000  H
  C4026    1.0000 0.41702  0.09463  0.78838  Biso   1.000  C
  H4238    1.0000 0.38448  0.04738  0.77270  Biso   1.000  H
  H4239    1.0000 0.36309  0.26840  0.77870  Biso   1.000  H
  C4027    1.0000 0.40421  0.22580  0.79191  Biso   1.000  C
  C4028    1.0000 0.97816  0.56446  0.70837  Biso   1.000  C
  C4029    1.0000 0.18997  0.55888  0.68525  Biso   1.000  C
  H4240    1.0000 0.13715  0.63997  0.69020  Biso   1.000  H
  H4241    1.0000 0.07595  0.56736  0.68110  Biso   1.000  H
  H4242    1.0000 0.11659  0.44359  0.67500  Biso   1.000  H
  H4243    1.0000 0.20268  0.44581  0.68060  Biso   1.000  H
  C4030    1.0000 0.90706  0.29660  0.77761  Biso   1.000  C
  C4031    1.0000 0.77589  0.15271  0.78113  Biso   1.000  C
  C4032    1.0000 0.77591  0.62322  0.71887  Biso   1.000  C
  C4033    1.0000 0.83900  0.57570  0.70446  Biso   1.000  C
  C4034    1.0000 0.43551  0.02181  0.79163  Biso   1.000  C
  C4035    1.0000 0.42426  0.16099  0.79554  Biso   1.000  C
  C4036    1.0000 0.41018  0.29276  0.80006  Biso   1.000  C
  C4037    1.0000 0.90535  0.58297  0.71162  Biso   1.000  C
  H4244    1.0000 0.02417  0.57489  0.71350  Biso   1.000  H
  H4245    1.0000 0.22898  0.57301  0.69180  Biso   1.000  H
  H4246    1.0000 0.22691  0.59872  0.67920  Biso   1.000  H
  C4038    1.0000 0.90537  0.32238  0.78838  Biso   1.000  C
  H4247    1.0000 0.95261  0.33712  0.77270  Biso   1.000  H
  C4039    1.0000 0.77418  0.17842  0.79191  Biso   1.000  C
  H4248    1.0000 0.73156  0.09469  0.77870  Biso   1.000  H
  C4040    1.0000 0.84226  0.63049  0.72602  Biso   1.000  C
  H4249    1.0000 0.73157  0.63688  0.72130  Biso   1.000  H
  H4250    1.0000 0.83779  0.55686  0.69710  Biso   1.000  H
  N563     1.0000 0.46520  0.01999  0.80118  Biso   1.000  N
  H4251    1.0000 0.42514  0.97577  0.78650  Biso   1.000  H
  H4252    1.0000 0.44311  0.16220  0.80290  Biso   1.000  H
  N564     1.0000 0.39753  0.35791  0.79722  Biso   1.000  N
  H4253    1.0000 0.42369  0.28772  0.80750  Biso   1.000  H
  C4041    1.0000 0.90710  0.61050  0.72239  Biso   1.000  C
  C4042    1.0000 0.97820  0.41371  0.79163  Biso   1.000  C
  C4043    1.0000 0.83899  0.26329  0.79554  Biso   1.000  C
  C4044    1.0000 0.70717  0.11737  0.80006  Biso   1.000  C
  C4045    1.0000 0.83075  0.63055  0.73908  Biso   1.000  C
  C4046    1.0000 0.48676  0.94771  0.80308  Biso   1.000  C
  C4047    1.0000 0.40149  0.41747  0.80614  Biso   1.000  C
  H4254    1.0000 0.95255  0.61548  0.72730  Biso   1.000  H
  N565     1.0000 0.97996  0.44520  0.80118  Biso   1.000  N
  H4255    1.0000 0.02421  0.44931  0.78650  Biso   1.000  H
  H4256    1.0000 0.83778  0.28092  0.80290  Biso   1.000  H
  N566     1.0000 0.64210  0.03957  0.79722  Biso   1.000  N
  H4257    1.0000 0.71229  0.13602  0.80750  Biso   1.000  H
  C4048    1.0000 0.89407  0.63049  0.74620  Biso   1.000  C
  C4049    1.0000 0.75320  0.63049  0.74260  Biso   1.000  C
  C4050    1.0000 0.90426  0.68036  0.74580  Biso   1.000  C
  C4051    1.0000 0.74286  0.58149  0.74330  Biso   1.000  C
  C4052    1.0000 0.85595  0.57907  0.74560  Biso   1.000  C
  C4053    1.0000 0.79281  0.67928  0.74300  Biso   1.000  C
  C4054    1.0000 0.58254  0.98398  0.80614  Biso   1.000  C
  C4055    1.0000 0.42336  0.88781  0.81217  Biso   1.000  C
  H4258    1.0000 0.47395  0.91123  0.79620  Biso   1.000  H
  C4056    1.0000 0.46088  0.51318  0.80308  Biso   1.000  C
  H4259    1.0000 0.42610  0.40422  0.81290  Biso   1.000  H
  C4057    1.0000 0.30630  0.39870  0.80851  Biso   1.000  C
  C4058    1.0000 0.05226  0.53909  0.80308  Biso   1.000  C
  C4059    1.0000 0.87729  0.63049  0.75740  Biso   1.000  C
  H4260    1.0000 0.94618  0.63049  0.74360  Biso   1.000  H
  C4060    1.0000 0.88647  0.67928  0.75700  Biso   1.000  C
  C4061    1.0000 0.83857  0.58149  0.75670  Biso   1.000  C
  C4062    1.0000 0.73641  0.63049  0.75380  Biso   1.000  C
  H4261    1.0000 0.71211  0.63049  0.73730  Biso   1.000  H
  C4063    1.0000 0.72306  0.57907  0.75440  Biso   1.000  C
  C4064    1.0000 0.77609  0.68036  0.75420  Biso   1.000  C
  H4262    1.0000 0.96366  0.71347  0.74290  Biso   1.000  H
  H4263    1.0000 0.69478  0.54851  0.73830  Biso   1.000  H
  H4264    1.0000 0.88218  0.54609  0.74270  Biso   1.000  H
  H4265    1.0000 0.77775  0.71246  0.73800  Biso   1.000  H
  H4266    1.0000 0.59577  0.02187  0.81290  Biso   1.000  H
  C4065    1.0000 0.60135  0.90759  0.80851  Biso   1.000  C
  C4066    1.0000 0.44111  0.81001  0.81475  Biso   1.000  C
  H4267    1.0000 0.36002  0.86277  0.80980  Biso   1.000  H
  H4268    1.0000 0.43266  0.92402  0.81890  Biso   1.000  H
  N567     1.0000 0.55480  0.53478  0.80118  Biso   1.000  N
  C4067    1.0000 0.46449  0.57671  0.81217  Biso   1.000  C
  H4269    1.0000 0.43732  0.52610  0.79620  Biso   1.000  H
  H4270    1.0000 0.26764  0.33442  0.81040  Biso   1.000  H
  H4271    1.0000 0.28138  0.41122  0.80180  Biso   1.000  H
  C4068    1.0000 0.30511  0.45752  0.81813  Biso   1.000  C
  C4069    1.0000 0.01599  0.59852  0.80614  Biso   1.000  C
  C4070    1.0000 0.11216  0.53545  0.81217  Biso   1.000  C
  H4272    1.0000 0.08878  0.56271  0.79620  Biso   1.000  H
  C4071    1.0000 0.79974  0.63055  0.76092  Biso   1.000  C
  H4273    1.0000 0.91838  0.63049  0.76270  Biso   1.000  H
  H4274    1.0000 0.93465  0.71246  0.76200  Biso   1.000  H
  H4275    1.0000 0.85367  0.54851  0.76170  Biso   1.000  H
  H4276    1.0000 0.68430  0.63049  0.75640  Biso   1.000  H
  H4277    1.0000 0.66391  0.54609  0.75730  Biso   1.000  H
  H4278    1.0000 0.74975  0.71347  0.75710  Biso   1.000  H
  H4279    1.0000 0.66554  0.93317  0.81040  Biso   1.000  H
  H4280    1.0000 0.58881  0.87017  0.80180  Biso   1.000  H
  C4072    1.0000 0.54257  0.84763  0.81813  Biso   1.000  C
  H4281    1.0000 0.42699  0.77104  0.80820  Biso   1.000  H
  H4282    1.0000 0.40134  0.77312  0.82080  Biso   1.000  H
  C4073    1.0000 0.58625  0.56446  0.79163  Biso   1.000  C
  C4074    1.0000 0.36891  0.55888  0.81475  Biso   1.000  C
  H4283    1.0000 0.50277  0.63997  0.80980  Biso   1.000  H
  H4284    1.0000 0.49135  0.56736  0.81890  Biso   1.000  H
  H4285    1.0000 0.32700  0.44359  0.82500  Biso   1.000  H
  H4286    1.0000 0.24313  0.44581  0.81940  Biso   1.000  H
  N568     1.0000 0.96039  0.60249  0.79722  Biso   1.000  N
  H4287    1.0000 0.97809  0.57388  0.81290  Biso   1.000  H
  C4075    1.0000 0.09237  0.69368  0.80851  Biso   1.000  C
  C4076    1.0000 0.19000  0.63109  0.81475  Biso   1.000  C
  H4288    1.0000 0.13714  0.49716  0.80980  Biso   1.000  H
  H4289    1.0000 0.07601  0.50860  0.81890  Biso   1.000  H
  C4077    1.0000 0.78817  0.63049  0.77398  Biso   1.000  C
  H4290    1.0000 0.55639  0.88343  0.82500  Biso   1.000  H
  H4291    1.0000 0.55424  0.79729  0.81940  Biso   1.000  H
  C4078    1.0000 0.67757  0.58297  0.78838  Biso   1.000  C
  H4292    1.0000 0.55066  0.57489  0.78650  Biso   1.000  H
  H4293    1.0000 0.34403  0.57301  0.80820  Biso   1.000  H
  H4294    1.0000 0.37181  0.59872  0.82080  Biso   1.000  H
  C4079    1.0000 0.88257  0.58977  0.80006  Biso   1.000  C
  H4295    1.0000 0.06678  0.73238  0.81040  Biso   1.000  H
  H4296    1.0000 0.12976  0.71858  0.80180  Biso   1.000  H
  C4080    1.0000 0.15237  0.69489  0.81813  Biso   1.000  C
  H4297    1.0000 0.22897  0.65599  0.80820  Biso   1.000  H
  H4298    1.0000 0.22690  0.62820  0.82080  Biso   1.000  H
  C4081    1.0000 0.70339  0.61050  0.77761  Biso   1.000  C
  C4082    1.0000 0.84731  0.62322  0.78113  Biso   1.000  C
  C4083    1.0000 0.73671  0.57570  0.79554  Biso   1.000  C
  C4084    1.0000 0.82157  0.59576  0.79191  Biso   1.000  C
  H4299    1.0000 0.86401  0.57631  0.80750  Biso   1.000  H
  H4300    1.0000 0.11657  0.67295  0.82500  Biso   1.000  H
  H4301    1.0000 0.20265  0.75688  0.81940  Biso   1.000  H
  H4302    1.0000 0.66287  0.61548  0.77270  Biso   1.000  H
  H4303    1.0000 0.90526  0.63688  0.77870  Biso   1.000  H
  H4304    1.0000 0.71906  0.55686  0.80290  Biso   1.000  H
  C4085    1.0000 0.17880  0.99542  0.81301  Biso   1.000  C
  C4086    1.0000 0.14381  0.05727  0.81758  Biso   1.000  C
  H4305    1.0000 0.21362  0.02100  0.80620  Biso   1.000  H
  H4306    1.0000 0.12776  0.93472  0.81140  Biso   1.000  H
  C4087    1.0000 0.23916  0.98977  0.82194  Biso   1.000  C
  C4088    1.0000 0.21899  0.14551  0.82024  Biso   1.000  C
  H4307    1.0000 0.10508  0.06340  0.81200  Biso   1.000  H
  H4308    1.0000 0.10723  0.02981  0.82420  Biso   1.000  H
  C4089    1.0000 0.31661  0.08359  0.82484  Biso   1.000  C
  H4309    1.0000 0.20280  0.96123  0.82860  Biso   1.000  H
  H4310    1.0000 0.26381  0.95188  0.81930  Biso   1.000  H
  C4090    1.0000 0.27741  0.14308  0.82871  Biso   1.000  C
  H4311    1.0000 0.19539  0.18468  0.82270  Biso   1.000  H
  H4312    1.0000 0.25496  0.17256  0.81350  Biso   1.000  H
  N569     1.0000 0.36886  0.07269  0.83369  Biso   1.000  N
  H4313    1.0000 0.35583  0.11132  0.81830  Biso   1.000  H
  N570     1.0000 0.35569  0.23461  0.83029  Biso   1.000  N
  H4314    1.0000 0.24364  0.11973  0.83580  Biso   1.000  H
  C4091    1.0000 0.44482  0.08332  0.83094  Biso   1.000  C
  C4092    1.0000 0.36162  0.26571  0.84021  Biso   1.000  C
  C4093    1.0000 0.50212  0.07121  0.83913  Biso   1.000  C
  H4315    1.0000 0.46519  0.09900  0.82360  Biso   1.000  H
  C4094    1.0000 0.43279  0.35838  0.84323  Biso   1.000  C
  H4316    1.0000 0.31961  0.22842  0.84560  Biso   1.000  H
  C4095    1.0000 0.47258  0.04361  0.85019  Biso   1.000  C
  C4096    1.0000 0.58420  0.08581  0.83621  Biso   1.000  C
  C4097    1.0000 0.50160  0.41579  0.83621  Biso   1.000  C
  C4098    1.0000 0.43546  0.38739  0.85384  Biso   1.000  C
  C4099    1.0000 0.52630  0.03062  0.85727  Biso   1.000  C
  H4317    1.0000 0.41581  0.03439  0.85260  Biso   1.000  H
  H4318    1.0000 0.60409  0.10519  0.82890  Biso   1.000  H
  C4100    1.0000 0.64154  0.07437  0.84323  Biso   1.000  C
  C4101    1.0000 0.56911  0.49790  0.83913  Biso   1.000  C
  H4319    1.0000 0.50108  0.39587  0.82890  Biso   1.000  H
  C4102    1.0000 0.50431  0.47367  0.85727  Biso   1.000  C
  H4320    1.0000 0.39066  0.34896  0.85890  Biso   1.000  H
  C4103    1.0000 0.61262  0.04812  0.85384  Biso   1.000  C
  C4104    1.0000 0.49182  0.99758  0.86862  Biso   1.000  C
  C4105    1.0000 0.73426  0.09591  0.84021  Biso   1.000  C
  C4106    1.0000 0.57097  0.52738  0.85019  Biso   1.000  C
  C4107    1.0000 0.63849  0.55517  0.83094  Biso   1.000  C
  C4108    1.0000 0.50577  0.50820  0.86862  Biso   1.000  C
  H4321    1.0000 0.65099  0.04173  0.85890  Biso   1.000  H
  N571     1.0000 0.52743  0.97483  0.87589  Biso   1.000  N
  H4322    1.0000 0.43619  0.99367  0.87050  Biso   1.000  H
  N572     1.0000 0.76538  0.12108  0.83029  Biso   1.000  N
  H4323    1.0000 0.77160  0.09119  0.84560  Biso   1.000  H
  H4324    1.0000 0.61860  0.58418  0.85260  Biso   1.000  H
  N573     1.0000 0.70378  0.63109  0.83369  Biso   1.000  N
  H4325    1.0000 0.63377  0.53478  0.82360  Biso   1.000  H
  N574     1.0000 0.44741  0.47259  0.87589  Biso   1.000  N
  H4326    1.0000 0.55747  0.56379  0.87050  Biso   1.000  H
  C4109    1.0000 0.47808  0.93593  0.88607  Biso   1.000  C
  C4110    1.0000 0.85684  0.13427  0.82871  Biso   1.000  C
  C4111    1.0000 0.76700  0.68338  0.82484  Biso   1.000  C
  C4112    1.0000 0.45788  0.52199  0.88607  Biso   1.000  C
  C4113    1.0000 0.53626  0.99482  0.89534  Biso   1.000  C
  C4114    1.0000 0.45856  0.84433  0.88776  Biso   1.000  C
  H4327    1.0000 0.42025  0.93707  0.88590  Biso   1.000  H
  H4328    1.0000 0.88028  0.12390  0.83580  Biso   1.000  H
  C4115    1.0000 0.85449  0.07349  0.82024  Biso   1.000  C
  C4116    1.0000 0.91641  0.23300  0.82484  Biso   1.000  C
  C4117    1.0000 0.86568  0.72255  0.82871  Biso   1.000  C
  C4118    1.0000 0.75065  0.76085  0.82194  Biso   1.000  C
  H4329    1.0000 0.75552  0.64421  0.81830  Biso   1.000  H
  C4119    1.0000 0.45856  0.46378  0.89534  Biso   1.000  C
  C4120    1.0000 0.38581  0.54151  0.88776  Biso   1.000  C
  H4330    1.0000 0.51680  0.57967  0.88590  Biso   1.000  H
  N575     1.0000 0.54520  0.08393  0.89458  Biso   1.000  N
  H4331    1.0000 0.59672  0.99953  0.89520  Biso   1.000  H
  C4121    1.0000 0.48764  0.95518  0.90670  Biso   1.000  C
  C4122    1.0000 0.41300  0.80274  0.89940  Biso   1.000  C
  H4332    1.0000 0.51517  0.84272  0.88710  Biso   1.000  H
  H4333    1.0000 0.41773  0.80590  0.88190  Biso   1.000  H
  H4334    1.0000 0.81528  0.01070  0.82270  Biso   1.000  H
  H4335    1.0000 0.82740  0.08238  0.81350  Biso   1.000  H
  C4123    1.0000 0.94270  0.08648  0.81758  Biso   1.000  C
  N576     1.0000 0.92726  0.29620  0.83369  Biso   1.000  N
  H4336    1.0000 0.88871  0.24451  0.81830  Biso   1.000  H
  C4124    1.0000 0.01017  0.24929  0.82194  Biso   1.000  C
  N577     1.0000 0.87888  0.64428  0.83029  Biso   1.000  N
  H4337    1.0000 0.87608  0.75641  0.83580  Biso   1.000  H
  C4125    1.0000 0.92648  0.78097  0.82024  Biso   1.000  C
  C4126    1.0000 0.81659  0.82115  0.81301  Biso   1.000  C
  H4338    1.0000 0.75839  0.79719  0.82860  Biso   1.000  H
  H4339    1.0000 0.68806  0.73615  0.81930  Biso   1.000  H
  N578     1.0000 0.53868  0.45476  0.89458  Biso   1.000  N
  H4340    1.0000 0.40278  0.40327  0.89520  Biso   1.000  H
  C4127    1.0000 0.46759  0.51237  0.90670  Biso   1.000  C
  C4128    1.0000 0.38967  0.58701  0.89940  Biso   1.000  C
  H4341    1.0000 0.32748  0.48478  0.88710  Biso   1.000  H
  H4342    1.0000 0.38819  0.58230  0.88190  Biso   1.000  H
  C4129    1.0000 0.62407  0.14901  0.89552  Biso   1.000  C
  H4343    1.0000 0.52507  0.99482  0.91280  Biso   1.000  H
  H4344    1.0000 0.42907  0.95343  0.90680  Biso   1.000  H
  C4130    1.0000 0.47286  0.86291  0.90835  Biso   1.000  C
  H4345    1.0000 0.35313  0.79782  0.89990  Biso   1.000  H
  H4346    1.0000 0.40486  0.74169  0.90020  Biso   1.000  H
  H4347    1.0000 0.93658  0.04173  0.81200  Biso   1.000  H
  H4348    1.0000 0.97016  0.07740  0.82420  Biso   1.000  H
  C4131    1.0000 0.00456  0.18340  0.81301  Biso   1.000  C
  C4132    1.0000 0.91665  0.36148  0.83094  Biso   1.000  C
  H4349    1.0000 0.03880  0.24161  0.82860  Biso   1.000  H
  H4350    1.0000 0.04805  0.31188  0.81930  Biso   1.000  H
  C4133    1.0000 0.90407  0.63836  0.84021  Biso   1.000  C
  H4351    1.0000 0.98929  0.80460  0.82270  Biso   1.000  H
  H4352    1.0000 0.91757  0.74497  0.81350  Biso   1.000  H
  C4134    1.0000 0.91347  0.85615  0.81758  Biso   1.000  C
  H4353    1.0000 0.80702  0.87230  0.81140  Biso   1.000  H
  H4354    1.0000 0.80735  0.78636  0.80620  Biso   1.000  H
  C4135    1.0000 0.52489  0.37588  0.89552  Biso   1.000  C
  H4355    1.0000 0.46978  0.47502  0.91280  Biso   1.000  H
  H4356    1.0000 0.52441  0.57099  0.90680  Biso   1.000  H
  C4136    1.0000 0.39007  0.52718  0.90835  Biso   1.000  C
  H4357    1.0000 0.44469  0.64691  0.89990  Biso   1.000  H
  H4358    1.0000 0.33677  0.59508  0.90020  Biso   1.000  H
  C4137    1.0000 0.64769  0.24437  0.89564  Biso   1.000  C
  H4359    1.0000 0.67161  0.13602  0.89620  Biso   1.000  H
  H4360    1.0000 0.44444  0.83962  0.91560  Biso   1.000  H
  H4361    1.0000 0.53119  0.86439  0.90820  Biso   1.000  H
  H4362    1.0000 0.97898  0.19262  0.80620  Biso   1.000  H
  H4363    1.0000 0.06527  0.19302  0.81140  Biso   1.000  H
  C4138    1.0000 0.92879  0.43087  0.83913  Biso   1.000  C
  H4364    1.0000 0.90099  0.36619  0.82360  Biso   1.000  H
  C4139    1.0000 0.92559  0.56715  0.84323  Biso   1.000  C
  H4365    1.0000 0.90875  0.68036  0.84560  Biso   1.000  H
  H4366    1.0000 0.95824  0.89485  0.81200  Biso   1.000  H
  H4367    1.0000 0.92257  0.89276  0.82420  Biso   1.000  H
  C4140    1.0000 0.59666  0.35226  0.89564  Biso   1.000  C
  H4368    1.0000 0.46435  0.32837  0.89620  Biso   1.000  H
  H4369    1.0000 0.39518  0.55558  0.91560  Biso   1.000  H
  H4370    1.0000 0.33317  0.46876  0.90820  Biso   1.000  H
  C4141    1.0000 0.57931  0.26302  0.89574  Biso   1.000  C
  C4142    1.0000 0.73699  0.31632  0.89574  Biso   1.000  C
  C4143    1.0000 0.91416  0.49837  0.83621  Biso   1.000  C
  C4144    1.0000 0.95635  0.42898  0.85019  Biso   1.000  C
  C4145    1.0000 0.95187  0.56446  0.85384  Biso   1.000  C
  C4146    1.0000 0.68369  0.42070  0.89574  Biso   1.000  C
  H4371    1.0000 0.51877  0.21490  0.89590  Biso   1.000  H
  C4147    1.0000 0.75558  0.40327  0.89564  Biso   1.000  C
  H4372    1.0000 0.78509  0.30387  0.89590  Biso   1.000  H
  H4373    1.0000 0.89479  0.49891  0.82890  Biso   1.000  H
  C4148    1.0000 0.96935  0.49568  0.85727  Biso   1.000  C
  H4374    1.0000 0.96560  0.38140  0.85260  Biso   1.000  H
  H4375    1.0000 0.95825  0.60929  0.85890  Biso   1.000  H
  H4376    1.0000 0.69610  0.48121  0.89590  Biso   1.000  H
  C4149    1.0000 0.85099  0.47508  0.89552  Biso   1.000  C
  C4150    1.0000 0.00236  0.49420  0.86862  Biso   1.000  C
  N579     1.0000 0.91608  0.46129  0.89458  Biso   1.000  N
  H4377    1.0000 0.86399  0.53559  0.89620  Biso   1.000  H
  N580     1.0000 0.02522  0.55262  0.87589  Biso   1.000  N
  H4378    1.0000 0.00630  0.44251  0.87050  Biso   1.000  H
  C4151    1.0000 0.00520  0.54138  0.89534  Biso   1.000  C
  C4152    1.0000 0.06409  0.54212  0.88607  Biso   1.000  C
  H4379    1.0000 0.00046  0.59717  0.89520  Biso   1.000  H
  C4153    1.0000 0.04475  0.53236  0.90670  Biso   1.000  C
  C4154    1.0000 0.15567  0.61420  0.88776  Biso   1.000  C
  H4380    1.0000 0.06288  0.48316  0.88590  Biso   1.000  H
  H4381    1.0000 0.00521  0.53021  0.91280  Biso   1.000  H
  H4382    1.0000 0.04654  0.47556  0.90680  Biso   1.000  H
  C4155    1.0000 0.13708  0.60989  0.90835  Biso   1.000  C
  C4156    1.0000 0.19726  0.61029  0.89940  Biso   1.000  C
  H4383    1.0000 0.15725  0.67248  0.88710  Biso   1.000  H
  H4384    1.0000 0.19404  0.61178  0.88190  Biso   1.000  H
  H4385    1.0000 0.16035  0.60478  0.91560  Biso   1.000  H
  H4386    1.0000 0.13556  0.66676  0.90820  Biso   1.000  H
  H4387    1.0000 0.20218  0.55531  0.89990  Biso   1.000  H
  H4388    1.0000 0.25827  0.66319  0.90020  Biso   1.000  H
  C4157    1.0000 0.21602  0.83053  0.84422  Biso   1.000  C
  C4158    1.0000 0.17298  0.83013  0.85508  Biso   1.000  C
  C4159    1.0000 0.17286  0.83013  0.85508  Biso   1.000  C
  C4160    1.0000 0.25413  0.76734  0.84442  Biso   1.000  C
  H4389    1.0000 0.26507  0.89238  0.84260  Biso   1.000  H
  H4390    1.0000 0.17056  0.81189  0.83830  Biso   1.000  H
  H4391    1.0000 0.26501  0.89238  0.84260  Biso   1.000  H
  N581     1.0000 0.14927  0.90302  0.85468  Biso   1.000  N
  N582     1.0000 0.14921  0.90302  0.85468  Biso   1.000  N
  C4161    1.0000 0.23905  0.85247  0.86467  Biso   1.000  C
  H4392    1.0000 0.11777  0.77043  0.85630  Biso   1.000  H
  C4162    1.0000 0.23894  0.85247  0.86467  Biso   1.000  C
  H4393    1.0000 0.11772  0.77043  0.85630  Biso   1.000  H
  C4163    1.0000 0.31662  0.78834  0.85408  Biso   1.000  C
  C4164    1.0000 0.31656  0.78834  0.85408  Biso   1.000  C
  H4394    1.0000 0.20418  0.70427  0.84490  Biso   1.000  H
  H4395    1.0000 0.28732  0.77380  0.83750  Biso   1.000  H
  H4396    1.0000 0.20421  0.70434  0.84490  Biso   1.000  H
  C4165    1.0000 0.06517  0.87529  0.85361  Biso   1.000  C
  N583     1.0000 0.19110  0.84272  0.87513  Biso   1.000  N
  H4397    1.0000 0.29124  0.91500  0.86390  Biso   1.000  H
  C4166    1.0000 0.27070  0.78463  0.86467  Biso   1.000  C
  H4398    1.0000 0.29112  0.91500  0.86390  Biso   1.000  H
  H4399    1.0000 0.33808  0.74452  0.85430  Biso   1.000  H
  H4400    1.0000 0.36974  0.84911  0.85310  Biso   1.000  H
  C4167    1.0000 0.03224  0.94138  0.85314  Biso   1.000  C
  C4168    1.0000 0.03212  0.94138  0.85314  Biso   1.000  C
  H4401    1.0000 0.02364  0.81263  0.85310  Biso   1.000  H
  C4169    1.0000 0.23123  0.90840  0.88206  Biso   1.000  C
  H4402    1.0000 0.31289  0.79742  0.87080  Biso   1.000  H
  H4403    1.0000 0.21852  0.72339  0.86570  Biso   1.000  H
  C4170    1.0000 0.09390  0.03567  0.85324  Biso   1.000  C
  C4171    1.0000 0.09384  0.03567  0.85324  Biso   1.000  C
  C4172    1.0000 0.94175  0.90611  0.85324  Biso   1.000  C
  C4173    1.0000 0.94181  0.90611  0.85324  Biso   1.000  C
  C4174    1.0000 0.19606  0.90288  0.89308  Biso   1.000  C
  H4404    1.0000 0.28475  0.96123  0.87990  Biso   1.000  H
  C4175    1.0000 0.19601  0.90288  0.89308  Biso   1.000  C
  C4176    1.0000 0.05857  0.09079  0.85314  Biso   1.000  C
  C4177    1.0000 0.05863  0.09079  0.85314  Biso   1.000  C
  H4405    1.0000 0.15710  0.05902  0.85340  Biso   1.000  H
  C4178    1.0000 0.90919  0.96783  0.85314  Biso   1.000  C
  H4406    1.0000 0.90187  0.84292  0.85340  Biso   1.000  H
  C4179    1.0000 0.11904  0.82670  0.89707  Biso   1.000  C
  C4180    1.0000 0.24402  0.97618  0.90055  Biso   1.000  C
  C4181    1.0000 0.12469  0.18993  0.85361  Biso   1.000  C
  C4182    1.0000 0.12475  0.18993  0.85361  Biso   1.000  C
  C4183    1.0000 0.96429  0.05822  0.85324  Biso   1.000  C
  C4184    1.0000 0.81002  0.93478  0.85361  Biso   1.000  C
  C4185    1.0000 0.81008  0.93478  0.85361  Biso   1.000  C
  C4186    1.0000 0.09089  0.82192  0.90765  Biso   1.000  C
  H4407    1.0000 0.08555  0.77710  0.89230  Biso   1.000  H
  H4408    1.0000 0.08544  0.77710  0.89230  Biso   1.000  H
  C4187    1.0000 0.20981  0.97140  0.91135  Biso   1.000  C
  H4409    1.0000 0.29839  0.02780  0.89830  Biso   1.000  H
  N584     1.0000 0.09698  0.24619  0.85468  Biso   1.000  N
  N585     1.0000 0.09704  0.24619  0.85468  Biso   1.000  N
  H4410    1.0000 0.18739  0.21099  0.85310  Biso   1.000  H
  H4411    1.0000 0.94100  0.09813  0.85340  Biso   1.000  H
  N586     1.0000 0.75375  0.85079  0.85468  Biso   1.000  N
  H4412    1.0000 0.78897  0.97638  0.85310  Biso   1.000  H
  N587     1.0000 0.75386  0.85079  0.85468  Biso   1.000  N
  H4413    1.0000 0.78903  0.97638  0.85310  Biso   1.000  H
  C4188    1.0000 0.13520  0.89400  0.91453  Biso   1.000  C
  C4189    1.0000 0.13514  0.89400  0.91453  Biso   1.000  C
  C4190    1.0000 0.00904  0.73692  0.91144  Biso   1.000  C
  C4191    1.0000 0.25918  0.04671  0.91900  Biso   1.000  C
  C4192    1.0000 0.25923  0.04671  0.91900  Biso   1.000  C
  C4193    1.0000 0.16987  0.34277  0.85508  Biso   1.000  C
  C4194    1.0000 0.16993  0.34277  0.85508  Biso   1.000  C
  C4195    1.0000 0.65715  0.82710  0.85508  Biso   1.000  C
  C4196    1.0000 0.65727  0.82710  0.85508  Biso   1.000  C
  H4414    1.0000 0.11334  0.89003  0.92180  Biso   1.000  H
  N588     1.0000 0.97911  0.72171  0.92112  Biso   1.000  N
  H4415    1.0000 0.97751  0.69122  0.90610  Biso   1.000  H
  H4416    1.0000 0.97757  0.69122  0.90610  Biso   1.000  H
  N589     1.0000 0.32637  0.12188  0.91653  Biso   1.000  N
  N590     1.0000 0.32643  0.12188  0.91653  Biso   1.000  N
  H4417    1.0000 0.23907  0.03809  0.92640  Biso   1.000  H
  H4418    1.0000 0.23913  0.03809  0.92640  Biso   1.000  H
  C4197    1.0000 0.16950  0.38551  0.84422  Biso   1.000  C
  C4198    1.0000 0.14750  0.38652  0.86467  Biso   1.000  C
  H4419    1.0000 0.22959  0.34728  0.85630  Biso   1.000  H
  C4199    1.0000 0.61344  0.76101  0.86467  Biso   1.000  C
  C4200    1.0000 0.61452  0.78403  0.84422  Biso   1.000  C
  H4420    1.0000 0.65269  0.88229  0.85630  Biso   1.000  H
  C4201    1.0000 0.61356  0.76101  0.86467  Biso   1.000  C
  C4202    1.0000 0.90340  0.63078  0.92291  Biso   1.000  C
  C4203    1.0000 0.36649  0.18522  0.92550  Biso   1.000  C
  C4204    1.0000 0.23267  0.48680  0.84442  Biso   1.000  C
  H4421    1.0000 0.10761  0.37258  0.84260  Biso   1.000  H
  H4422    1.0000 0.18810  0.35872  0.83830  Biso   1.000  H
  H4423    1.0000 0.10755  0.37258  0.84260  Biso   1.000  H
  C4205    1.0000 0.23273  0.48680  0.84442  Biso   1.000  C
  C4206    1.0000 0.21540  0.48606  0.86467  Biso   1.000  C
  C4207    1.0000 0.21538  0.48612  0.86467  Biso   1.000  C
  C4208    1.0000 0.21534  0.48606  0.86467  Biso   1.000  C
  C4209    1.0000 0.21543  0.48612  0.86467  Biso   1.000  C
  N591     1.0000 0.15731  0.34842  0.87513  Biso   1.000  N
  H4424    1.0000 0.08500  0.37622  0.86390  Biso   1.000  H
  N592     1.0000 0.65162  0.80893  0.87513  Biso   1.000  N
  H4425    1.0000 0.62376  0.70878  0.86390  Biso   1.000  H
  C4210    1.0000 0.51384  0.72931  0.86467  Biso   1.000  C
  C4211    1.0000 0.51390  0.72931  0.86467  Biso   1.000  C
  C4212    1.0000 0.51317  0.74593  0.84442  Biso   1.000  C
  H4426    1.0000 0.62738  0.73503  0.84260  Biso   1.000  H
  H4427    1.0000 0.64128  0.82939  0.83830  Biso   1.000  H
  C4213    1.0000 0.51329  0.74593  0.84442  Biso   1.000  C
  C4214    1.0000 0.81869  0.63354  0.92550  Biso   1.000  C
  C4215    1.0000 0.81875  0.63354  0.92550  Biso   1.000  C
  H4428    1.0000 0.89332  0.59464  0.91610  Biso   1.000  H
  C4216    1.0000 0.92634  0.58643  0.93231  Biso   1.000  C
  C4217    1.0000 0.36919  0.27257  0.92291  Biso   1.000  C
  C4218    1.0000 0.36914  0.27257  0.92291  Biso   1.000  C
  C4219    1.0000 0.46048  0.20009  0.92773  Biso   1.000  C
  H4429    1.0000 0.32886  0.15856  0.93220  Biso   1.000  H
  H4430    1.0000 0.32889  0.15863  0.93220  Biso   1.000  H
  H4431    1.0000 0.32895  0.15863  0.93220  Biso   1.000  H
  C4220    1.0000 0.21170  0.52832  0.85408  Biso   1.000  C
  H4432    1.0000 0.29571  0.49992  0.84490  Biso   1.000  H
  H4433    1.0000 0.22622  0.51351  0.83750  Biso   1.000  H
  H4434    1.0000 0.22616  0.51351  0.83750  Biso   1.000  H
  H4435    1.0000 0.20260  0.51547  0.87080  Biso   1.000  H
  H4436    1.0000 0.27656  0.49507  0.86570  Biso   1.000  H
  H4437    1.0000 0.20254  0.51547  0.87080  Biso   1.000  H
  H4438    1.0000 0.27662  0.49507  0.86570  Biso   1.000  H
  C4221    1.0000 0.09156  0.32278  0.88206  Biso   1.000  C
  C4222    1.0000 0.09162  0.32278  0.88206  Biso   1.000  C
  C4223    1.0000 0.67720  0.76882  0.88206  Biso   1.000  C
  C4224    1.0000 0.67726  0.76882  0.88206  Biso   1.000  C
  H4439    1.0000 0.48452  0.68711  0.87080  Biso   1.000  H
  H4440    1.0000 0.50492  0.78154  0.86570  Biso   1.000  H
  C4225    1.0000 0.47171  0.68341  0.85408  Biso   1.000  C
  H4441    1.0000 0.50011  0.79581  0.84490  Biso   1.000  H
  H4442    1.0000 0.48647  0.71269  0.83750  Biso   1.000  H
  H4443    1.0000 0.50016  0.79581  0.84490  Biso   1.000  H
  N593     1.0000 0.79541  0.67359  0.91653  Biso   1.000  N
  N594     1.0000 0.79547  0.67359  0.91653  Biso   1.000  N
  C4226    1.0000 0.73963  0.53952  0.92773  Biso   1.000  C
  H4444    1.0000 0.82966  0.67110  0.93220  Biso   1.000  H
  H4445    1.0000 0.93996  0.62358  0.93900  Biso   1.000  H
  H4446    1.0000 0.98032  0.58259  0.93040  Biso   1.000  H
  C4227    1.0000 0.84715  0.49194  0.93453  Biso   1.000  C
  H4447    1.0000 0.94002  0.62358  0.93900  Biso   1.000  H
  C4228    1.0000 0.84727  0.49194  0.93453  Biso   1.000  C
  N595     1.0000 0.27830  0.25736  0.92112  Biso   1.000  N
  N596     1.0000 0.27828  0.25743  0.92112  Biso   1.000  N
  N597     1.0000 0.27824  0.25736  0.92112  Biso   1.000  N
  N598     1.0000 0.27833  0.25743  0.92112  Biso   1.000  N
  H4448    1.0000 0.40539  0.29869  0.91610  Biso   1.000  H
  C4229    1.0000 0.41357  0.33988  0.93231  Biso   1.000  C
  C4230    1.0000 0.41363  0.33988  0.93231  Biso   1.000  C
  C4231    1.0000 0.50630  0.26887  0.93681  Biso   1.000  C
  C4232    1.0000 0.50624  0.26887  0.93681  Biso   1.000  C
  H4449    1.0000 0.45600  0.14241  0.92990  Biso   1.000  H
  H4450    1.0000 0.49703  0.22142  0.92100  Biso   1.000  H
  H4451    1.0000 0.49697  0.22142  0.92100  Biso   1.000  H
  H4452    1.0000 0.45595  0.14241  0.92990  Biso   1.000  H
  H4453    1.0000 0.25548  0.59360  0.85430  Biso   1.000  H
  H4454    1.0000 0.15089  0.52058  0.85310  Biso   1.000  H
  H4455    1.0000 0.25554  0.59360  0.85430  Biso   1.000  H
  C4233    1.0000 0.09712  0.29310  0.89308  Biso   1.000  C
  H4456    1.0000 0.03884  0.32352  0.87990  Biso   1.000  H
  C4234    1.0000 0.09707  0.29310  0.89308  Biso   1.000  C
  H4457    1.0000 0.03878  0.32352  0.87990  Biso   1.000  H
  C4235    1.0000 0.70687  0.80402  0.89308  Biso   1.000  C
  H4458    1.0000 0.67651  0.71531  0.87990  Biso   1.000  H
  H4459    1.0000 0.67656  0.71531  0.87990  Biso   1.000  H
  H4460    1.0000 0.40633  0.66187  0.85430  Biso   1.000  H
  H4461    1.0000 0.47937  0.63031  0.85310  Biso   1.000  H
  H4462    1.0000 0.40642  0.66194  0.85430  Biso   1.000  H
  H4463    1.0000 0.40639  0.66187  0.85430  Biso   1.000  H
  H4464    1.0000 0.40636  0.66194  0.85430  Biso   1.000  H
  C4236    1.0000 0.78747  0.74082  0.91900  Biso   1.000  C
  C4237    1.0000 0.76258  0.49369  0.93681  Biso   1.000  C
  H4465    1.0000 0.68634  0.54403  0.92990  Biso   1.000  H
  H4466    1.0000 0.72436  0.50304  0.92100  Biso   1.000  H
  C4238    1.0000 0.76264  0.49369  0.93681  Biso   1.000  C
  H4467    1.0000 0.68645  0.54403  0.92990  Biso   1.000  H
  H4468    1.0000 0.72442  0.50304  0.92100  Biso   1.000  H
  H4469    1.0000 0.83800  0.45324  0.92810  Biso   1.000  H
  H4470    1.0000 0.86161  0.46549  0.94090  Biso   1.000  H
  C4239    1.0000 0.26311  0.27210  0.91144  Biso   1.000  C
  C4240    1.0000 0.26305  0.27210  0.91144  Biso   1.000  C
  H4471    1.0000 0.37641  0.31639  0.93900  Biso   1.000  H
  H4472    1.0000 0.41741  0.39769  0.93040  Biso   1.000  H
  C4241    1.0000 0.50806  0.35529  0.93453  Biso   1.000  C
  H4473    1.0000 0.37636  0.31639  0.93900  Biso   1.000  H
  H4474    1.0000 0.41736  0.39769  0.93040  Biso   1.000  H
  C4242    1.0000 0.50812  0.35529  0.93453  Biso   1.000  C
  H4475    1.0000 0.47418  0.24357  0.94380  Biso   1.000  H
  H4476    1.0000 0.56878  0.28112  0.93770  Biso   1.000  H
  H4477    1.0000 0.56884  0.28112  0.93770  Biso   1.000  H
  C4243    1.0000 0.17331  0.29229  0.89707  Biso   1.000  C
  C4244    1.0000 0.02380  0.26779  0.90055  Biso   1.000  C
  C4245    1.0000 0.17325  0.29229  0.89707  Biso   1.000  C
  C4246    1.0000 0.73219  0.75603  0.90055  Biso   1.000  C
  C4247    1.0000 0.70771  0.88101  0.89707  Biso   1.000  C
  C4248    1.0000 0.76158  0.79022  0.91135  Biso   1.000  C
  H4478    1.0000 0.79901  0.76088  0.92640  Biso   1.000  H
  H4479    1.0000 0.76942  0.52579  0.94380  Biso   1.000  H
  H4480    1.0000 0.71223  0.43123  0.93770  Biso   1.000  H
  H4481    1.0000 0.71229  0.43123  0.93770  Biso   1.000  H
  C4249    1.0000 0.17810  0.26901  0.90765  Biso   1.000  C
  H4482    1.0000 0.30880  0.28630  0.90610  Biso   1.000  H
  H4483    1.0000 0.54676  0.38477  0.92810  Biso   1.000  H
  H4484    1.0000 0.53446  0.39607  0.94090  Biso   1.000  H
  H4485    1.0000 0.54682  0.38477  0.92810  Biso   1.000  H
  H4486    1.0000 0.53452  0.39607  0.94090  Biso   1.000  H
  H4487    1.0000 0.22291  0.30838  0.89230  Biso   1.000  H
  H4488    1.0000 0.22285  0.30838  0.89230  Biso   1.000  H
  C4250    1.0000 0.02862  0.23838  0.91135  Biso   1.000  C
  C4251    1.0000 0.02856  0.23838  0.91135  Biso   1.000  C
  H4489    1.0000 0.97223  0.27062  0.89830  Biso   1.000  H
  H4490    1.0000 0.97217  0.27062  0.89830  Biso   1.000  H
  H4491    1.0000 0.72938  0.70158  0.89830  Biso   1.000  H
  C4252    1.0000 0.73096  0.90907  0.90765  Biso   1.000  C
  H4492    1.0000 0.69154  0.91453  0.89230  Biso   1.000  H
  H4493    1.0000 0.69160  0.91453  0.89230  Biso   1.000  H
  C4253    1.0000 0.75882  0.86479  0.91453  Biso   1.000  C
  C4254    1.0000 0.10603  0.24121  0.91453  Biso   1.000  C
  C4255    1.0000 0.10598  0.24121  0.91453  Biso   1.000  C
  C4256    1.0000 0.95330  0.21247  0.91900  Biso   1.000  C
  C4257    1.0000 0.95324  0.21247  0.91900  Biso   1.000  C
  C4258    1.0000 0.72790  0.99098  0.91144  Biso   1.000  C
  C4259    1.0000 0.72796  0.99098  0.91144  Biso   1.000  C
  H4494    1.0000 0.77667  0.88673  0.92180  Biso   1.000  H
  H4495    1.0000 0.77679  0.88673  0.92180  Biso   1.000  H
  H4496    1.0000 0.11002  0.22331  0.92180  Biso   1.000  H
  H4497    1.0000 0.10996  0.22331  0.92180  Biso   1.000  H
  N599     1.0000 0.87807  0.20446  0.91653  Biso   1.000  N
  H4498    1.0000 0.96188  0.20096  0.92640  Biso   1.000  H
  N600     1.0000 0.87810  0.20453  0.91653  Biso   1.000  N
  H4499    1.0000 0.96191  0.20103  0.92640  Biso   1.000  H
  H4500    1.0000 0.96185  0.20103  0.92640  Biso   1.000  H
  N601     1.0000 0.74264  0.02093  0.92112  Biso   1.000  N
  N602     1.0000 0.74259  0.02093  0.92112  Biso   1.000  N
  H4501    1.0000 0.71369  0.02248  0.90610  Biso   1.000  H
  H4502    1.0000 0.71363  0.02248  0.90610  Biso   1.000  H
  C4260    1.0000 0.81479  0.18131  0.92550  Biso   1.000  C
  C4261    1.0000 0.72737  0.09658  0.92291  Biso   1.000  C
  C4262    1.0000 0.79989  0.26039  0.92773  Biso   1.000  C
  H4503    1.0000 0.84139  0.17027  0.93220  Biso   1.000  H
  C4263    1.0000 0.79983  0.26039  0.92773  Biso   1.000  C
  H4504    1.0000 0.84133  0.17027  0.93220  Biso   1.000  H
  H4505    1.0000 0.70129  0.10667  0.91610  Biso   1.000  H
  C4264    1.0000 0.66009  0.07370  0.93231  Biso   1.000  C
  H4506    1.0000 0.70124  0.10667  0.91610  Biso   1.000  H
  C4265    1.0000 0.73109  0.23737  0.93681  Biso   1.000  C
  H4507    1.0000 0.85760  0.31356  0.92990  Biso   1.000  H
  H4508    1.0000 0.77859  0.27560  0.92100  Biso   1.000  H
  H4509    1.0000 0.85758  0.31363  0.92990  Biso   1.000  H
  H4510    1.0000 0.85754  0.31356  0.92990  Biso   1.000  H
  C4266    1.0000 0.73103  0.23737  0.93681  Biso   1.000  C
  H4511    1.0000 0.68359  0.05997  0.93900  Biso   1.000  H
  H4512    1.0000 0.60233  0.01972  0.93040  Biso   1.000  H
  C4267    1.0000 0.64467  0.15278  0.93453  Biso   1.000  C
  H4513    1.0000 0.68363  0.06003  0.93900  Biso   1.000  H
  H4514    1.0000 0.60227  0.01972  0.93040  Biso   1.000  H
  H4515    1.0000 0.68357  0.06003  0.93900  Biso   1.000  H
  H4516    1.0000 0.75637  0.23058  0.94380  Biso   1.000  H
  H4517    1.0000 0.71890  0.28772  0.93770  Biso   1.000  H
  H4518    1.0000 0.61518  0.16200  0.92810  Biso   1.000  H
  H4519    1.0000 0.60390  0.13837  0.94090  Biso   1.000  H
  H4520    1.0000 0.60384  0.13837  0.94090  Biso   1.000  H
  C4268    1.0000 0.21602  0.83053  0.84422  Biso   1.000  C
  C4269    1.0000 0.25413  0.76734  0.84442  Biso   1.000  C
  C4270    1.0000 0.17298  0.83013  0.85508  Biso   1.000  C
  C4271    1.0000 0.17286  0.83013  0.85508  Biso   1.000  C
  H4521    1.0000 0.26507  0.89238  0.84260  Biso   1.000  H
  H4522    1.0000 0.17056  0.81189  0.83830  Biso   1.000  H
  H4523    1.0000 0.26501  0.89238  0.84260  Biso   1.000  H
  H4524    1.0000 0.28732  0.77380  0.83750  Biso   1.000  H
  H4525    1.0000 0.20421  0.70434  0.84490  Biso   1.000  H
  C4272    1.0000 0.31662  0.78834  0.85408  Biso   1.000  C
  C4273    1.0000 0.31656  0.78834  0.85408  Biso   1.000  C
  H4526    1.0000 0.20418  0.70427  0.84490  Biso   1.000  H
  N603     1.0000 0.14927  0.90302  0.85468  Biso   1.000  N
  N604     1.0000 0.14921  0.90302  0.85468  Biso   1.000  N
  C4274    1.0000 0.23905  0.85247  0.86467  Biso   1.000  C
  H4527    1.0000 0.11777  0.77043  0.85630  Biso   1.000  H
  C4275    1.0000 0.23894  0.85247  0.86467  Biso   1.000  C
  H4528    1.0000 0.11772  0.77043  0.85630  Biso   1.000  H
  C4276    1.0000 0.27070  0.78463  0.86467  Biso   1.000  C
  H4529    1.0000 0.33808  0.74452  0.85430  Biso   1.000  H
  H4530    1.0000 0.36974  0.84911  0.85310  Biso   1.000  H
  C4277    1.0000 0.06517  0.87529  0.85361  Biso   1.000  C
  N605     1.0000 0.19110  0.84272  0.87513  Biso   1.000  N
  H4531    1.0000 0.29124  0.91500  0.86390  Biso   1.000  H
  H4532    1.0000 0.29112  0.91500  0.86390  Biso   1.000  H
  H4533    1.0000 0.31289  0.79742  0.87080  Biso   1.000  H
  H4534    1.0000 0.21852  0.72339  0.86570  Biso   1.000  H
  C4278    1.0000 0.03224  0.94138  0.85314  Biso   1.000  C
  C4279    1.0000 0.03212  0.94138  0.85314  Biso   1.000  C
  H4535    1.0000 0.02364  0.81263  0.85310  Biso   1.000  H
  C4280    1.0000 0.23123  0.90840  0.88206  Biso   1.000  C
  C4281    1.0000 0.09384  0.03567  0.85324  Biso   1.000  C
  C4282    1.0000 0.09390  0.03567  0.85324  Biso   1.000  C
  C4283    1.0000 0.94175  0.90611  0.85324  Biso   1.000  C
  C4284    1.0000 0.94181  0.90611  0.85324  Biso   1.000  C
  C4285    1.0000 0.19606  0.90288  0.89308  Biso   1.000  C
  H4536    1.0000 0.28475  0.96123  0.87990  Biso   1.000  H
  C4286    1.0000 0.19601  0.90288  0.89308  Biso   1.000  C
  C4287    1.0000 0.05857  0.09079  0.85314  Biso   1.000  C
  C4288    1.0000 0.05863  0.09079  0.85314  Biso   1.000  C
  H4537    1.0000 0.15710  0.05902  0.85340  Biso   1.000  H
  C4289    1.0000 0.90919  0.96783  0.85314  Biso   1.000  C
  H4538    1.0000 0.90187  0.84292  0.85340  Biso   1.000  H
  C4290    1.0000 0.11904  0.82670  0.89707  Biso   1.000  C
  C4291    1.0000 0.24402  0.97618  0.90055  Biso   1.000  C
  C4292    1.0000 0.12469  0.18993  0.85361  Biso   1.000  C
  C4293    1.0000 0.12475  0.18993  0.85361  Biso   1.000  C
  C4294    1.0000 0.96429  0.05822  0.85324  Biso   1.000  C
  C4295    1.0000 0.81002  0.93478  0.85361  Biso   1.000  C
  C4296    1.0000 0.81008  0.93478  0.85361  Biso   1.000  C
  C4297    1.0000 0.09089  0.82192  0.90765  Biso   1.000  C
  H4539    1.0000 0.08555  0.77710  0.89230  Biso   1.000  H
  H4540    1.0000 0.08544  0.77710  0.89230  Biso   1.000  H
  C4298    1.0000 0.20981  0.97140  0.91135  Biso   1.000  C
  H4541    1.0000 0.29839  0.02780  0.89830  Biso   1.000  H
  N606     1.0000 0.09698  0.24619  0.85468  Biso   1.000  N
  N607     1.0000 0.09704  0.24619  0.85468  Biso   1.000  N
  H4542    1.0000 0.18739  0.21099  0.85310  Biso   1.000  H
  H4543    1.0000 0.94100  0.09813  0.85340  Biso   1.000  H
  N608     1.0000 0.75375  0.85079  0.85468  Biso   1.000  N
  H4544    1.0000 0.78897  0.97638  0.85310  Biso   1.000  H
  N609     1.0000 0.75386  0.85079  0.85468  Biso   1.000  N
  H4545    1.0000 0.78903  0.97638  0.85310  Biso   1.000  H
  C4299    1.0000 0.13520  0.89400  0.91453  Biso   1.000  C
  C4300    1.0000 0.13514  0.89400  0.91453  Biso   1.000  C
  C4301    1.0000 0.00904  0.73692  0.91144  Biso   1.000  C
  C4302    1.0000 0.25918  0.04671  0.91900  Biso   1.000  C
  C4303    1.0000 0.25923  0.04671  0.91900  Biso   1.000  C
  C4304    1.0000 0.16987  0.34277  0.85508  Biso   1.000  C
  C4305    1.0000 0.16993  0.34277  0.85508  Biso   1.000  C
  C4306    1.0000 0.65715  0.82710  0.85508  Biso   1.000  C
  C4307    1.0000 0.65727  0.82710  0.85508  Biso   1.000  C
  H4546    1.0000 0.11334  0.89003  0.92180  Biso   1.000  H
  N610     1.0000 0.97911  0.72171  0.92112  Biso   1.000  N
  H4547    1.0000 0.97751  0.69122  0.90610  Biso   1.000  H
  H4548    1.0000 0.97757  0.69122  0.90610  Biso   1.000  H
  N611     1.0000 0.32637  0.12188  0.91653  Biso   1.000  N
  N612     1.0000 0.32643  0.12188  0.91653  Biso   1.000  N
  H4549    1.0000 0.23907  0.03809  0.92640  Biso   1.000  H
  H4550    1.0000 0.23913  0.03809  0.92640  Biso   1.000  H
  C4308    1.0000 0.16950  0.38551  0.84422  Biso   1.000  C
  C4309    1.0000 0.14750  0.38652  0.86467  Biso   1.000  C
  H4551    1.0000 0.22959  0.34728  0.85630  Biso   1.000  H
  C4310    1.0000 0.61452  0.78403  0.84422  Biso   1.000  C
  H4552    1.0000 0.65269  0.88229  0.85630  Biso   1.000  H
  C4311    1.0000 0.61344  0.76101  0.86467  Biso   1.000  C
  C4312    1.0000 0.61356  0.76101  0.86467  Biso   1.000  C
  C4313    1.0000 0.90340  0.63078  0.92291  Biso   1.000  C
  C4314    1.0000 0.36649  0.18522  0.92550  Biso   1.000  C
  C4315    1.0000 0.23267  0.48680  0.84442  Biso   1.000  C
  H4553    1.0000 0.18810  0.35872  0.83830  Biso   1.000  H
  H4554    1.0000 0.10755  0.37258  0.84260  Biso   1.000  H
  H4555    1.0000 0.10761  0.37258  0.84260  Biso   1.000  H
  C4316    1.0000 0.23273  0.48680  0.84442  Biso   1.000  C
  C4317    1.0000 0.21540  0.48606  0.86467  Biso   1.000  C
  C4318    1.0000 0.21538  0.48612  0.86467  Biso   1.000  C
  C4319    1.0000 0.21534  0.48606  0.86467  Biso   1.000  C
  C4320    1.0000 0.21543  0.48612  0.86467  Biso   1.000  C
  N613     1.0000 0.15731  0.34842  0.87513  Biso   1.000  N
  H4556    1.0000 0.08500  0.37622  0.86390  Biso   1.000  H
  H4557    1.0000 0.64128  0.82939  0.83830  Biso   1.000  H
  C4321    1.0000 0.51317  0.74593  0.84442  Biso   1.000  C
  H4558    1.0000 0.62738  0.73503  0.84260  Biso   1.000  H
  C4322    1.0000 0.51329  0.74593  0.84442  Biso   1.000  C
  N614     1.0000 0.65162  0.80893  0.87513  Biso   1.000  N
  H4559    1.0000 0.62376  0.70878  0.86390  Biso   1.000  H
  C4323    1.0000 0.51384  0.72931  0.86467  Biso   1.000  C
  C4324    1.0000 0.51390  0.72931  0.86467  Biso   1.000  C
  H4560    1.0000 0.89332  0.59464  0.91610  Biso   1.000  H
  C4325    1.0000 0.81869  0.63354  0.92550  Biso   1.000  C
  C4326    1.0000 0.81875  0.63354  0.92550  Biso   1.000  C
  C4327    1.0000 0.92634  0.58643  0.93231  Biso   1.000  C
  C4328    1.0000 0.36914  0.27257  0.92291  Biso   1.000  C
  C4329    1.0000 0.36919  0.27257  0.92291  Biso   1.000  C
  C4330    1.0000 0.46048  0.20009  0.92773  Biso   1.000  C
  H4561    1.0000 0.32886  0.15856  0.93220  Biso   1.000  H
  H4562    1.0000 0.32889  0.15863  0.93220  Biso   1.000  H
  H4563    1.0000 0.32895  0.15863  0.93220  Biso   1.000  H
  C4331    1.0000 0.21170  0.52832  0.85408  Biso   1.000  C
  H4564    1.0000 0.29571  0.49992  0.84490  Biso   1.000  H
  H4565    1.0000 0.22622  0.51351  0.83750  Biso   1.000  H
  H4566    1.0000 0.22616  0.51351  0.83750  Biso   1.000  H
  H4567    1.0000 0.20260  0.51547  0.87080  Biso   1.000  H
  H4568    1.0000 0.27656  0.49507  0.86570  Biso   1.000  H
  H4569    1.0000 0.20254  0.51547  0.87080  Biso   1.000  H
  H4570    1.0000 0.27662  0.49507  0.86570  Biso   1.000  H
  C4332    1.0000 0.09156  0.32278  0.88206  Biso   1.000  C
  C4333    1.0000 0.09162  0.32278  0.88206  Biso   1.000  C
  C4334    1.0000 0.47171  0.68341  0.85408  Biso   1.000  C
  H4571    1.0000 0.50011  0.79581  0.84490  Biso   1.000  H
  H4572    1.0000 0.48647  0.71269  0.83750  Biso   1.000  H
  H4573    1.0000 0.50016  0.79581  0.84490  Biso   1.000  H
  C4335    1.0000 0.67720  0.76882  0.88206  Biso   1.000  C
  C4336    1.0000 0.67726  0.76882  0.88206  Biso   1.000  C
  H4574    1.0000 0.48452  0.68711  0.87080  Biso   1.000  H
  H4575    1.0000 0.50492  0.78154  0.86570  Biso   1.000  H
  N615     1.0000 0.79541  0.67359  0.91653  Biso   1.000  N
  N616     1.0000 0.79547  0.67359  0.91653  Biso   1.000  N
  C4337    1.0000 0.73963  0.53952  0.92773  Biso   1.000  C
  H4576    1.0000 0.82966  0.67110  0.93220  Biso   1.000  H
  H4577    1.0000 0.93996  0.62358  0.93900  Biso   1.000  H
  H4578    1.0000 0.98032  0.58259  0.93040  Biso   1.000  H
  C4338    1.0000 0.84715  0.49194  0.93453  Biso   1.000  C
  H4579    1.0000 0.94002  0.62358  0.93900  Biso   1.000  H
  C4339    1.0000 0.84727  0.49194  0.93453  Biso   1.000  C
  N617     1.0000 0.27830  0.25736  0.92112  Biso   1.000  N
  N618     1.0000 0.27828  0.25743  0.92112  Biso   1.000  N
  N619     1.0000 0.27824  0.25736  0.92112  Biso   1.000  N
  N620     1.0000 0.27833  0.25743  0.92112  Biso   1.000  N
  H4580    1.0000 0.40539  0.29869  0.91610  Biso   1.000  H
  C4340    1.0000 0.41357  0.33988  0.93231  Biso   1.000  C
  C4341    1.0000 0.41363  0.33988  0.93231  Biso   1.000  C
  C4342    1.0000 0.50624  0.26887  0.93681  Biso   1.000  C
  C4343    1.0000 0.50630  0.26887  0.93681  Biso   1.000  C
  H4581    1.0000 0.45600  0.14241  0.92990  Biso   1.000  H
  H4582    1.0000 0.49697  0.22142  0.92100  Biso   1.000  H
  H4583    1.0000 0.49703  0.22142  0.92100  Biso   1.000  H
  H4584    1.0000 0.45595  0.14241  0.92990  Biso   1.000  H
  H4585    1.0000 0.25548  0.59360  0.85430  Biso   1.000  H
  H4586    1.0000 0.15089  0.52058  0.85310  Biso   1.000  H
  H4587    1.0000 0.25554  0.59360  0.85430  Biso   1.000  H
  C4344    1.0000 0.09707  0.29310  0.89308  Biso   1.000  C
  H4588    1.0000 0.03878  0.32352  0.87990  Biso   1.000  H
  C4345    1.0000 0.09712  0.29310  0.89308  Biso   1.000  C
  H4589    1.0000 0.03884  0.32352  0.87990  Biso   1.000  H
  H4590    1.0000 0.40633  0.66187  0.85430  Biso   1.000  H
  H4591    1.0000 0.47937  0.63031  0.85310  Biso   1.000  H
  H4592    1.0000 0.40642  0.66194  0.85430  Biso   1.000  H
  H4593    1.0000 0.40639  0.66187  0.85430  Biso   1.000  H
  H4594    1.0000 0.40636  0.66194  0.85430  Biso   1.000  H
  C4346    1.0000 0.70687  0.80402  0.89308  Biso   1.000  C
  H4595    1.0000 0.67651  0.71531  0.87990  Biso   1.000  H
  H4596    1.0000 0.67656  0.71531  0.87990  Biso   1.000  H
  C4347    1.0000 0.78747  0.74082  0.91900  Biso   1.000  C
  C4348    1.0000 0.76258  0.49369  0.93681  Biso   1.000  C
  H4597    1.0000 0.68634  0.54403  0.92990  Biso   1.000  H
  H4598    1.0000 0.72436  0.50304  0.92100  Biso   1.000  H
  C4349    1.0000 0.76264  0.49369  0.93681  Biso   1.000  C
  H4599    1.0000 0.68645  0.54403  0.92990  Biso   1.000  H
  H4600    1.0000 0.72442  0.50304  0.92100  Biso   1.000  H
  H4601    1.0000 0.83800  0.45324  0.92810  Biso   1.000  H
  H4602    1.0000 0.86161  0.46549  0.94090  Biso   1.000  H
  C4350    1.0000 0.26305  0.27210  0.91144  Biso   1.000  C
  C4351    1.0000 0.26311  0.27210  0.91144  Biso   1.000  C
  C4352    1.0000 0.50806  0.35529  0.93453  Biso   1.000  C
  H4603    1.0000 0.37636  0.31639  0.93900  Biso   1.000  H
  H4604    1.0000 0.41736  0.39769  0.93040  Biso   1.000  H
  H4605    1.0000 0.37641  0.31639  0.93900  Biso   1.000  H
  H4606    1.0000 0.41741  0.39769  0.93040  Biso   1.000  H
  C4353    1.0000 0.50812  0.35529  0.93453  Biso   1.000  C
  H4607    1.0000 0.47418  0.24357  0.94380  Biso   1.000  H
  H4608    1.0000 0.56878  0.28112  0.93770  Biso   1.000  H
  H4609    1.0000 0.56884  0.28112  0.93770  Biso   1.000  H
  C4354    1.0000 0.17331  0.29229  0.89707  Biso   1.000  C
  C4355    1.0000 0.02380  0.26779  0.90055  Biso   1.000  C
  C4356    1.0000 0.17325  0.29229  0.89707  Biso   1.000  C
  C4357    1.0000 0.70771  0.88101  0.89707  Biso   1.000  C
  C4358    1.0000 0.73219  0.75603  0.90055  Biso   1.000  C
  C4359    1.0000 0.76158  0.79022  0.91135  Biso   1.000  C
  H4610    1.0000 0.79901  0.76088  0.92640  Biso   1.000  H
  H4611    1.0000 0.76942  0.52579  0.94380  Biso   1.000  H
  H4612    1.0000 0.71223  0.43123  0.93770  Biso   1.000  H
  H4613    1.0000 0.71229  0.43123  0.93770  Biso   1.000  H
  C4360    1.0000 0.17810  0.26901  0.90765  Biso   1.000  C
  H4614    1.0000 0.30880  0.28630  0.90610  Biso   1.000  H
  H4615    1.0000 0.54676  0.38477  0.92810  Biso   1.000  H
  H4616    1.0000 0.53446  0.39607  0.94090  Biso   1.000  H
  H4617    1.0000 0.54682  0.38477  0.92810  Biso   1.000  H
  H4618    1.0000 0.53452  0.39607  0.94090  Biso   1.000  H
  H4619    1.0000 0.22285  0.30838  0.89230  Biso   1.000  H
  H4620    1.0000 0.22291  0.30838  0.89230  Biso   1.000  H
  C4361    1.0000 0.02856  0.23838  0.91135  Biso   1.000  C
  C4362    1.0000 0.02862  0.23838  0.91135  Biso   1.000  C
  H4621    1.0000 0.97223  0.27062  0.89830  Biso   1.000  H
  H4622    1.0000 0.97217  0.27062  0.89830  Biso   1.000  H
  C4363    1.0000 0.73096  0.90907  0.90765  Biso   1.000  C
  H4623    1.0000 0.69154  0.91453  0.89230  Biso   1.000  H
  H4624    1.0000 0.69160  0.91453  0.89230  Biso   1.000  H
  H4625    1.0000 0.72938  0.70158  0.89830  Biso   1.000  H
  C4364    1.0000 0.75882  0.86479  0.91453  Biso   1.000  C
  C4365    1.0000 0.10598  0.24121  0.91453  Biso   1.000  C
  C4366    1.0000 0.10603  0.24121  0.91453  Biso   1.000  C
  C4367    1.0000 0.95330  0.21247  0.91900  Biso   1.000  C
  C4368    1.0000 0.95324  0.21247  0.91900  Biso   1.000  C
  C4369    1.0000 0.72790  0.99098  0.91144  Biso   1.000  C
  C4370    1.0000 0.72796  0.99098  0.91144  Biso   1.000  C
  H4626    1.0000 0.77667  0.88673  0.92180  Biso   1.000  H
  H4627    1.0000 0.77679  0.88673  0.92180  Biso   1.000  H
  H4628    1.0000 0.10996  0.22331  0.92180  Biso   1.000  H
  H4629    1.0000 0.11002  0.22331  0.92180  Biso   1.000  H
  N621     1.0000 0.87807  0.20446  0.91653  Biso   1.000  N
  H4630    1.0000 0.96188  0.20096  0.92640  Biso   1.000  H
  N622     1.0000 0.87810  0.20453  0.91653  Biso   1.000  N
  H4631    1.0000 0.96191  0.20103  0.92640  Biso   1.000  H
  H4632    1.0000 0.96185  0.20103  0.92640  Biso   1.000  H
  N623     1.0000 0.74264  0.02093  0.92112  Biso   1.000  N
  N624     1.0000 0.74259  0.02093  0.92112  Biso   1.000  N
  H4633    1.0000 0.71369  0.02248  0.90610  Biso   1.000  H
  H4634    1.0000 0.71363  0.02248  0.90610  Biso   1.000  H
  C4371    1.0000 0.81479  0.18131  0.92550  Biso   1.000  C
  C4372    1.0000 0.72737  0.09658  0.92291  Biso   1.000  C
  C4373    1.0000 0.79989  0.26039  0.92773  Biso   1.000  C
  H4635    1.0000 0.84139  0.17027  0.93220  Biso   1.000  H
  C4374    1.0000 0.79983  0.26039  0.92773  Biso   1.000  C
  H4636    1.0000 0.84133  0.17027  0.93220  Biso   1.000  H
  H4637    1.0000 0.70129  0.10667  0.91610  Biso   1.000  H
  C4375    1.0000 0.66009  0.07370  0.93231  Biso   1.000  C
  H4638    1.0000 0.70124  0.10667  0.91610  Biso   1.000  H
  C4376    1.0000 0.73109  0.23737  0.93681  Biso   1.000  C
  H4639    1.0000 0.85760  0.31356  0.92990  Biso   1.000  H
  H4640    1.0000 0.77859  0.27560  0.92100  Biso   1.000  H
  H4641    1.0000 0.85758  0.31363  0.92990  Biso   1.000  H
  H4642    1.0000 0.85754  0.31356  0.92990  Biso   1.000  H
  C4377    1.0000 0.73103  0.23737  0.93681  Biso   1.000  C
  H4643    1.0000 0.68359  0.05997  0.93900  Biso   1.000  H
  H4644    1.0000 0.60233  0.01972  0.93040  Biso   1.000  H
  C4378    1.0000 0.64467  0.15278  0.93453  Biso   1.000  C
  H4645    1.0000 0.68363  0.06003  0.93900  Biso   1.000  H
  H4646    1.0000 0.60227  0.01972  0.93040  Biso   1.000  H
  H4647    1.0000 0.68357  0.06003  0.93900  Biso   1.000  H
  H4648    1.0000 0.75637  0.23058  0.94380  Biso   1.000  H
  H4649    1.0000 0.71890  0.28772  0.93770  Biso   1.000  H
  H4650    1.0000 0.61518  0.16200  0.92810  Biso   1.000  H
  H4651    1.0000 0.60390  0.13837  0.94090  Biso   1.000  H
  H4652    1.0000 0.60384  0.13837  0.94090  Biso   1.000  H
  C4379    1.0000 0.21602  0.83053  0.84422  Biso   1.000  C
  C4380    1.0000 0.25413  0.76734  0.84442  Biso   1.000  C
  C4381    1.0000 0.17298  0.83013  0.85508  Biso   1.000  C
  C4382    1.0000 0.17286  0.83013  0.85508  Biso   1.000  C
  H4653    1.0000 0.26507  0.89238  0.84260  Biso   1.000  H
  H4654    1.0000 0.17056  0.81189  0.83830  Biso   1.000  H
  H4655    1.0000 0.26501  0.89238  0.84260  Biso   1.000  H
  H4656    1.0000 0.28732  0.77380  0.83750  Biso   1.000  H
  H4657    1.0000 0.20421  0.70434  0.84490  Biso   1.000  H
  C4383    1.0000 0.31662  0.78834  0.85408  Biso   1.000  C
  C4384    1.0000 0.31656  0.78834  0.85408  Biso   1.000  C
  H4658    1.0000 0.20418  0.70427  0.84490  Biso   1.000  H
  N625     1.0000 0.14927  0.90302  0.85468  Biso   1.000  N
  N626     1.0000 0.14921  0.90302  0.85468  Biso   1.000  N
  C4385    1.0000 0.23905  0.85247  0.86467  Biso   1.000  C
  H4659    1.0000 0.11777  0.77043  0.85630  Biso   1.000  H
  C4386    1.0000 0.23894  0.85247  0.86467  Biso   1.000  C
  H4660    1.0000 0.11772  0.77043  0.85630  Biso   1.000  H
  C4387    1.0000 0.27070  0.78463  0.86467  Biso   1.000  C
  H4661    1.0000 0.33808  0.74452  0.85430  Biso   1.000  H
  H4662    1.0000 0.36974  0.84911  0.85310  Biso   1.000  H
  C4388    1.0000 0.06517  0.87529  0.85361  Biso   1.000  C
  N627     1.0000 0.19110  0.84272  0.87513  Biso   1.000  N
  H4663    1.0000 0.29124  0.91500  0.86390  Biso   1.000  H
  H4664    1.0000 0.29112  0.91500  0.86390  Biso   1.000  H
  H4665    1.0000 0.31289  0.79742  0.87080  Biso   1.000  H
  H4666    1.0000 0.21852  0.72339  0.86570  Biso   1.000  H
  C4389    1.0000 0.03224  0.94138  0.85314  Biso   1.000  C
  C4390    1.0000 0.03212  0.94138  0.85314  Biso   1.000  C
  H4667    1.0000 0.02364  0.81263  0.85310  Biso   1.000  H
  C4391    1.0000 0.23123  0.90840  0.88206  Biso   1.000  C
  C4392    1.0000 0.09390  0.03567  0.85324  Biso   1.000  C
  C4393    1.0000 0.09384  0.03567  0.85324  Biso   1.000  C
  C4394    1.0000 0.94175  0.90611  0.85324  Biso   1.000  C
  C4395    1.0000 0.94181  0.90611  0.85324  Biso   1.000  C
  C4396    1.0000 0.19606  0.90288  0.89308  Biso   1.000  C
  H4668    1.0000 0.28475  0.96123  0.87990  Biso   1.000  H
  C4397    1.0000 0.19601  0.90288  0.89308  Biso   1.000  C
  C4398    1.0000 0.05857  0.09079  0.85314  Biso   1.000  C
  C4399    1.0000 0.05863  0.09079  0.85314  Biso   1.000  C
  H4669    1.0000 0.15710  0.05902  0.85340  Biso   1.000  H
  C4400    1.0000 0.90919  0.96783  0.85314  Biso   1.000  C
  H4670    1.0000 0.90187  0.84292  0.85340  Biso   1.000  H
  C4401    1.0000 0.11904  0.82670  0.89707  Biso   1.000  C
  C4402    1.0000 0.24402  0.97618  0.90055  Biso   1.000  C
  C4403    1.0000 0.12469  0.18993  0.85361  Biso   1.000  C
  C4404    1.0000 0.12475  0.18993  0.85361  Biso   1.000  C
  C4405    1.0000 0.96429  0.05822  0.85324  Biso   1.000  C
  C4406    1.0000 0.81002  0.93478  0.85361  Biso   1.000  C
  C4407    1.0000 0.81008  0.93478  0.85361  Biso   1.000  C
  C4408    1.0000 0.09089  0.82192  0.90765  Biso   1.000  C
  H4671    1.0000 0.08555  0.77710  0.89230  Biso   1.000  H
  H4672    1.0000 0.08544  0.77710  0.89230  Biso   1.000  H
  C4409    1.0000 0.20981  0.97140  0.91135  Biso   1.000  C
  H4673    1.0000 0.29839  0.02780  0.89830  Biso   1.000  H
  N628     1.0000 0.09698  0.24619  0.85468  Biso   1.000  N
  N629     1.0000 0.09704  0.24619  0.85468  Biso   1.000  N
  H4674    1.0000 0.18739  0.21099  0.85310  Biso   1.000  H
  H4675    1.0000 0.94100  0.09813  0.85340  Biso   1.000  H
  N630     1.0000 0.75375  0.85079  0.85468  Biso   1.000  N
  H4676    1.0000 0.78897  0.97638  0.85310  Biso   1.000  H
  N631     1.0000 0.75386  0.85079  0.85468  Biso   1.000  N
  H4677    1.0000 0.78903  0.97638  0.85310  Biso   1.000  H
  C4410    1.0000 0.13520  0.89400  0.91453  Biso   1.000  C
  C4411    1.0000 0.13514  0.89400  0.91453  Biso   1.000  C
  C4412    1.0000 0.00904  0.73692  0.91144  Biso   1.000  C
  C4413    1.0000 0.25918  0.04671  0.91900  Biso   1.000  C
  C4414    1.0000 0.25923  0.04671  0.91900  Biso   1.000  C
  C4415    1.0000 0.16987  0.34277  0.85508  Biso   1.000  C
  C4416    1.0000 0.16993  0.34277  0.85508  Biso   1.000  C
  C4417    1.0000 0.65715  0.82710  0.85508  Biso   1.000  C
  C4418    1.0000 0.65727  0.82710  0.85508  Biso   1.000  C
  H4678    1.0000 0.11334  0.89003  0.92180  Biso   1.000  H
  N632     1.0000 0.97911  0.72171  0.92112  Biso   1.000  N
  H4679    1.0000 0.97751  0.69122  0.90610  Biso   1.000  H
  H4680    1.0000 0.97757  0.69122  0.90610  Biso   1.000  H
  N633     1.0000 0.32637  0.12188  0.91653  Biso   1.000  N
  N634     1.0000 0.32643  0.12188  0.91653  Biso   1.000  N
  H4681    1.0000 0.23907  0.03809  0.92640  Biso   1.000  H
  H4682    1.0000 0.23913  0.03809  0.92640  Biso   1.000  H
  C4419    1.0000 0.16950  0.38551  0.84422  Biso   1.000  C
  C4420    1.0000 0.14750  0.38652  0.86467  Biso   1.000  C
  H4683    1.0000 0.22959  0.34728  0.85630  Biso   1.000  H
  C4421    1.0000 0.61452  0.78403  0.84422  Biso   1.000  C
  H4684    1.0000 0.65269  0.88229  0.85630  Biso   1.000  H
  C4422    1.0000 0.61344  0.76101  0.86467  Biso   1.000  C
  C4423    1.0000 0.61356  0.76101  0.86467  Biso   1.000  C
  C4424    1.0000 0.90340  0.63078  0.92291  Biso   1.000  C
  C4425    1.0000 0.36649  0.18522  0.92550  Biso   1.000  C
  C4426    1.0000 0.23267  0.48680  0.84442  Biso   1.000  C
  H4685    1.0000 0.18810  0.35872  0.83830  Biso   1.000  H
  H4686    1.0000 0.10761  0.37258  0.84260  Biso   1.000  H
  H4687    1.0000 0.10755  0.37258  0.84260  Biso   1.000  H
  C4427    1.0000 0.23273  0.48680  0.84442  Biso   1.000  C
  C4428    1.0000 0.21540  0.48606  0.86467  Biso   1.000  C
  C4429    1.0000 0.21538  0.48612  0.86467  Biso   1.000  C
  C4430    1.0000 0.21534  0.48606  0.86467  Biso   1.000  C
  C4431    1.0000 0.21543  0.48612  0.86467  Biso   1.000  C
  N635     1.0000 0.15731  0.34842  0.87513  Biso   1.000  N
  H4688    1.0000 0.08500  0.37622  0.86390  Biso   1.000  H
  H4689    1.0000 0.64128  0.82939  0.83830  Biso   1.000  H
  C4432    1.0000 0.51317  0.74593  0.84442  Biso   1.000  C
  H4690    1.0000 0.62738  0.73503  0.84260  Biso   1.000  H
  C4433    1.0000 0.51329  0.74593  0.84442  Biso   1.000  C
  N636     1.0000 0.65162  0.80893  0.87513  Biso   1.000  N
  H4691    1.0000 0.62376  0.70878  0.86390  Biso   1.000  H
  C4434    1.0000 0.51384  0.72931  0.86467  Biso   1.000  C
  C4435    1.0000 0.51390  0.72931  0.86467  Biso   1.000  C
  H4692    1.0000 0.89332  0.59464  0.91610  Biso   1.000  H
  C4436    1.0000 0.81869  0.63354  0.92550  Biso   1.000  C
  C4437    1.0000 0.81875  0.63354  0.92550  Biso   1.000  C
  C4438    1.0000 0.92634  0.58643  0.93231  Biso   1.000  C
  C4439    1.0000 0.36919  0.27257  0.92291  Biso   1.000  C
  C4440    1.0000 0.36914  0.27257  0.92291  Biso   1.000  C
  C4441    1.0000 0.46048  0.20009  0.92773  Biso   1.000  C
  H4693    1.0000 0.32886  0.15856  0.93220  Biso   1.000  H
  H4694    1.0000 0.32889  0.15863  0.93220  Biso   1.000  H
  H4695    1.0000 0.32895  0.15863  0.93220  Biso   1.000  H
  C4442    1.0000 0.21170  0.52832  0.85408  Biso   1.000  C
  H4696    1.0000 0.29571  0.49992  0.84490  Biso   1.000  H
  H4697    1.0000 0.22622  0.51351  0.83750  Biso   1.000  H
  H4698    1.0000 0.22616  0.51351  0.83750  Biso   1.000  H
  H4699    1.0000 0.27656  0.49507  0.86570  Biso   1.000  H
  H4700    1.0000 0.20260  0.51547  0.87080  Biso   1.000  H
  H4701    1.0000 0.20254  0.51547  0.87080  Biso   1.000  H
  H4702    1.0000 0.27662  0.49507  0.86570  Biso   1.000  H
  C4443    1.0000 0.09156  0.32278  0.88206  Biso   1.000  C
  C4444    1.0000 0.09162  0.32278  0.88206  Biso   1.000  C
  C4445    1.0000 0.47171  0.68341  0.85408  Biso   1.000  C
  H4703    1.0000 0.50011  0.79581  0.84490  Biso   1.000  H
  H4704    1.0000 0.48647  0.71269  0.83750  Biso   1.000  H
  H4705    1.0000 0.50016  0.79581  0.84490  Biso   1.000  H
  C4446    1.0000 0.67720  0.76882  0.88206  Biso   1.000  C
  C4447    1.0000 0.67726  0.76882  0.88206  Biso   1.000  C
  H4706    1.0000 0.48452  0.68711  0.87080  Biso   1.000  H
  H4707    1.0000 0.50492  0.78154  0.86570  Biso   1.000  H
  N637     1.0000 0.79541  0.67359  0.91653  Biso   1.000  N
  N638     1.0000 0.79547  0.67359  0.91653  Biso   1.000  N
  C4448    1.0000 0.73963  0.53952  0.92773  Biso   1.000  C
  H4708    1.0000 0.82966  0.67110  0.93220  Biso   1.000  H
  H4709    1.0000 0.93996  0.62358  0.93900  Biso   1.000  H
  H4710    1.0000 0.98032  0.58259  0.93040  Biso   1.000  H
  C4449    1.0000 0.84715  0.49194  0.93453  Biso   1.000  C
  H4711    1.0000 0.94002  0.62358  0.93900  Biso   1.000  H
  C4450    1.0000 0.84727  0.49194  0.93453  Biso   1.000  C
  N639     1.0000 0.27830  0.25736  0.92112  Biso   1.000  N
  N640     1.0000 0.27828  0.25743  0.92112  Biso   1.000  N
  N641     1.0000 0.27824  0.25736  0.92112  Biso   1.000  N
  N642     1.0000 0.27833  0.25743  0.92112  Biso   1.000  N
  H4712    1.0000 0.40539  0.29869  0.91610  Biso   1.000  H
  C4451    1.0000 0.41357  0.33988  0.93231  Biso   1.000  C
  C4452    1.0000 0.41363  0.33988  0.93231  Biso   1.000  C
  C4453    1.0000 0.50630  0.26887  0.93681  Biso   1.000  C
  C4454    1.0000 0.50624  0.26887  0.93681  Biso   1.000  C
  H4713    1.0000 0.45600  0.14241  0.92990  Biso   1.000  H
  H4714    1.0000 0.49703  0.22142  0.92100  Biso   1.000  H
  H4715    1.0000 0.49697  0.22142  0.92100  Biso   1.000  H
  H4716    1.0000 0.45595  0.14241  0.92990  Biso   1.000  H
  H4717    1.0000 0.25548  0.59360  0.85430  Biso   1.000  H
  H4718    1.0000 0.15089  0.52058  0.85310  Biso   1.000  H
  H4719    1.0000 0.25554  0.59360  0.85430  Biso   1.000  H
  C4455    1.0000 0.09712  0.29310  0.89308  Biso   1.000  C
  H4720    1.0000 0.03884  0.32352  0.87990  Biso   1.000  H
  C4456    1.0000 0.09707  0.29310  0.89308  Biso   1.000  C
  H4721    1.0000 0.03878  0.32352  0.87990  Biso   1.000  H
  H4722    1.0000 0.40633  0.66187  0.85430  Biso   1.000  H
  H4723    1.0000 0.47937  0.63031  0.85310  Biso   1.000  H
  H4724    1.0000 0.40642  0.66194  0.85430  Biso   1.000  H
  H4725    1.0000 0.40639  0.66187  0.85430  Biso   1.000  H
  H4726    1.0000 0.40636  0.66194  0.85430  Biso   1.000  H
  C4457    1.0000 0.70687  0.80402  0.89308  Biso   1.000  C
  H4727    1.0000 0.67651  0.71531  0.87990  Biso   1.000  H
  H4728    1.0000 0.67656  0.71531  0.87990  Biso   1.000  H
  C4458    1.0000 0.78747  0.74082  0.91900  Biso   1.000  C
  C4459    1.0000 0.76258  0.49369  0.93681  Biso   1.000  C
  H4729    1.0000 0.68634  0.54403  0.92990  Biso   1.000  H
  H4730    1.0000 0.72436  0.50304  0.92100  Biso   1.000  H
  C4460    1.0000 0.76264  0.49369  0.93681  Biso   1.000  C
  H4731    1.0000 0.68645  0.54403  0.92990  Biso   1.000  H
  H4732    1.0000 0.72442  0.50304  0.92100  Biso   1.000  H
  H4733    1.0000 0.83800  0.45324  0.92810  Biso   1.000  H
  H4734    1.0000 0.86161  0.46549  0.94090  Biso   1.000  H
  C4461    1.0000 0.26311  0.27210  0.91144  Biso   1.000  C
  C4462    1.0000 0.26305  0.27210  0.91144  Biso   1.000  C
  C4463    1.0000 0.50806  0.35529  0.93453  Biso   1.000  C
  H4735    1.0000 0.37641  0.31639  0.93900  Biso   1.000  H
  H4736    1.0000 0.41741  0.39769  0.93040  Biso   1.000  H
  H4737    1.0000 0.37636  0.31639  0.93900  Biso   1.000  H
  H4738    1.0000 0.41736  0.39769  0.93040  Biso   1.000  H
  C4464    1.0000 0.50812  0.35529  0.93453  Biso   1.000  C
  H4739    1.0000 0.47418  0.24357  0.94380  Biso   1.000  H
  H4740    1.0000 0.56878  0.28112  0.93770  Biso   1.000  H
  H4741    1.0000 0.56884  0.28112  0.93770  Biso   1.000  H
  C4465    1.0000 0.02380  0.26779  0.90055  Biso   1.000  C
  C4466    1.0000 0.17331  0.29229  0.89707  Biso   1.000  C
  C4467    1.0000 0.17325  0.29229  0.89707  Biso   1.000  C
  C4468    1.0000 0.70771  0.88101  0.89707  Biso   1.000  C
  C4469    1.0000 0.73219  0.75603  0.90055  Biso   1.000  C
  C4470    1.0000 0.76158  0.79022  0.91135  Biso   1.000  C
  H4742    1.0000 0.79901  0.76088  0.92640  Biso   1.000  H
  H4743    1.0000 0.76942  0.52579  0.94380  Biso   1.000  H
  H4744    1.0000 0.71223  0.43123  0.93770  Biso   1.000  H
  H4745    1.0000 0.71229  0.43123  0.93770  Biso   1.000  H
  C4471    1.0000 0.17810  0.26901  0.90765  Biso   1.000  C
  H4746    1.0000 0.30880  0.28630  0.90610  Biso   1.000  H
  H4747    1.0000 0.54676  0.38477  0.92810  Biso   1.000  H
  H4748    1.0000 0.53446  0.39607  0.94090  Biso   1.000  H
  H4749    1.0000 0.54682  0.38477  0.92810  Biso   1.000  H
  H4750    1.0000 0.53452  0.39607  0.94090  Biso   1.000  H
  H4751    1.0000 0.97223  0.27062  0.89830  Biso   1.000  H
  H4752    1.0000 0.97217  0.27062  0.89830  Biso   1.000  H
  C4472    1.0000 0.02862  0.23838  0.91135  Biso   1.000  C
  C4473    1.0000 0.02856  0.23838  0.91135  Biso   1.000  C
  H4753    1.0000 0.22291  0.30838  0.89230  Biso   1.000  H
  H4754    1.0000 0.22285  0.30838  0.89230  Biso   1.000  H
  C4474    1.0000 0.73096  0.90907  0.90765  Biso   1.000  C
  H4755    1.0000 0.69154  0.91453  0.89230  Biso   1.000  H
  H4756    1.0000 0.69160  0.91453  0.89230  Biso   1.000  H
  H4757    1.0000 0.72938  0.70158  0.89830  Biso   1.000  H
  C4475    1.0000 0.75882  0.86479  0.91453  Biso   1.000  C
  C4476    1.0000 0.10603  0.24121  0.91453  Biso   1.000  C
  C4477    1.0000 0.10598  0.24121  0.91453  Biso   1.000  C
  C4478    1.0000 0.95330  0.21247  0.91900  Biso   1.000  C
  C4479    1.0000 0.95324  0.21247  0.91900  Biso   1.000  C
  C4480    1.0000 0.72790  0.99098  0.91144  Biso   1.000  C
  C4481    1.0000 0.72796  0.99098  0.91144  Biso   1.000  C
  H4758    1.0000 0.77667  0.88673  0.92180  Biso   1.000  H
  H4759    1.0000 0.77679  0.88673  0.92180  Biso   1.000  H
  H4760    1.0000 0.11002  0.22331  0.92180  Biso   1.000  H
  H4761    1.0000 0.10996  0.22331  0.92180  Biso   1.000  H
  N643     1.0000 0.87807  0.20446  0.91653  Biso   1.000  N
  H4762    1.0000 0.96188  0.20096  0.92640  Biso   1.000  H
  N644     1.0000 0.87810  0.20453  0.91653  Biso   1.000  N
  H4763    1.0000 0.96191  0.20103  0.92640  Biso   1.000  H
  H4764    1.0000 0.96185  0.20103  0.92640  Biso   1.000  H
  N645     1.0000 0.74264  0.02093  0.92112  Biso   1.000  N
  N646     1.0000 0.74259  0.02093  0.92112  Biso   1.000  N
  H4765    1.0000 0.71369  0.02248  0.90610  Biso   1.000  H
  H4766    1.0000 0.71363  0.02248  0.90610  Biso   1.000  H
  C4482    1.0000 0.81479  0.18131  0.92550  Biso   1.000  C
  C4483    1.0000 0.72737  0.09658  0.92291  Biso   1.000  C
  C4484    1.0000 0.79989  0.26039  0.92773  Biso   1.000  C
  H4767    1.0000 0.84139  0.17027  0.93220  Biso   1.000  H
  C4485    1.0000 0.79983  0.26039  0.92773  Biso   1.000  C
  H4768    1.0000 0.84133  0.17027  0.93220  Biso   1.000  H
  H4769    1.0000 0.70129  0.10667  0.91610  Biso   1.000  H
  C4486    1.0000 0.66009  0.07370  0.93231  Biso   1.000  C
  H4770    1.0000 0.70124  0.10667  0.91610  Biso   1.000  H
  C4487    1.0000 0.73109  0.23737  0.93681  Biso   1.000  C
  H4771    1.0000 0.85760  0.31356  0.92990  Biso   1.000  H
  H4772    1.0000 0.77859  0.27560  0.92100  Biso   1.000  H
  H4773    1.0000 0.85758  0.31363  0.92990  Biso   1.000  H
  H4774    1.0000 0.85754  0.31356  0.92990  Biso   1.000  H
  C4488    1.0000 0.73103  0.23737  0.93681  Biso   1.000  C
  H4775    1.0000 0.68359  0.05997  0.93900  Biso   1.000  H
  H4776    1.0000 0.60233  0.01972  0.93040  Biso   1.000  H
  C4489    1.0000 0.64467  0.15278  0.93453  Biso   1.000  C
  H4777    1.0000 0.68363  0.06003  0.93900  Biso   1.000  H
  H4778    1.0000 0.60227  0.01972  0.93040  Biso   1.000  H
  H4779    1.0000 0.68357  0.06003  0.93900  Biso   1.000  H
  H4780    1.0000 0.75637  0.23058  0.94380  Biso   1.000  H
  H4781    1.0000 0.71890  0.28772  0.93770  Biso   1.000  H
  H4782    1.0000 0.61518  0.16200  0.92810  Biso   1.000  H
  H4783    1.0000 0.60390  0.13837  0.94090  Biso   1.000  H
  H4784    1.0000 0.60384  0.13837  0.94090  Biso   1.000  H
  C4490    1.0000 0.21602  0.83053  0.84422  Biso   1.000  C
  C4491    1.0000 0.25413  0.76734  0.84442  Biso   1.000  C
  C4492    1.0000 0.17298  0.83013  0.85508  Biso   1.000  C
  C4493    1.0000 0.17286  0.83013  0.85508  Biso   1.000  C
  H4785    1.0000 0.26507  0.89238  0.84260  Biso   1.000  H
  H4786    1.0000 0.17056  0.81189  0.83830  Biso   1.000  H
  H4787    1.0000 0.26501  0.89238  0.84260  Biso   1.000  H
  H4788    1.0000 0.28732  0.77380  0.83750  Biso   1.000  H
  H4789    1.0000 0.20421  0.70434  0.84490  Biso   1.000  H
  C4494    1.0000 0.31662  0.78834  0.85408  Biso   1.000  C
  C4495    1.0000 0.31656  0.78834  0.85408  Biso   1.000  C
  H4790    1.0000 0.20418  0.70427  0.84490  Biso   1.000  H
  N647     1.0000 0.14927  0.90302  0.85468  Biso   1.000  N
  N648     1.0000 0.14921  0.90302  0.85468  Biso   1.000  N
  C4496    1.0000 0.23905  0.85247  0.86467  Biso   1.000  C
  H4791    1.0000 0.11777  0.77043  0.85630  Biso   1.000  H
  C4497    1.0000 0.23894  0.85247  0.86467  Biso   1.000  C
  H4792    1.0000 0.11772  0.77043  0.85630  Biso   1.000  H
  C4498    1.0000 0.27070  0.78463  0.86467  Biso   1.000  C
  H4793    1.0000 0.33808  0.74452  0.85430  Biso   1.000  H
  H4794    1.0000 0.36974  0.84911  0.85310  Biso   1.000  H
  C4499    1.0000 0.06517  0.87529  0.85361  Biso   1.000  C
  N649     1.0000 0.19110  0.84272  0.87513  Biso   1.000  N
  H4795    1.0000 0.29124  0.91500  0.86390  Biso   1.000  H
  H4796    1.0000 0.29112  0.91500  0.86390  Biso   1.000  H
  H4797    1.0000 0.31289  0.79742  0.87080  Biso   1.000  H
  H4798    1.0000 0.21852  0.72339  0.86570  Biso   1.000  H
  C4500    1.0000 0.03224  0.94138  0.85314  Biso   1.000  C
  C4501    1.0000 0.03212  0.94138  0.85314  Biso   1.000  C
  H4799    1.0000 0.02364  0.81263  0.85310  Biso   1.000  H
  C4502    1.0000 0.23123  0.90840  0.88206  Biso   1.000  C
  C4503    1.0000 0.09390  0.03567  0.85324  Biso   1.000  C
  C4504    1.0000 0.09384  0.03567  0.85324  Biso   1.000  C
  C4505    1.0000 0.94175  0.90611  0.85324  Biso   1.000  C
  C4506    1.0000 0.94181  0.90611  0.85324  Biso   1.000  C
  C4507    1.0000 0.19606  0.90288  0.89308  Biso   1.000  C
  H4800    1.0000 0.28475  0.96123  0.87990  Biso   1.000  H
  C4508    1.0000 0.19601  0.90288  0.89308  Biso   1.000  C
  C4509    1.0000 0.05857  0.09079  0.85314  Biso   1.000  C
  C4510    1.0000 0.05863  0.09079  0.85314  Biso   1.000  C
  H4801    1.0000 0.15710  0.05902  0.85340  Biso   1.000  H
  C4511    1.0000 0.90919  0.96783  0.85314  Biso   1.000  C
  H4802    1.0000 0.90187  0.84292  0.85340  Biso   1.000  H
  C4512    1.0000 0.11904  0.82670  0.89707  Biso   1.000  C
  C4513    1.0000 0.24402  0.97618  0.90055  Biso   1.000  C
  C4514    1.0000 0.12469  0.18993  0.85361  Biso   1.000  C
  C4515    1.0000 0.12475  0.18993  0.85361  Biso   1.000  C
  C4516    1.0000 0.96429  0.05822  0.85324  Biso   1.000  C
  C4517    1.0000 0.81002  0.93478  0.85361  Biso   1.000  C
  C4518    1.0000 0.81008  0.93478  0.85361  Biso   1.000  C
  C4519    1.0000 0.09089  0.82192  0.90765  Biso   1.000  C
  H4803    1.0000 0.08555  0.77710  0.89230  Biso   1.000  H
  H4804    1.0000 0.08544  0.77710  0.89230  Biso   1.000  H
  C4520    1.0000 0.20981  0.97140  0.91135  Biso   1.000  C
  H4805    1.0000 0.29839  0.02780  0.89830  Biso   1.000  H
  N650     1.0000 0.09698  0.24619  0.85468  Biso   1.000  N
  N651     1.0000 0.09704  0.24619  0.85468  Biso   1.000  N
  H4806    1.0000 0.18739  0.21099  0.85310  Biso   1.000  H
  H4807    1.0000 0.94100  0.09813  0.85340  Biso   1.000  H
  N652     1.0000 0.75375  0.85079  0.85468  Biso   1.000  N
  H4808    1.0000 0.78897  0.97638  0.85310  Biso   1.000  H
  N653     1.0000 0.75386  0.85079  0.85468  Biso   1.000  N
  H4809    1.0000 0.78903  0.97638  0.85310  Biso   1.000  H
  C4521    1.0000 0.13520  0.89400  0.91453  Biso   1.000  C
  C4522    1.0000 0.13514  0.89400  0.91453  Biso   1.000  C
  C4523    1.0000 0.00904  0.73692  0.91144  Biso   1.000  C
  C4524    1.0000 0.25918  0.04671  0.91900  Biso   1.000  C
  C4525    1.0000 0.25923  0.04671  0.91900  Biso   1.000  C
  C4526    1.0000 0.16987  0.34277  0.85508  Biso   1.000  C
  C4527    1.0000 0.16993  0.34277  0.85508  Biso   1.000  C
  C4528    1.0000 0.65715  0.82710  0.85508  Biso   1.000  C
  C4529    1.0000 0.65727  0.82710  0.85508  Biso   1.000  C
  H4810    1.0000 0.11334  0.89003  0.92180  Biso   1.000  H
  N654     1.0000 0.97911  0.72171  0.92112  Biso   1.000  N
  H4811    1.0000 0.97751  0.69122  0.90610  Biso   1.000  H
  H4812    1.0000 0.97757  0.69122  0.90610  Biso   1.000  H
  N655     1.0000 0.32637  0.12188  0.91653  Biso   1.000  N
  N656     1.0000 0.32643  0.12188  0.91653  Biso   1.000  N
  H4813    1.0000 0.23907  0.03809  0.92640  Biso   1.000  H
  H4814    1.0000 0.23913  0.03809  0.92640  Biso   1.000  H
  C4530    1.0000 0.16950  0.38551  0.84422  Biso   1.000  C
  C4531    1.0000 0.14750  0.38652  0.86467  Biso   1.000  C
  H4815    1.0000 0.22959  0.34728  0.85630  Biso   1.000  H
  C4532    1.0000 0.61452  0.78403  0.84422  Biso   1.000  C
  H4816    1.0000 0.65269  0.88229  0.85630  Biso   1.000  H
  C4533    1.0000 0.61344  0.76101  0.86467  Biso   1.000  C
  C4534    1.0000 0.61356  0.76101  0.86467  Biso   1.000  C
  C4535    1.0000 0.90340  0.63078  0.92291  Biso   1.000  C
  C4536    1.0000 0.36649  0.18522  0.92550  Biso   1.000  C
  H4817    1.0000 0.18810  0.35872  0.83830  Biso   1.000  H
  C4537    1.0000 0.23267  0.48680  0.84442  Biso   1.000  C
  H4818    1.0000 0.10761  0.37258  0.84260  Biso   1.000  H
  H4819    1.0000 0.10755  0.37258  0.84260  Biso   1.000  H
  C4538    1.0000 0.23273  0.48680  0.84442  Biso   1.000  C
  C4539    1.0000 0.21540  0.48606  0.86467  Biso   1.000  C
  C4540    1.0000 0.21538  0.48612  0.86467  Biso   1.000  C
  C4541    1.0000 0.21534  0.48606  0.86467  Biso   1.000  C
  C4542    1.0000 0.21543  0.48612  0.86467  Biso   1.000  C
  N657     1.0000 0.15731  0.34842  0.87513  Biso   1.000  N
  H4820    1.0000 0.08500  0.37622  0.86390  Biso   1.000  H
  H4821    1.0000 0.64128  0.82939  0.83830  Biso   1.000  H
  C4543    1.0000 0.51317  0.74593  0.84442  Biso   1.000  C
  H4822    1.0000 0.62738  0.73503  0.84260  Biso   1.000  H
  C4544    1.0000 0.51329  0.74593  0.84442  Biso   1.000  C
  N658     1.0000 0.65162  0.80893  0.87513  Biso   1.000  N
  H4823    1.0000 0.62376  0.70878  0.86390  Biso   1.000  H
  C4545    1.0000 0.51384  0.72931  0.86467  Biso   1.000  C
  C4546    1.0000 0.51390  0.72931  0.86467  Biso   1.000  C
  H4824    1.0000 0.89332  0.59464  0.91610  Biso   1.000  H
  C4547    1.0000 0.81869  0.63354  0.92550  Biso   1.000  C
  C4548    1.0000 0.81875  0.63354  0.92550  Biso   1.000  C
  C4549    1.0000 0.92634  0.58643  0.93231  Biso   1.000  C
  C4550    1.0000 0.36919  0.27257  0.92291  Biso   1.000  C
  C4551    1.0000 0.36914  0.27257  0.92291  Biso   1.000  C
  C4552    1.0000 0.46048  0.20009  0.92773  Biso   1.000  C
  H4825    1.0000 0.32886  0.15856  0.93220  Biso   1.000  H
  H4826    1.0000 0.32889  0.15863  0.93220  Biso   1.000  H
  H4827    1.0000 0.32895  0.15863  0.93220  Biso   1.000  H
  C4553    1.0000 0.21170  0.52832  0.85408  Biso   1.000  C
  H4828    1.0000 0.29571  0.49992  0.84490  Biso   1.000  H
  H4829    1.0000 0.22622  0.51351  0.83750  Biso   1.000  H
  H4830    1.0000 0.22616  0.51351  0.83750  Biso   1.000  H
  H4831    1.0000 0.20260  0.51547  0.87080  Biso   1.000  H
  H4832    1.0000 0.27656  0.49507  0.86570  Biso   1.000  H
  H4833    1.0000 0.20254  0.51547  0.87080  Biso   1.000  H
  H4834    1.0000 0.27662  0.49507  0.86570  Biso   1.000  H
  C4554    1.0000 0.09156  0.32278  0.88206  Biso   1.000  C
  C4555    1.0000 0.09162  0.32278  0.88206  Biso   1.000  C
  C4556    1.0000 0.47171  0.68341  0.85408  Biso   1.000  C
  H4835    1.0000 0.50011  0.79581  0.84490  Biso   1.000  H
  H4836    1.0000 0.48647  0.71269  0.83750  Biso   1.000  H
  H4837    1.0000 0.50016  0.79581  0.84490  Biso   1.000  H
  C4557    1.0000 0.67720  0.76882  0.88206  Biso   1.000  C
  C4558    1.0000 0.67726  0.76882  0.88206  Biso   1.000  C
  H4838    1.0000 0.48452  0.68711  0.87080  Biso   1.000  H
  H4839    1.0000 0.50492  0.78154  0.86570  Biso   1.000  H
  N659     1.0000 0.79541  0.67359  0.91653  Biso   1.000  N
  N660     1.0000 0.79547  0.67359  0.91653  Biso   1.000  N
  C4559    1.0000 0.73963  0.53952  0.92773  Biso   1.000  C
  H4840    1.0000 0.82966  0.67110  0.93220  Biso   1.000  H
  H4841    1.0000 0.93996  0.62358  0.93900  Biso   1.000  H
  H4842    1.0000 0.98032  0.58259  0.93040  Biso   1.000  H
  C4560    1.0000 0.84715  0.49194  0.93453  Biso   1.000  C
  H4843    1.0000 0.94002  0.62358  0.93900  Biso   1.000  H
  C4561    1.0000 0.84727  0.49194  0.93453  Biso   1.000  C
  N661     1.0000 0.27830  0.25736  0.92112  Biso   1.000  N
  N662     1.0000 0.27828  0.25743  0.92112  Biso   1.000  N
  N663     1.0000 0.27824  0.25736  0.92112  Biso   1.000  N
  N664     1.0000 0.27833  0.25743  0.92112  Biso   1.000  N
  H4844    1.0000 0.40539  0.29869  0.91610  Biso   1.000  H
  C4562    1.0000 0.41357  0.33988  0.93231  Biso   1.000  C
  C4563    1.0000 0.41363  0.33988  0.93231  Biso   1.000  C
  C4564    1.0000 0.50630  0.26887  0.93681  Biso   1.000  C
  H4845    1.0000 0.45600  0.14241  0.92990  Biso   1.000  H
  H4846    1.0000 0.49703  0.22142  0.92100  Biso   1.000  H
  C4565    1.0000 0.50624  0.26887  0.93681  Biso   1.000  C
  H4847    1.0000 0.49697  0.22142  0.92100  Biso   1.000  H
  H4848    1.0000 0.45595  0.14241  0.92990  Biso   1.000  H
  H4849    1.0000 0.15089  0.52058  0.85310  Biso   1.000  H
  H4850    1.0000 0.25548  0.59360  0.85430  Biso   1.000  H
  H4851    1.0000 0.25554  0.59360  0.85430  Biso   1.000  H
  C4566    1.0000 0.09712  0.29310  0.89308  Biso   1.000  C
  H4852    1.0000 0.03884  0.32352  0.87990  Biso   1.000  H
  C4567    1.0000 0.09707  0.29310  0.89308  Biso   1.000  C
  H4853    1.0000 0.03878  0.32352  0.87990  Biso   1.000  H
  H4854    1.0000 0.40633  0.66187  0.85430  Biso   1.000  H
  H4855    1.0000 0.47937  0.63031  0.85310  Biso   1.000  H
  H4856    1.0000 0.40642  0.66194  0.85430  Biso   1.000  H
  H4857    1.0000 0.40639  0.66187  0.85430  Biso   1.000  H
  H4858    1.0000 0.40636  0.66194  0.85430  Biso   1.000  H
  C4568    1.0000 0.70687  0.80402  0.89308  Biso   1.000  C
  H4859    1.0000 0.67651  0.71531  0.87990  Biso   1.000  H
  H4860    1.0000 0.67656  0.71531  0.87990  Biso   1.000  H
  C4569    1.0000 0.78747  0.74082  0.91900  Biso   1.000  C
  C4570    1.0000 0.76258  0.49369  0.93681  Biso   1.000  C
  H4861    1.0000 0.68634  0.54403  0.92990  Biso   1.000  H
  H4862    1.0000 0.72436  0.50304  0.92100  Biso   1.000  H
  C4571    1.0000 0.76264  0.49369  0.93681  Biso   1.000  C
  H4863    1.0000 0.68645  0.54403  0.92990  Biso   1.000  H
  H4864    1.0000 0.72442  0.50304  0.92100  Biso   1.000  H
  H4865    1.0000 0.83800  0.45324  0.92810  Biso   1.000  H
  H4866    1.0000 0.86161  0.46549  0.94090  Biso   1.000  H
  C4572    1.0000 0.26311  0.27210  0.91144  Biso   1.000  C
  C4573    1.0000 0.26305  0.27210  0.91144  Biso   1.000  C
  H4867    1.0000 0.37641  0.31639  0.93900  Biso   1.000  H
  H4868    1.0000 0.41741  0.39769  0.93040  Biso   1.000  H
  C4574    1.0000 0.50806  0.35529  0.93453  Biso   1.000  C
  H4869    1.0000 0.37636  0.31639  0.93900  Biso   1.000  H
  H4870    1.0000 0.41736  0.39769  0.93040  Biso   1.000  H
  C4575    1.0000 0.50812  0.35529  0.93453  Biso   1.000  C
  H4871    1.0000 0.47418  0.24357  0.94380  Biso   1.000  H
  H4872    1.0000 0.56878  0.28112  0.93770  Biso   1.000  H
  H4873    1.0000 0.56884  0.28112  0.93770  Biso   1.000  H
  C4576    1.0000 0.02380  0.26779  0.90055  Biso   1.000  C
  C4577    1.0000 0.17331  0.29229  0.89707  Biso   1.000  C
  C4578    1.0000 0.17325  0.29229  0.89707  Biso   1.000  C
  C4579    1.0000 0.70771  0.88101  0.89707  Biso   1.000  C
  C4580    1.0000 0.73219  0.75603  0.90055  Biso   1.000  C
  C4581    1.0000 0.76158  0.79022  0.91135  Biso   1.000  C
  H4874    1.0000 0.79901  0.76088  0.92640  Biso   1.000  H
  H4875    1.0000 0.76942  0.52579  0.94380  Biso   1.000  H
  H4876    1.0000 0.71223  0.43123  0.93770  Biso   1.000  H
  H4877    1.0000 0.71229  0.43123  0.93770  Biso   1.000  H
  C4582    1.0000 0.17810  0.26901  0.90765  Biso   1.000  C
  H4878    1.0000 0.30880  0.28630  0.90610  Biso   1.000  H
  H4879    1.0000 0.54676  0.38477  0.92810  Biso   1.000  H
  H4880    1.0000 0.53446  0.39607  0.94090  Biso   1.000  H
  H4881    1.0000 0.54682  0.38477  0.92810  Biso   1.000  H
  H4882    1.0000 0.53452  0.39607  0.94090  Biso   1.000  H
  H4883    1.0000 0.97223  0.27062  0.89830  Biso   1.000  H
  H4884    1.0000 0.97217  0.27062  0.89830  Biso   1.000  H
  C4583    1.0000 0.02862  0.23838  0.91135  Biso   1.000  C
  C4584    1.0000 0.02856  0.23838  0.91135  Biso   1.000  C
  H4885    1.0000 0.22291  0.30838  0.89230  Biso   1.000  H
  H4886    1.0000 0.22285  0.30838  0.89230  Biso   1.000  H
  C4585    1.0000 0.73096  0.90907  0.90765  Biso   1.000  C
  H4887    1.0000 0.69154  0.91453  0.89230  Biso   1.000  H
  H4888    1.0000 0.69160  0.91453  0.89230  Biso   1.000  H
  H4889    1.0000 0.72938  0.70158  0.89830  Biso   1.000  H
  C4586    1.0000 0.75882  0.86479  0.91453  Biso   1.000  C
  C4587    1.0000 0.10603  0.24121  0.91453  Biso   1.000  C
  C4588    1.0000 0.10598  0.24121  0.91453  Biso   1.000  C
  C4589    1.0000 0.95330  0.21247  0.91900  Biso   1.000  C
  C4590    1.0000 0.95324  0.21247  0.91900  Biso   1.000  C
  C4591    1.0000 0.72790  0.99098  0.91144  Biso   1.000  C
  C4592    1.0000 0.72796  0.99098  0.91144  Biso   1.000  C
  H4890    1.0000 0.77667  0.88673  0.92180  Biso   1.000  H
  H4891    1.0000 0.77679  0.88673  0.92180  Biso   1.000  H
  H4892    1.0000 0.11002  0.22331  0.92180  Biso   1.000  H
  H4893    1.0000 0.10996  0.22331  0.92180  Biso   1.000  H
  N665     1.0000 0.87807  0.20446  0.91653  Biso   1.000  N
  H4894    1.0000 0.96188  0.20096  0.92640  Biso   1.000  H
  N666     1.0000 0.87810  0.20453  0.91653  Biso   1.000  N
  H4895    1.0000 0.96191  0.20103  0.92640  Biso   1.000  H
  H4896    1.0000 0.96185  0.20103  0.92640  Biso   1.000  H
  N667     1.0000 0.74264  0.02093  0.92112  Biso   1.000  N
  N668     1.0000 0.74259  0.02093  0.92112  Biso   1.000  N
  H4897    1.0000 0.71369  0.02248  0.90610  Biso   1.000  H
  H4898    1.0000 0.71363  0.02248  0.90610  Biso   1.000  H
  C4593    1.0000 0.81479  0.18131  0.92550  Biso   1.000  C
  C4594    1.0000 0.72737  0.09658  0.92291  Biso   1.000  C
  C4595    1.0000 0.79989  0.26039  0.92773  Biso   1.000  C
  H4899    1.0000 0.84139  0.17027  0.93220  Biso   1.000  H
  C4596    1.0000 0.79983  0.26039  0.92773  Biso   1.000  C
  H4900    1.0000 0.84133  0.17027  0.93220  Biso   1.000  H
  H4901    1.0000 0.70129  0.10667  0.91610  Biso   1.000  H
  C4597    1.0000 0.66009  0.07370  0.93231  Biso   1.000  C
  H4902    1.0000 0.70124  0.10667  0.91610  Biso   1.000  H
  C4598    1.0000 0.73109  0.23737  0.93681  Biso   1.000  C
  H4903    1.0000 0.85760  0.31356  0.92990  Biso   1.000  H
  H4904    1.0000 0.77859  0.27560  0.92100  Biso   1.000  H
  H4905    1.0000 0.85758  0.31363  0.92990  Biso   1.000  H
  H4906    1.0000 0.85754  0.31356  0.92990  Biso   1.000  H
  C4599    1.0000 0.73103  0.23737  0.93681  Biso   1.000  C
  H4907    1.0000 0.68359  0.05997  0.93900  Biso   1.000  H
  H4908    1.0000 0.60233  0.01972  0.93040  Biso   1.000  H
  C4600    1.0000 0.64467  0.15278  0.93453  Biso   1.000  C
  H4909    1.0000 0.68363  0.06003  0.93900  Biso   1.000  H
  H4910    1.0000 0.60227  0.01972  0.93040  Biso   1.000  H
  H4911    1.0000 0.68357  0.06003  0.93900  Biso   1.000  H
  H4912    1.0000 0.75637  0.23058  0.94380  Biso   1.000  H
  H4913    1.0000 0.71890  0.28772  0.93770  Biso   1.000  H
  H4914    1.0000 0.61518  0.16200  0.92810  Biso   1.000  H
  H4915    1.0000 0.60390  0.13837  0.94090  Biso   1.000  H
  H4916    1.0000 0.60384  0.13837  0.94090  Biso   1.000  H
