data_image0
_cell_length_a       22.593
_cell_length_b       22.593
_cell_length_c       31.714
_cell_angle_alpha    90
_cell_angle_beta     90
_cell_angle_gamma    120

_symmetry_space_group_name_H-M    "P 1"
_symmetry_int_tables_number       1

loop_
  _symmetry_equiv_pos_as_xyz
  'x, y, z'

loop_
  _atom_site_label
  _atom_site_occupancy
  _atom_site_fract_x
  _atom_site_fract_y
  _atom_site_fract_z
  _atom_site_thermal_displace_type
  _atom_site_B_iso_or_equiv
  _atom_site_type_symbol
  N1       1.0000 0.09109  0.85362  0.44044  Biso   1.000  N
  C1       1.0000 0.05857  0.77982  0.44709  Biso   1.000  C
  C2       1.0000 0.09128  0.87243  0.40254  Biso   1.000  C
  C3       1.0000 0.09991  0.76275  0.47749  Biso   1.000  C
  C4       1.0000 0.09987  0.76275  0.47749  Biso   1.000  C
  H1       1.0000 0.05509  0.75702  0.41944  Biso   1.000  H
  N2       1.0000 0.09104  0.85362  0.44044  Biso   1.000  N
  H2       1.0000 0.05505  0.75702  0.41944  Biso   1.000  H
  C5       1.0000 0.98639  0.75365  0.46465  Biso   1.000  C
  C6       1.0000 0.11678  0.94521  0.39163  Biso   1.000  C
  H3       1.0000 0.07467  0.83910  0.38075  Biso   1.000  H
  C7       1.0000 0.11677  0.94526  0.39163  Biso   1.000  C
  H4       1.0000 0.07469  0.83915  0.38075  Biso   1.000  H
  C8       1.0000 0.06358  0.68522  0.48635  Biso   1.000  C
  H5       1.0000 0.10607  0.78754  0.50432  Biso   1.000  H
  H6       1.0000 0.14556  0.77782  0.46535  Biso   1.000  H
  C9       1.0000 0.06354  0.68522  0.48635  Biso   1.000  C
  C10      1.0000 0.95047  0.67694  0.47254  Biso   1.000  C
  N3       1.0000 0.94997  0.77021  0.43322  Biso   1.000  N
  H7       1.0000 0.98919  0.77782  0.49164  Biso   1.000  H
  H8       1.0000 0.98914  0.77782  0.49164  Biso   1.000  H
  C11      1.0000 0.11469  0.96350  0.34981  Biso   1.000  C
  C12      1.0000 0.14129  0.99493  0.42290  Biso   1.000  C
  C13      1.0000 0.11467  0.96355  0.34981  Biso   1.000  C
  C14      1.0000 0.14125  0.99493  0.42290  Biso   1.000  C
  H9       1.0000 0.06179  0.66073  0.46002  Biso   1.000  H
  H10      1.0000 0.09017  0.67581  0.50744  Biso   1.000  H
  C15      1.0000 0.99199  0.65941  0.50265  Biso   1.000  C
  C16      1.0000 0.99197  0.65946  0.50265  Biso   1.000  C
  H11      1.0000 0.90471  0.66145  0.48474  Biso   1.000  H
  H12      1.0000 0.94438  0.65271  0.44542  Biso   1.000  H
  H13      1.0000 0.90466  0.66145  0.48474  Biso   1.000  H
  H14      1.0000 0.94433  0.65271  0.44542  Biso   1.000  H
  C17      1.0000 0.92550  0.80731  0.44397  Biso   1.000  C
  C18      1.0000 0.92546  0.80731  0.44397  Biso   1.000  C
  H15      1.0000 0.09670  0.92911  0.32862  Biso   1.000  H
  H16      1.0000 0.09668  0.92916  0.32862  Biso   1.000  H
  C19      1.0000 0.13859  0.03184  0.33856  Biso   1.000  C
  H17      1.0000 0.14056  0.98231  0.45154  Biso   1.000  H
  C20      1.0000 0.16642  0.06270  0.41209  Biso   1.000  C
  C21      1.0000 0.16644  0.06276  0.41209  Biso   1.000  C
  H18      1.0000 0.99419  0.68000  0.53052  Biso   1.000  H
  H19      1.0000 0.96888  0.60922  0.50624  Biso   1.000  H
  H20      1.0000 0.99417  0.68005  0.53052  Biso   1.000  H
  H21      1.0000 0.96884  0.60922  0.50624  Biso   1.000  H
  H22      1.0000 0.92570  0.81851  0.47282  Biso   1.000  H
  C22      1.0000 0.89630  0.83353  0.41209  Biso   1.000  C
  H23      1.0000 0.92568  0.81856  0.47282  Biso   1.000  H
  C23      1.0000 0.89625  0.83353  0.41209  Biso   1.000  C
  C24      1.0000 0.16366  0.08075  0.37025  Biso   1.000  C
  C25      1.0000 0.14017  0.05340  0.29372  Biso   1.000  C
  C26      1.0000 0.14019  0.05345  0.29372  Biso   1.000  C
  C27      1.0000 0.19266  0.11811  0.44397  Biso   1.000  C
  C28      1.0000 0.19268  0.11816  0.44397  Biso   1.000  C
  C29      1.0000 0.91709  0.83634  0.37025  Biso   1.000  C
  C30      1.0000 0.85370  0.85873  0.42290  Biso   1.000  C
  C31      1.0000 0.85366  0.85873  0.42290  Biso   1.000  C
  H24      1.0000 0.17921  0.12715  0.36344  Biso   1.000  H
  H25      1.0000 0.17917  0.12715  0.36344  Biso   1.000  H
  C32      1.0000 0.18207  0.12163  0.28189  Biso   1.000  C
  C33      1.0000 0.10080  0.00751  0.26244  Biso   1.000  C
  C34      1.0000 0.10078  0.00756  0.26244  Biso   1.000  C
  N4       1.0000 0.22976  0.17974  0.43322  Biso   1.000  N
  H26      1.0000 0.18150  0.10712  0.47282  Biso   1.000  H
  H27      1.0000 0.18141  0.10712  0.47282  Biso   1.000  H
  H28      1.0000 0.94796  0.82081  0.36344  Biso   1.000  H
  C35      1.0000 0.89330  0.86144  0.33856  Biso   1.000  C
  H29      1.0000 0.94798  0.82086  0.36344  Biso   1.000  H
  C36      1.0000 0.89325  0.86144  0.33856  Biso   1.000  C
  C37      1.0000 0.82850  0.88321  0.39163  Biso   1.000  C
  H30      1.0000 0.84180  0.85945  0.45154  Biso   1.000  H
  C38      1.0000 0.82845  0.88321  0.39163  Biso   1.000  C
  H31      1.0000 0.84175  0.85945  0.45154  Biso   1.000  H
  H32      1.0000 0.20967  0.15434  0.30255  Biso   1.000  H
  C39      1.0000 0.18394  0.14254  0.24062  Biso   1.000  C
  H33      1.0000 0.07071  0.96115  0.26963  Biso   1.000  H
  H34      1.0000 0.07067  0.96115  0.26963  Biso   1.000  H
  C40      1.0000 0.10475  0.02851  0.22075  Biso   1.000  C
  C41      1.0000 0.24635  0.23274  0.46465  Biso   1.000  C
  C42      1.0000 0.84889  0.88531  0.34981  Biso   1.000  C
  C43      1.0000 0.91328  0.85980  0.29372  Biso   1.000  C
  C44      1.0000 0.84887  0.88536  0.34981  Biso   1.000  C
  C45      1.0000 0.91326  0.85985  0.29372  Biso   1.000  C
  C46      1.0000 0.78118  0.90871  0.40254  Biso   1.000  C
  C47      1.0000 0.78114  0.90871  0.40254  Biso   1.000  C
  H35      1.0000 0.21149  0.18951  0.23375  Biso   1.000  H
  C48      1.0000 0.14686  0.09654  0.20925  Biso   1.000  C
  H36      1.0000 0.21143  0.18956  0.23375  Biso   1.000  H
  H37      1.0000 0.07839  0.99580  0.19985  Biso   1.000  H
  H38      1.0000 0.07837  0.99585  0.19985  Biso   1.000  H
  C49      1.0000 0.22021  0.27874  0.44709  Biso   1.000  C
  C50      1.0000 0.32304  0.27353  0.47254  Biso   1.000  C
  H39      1.0000 0.22214  0.21133  0.49164  Biso   1.000  H
  C51      1.0000 0.22013  0.27874  0.44709  Biso   1.000  C
  H40      1.0000 0.83250  0.90335  0.32862  Biso   1.000  H
  H41      1.0000 0.83246  0.90335  0.32862  Biso   1.000  H
  C52      1.0000 0.93958  0.81794  0.28189  Biso   1.000  C
  C53      1.0000 0.90678  0.89921  0.26244  Biso   1.000  C
  C54      1.0000 0.90676  0.89926  0.26244  Biso   1.000  C
  N5       1.0000 0.76256  0.90892  0.44044  Biso   1.000  N
  H42      1.0000 0.76448  0.92532  0.38075  Biso   1.000  H
  C55      1.0000 0.15171  0.11703  0.16393  Biso   1.000  C
  C56      1.0000 0.15162  0.11703  0.16393  Biso   1.000  C
  N6       1.0000 0.14641  0.23745  0.44044  Biso   1.000  N
  H43      1.0000 0.24295  0.29801  0.41944  Biso   1.000  H
  C57      1.0000 0.23723  0.33711  0.47749  Biso   1.000  C
  N7       1.0000 0.14636  0.23745  0.44044  Biso   1.000  N
  H44      1.0000 0.24291  0.29801  0.41944  Biso   1.000  H
  C58      1.0000 0.23725  0.33716  0.47749  Biso   1.000  C
  C59      1.0000 0.34053  0.33251  0.50265  Biso   1.000  C
  H45      1.0000 0.33860  0.24322  0.48474  Biso   1.000  H
  H46      1.0000 0.34727  0.29162  0.44542  Biso   1.000  H
  H47      1.0000 0.33851  0.24322  0.48474  Biso   1.000  H
  H48      1.0000 0.94468  0.79035  0.30255  Biso   1.000  H
  C60      1.0000 0.95857  0.81600  0.24062  Biso   1.000  C
  C61      1.0000 0.95860  0.81605  0.24062  Biso   1.000  C
  C62      1.0000 0.92378  0.89522  0.22075  Biso   1.000  C
  H49      1.0000 0.89050  0.92931  0.26963  Biso   1.000  H
  H50      1.0000 0.89045  0.92931  0.26963  Biso   1.000  H
  C63      1.0000 0.72128  0.94142  0.44709  Biso   1.000  C
  C64      1.0000 0.13496  0.16605  0.15097  Biso   1.000  C
  C65      1.0000 0.16972  0.08463  0.13392  Biso   1.000  C
  C66      1.0000 0.12759  0.21884  0.40254  Biso   1.000  C
  H51      1.0000 0.21243  0.31850  0.50432  Biso   1.000  H
  H52      1.0000 0.22217  0.36772  0.46535  Biso   1.000  H
  C67      1.0000 0.31477  0.37835  0.48635  Biso   1.000  C
  H53      1.0000 0.21246  0.31856  0.50432  Biso   1.000  H
  C68      1.0000 0.31472  0.37835  0.48635  Biso   1.000  C
  H54      1.0000 0.31991  0.31411  0.53052  Biso   1.000  H
  H55      1.0000 0.39080  0.35965  0.50624  Biso   1.000  H
  H56      1.0000 0.39071  0.35965  0.50624  Biso   1.000  H
  H57      1.0000 0.97806  0.78851  0.23375  Biso   1.000  H
  C69      1.0000 0.94968  0.85311  0.20925  Biso   1.000  C
  H58      1.0000 0.97809  0.78856  0.23375  Biso   1.000  H
  C70      1.0000 0.94966  0.85316  0.20925  Biso   1.000  C
  H59      1.0000 0.91751  0.92164  0.19985  Biso   1.000  H
  H60      1.0000 0.91747  0.92164  0.19985  Biso   1.000  H
  H61      1.0000 0.70202  0.94495  0.41944  Biso   1.000  H
  C71      1.0000 0.66287  0.90013  0.47749  Biso   1.000  C
  H62      1.0000 0.70197  0.94495  0.41944  Biso   1.000  H
  C72      1.0000 0.76725  0.01364  0.46465  Biso   1.000  C
  H63      1.0000 0.12264  0.18884  0.17134  Biso   1.000  H
  C73      1.0000 0.13633  0.18153  0.10822  Biso   1.000  C
  C74      1.0000 0.17269  0.10083  0.09135  Biso   1.000  C
  H64      1.0000 0.18035  0.05075  0.14243  Biso   1.000  H
  C75      1.0000 0.17260  0.10083  0.09135  Biso   1.000  C
  C76      1.0000 0.05480  0.17152  0.39163  Biso   1.000  C
  H65      1.0000 0.16088  0.23550  0.38075  Biso   1.000  H
  C77      1.0000 0.05471  0.17152  0.39163  Biso   1.000  C
  H66      1.0000 0.16087  0.23555  0.38075  Biso   1.000  H
  H67      1.0000 0.33926  0.40104  0.46002  Biso   1.000  H
  H68      1.0000 0.32417  0.41433  0.50744  Biso   1.000  H
  C78      1.0000 0.96538  0.84830  0.16393  Biso   1.000  C
  C79      1.0000 0.96536  0.84835  0.16393  Biso   1.000  C
  H69      1.0000 0.68151  0.89394  0.50432  Biso   1.000  H
  H70      1.0000 0.63228  0.85444  0.46535  Biso   1.000  H
  C80      1.0000 0.62166  0.93641  0.48635  Biso   1.000  C
  H71      1.0000 0.68147  0.89394  0.50432  Biso   1.000  H
  N8       1.0000 0.82028  0.05003  0.43322  Biso   1.000  N
  C81      1.0000 0.72650  0.04952  0.47254  Biso   1.000  C
  H72      1.0000 0.78864  0.01083  0.49164  Biso   1.000  H
  C82      1.0000 0.72641  0.04952  0.47254  Biso   1.000  C
  H73      1.0000 0.78860  0.01083  0.49164  Biso   1.000  H
  C83      1.0000 0.15314  0.14734  0.07870  Biso   1.000  C
  C84      1.0000 0.11306  0.22963  0.09460  Biso   1.000  C
  C85      1.0000 0.19218  0.06644  0.06023  Biso   1.000  C
  C86      1.0000 0.03646  0.15112  0.34981  Biso   1.000  C
  C87      1.0000 0.00506  0.14632  0.42290  Biso   1.000  C
  C88      1.0000 0.03641  0.15112  0.34981  Biso   1.000  C
  C89      1.0000 0.03110  0.86502  0.15097  Biso   1.000  C
  C90      1.0000 0.03106  0.86502  0.15097  Biso   1.000  C
  C91      1.0000 0.91486  0.83021  0.13392  Biso   1.000  C
  H74      1.0000 0.59897  0.93820  0.46002  Biso   1.000  H
  H75      1.0000 0.58571  0.90984  0.50744  Biso   1.000  H
  H76      1.0000 0.59899  0.93825  0.46002  Biso   1.000  H
  H77      1.0000 0.58567  0.90984  0.50744  Biso   1.000  H
  C92      1.0000 0.66742  0.00802  0.50265  Biso   1.000  C
  C93      1.0000 0.88188  0.07451  0.44397  Biso   1.000  C
  H78      1.0000 0.75675  0.09531  0.48474  Biso   1.000  H
  H79      1.0000 0.70837  0.05565  0.44542  Biso   1.000  H
  H80      1.0000 0.70832  0.05565  0.44542  Biso   1.000  H
  H81      1.0000 0.15136  0.15582  0.04954  Biso   1.000  H
  N9       1.0000 0.10681  0.24005  0.05616  Biso   1.000  N
  H82      1.0000 0.10265  0.25324  0.11544  Biso   1.000  H
  N10      1.0000 0.10673  0.24005  0.05616  Biso   1.000  N
  N11      1.0000 0.22153  0.03281  0.06997  Biso   1.000  N
  H83      1.0000 0.18233  0.06904  0.03134  Biso   1.000  H
  N12      1.0000 0.22156  0.03286  0.06997  Biso   1.000  N
  C94      1.0000 0.96813  0.10671  0.33856  Biso   1.000  C
  H84      1.0000 0.07086  0.16753  0.32862  Biso   1.000  H
  C95      1.0000 0.93726  0.10375  0.41209  Biso   1.000  C
  H85      1.0000 0.01770  0.15823  0.45154  Biso   1.000  H
  H86      1.0000 0.01766  0.15823  0.45154  Biso   1.000  H
  H87      1.0000 0.06621  0.87733  0.17134  Biso   1.000  H
  C96      1.0000 0.04519  0.86364  0.10822  Biso   1.000  C
  H88      1.0000 0.06616  0.87733  0.17134  Biso   1.000  H
  C97      1.0000 0.04515  0.86364  0.10822  Biso   1.000  C
  C98      1.0000 0.92821  0.82735  0.09135  Biso   1.000  C
  H89      1.0000 0.87040  0.81963  0.14243  Biso   1.000  H
  C99      1.0000 0.92817  0.82735  0.09135  Biso   1.000  C
  H90      1.0000 0.87036  0.81963  0.14243  Biso   1.000  H
  H91      1.0000 0.68589  0.00582  0.53052  Biso   1.000  H
  H92      1.0000 0.64038  0.03112  0.50624  Biso   1.000  H
  H93      1.0000 0.68584  0.00582  0.53052  Biso   1.000  H
  H94      1.0000 0.89288  0.07431  0.47282  Biso   1.000  H
  H95      1.0000 0.89286  0.07436  0.47282  Biso   1.000  H
  C100     1.0000 0.07664  0.28355  0.04736  Biso   1.000  C
  C101     1.0000 0.23616  0.99841  0.03595  Biso   1.000  C
  C102     1.0000 0.91929  0.08294  0.37025  Biso   1.000  C
  C103     1.0000 0.94659  0.08673  0.29372  Biso   1.000  C
  C104     1.0000 0.94650  0.08673  0.29372  Biso   1.000  C
  C105     1.0000 0.11660  0.88694  0.09460  Biso   1.000  C
  C106     1.0000 0.11656  0.88694  0.09460  Biso   1.000  C
  C107     1.0000 0.99416  0.84682  0.07870  Biso   1.000  C
  C108     1.0000 0.87428  0.80783  0.06023  Biso   1.000  C
  C109     1.0000 0.00156  0.23775  0.03595  Biso   1.000  C
  C110     1.0000 0.11353  0.33343  0.01129  Biso   1.000  C
  H96      1.0000 0.07988  0.31012  0.07334  Biso   1.000  H
  C111     1.0000 0.20690  0.92333  0.04736  Biso   1.000  C
  C112     1.0000 0.20685  0.92333  0.04736  Biso   1.000  C
  H97      1.0000 0.21326  0.00122  0.00965  Biso   1.000  H
  C113     1.0000 0.31276  0.03281  0.02784  Biso   1.000  C
  C114     1.0000 0.31278  0.03286  0.02784  Biso   1.000  C
  H98      1.0000 0.87284  0.05202  0.36344  Biso   1.000  H
  H99      1.0000 0.87280  0.05202  0.36344  Biso   1.000  H
  C115     1.0000 0.87836  0.06040  0.28189  Biso   1.000  C
  C116     1.0000 0.99245  0.09322  0.26244  Biso   1.000  C
  C117     1.0000 0.87839  0.06046  0.28189  Biso   1.000  C
  C118     1.0000 0.99241  0.09322  0.26244  Biso   1.000  C
  H100     1.0000 0.15060  0.89732  0.11544  Biso   1.000  H
  N13      1.0000 0.13329  0.89323  0.05616  Biso   1.000  N
  H101     1.0000 0.15056  0.89732  0.11544  Biso   1.000  H
  N14      1.0000 0.13324  0.89323  0.05616  Biso   1.000  N
  H102     1.0000 0.00448  0.84861  0.04954  Biso   1.000  H
  H103     1.0000 0.00444  0.84861  0.04954  Biso   1.000  H
  N15      1.0000 0.81130  0.77844  0.06997  Biso   1.000  N
  H104     1.0000 0.88671  0.81764  0.03134  Biso   1.000  H
  N16      1.0000 0.81125  0.77844  0.06997  Biso   1.000  N
  H105     1.0000 0.88667  0.81764  0.03134  Biso   1.000  H
  N17      1.0000 0.96714  0.18874  0.06997  Biso   1.000  N
  H106     1.0000 0.99875  0.21204  0.00965  Biso   1.000  H
  C119     1.0000 0.96718  0.27992  0.02784  Biso   1.000  C
  C120     1.0000 0.96714  0.27992  0.02784  Biso   1.000  C
  H107     1.0000 0.11267  0.30772  0.98584  Biso   1.000  H
  C121     1.0000 0.07950  0.37575  0.00148  Biso   1.000  C
  H108     1.0000 0.16188  0.36435  0.01914  Biso   1.000  H
  C122     1.0000 0.07945  0.37575  0.00148  Biso   1.000  C
  C123     1.0000 0.21987  0.88643  0.01129  Biso   1.000  C
  H109     1.0000 0.23029  0.92011  0.07334  Biso   1.000  H
  H110     1.0000 0.23025  0.92011  0.07334  Biso   1.000  H
  C124     1.0000 0.32648  0.99591  0.99240  Biso   1.000  C
  C125     1.0000 0.32647  0.99596  0.99240  Biso   1.000  C
  H111     1.0000 0.33058  0.08121  0.01993  Biso   1.000  H
  H112     1.0000 0.33642  0.03163  0.05382  Biso   1.000  H
  H113     1.0000 0.33052  0.08126  0.01993  Biso   1.000  H
  H114     1.0000 0.84565  0.05535  0.30255  Biso   1.000  H
  C126     1.0000 0.85746  0.04144  0.24062  Biso   1.000  C
  C127     1.0000 0.85742  0.04144  0.24062  Biso   1.000  C
  C128     1.0000 0.97144  0.07625  0.22075  Biso   1.000  C
  H115     1.0000 0.03889  0.10952  0.26963  Biso   1.000  H
  H116     1.0000 0.03885  0.10952  0.26963  Biso   1.000  H
  C129     1.0000 0.76229  0.76382  0.03595  Biso   1.000  C
  C130     1.0000 0.76225  0.76382  0.03595  Biso   1.000  C
  C131     1.0000 0.93360  0.12572  0.06023  Biso   1.000  C
  C132     1.0000 0.93351  0.12572  0.06023  Biso   1.000  C
  H117     1.0000 0.91877  0.24930  0.01993  Biso   1.000  H
  H118     1.0000 0.96839  0.30481  0.05382  Biso   1.000  H
  H119     1.0000 0.91879  0.24935  0.01993  Biso   1.000  H
  H120     1.0000 0.96832  0.30486  0.05382  Biso   1.000  H
  C133     1.0000 0.00408  0.33051  0.99240  Biso   1.000  C
  H121     1.0000 0.10199  0.40524  0.97673  Biso   1.000  H
  H122     1.0000 0.08538  0.40575  0.02573  Biso   1.000  H
  C134     1.0000 0.29627  0.92052  0.00148  Biso   1.000  C
  H123     1.0000 0.20249  0.83813  0.01914  Biso   1.000  H
  H124     1.0000 0.20245  0.83813  0.01914  Biso   1.000  H
  H125     1.0000 0.19510  0.88735  0.98584  Biso   1.000  H
  H126     1.0000 0.19506  0.88735  0.98584  Biso   1.000  H
  H127     1.0000 0.30663  0.00153  0.96582  Biso   1.000  H
  H128     1.0000 0.37634  0.01691  0.98833  Biso   1.000  H
  H129     1.0000 0.37629  0.01691  0.98833  Biso   1.000  H
  H130     1.0000 0.81048  0.02192  0.23375  Biso   1.000  H
  C135     1.0000 0.90347  0.05034  0.20925  Biso   1.000  C
  H131     1.0000 0.00420  0.08253  0.19985  Biso   1.000  H
  H132     1.0000 0.00411  0.08253  0.19985  Biso   1.000  H
  H133     1.0000 0.78799  0.78672  0.00965  Biso   1.000  H
  C136     1.0000 0.72009  0.68721  0.02784  Biso   1.000  C
  C137     1.0000 0.71648  0.79311  0.04736  Biso   1.000  C
  H134     1.0000 0.78795  0.78672  0.00965  Biso   1.000  H
  C138     1.0000 0.72005  0.68721  0.02784  Biso   1.000  C
  C139     1.0000 0.71650  0.79316  0.04736  Biso   1.000  C
  C140     1.0000 0.89916  0.07180  0.09135  Biso   1.000  C
  H135     1.0000 0.93097  0.11330  0.03134  Biso   1.000  H
  C141     1.0000 0.89918  0.07185  0.09135  Biso   1.000  C
  H136     1.0000 0.93100  0.11335  0.03134  Biso   1.000  H
  H137     1.0000 0.99846  0.30511  0.96582  Biso   1.000  H
  H138     1.0000 0.98309  0.35944  0.98833  Biso   1.000  H
  H139     1.0000 0.32038  0.91464  0.02573  Biso   1.000  H
  H140     1.0000 0.30331  0.89803  0.97673  Biso   1.000  H
  H141     1.0000 0.30326  0.89803  0.97673  Biso   1.000  H
  C142     1.0000 0.88297  0.03465  0.16393  Biso   1.000  C
  C143     1.0000 0.66947  0.67351  0.99240  Biso   1.000  C
  H142     1.0000 0.75068  0.66942  0.01993  Biso   1.000  H
  H143     1.0000 0.69520  0.66355  0.05382  Biso   1.000  H
  H144     1.0000 0.69516  0.66355  0.05382  Biso   1.000  H
  N18      1.0000 0.75996  0.86670  0.05616  Biso   1.000  N
  C144     1.0000 0.66656  0.78012  0.01129  Biso   1.000  C
  H145     1.0000 0.68988  0.76975  0.07334  Biso   1.000  H
  N19      1.0000 0.75998  0.86675  0.05616  Biso   1.000  N
  C145     1.0000 0.85266  0.00582  0.07870  Biso   1.000  C
  C146     1.0000 0.91534  0.08514  0.13392  Biso   1.000  C
  C147     1.0000 0.83399  0.96892  0.15097  Biso   1.000  C
  C148     1.0000 0.83395  0.96892  0.15097  Biso   1.000  C
  H146     1.0000 0.69488  0.69334  0.96582  Biso   1.000  H
  H147     1.0000 0.64059  0.62363  0.98833  Biso   1.000  H
  H148     1.0000 0.64054  0.62363  0.98833  Biso   1.000  H
  C149     1.0000 0.62429  0.70372  0.00148  Biso   1.000  C
  C150     1.0000 0.62424  0.70372  0.00148  Biso   1.000  C
  C151     1.0000 0.77039  0.88342  0.09460  Biso   1.000  C
  C152     1.0000 0.77035  0.88342  0.09460  Biso   1.000  C
  H149     1.0000 0.69228  0.80491  0.98584  Biso   1.000  H
  H150     1.0000 0.69224  0.80491  0.98584  Biso   1.000  H
  H151     1.0000 0.63571  0.79755  0.01914  Biso   1.000  H
  H152     1.0000 0.63566  0.79755  0.01914  Biso   1.000  H
  C153     1.0000 0.81849  0.95481  0.10822  Biso   1.000  C
  C154     1.0000 0.81844  0.95481  0.10822  Biso   1.000  C
  H153     1.0000 0.84421  0.99555  0.04954  Biso   1.000  H
  H154     1.0000 0.84416  0.99555  0.04954  Biso   1.000  H
  H155     1.0000 0.94921  0.12961  0.14243  Biso   1.000  H
  H156     1.0000 0.94924  0.12966  0.14243  Biso   1.000  H
  H157     1.0000 0.81117  0.93381  0.17134  Biso   1.000  H
  H158     1.0000 0.59476  0.69671  0.97673  Biso   1.000  H
  H159     1.0000 0.59428  0.67964  0.02573  Biso   1.000  H
  H160     1.0000 0.74680  0.84943  0.11544  Biso   1.000  H
  H161     1.0000 0.74676  0.84943  0.11544  Biso   1.000  H
  N20      1.0000 0.09109  0.85362  0.44044  Biso   1.000  N
  C155     1.0000 0.05857  0.77982  0.44709  Biso   1.000  C
  C156     1.0000 0.09128  0.87243  0.40254  Biso   1.000  C
  C157     1.0000 0.09991  0.76275  0.47749  Biso   1.000  C
  C158     1.0000 0.09987  0.76275  0.47749  Biso   1.000  C
  H162     1.0000 0.05509  0.75702  0.41944  Biso   1.000  H
  N21      1.0000 0.09104  0.85362  0.44044  Biso   1.000  N
  H163     1.0000 0.05505  0.75702  0.41944  Biso   1.000  H
  C159     1.0000 0.98639  0.75365  0.46465  Biso   1.000  C
  C160     1.0000 0.11678  0.94521  0.39163  Biso   1.000  C
  H164     1.0000 0.07467  0.83910  0.38075  Biso   1.000  H
  C161     1.0000 0.11677  0.94526  0.39163  Biso   1.000  C
  H165     1.0000 0.07469  0.83915  0.38075  Biso   1.000  H
  C162     1.0000 0.06358  0.68522  0.48635  Biso   1.000  C
  H166     1.0000 0.10607  0.78754  0.50432  Biso   1.000  H
  H167     1.0000 0.14556  0.77782  0.46535  Biso   1.000  H
  C163     1.0000 0.06354  0.68522  0.48635  Biso   1.000  C
  C164     1.0000 0.95047  0.67694  0.47254  Biso   1.000  C
  N22      1.0000 0.94997  0.77021  0.43322  Biso   1.000  N
  H168     1.0000 0.98919  0.77782  0.49164  Biso   1.000  H
  H169     1.0000 0.98914  0.77782  0.49164  Biso   1.000  H
  C165     1.0000 0.11469  0.96350  0.34981  Biso   1.000  C
  C166     1.0000 0.14129  0.99493  0.42290  Biso   1.000  C
  C167     1.0000 0.11467  0.96355  0.34981  Biso   1.000  C
  C168     1.0000 0.14125  0.99493  0.42290  Biso   1.000  C
  H170     1.0000 0.06179  0.66073  0.46002  Biso   1.000  H
  H171     1.0000 0.09017  0.67581  0.50744  Biso   1.000  H
  C169     1.0000 0.99199  0.65941  0.50265  Biso   1.000  C
  C170     1.0000 0.99197  0.65946  0.50265  Biso   1.000  C
  H172     1.0000 0.90471  0.66145  0.48474  Biso   1.000  H
  H173     1.0000 0.94438  0.65271  0.44542  Biso   1.000  H
  H174     1.0000 0.90466  0.66145  0.48474  Biso   1.000  H
  H175     1.0000 0.94433  0.65271  0.44542  Biso   1.000  H
  C171     1.0000 0.92550  0.80731  0.44397  Biso   1.000  C
  C172     1.0000 0.92546  0.80731  0.44397  Biso   1.000  C
  H176     1.0000 0.09670  0.92911  0.32862  Biso   1.000  H
  H177     1.0000 0.09668  0.92916  0.32862  Biso   1.000  H
  C173     1.0000 0.13859  0.03184  0.33856  Biso   1.000  C
  H178     1.0000 0.14056  0.98231  0.45154  Biso   1.000  H
  C174     1.0000 0.16642  0.06270  0.41209  Biso   1.000  C
  C175     1.0000 0.16644  0.06276  0.41209  Biso   1.000  C
  H179     1.0000 0.99419  0.68000  0.53052  Biso   1.000  H
  H180     1.0000 0.96888  0.60922  0.50624  Biso   1.000  H
  H181     1.0000 0.99417  0.68005  0.53052  Biso   1.000  H
  H182     1.0000 0.96884  0.60922  0.50624  Biso   1.000  H
  H183     1.0000 0.92570  0.81851  0.47282  Biso   1.000  H
  C176     1.0000 0.89630  0.83353  0.41209  Biso   1.000  C
  H184     1.0000 0.92568  0.81856  0.47282  Biso   1.000  H
  C177     1.0000 0.89625  0.83353  0.41209  Biso   1.000  C
  C178     1.0000 0.16366  0.08075  0.37025  Biso   1.000  C
  C179     1.0000 0.14017  0.05340  0.29372  Biso   1.000  C
  C180     1.0000 0.14019  0.05345  0.29372  Biso   1.000  C
  C181     1.0000 0.19266  0.11811  0.44397  Biso   1.000  C
  C182     1.0000 0.19268  0.11816  0.44397  Biso   1.000  C
  C183     1.0000 0.91709  0.83634  0.37025  Biso   1.000  C
  C184     1.0000 0.85370  0.85873  0.42290  Biso   1.000  C
  C185     1.0000 0.85366  0.85873  0.42290  Biso   1.000  C
  H185     1.0000 0.17921  0.12715  0.36344  Biso   1.000  H
  H186     1.0000 0.17917  0.12715  0.36344  Biso   1.000  H
  C186     1.0000 0.18207  0.12163  0.28189  Biso   1.000  C
  C187     1.0000 0.10080  0.00751  0.26244  Biso   1.000  C
  C188     1.0000 0.10078  0.00756  0.26244  Biso   1.000  C
  N23      1.0000 0.22976  0.17974  0.43322  Biso   1.000  N
  H187     1.0000 0.18150  0.10712  0.47282  Biso   1.000  H
  H188     1.0000 0.18141  0.10712  0.47282  Biso   1.000  H
  H189     1.0000 0.94796  0.82081  0.36344  Biso   1.000  H
  C189     1.0000 0.89330  0.86144  0.33856  Biso   1.000  C
  H190     1.0000 0.94798  0.82086  0.36344  Biso   1.000  H
  C190     1.0000 0.89325  0.86144  0.33856  Biso   1.000  C
  C191     1.0000 0.82850  0.88321  0.39163  Biso   1.000  C
  H191     1.0000 0.84180  0.85945  0.45154  Biso   1.000  H
  C192     1.0000 0.82845  0.88321  0.39163  Biso   1.000  C
  H192     1.0000 0.84175  0.85945  0.45154  Biso   1.000  H
  H193     1.0000 0.20967  0.15434  0.30255  Biso   1.000  H
  C193     1.0000 0.18394  0.14254  0.24062  Biso   1.000  C
  C194     1.0000 0.10475  0.02851  0.22075  Biso   1.000  C
  H194     1.0000 0.07071  0.96115  0.26963  Biso   1.000  H
  H195     1.0000 0.07067  0.96115  0.26963  Biso   1.000  H
  C195     1.0000 0.24635  0.23274  0.46465  Biso   1.000  C
  C196     1.0000 0.84889  0.88531  0.34981  Biso   1.000  C
  C197     1.0000 0.91328  0.85980  0.29372  Biso   1.000  C
  C198     1.0000 0.84887  0.88536  0.34981  Biso   1.000  C
  C199     1.0000 0.91326  0.85985  0.29372  Biso   1.000  C
  C200     1.0000 0.78118  0.90871  0.40254  Biso   1.000  C
  C201     1.0000 0.78114  0.90871  0.40254  Biso   1.000  C
  C202     1.0000 0.14686  0.09654  0.20925  Biso   1.000  C
  H196     1.0000 0.21149  0.18951  0.23375  Biso   1.000  H
  H197     1.0000 0.21143  0.18956  0.23375  Biso   1.000  H
  H198     1.0000 0.07839  0.99580  0.19985  Biso   1.000  H
  H199     1.0000 0.07837  0.99585  0.19985  Biso   1.000  H
  C203     1.0000 0.22021  0.27874  0.44709  Biso   1.000  C
  C204     1.0000 0.32304  0.27353  0.47254  Biso   1.000  C
  H200     1.0000 0.22214  0.21133  0.49164  Biso   1.000  H
  C205     1.0000 0.22013  0.27874  0.44709  Biso   1.000  C
  H201     1.0000 0.83250  0.90335  0.32862  Biso   1.000  H
  H202     1.0000 0.83246  0.90335  0.32862  Biso   1.000  H
  C206     1.0000 0.93958  0.81794  0.28189  Biso   1.000  C
  C207     1.0000 0.90678  0.89921  0.26244  Biso   1.000  C
  C208     1.0000 0.90676  0.89926  0.26244  Biso   1.000  C
  N24      1.0000 0.76256  0.90892  0.44044  Biso   1.000  N
  H203     1.0000 0.76448  0.92532  0.38075  Biso   1.000  H
  C209     1.0000 0.15171  0.11703  0.16393  Biso   1.000  C
  C210     1.0000 0.15162  0.11703  0.16393  Biso   1.000  C
  N25      1.0000 0.14641  0.23745  0.44044  Biso   1.000  N
  H204     1.0000 0.24295  0.29801  0.41944  Biso   1.000  H
  C211     1.0000 0.23723  0.33711  0.47749  Biso   1.000  C
  N26      1.0000 0.14636  0.23745  0.44044  Biso   1.000  N
  H205     1.0000 0.24291  0.29801  0.41944  Biso   1.000  H
  C212     1.0000 0.23725  0.33716  0.47749  Biso   1.000  C
  C213     1.0000 0.34053  0.33251  0.50265  Biso   1.000  C
  H206     1.0000 0.33860  0.24322  0.48474  Biso   1.000  H
  H207     1.0000 0.34727  0.29162  0.44542  Biso   1.000  H
  H208     1.0000 0.33851  0.24322  0.48474  Biso   1.000  H
  H209     1.0000 0.94468  0.79035  0.30255  Biso   1.000  H
  C214     1.0000 0.95857  0.81600  0.24062  Biso   1.000  C
  C215     1.0000 0.95860  0.81605  0.24062  Biso   1.000  C
  C216     1.0000 0.92378  0.89522  0.22075  Biso   1.000  C
  H210     1.0000 0.89050  0.92931  0.26963  Biso   1.000  H
  H211     1.0000 0.89045  0.92931  0.26963  Biso   1.000  H
  C217     1.0000 0.72128  0.94142  0.44709  Biso   1.000  C
  C218     1.0000 0.13496  0.16605  0.15097  Biso   1.000  C
  C219     1.0000 0.16972  0.08463  0.13392  Biso   1.000  C
  C220     1.0000 0.12759  0.21884  0.40254  Biso   1.000  C
  H212     1.0000 0.21243  0.31850  0.50432  Biso   1.000  H
  H213     1.0000 0.22217  0.36772  0.46535  Biso   1.000  H
  C221     1.0000 0.31477  0.37835  0.48635  Biso   1.000  C
  H214     1.0000 0.21246  0.31856  0.50432  Biso   1.000  H
  C222     1.0000 0.31472  0.37835  0.48635  Biso   1.000  C
  H215     1.0000 0.31991  0.31411  0.53052  Biso   1.000  H
  H216     1.0000 0.39080  0.35965  0.50624  Biso   1.000  H
  H217     1.0000 0.39071  0.35965  0.50624  Biso   1.000  H
  H218     1.0000 0.97806  0.78851  0.23375  Biso   1.000  H
  C223     1.0000 0.94968  0.85311  0.20925  Biso   1.000  C
  H219     1.0000 0.97809  0.78856  0.23375  Biso   1.000  H
  C224     1.0000 0.94966  0.85316  0.20925  Biso   1.000  C
  H220     1.0000 0.91751  0.92164  0.19985  Biso   1.000  H
  H221     1.0000 0.91747  0.92164  0.19985  Biso   1.000  H
  C225     1.0000 0.76725  0.01364  0.46465  Biso   1.000  C
  H222     1.0000 0.70202  0.94495  0.41944  Biso   1.000  H
  C226     1.0000 0.66287  0.90013  0.47749  Biso   1.000  C
  H223     1.0000 0.70197  0.94495  0.41944  Biso   1.000  H
  H224     1.0000 0.12264  0.18884  0.17134  Biso   1.000  H
  C227     1.0000 0.13633  0.18153  0.10822  Biso   1.000  C
  H225     1.0000 0.18035  0.05075  0.14243  Biso   1.000  H
  C228     1.0000 0.17269  0.10083  0.09135  Biso   1.000  C
  C229     1.0000 0.17260  0.10083  0.09135  Biso   1.000  C
  C230     1.0000 0.05480  0.17152  0.39163  Biso   1.000  C
  H226     1.0000 0.16088  0.23550  0.38075  Biso   1.000  H
  C231     1.0000 0.05471  0.17152  0.39163  Biso   1.000  C
  H227     1.0000 0.16087  0.23555  0.38075  Biso   1.000  H
  H228     1.0000 0.33926  0.40104  0.46002  Biso   1.000  H
  H229     1.0000 0.32417  0.41433  0.50744  Biso   1.000  H
  C232     1.0000 0.96538  0.84830  0.16393  Biso   1.000  C
  C233     1.0000 0.96536  0.84835  0.16393  Biso   1.000  C
  N27      1.0000 0.82028  0.05003  0.43322  Biso   1.000  N
  C234     1.0000 0.72650  0.04952  0.47254  Biso   1.000  C
  H230     1.0000 0.78864  0.01083  0.49164  Biso   1.000  H
  C235     1.0000 0.72641  0.04952  0.47254  Biso   1.000  C
  H231     1.0000 0.78860  0.01083  0.49164  Biso   1.000  H
  H232     1.0000 0.68151  0.89394  0.50432  Biso   1.000  H
  H233     1.0000 0.63228  0.85444  0.46535  Biso   1.000  H
  C236     1.0000 0.62166  0.93641  0.48635  Biso   1.000  C
  H234     1.0000 0.68147  0.89394  0.50432  Biso   1.000  H
  C237     1.0000 0.15314  0.14734  0.07870  Biso   1.000  C
  C238     1.0000 0.11306  0.22963  0.09460  Biso   1.000  C
  C239     1.0000 0.19218  0.06644  0.06023  Biso   1.000  C
  C240     1.0000 0.03646  0.15112  0.34981  Biso   1.000  C
  C241     1.0000 0.00506  0.14632  0.42290  Biso   1.000  C
  C242     1.0000 0.03641  0.15112  0.34981  Biso   1.000  C
  C243     1.0000 0.03110  0.86502  0.15097  Biso   1.000  C
  C244     1.0000 0.03106  0.86502  0.15097  Biso   1.000  C
  C245     1.0000 0.91486  0.83021  0.13392  Biso   1.000  C
  C246     1.0000 0.88188  0.07451  0.44397  Biso   1.000  C
  H235     1.0000 0.75675  0.09531  0.48474  Biso   1.000  H
  C247     1.0000 0.66742  0.00802  0.50265  Biso   1.000  C
  H236     1.0000 0.70837  0.05565  0.44542  Biso   1.000  H
  H237     1.0000 0.70832  0.05565  0.44542  Biso   1.000  H
  H238     1.0000 0.59897  0.93820  0.46002  Biso   1.000  H
  H239     1.0000 0.58571  0.90984  0.50744  Biso   1.000  H
  H240     1.0000 0.59899  0.93825  0.46002  Biso   1.000  H
  H241     1.0000 0.58567  0.90984  0.50744  Biso   1.000  H
  H242     1.0000 0.15136  0.15582  0.04954  Biso   1.000  H
  H243     1.0000 0.10265  0.25324  0.11544  Biso   1.000  H
  N28      1.0000 0.10681  0.24005  0.05616  Biso   1.000  N
  N29      1.0000 0.10673  0.24005  0.05616  Biso   1.000  N
  N30      1.0000 0.22153  0.03281  0.06997  Biso   1.000  N
  H244     1.0000 0.18233  0.06904  0.03134  Biso   1.000  H
  N31      1.0000 0.22156  0.03286  0.06997  Biso   1.000  N
  H245     1.0000 0.07086  0.16753  0.32862  Biso   1.000  H
  C248     1.0000 0.96813  0.10671  0.33856  Biso   1.000  C
  C249     1.0000 0.93726  0.10375  0.41209  Biso   1.000  C
  H246     1.0000 0.01770  0.15823  0.45154  Biso   1.000  H
  H247     1.0000 0.01766  0.15823  0.45154  Biso   1.000  H
  H248     1.0000 0.06621  0.87733  0.17134  Biso   1.000  H
  C250     1.0000 0.04519  0.86364  0.10822  Biso   1.000  C
  H249     1.0000 0.06616  0.87733  0.17134  Biso   1.000  H
  C251     1.0000 0.04515  0.86364  0.10822  Biso   1.000  C
  C252     1.0000 0.92821  0.82735  0.09135  Biso   1.000  C
  H250     1.0000 0.87040  0.81963  0.14243  Biso   1.000  H
  C253     1.0000 0.92817  0.82735  0.09135  Biso   1.000  C
  H251     1.0000 0.87036  0.81963  0.14243  Biso   1.000  H
  H252     1.0000 0.89288  0.07431  0.47282  Biso   1.000  H
  H253     1.0000 0.89286  0.07436  0.47282  Biso   1.000  H
  H254     1.0000 0.68589  0.00582  0.53052  Biso   1.000  H
  H255     1.0000 0.64038  0.03112  0.50624  Biso   1.000  H
  H256     1.0000 0.68584  0.00582  0.53052  Biso   1.000  H
  C254     1.0000 0.07664  0.28355  0.04736  Biso   1.000  C
  C255     1.0000 0.23616  0.99841  0.03595  Biso   1.000  C
  C256     1.0000 0.91929  0.08294  0.37025  Biso   1.000  C
  C257     1.0000 0.94659  0.08673  0.29372  Biso   1.000  C
  C258     1.0000 0.94650  0.08673  0.29372  Biso   1.000  C
  C259     1.0000 0.11660  0.88694  0.09460  Biso   1.000  C
  C260     1.0000 0.11656  0.88694  0.09460  Biso   1.000  C
  C261     1.0000 0.99416  0.84682  0.07870  Biso   1.000  C
  C262     1.0000 0.87428  0.80783  0.06023  Biso   1.000  C
  C263     1.0000 0.00156  0.23775  0.03595  Biso   1.000  C
  C264     1.0000 0.11353  0.33343  0.01129  Biso   1.000  C
  H257     1.0000 0.07988  0.31012  0.07334  Biso   1.000  H
  C265     1.0000 0.20690  0.92333  0.04736  Biso   1.000  C
  C266     1.0000 0.20685  0.92333  0.04736  Biso   1.000  C
  H258     1.0000 0.21326  0.00122  0.00965  Biso   1.000  H
  C267     1.0000 0.31276  0.03281  0.02784  Biso   1.000  C
  C268     1.0000 0.31278  0.03286  0.02784  Biso   1.000  C
  H259     1.0000 0.87284  0.05202  0.36344  Biso   1.000  H
  H260     1.0000 0.87280  0.05202  0.36344  Biso   1.000  H
  C269     1.0000 0.87836  0.06040  0.28189  Biso   1.000  C
  C270     1.0000 0.99245  0.09322  0.26244  Biso   1.000  C
  C271     1.0000 0.87839  0.06046  0.28189  Biso   1.000  C
  C272     1.0000 0.99241  0.09322  0.26244  Biso   1.000  C
  H261     1.0000 0.15060  0.89732  0.11544  Biso   1.000  H
  N32      1.0000 0.13329  0.89323  0.05616  Biso   1.000  N
  H262     1.0000 0.15056  0.89732  0.11544  Biso   1.000  H
  N33      1.0000 0.13324  0.89323  0.05616  Biso   1.000  N
  H263     1.0000 0.00448  0.84861  0.04954  Biso   1.000  H
  H264     1.0000 0.00444  0.84861  0.04954  Biso   1.000  H
  N34      1.0000 0.81130  0.77844  0.06997  Biso   1.000  N
  H265     1.0000 0.88671  0.81764  0.03134  Biso   1.000  H
  N35      1.0000 0.81125  0.77844  0.06997  Biso   1.000  N
  H266     1.0000 0.88667  0.81764  0.03134  Biso   1.000  H
  H267     1.0000 0.99875  0.21204  0.00965  Biso   1.000  H
  N36      1.0000 0.96714  0.18874  0.06997  Biso   1.000  N
  C273     1.0000 0.96718  0.27992  0.02784  Biso   1.000  C
  C274     1.0000 0.96714  0.27992  0.02784  Biso   1.000  C
  H268     1.0000 0.11267  0.30772  0.98584  Biso   1.000  H
  C275     1.0000 0.07950  0.37575  0.00148  Biso   1.000  C
  H269     1.0000 0.16188  0.36435  0.01914  Biso   1.000  H
  C276     1.0000 0.07945  0.37575  0.00148  Biso   1.000  C
  C277     1.0000 0.21987  0.88643  0.01129  Biso   1.000  C
  H270     1.0000 0.23029  0.92011  0.07334  Biso   1.000  H
  H271     1.0000 0.23025  0.92011  0.07334  Biso   1.000  H
  C278     1.0000 0.32648  0.99591  0.99240  Biso   1.000  C
  C279     1.0000 0.32647  0.99596  0.99240  Biso   1.000  C
  H272     1.0000 0.33058  0.08121  0.01993  Biso   1.000  H
  H273     1.0000 0.33642  0.03163  0.05382  Biso   1.000  H
  H274     1.0000 0.33052  0.08126  0.01993  Biso   1.000  H
  H275     1.0000 0.84565  0.05535  0.30255  Biso   1.000  H
  C280     1.0000 0.85746  0.04144  0.24062  Biso   1.000  C
  C281     1.0000 0.85742  0.04144  0.24062  Biso   1.000  C
  C282     1.0000 0.97144  0.07625  0.22075  Biso   1.000  C
  H276     1.0000 0.03889  0.10952  0.26963  Biso   1.000  H
  H277     1.0000 0.03885  0.10952  0.26963  Biso   1.000  H
  C283     1.0000 0.76229  0.76382  0.03595  Biso   1.000  C
  C284     1.0000 0.76225  0.76382  0.03595  Biso   1.000  C
  C285     1.0000 0.93360  0.12572  0.06023  Biso   1.000  C
  C286     1.0000 0.93351  0.12572  0.06023  Biso   1.000  C
  H278     1.0000 0.91877  0.24930  0.01993  Biso   1.000  H
  H279     1.0000 0.96839  0.30481  0.05382  Biso   1.000  H
  H280     1.0000 0.91879  0.24935  0.01993  Biso   1.000  H
  H281     1.0000 0.96832  0.30486  0.05382  Biso   1.000  H
  C287     1.0000 0.00408  0.33051  0.99240  Biso   1.000  C
  H282     1.0000 0.10199  0.40524  0.97673  Biso   1.000  H
  H283     1.0000 0.08538  0.40575  0.02573  Biso   1.000  H
  C288     1.0000 0.29627  0.92052  0.00148  Biso   1.000  C
  H284     1.0000 0.20249  0.83813  0.01914  Biso   1.000  H
  H285     1.0000 0.20245  0.83813  0.01914  Biso   1.000  H
  H286     1.0000 0.19510  0.88735  0.98584  Biso   1.000  H
  H287     1.0000 0.19506  0.88735  0.98584  Biso   1.000  H
  H288     1.0000 0.30663  0.00153  0.96582  Biso   1.000  H
  H289     1.0000 0.37634  0.01691  0.98833  Biso   1.000  H
  H290     1.0000 0.37629  0.01691  0.98833  Biso   1.000  H
  H291     1.0000 0.81048  0.02192  0.23375  Biso   1.000  H
  C289     1.0000 0.90347  0.05034  0.20925  Biso   1.000  C
  H292     1.0000 0.00420  0.08253  0.19985  Biso   1.000  H
  H293     1.0000 0.00411  0.08253  0.19985  Biso   1.000  H
  H294     1.0000 0.78799  0.78672  0.00965  Biso   1.000  H
  C290     1.0000 0.72009  0.68721  0.02784  Biso   1.000  C
  C291     1.0000 0.71648  0.79311  0.04736  Biso   1.000  C
  H295     1.0000 0.78795  0.78672  0.00965  Biso   1.000  H
  C292     1.0000 0.72005  0.68721  0.02784  Biso   1.000  C
  C293     1.0000 0.71650  0.79316  0.04736  Biso   1.000  C
  C294     1.0000 0.89916  0.07180  0.09135  Biso   1.000  C
  H296     1.0000 0.93097  0.11330  0.03134  Biso   1.000  H
  C295     1.0000 0.89918  0.07185  0.09135  Biso   1.000  C
  H297     1.0000 0.93100  0.11335  0.03134  Biso   1.000  H
  H298     1.0000 0.99846  0.30511  0.96582  Biso   1.000  H
  H299     1.0000 0.98309  0.35944  0.98833  Biso   1.000  H
  H300     1.0000 0.32038  0.91464  0.02573  Biso   1.000  H
  H301     1.0000 0.30331  0.89803  0.97673  Biso   1.000  H
  H302     1.0000 0.30326  0.89803  0.97673  Biso   1.000  H
  C296     1.0000 0.88297  0.03465  0.16393  Biso   1.000  C
  C297     1.0000 0.66947  0.67351  0.99240  Biso   1.000  C
  H303     1.0000 0.75068  0.66942  0.01993  Biso   1.000  H
  H304     1.0000 0.69520  0.66355  0.05382  Biso   1.000  H
  H305     1.0000 0.69516  0.66355  0.05382  Biso   1.000  H
  N37      1.0000 0.75996  0.86670  0.05616  Biso   1.000  N
  C298     1.0000 0.66656  0.78012  0.01129  Biso   1.000  C
  H306     1.0000 0.68988  0.76975  0.07334  Biso   1.000  H
  N38      1.0000 0.75998  0.86675  0.05616  Biso   1.000  N
  C299     1.0000 0.85266  0.00582  0.07870  Biso   1.000  C
  C300     1.0000 0.91534  0.08514  0.13392  Biso   1.000  C
  C301     1.0000 0.83399  0.96892  0.15097  Biso   1.000  C
  C302     1.0000 0.83395  0.96892  0.15097  Biso   1.000  C
  H307     1.0000 0.69488  0.69334  0.96582  Biso   1.000  H
  H308     1.0000 0.64059  0.62363  0.98833  Biso   1.000  H
  H309     1.0000 0.64054  0.62363  0.98833  Biso   1.000  H
  C303     1.0000 0.62429  0.70372  0.00148  Biso   1.000  C
  C304     1.0000 0.62424  0.70372  0.00148  Biso   1.000  C
  C305     1.0000 0.77039  0.88342  0.09460  Biso   1.000  C
  C306     1.0000 0.77035  0.88342  0.09460  Biso   1.000  C
  H310     1.0000 0.69228  0.80491  0.98584  Biso   1.000  H
  H311     1.0000 0.69224  0.80491  0.98584  Biso   1.000  H
  H312     1.0000 0.63571  0.79755  0.01914  Biso   1.000  H
  H313     1.0000 0.63566  0.79755  0.01914  Biso   1.000  H
  C307     1.0000 0.81849  0.95481  0.10822  Biso   1.000  C
  C308     1.0000 0.81844  0.95481  0.10822  Biso   1.000  C
  H314     1.0000 0.84421  0.99555  0.04954  Biso   1.000  H
  H315     1.0000 0.84416  0.99555  0.04954  Biso   1.000  H
  H316     1.0000 0.94921  0.12961  0.14243  Biso   1.000  H
  H317     1.0000 0.94924  0.12966  0.14243  Biso   1.000  H
  H318     1.0000 0.81117  0.93381  0.17134  Biso   1.000  H
  H319     1.0000 0.59476  0.69671  0.97673  Biso   1.000  H
  H320     1.0000 0.59428  0.67964  0.02573  Biso   1.000  H
  H321     1.0000 0.74680  0.84943  0.11544  Biso   1.000  H
  H322     1.0000 0.74676  0.84943  0.11544  Biso   1.000  H
  N39      1.0000 0.09109  0.85362  0.44044  Biso   1.000  N
  C309     1.0000 0.05857  0.77982  0.44709  Biso   1.000  C
  C310     1.0000 0.09128  0.87243  0.40254  Biso   1.000  C
  C311     1.0000 0.98639  0.75365  0.46465  Biso   1.000  C
  H323     1.0000 0.05509  0.75702  0.41944  Biso   1.000  H
  C312     1.0000 0.09991  0.76275  0.47749  Biso   1.000  C
  N40      1.0000 0.09104  0.85362  0.44044  Biso   1.000  N
  H324     1.0000 0.05505  0.75702  0.41944  Biso   1.000  H
  C313     1.0000 0.09987  0.76275  0.47749  Biso   1.000  C
  C314     1.0000 0.11678  0.94521  0.39163  Biso   1.000  C
  H325     1.0000 0.07467  0.83910  0.38075  Biso   1.000  H
  C315     1.0000 0.11677  0.94526  0.39163  Biso   1.000  C
  H326     1.0000 0.07469  0.83915  0.38075  Biso   1.000  H
  N41      1.0000 0.94997  0.77021  0.43322  Biso   1.000  N
  C316     1.0000 0.95047  0.67694  0.47254  Biso   1.000  C
  H327     1.0000 0.98919  0.77782  0.49164  Biso   1.000  H
  H328     1.0000 0.98914  0.77782  0.49164  Biso   1.000  H
  H329     1.0000 0.10607  0.78754  0.50432  Biso   1.000  H
  H330     1.0000 0.14556  0.77782  0.46535  Biso   1.000  H
  C317     1.0000 0.06358  0.68522  0.48635  Biso   1.000  C
  C318     1.0000 0.06354  0.68522  0.48635  Biso   1.000  C
  C319     1.0000 0.11469  0.96350  0.34981  Biso   1.000  C
  C320     1.0000 0.14129  0.99493  0.42290  Biso   1.000  C
  C321     1.0000 0.11467  0.96355  0.34981  Biso   1.000  C
  C322     1.0000 0.14125  0.99493  0.42290  Biso   1.000  C
  C323     1.0000 0.92550  0.80731  0.44397  Biso   1.000  C
  C324     1.0000 0.92546  0.80731  0.44397  Biso   1.000  C
  C325     1.0000 0.99199  0.65941  0.50265  Biso   1.000  C
  H331     1.0000 0.90471  0.66145  0.48474  Biso   1.000  H
  H332     1.0000 0.94438  0.65271  0.44542  Biso   1.000  H
  C326     1.0000 0.99197  0.65946  0.50265  Biso   1.000  C
  H333     1.0000 0.90466  0.66145  0.48474  Biso   1.000  H
  H334     1.0000 0.94433  0.65271  0.44542  Biso   1.000  H
  H335     1.0000 0.06179  0.66073  0.46002  Biso   1.000  H
  H336     1.0000 0.09017  0.67581  0.50744  Biso   1.000  H
  H337     1.0000 0.09670  0.92911  0.32862  Biso   1.000  H
  H338     1.0000 0.09668  0.92916  0.32862  Biso   1.000  H
  C327     1.0000 0.13859  0.03184  0.33856  Biso   1.000  C
  H339     1.0000 0.14056  0.98231  0.45154  Biso   1.000  H
  C328     1.0000 0.16642  0.06270  0.41209  Biso   1.000  C
  C329     1.0000 0.16644  0.06276  0.41209  Biso   1.000  C
  H340     1.0000 0.92570  0.81851  0.47282  Biso   1.000  H
  C330     1.0000 0.89630  0.83353  0.41209  Biso   1.000  C
  H341     1.0000 0.92568  0.81856  0.47282  Biso   1.000  H
  C331     1.0000 0.89625  0.83353  0.41209  Biso   1.000  C
  H342     1.0000 0.99419  0.68000  0.53052  Biso   1.000  H
  H343     1.0000 0.96888  0.60922  0.50624  Biso   1.000  H
  H344     1.0000 0.99417  0.68005  0.53052  Biso   1.000  H
  H345     1.0000 0.96884  0.60922  0.50624  Biso   1.000  H
  C332     1.0000 0.16366  0.08075  0.37025  Biso   1.000  C
  C333     1.0000 0.14017  0.05340  0.29372  Biso   1.000  C
  C334     1.0000 0.14019  0.05345  0.29372  Biso   1.000  C
  C335     1.0000 0.19266  0.11811  0.44397  Biso   1.000  C
  C336     1.0000 0.19268  0.11816  0.44397  Biso   1.000  C
  C337     1.0000 0.91709  0.83634  0.37025  Biso   1.000  C
  C338     1.0000 0.85370  0.85873  0.42290  Biso   1.000  C
  C339     1.0000 0.85366  0.85873  0.42290  Biso   1.000  C
  H346     1.0000 0.17921  0.12715  0.36344  Biso   1.000  H
  H347     1.0000 0.17917  0.12715  0.36344  Biso   1.000  H
  C340     1.0000 0.18207  0.12163  0.28189  Biso   1.000  C
  C341     1.0000 0.10080  0.00751  0.26244  Biso   1.000  C
  C342     1.0000 0.10078  0.00756  0.26244  Biso   1.000  C
  N42      1.0000 0.22976  0.17974  0.43322  Biso   1.000  N
  H348     1.0000 0.18150  0.10712  0.47282  Biso   1.000  H
  H349     1.0000 0.18141  0.10712  0.47282  Biso   1.000  H
  H350     1.0000 0.94796  0.82081  0.36344  Biso   1.000  H
  C343     1.0000 0.89330  0.86144  0.33856  Biso   1.000  C
  H351     1.0000 0.94798  0.82086  0.36344  Biso   1.000  H
  C344     1.0000 0.89325  0.86144  0.33856  Biso   1.000  C
  C345     1.0000 0.82850  0.88321  0.39163  Biso   1.000  C
  H352     1.0000 0.84180  0.85945  0.45154  Biso   1.000  H
  C346     1.0000 0.82845  0.88321  0.39163  Biso   1.000  C
  H353     1.0000 0.84175  0.85945  0.45154  Biso   1.000  H
  H354     1.0000 0.20967  0.15434  0.30255  Biso   1.000  H
  C347     1.0000 0.18394  0.14254  0.24062  Biso   1.000  C
  C348     1.0000 0.10475  0.02851  0.22075  Biso   1.000  C
  H355     1.0000 0.07071  0.96115  0.26963  Biso   1.000  H
  H356     1.0000 0.07067  0.96115  0.26963  Biso   1.000  H
  C349     1.0000 0.24635  0.23274  0.46465  Biso   1.000  C
  C350     1.0000 0.84889  0.88531  0.34981  Biso   1.000  C
  C351     1.0000 0.91328  0.85980  0.29372  Biso   1.000  C
  C352     1.0000 0.84887  0.88536  0.34981  Biso   1.000  C
  C353     1.0000 0.91326  0.85985  0.29372  Biso   1.000  C
  C354     1.0000 0.78118  0.90871  0.40254  Biso   1.000  C
  C355     1.0000 0.78114  0.90871  0.40254  Biso   1.000  C
  C356     1.0000 0.14686  0.09654  0.20925  Biso   1.000  C
  H357     1.0000 0.21149  0.18951  0.23375  Biso   1.000  H
  H358     1.0000 0.21143  0.18956  0.23375  Biso   1.000  H
  H359     1.0000 0.07839  0.99580  0.19985  Biso   1.000  H
  H360     1.0000 0.07837  0.99585  0.19985  Biso   1.000  H
  C357     1.0000 0.22021  0.27874  0.44709  Biso   1.000  C
  C358     1.0000 0.32304  0.27353  0.47254  Biso   1.000  C
  H361     1.0000 0.22214  0.21133  0.49164  Biso   1.000  H
  C359     1.0000 0.22013  0.27874  0.44709  Biso   1.000  C
  H362     1.0000 0.83250  0.90335  0.32862  Biso   1.000  H
  H363     1.0000 0.83246  0.90335  0.32862  Biso   1.000  H
  C360     1.0000 0.93958  0.81794  0.28189  Biso   1.000  C
  C361     1.0000 0.90678  0.89921  0.26244  Biso   1.000  C
  C362     1.0000 0.90676  0.89926  0.26244  Biso   1.000  C
  N43      1.0000 0.76256  0.90892  0.44044  Biso   1.000  N
  H364     1.0000 0.76448  0.92532  0.38075  Biso   1.000  H
  C363     1.0000 0.15171  0.11703  0.16393  Biso   1.000  C
  C364     1.0000 0.15162  0.11703  0.16393  Biso   1.000  C
  N44      1.0000 0.14641  0.23745  0.44044  Biso   1.000  N
  H365     1.0000 0.24295  0.29801  0.41944  Biso   1.000  H
  C365     1.0000 0.23723  0.33711  0.47749  Biso   1.000  C
  N45      1.0000 0.14636  0.23745  0.44044  Biso   1.000  N
  H366     1.0000 0.24291  0.29801  0.41944  Biso   1.000  H
  C366     1.0000 0.23725  0.33716  0.47749  Biso   1.000  C
  C367     1.0000 0.34053  0.33251  0.50265  Biso   1.000  C
  H367     1.0000 0.33860  0.24322  0.48474  Biso   1.000  H
  H368     1.0000 0.34727  0.29162  0.44542  Biso   1.000  H
  H369     1.0000 0.33851  0.24322  0.48474  Biso   1.000  H
  H370     1.0000 0.94468  0.79035  0.30255  Biso   1.000  H
  C368     1.0000 0.95857  0.81600  0.24062  Biso   1.000  C
  C369     1.0000 0.95860  0.81605  0.24062  Biso   1.000  C
  C370     1.0000 0.92378  0.89522  0.22075  Biso   1.000  C
  H371     1.0000 0.89050  0.92931  0.26963  Biso   1.000  H
  H372     1.0000 0.89045  0.92931  0.26963  Biso   1.000  H
  C371     1.0000 0.72128  0.94142  0.44709  Biso   1.000  C
  C372     1.0000 0.13496  0.16605  0.15097  Biso   1.000  C
  C373     1.0000 0.16972  0.08463  0.13392  Biso   1.000  C
  C374     1.0000 0.12759  0.21884  0.40254  Biso   1.000  C
  H373     1.0000 0.21243  0.31850  0.50432  Biso   1.000  H
  H374     1.0000 0.22217  0.36772  0.46535  Biso   1.000  H
  C375     1.0000 0.31477  0.37835  0.48635  Biso   1.000  C
  H375     1.0000 0.21246  0.31856  0.50432  Biso   1.000  H
  C376     1.0000 0.31472  0.37835  0.48635  Biso   1.000  C
  H376     1.0000 0.31991  0.31411  0.53052  Biso   1.000  H
  H377     1.0000 0.39080  0.35965  0.50624  Biso   1.000  H
  H378     1.0000 0.39071  0.35965  0.50624  Biso   1.000  H
  H379     1.0000 0.97806  0.78851  0.23375  Biso   1.000  H
  C377     1.0000 0.94968  0.85311  0.20925  Biso   1.000  C
  H380     1.0000 0.97809  0.78856  0.23375  Biso   1.000  H
  C378     1.0000 0.94966  0.85316  0.20925  Biso   1.000  C
  H381     1.0000 0.91751  0.92164  0.19985  Biso   1.000  H
  H382     1.0000 0.91747  0.92164  0.19985  Biso   1.000  H
  C379     1.0000 0.76725  0.01364  0.46465  Biso   1.000  C
  H383     1.0000 0.70202  0.94495  0.41944  Biso   1.000  H
  C380     1.0000 0.66287  0.90013  0.47749  Biso   1.000  C
  H384     1.0000 0.70197  0.94495  0.41944  Biso   1.000  H
  H385     1.0000 0.12264  0.18884  0.17134  Biso   1.000  H
  C381     1.0000 0.13633  0.18153  0.10822  Biso   1.000  C
  H386     1.0000 0.18035  0.05075  0.14243  Biso   1.000  H
  C382     1.0000 0.17269  0.10083  0.09135  Biso   1.000  C
  C383     1.0000 0.17260  0.10083  0.09135  Biso   1.000  C
  C384     1.0000 0.05480  0.17152  0.39163  Biso   1.000  C
  H387     1.0000 0.16088  0.23550  0.38075  Biso   1.000  H
  C385     1.0000 0.05471  0.17152  0.39163  Biso   1.000  C
  H388     1.0000 0.16087  0.23555  0.38075  Biso   1.000  H
  H389     1.0000 0.33926  0.40104  0.46002  Biso   1.000  H
  H390     1.0000 0.32417  0.41433  0.50744  Biso   1.000  H
  C386     1.0000 0.96538  0.84830  0.16393  Biso   1.000  C
  C387     1.0000 0.96536  0.84835  0.16393  Biso   1.000  C
  N46      1.0000 0.82028  0.05003  0.43322  Biso   1.000  N
  C388     1.0000 0.72650  0.04952  0.47254  Biso   1.000  C
  H391     1.0000 0.78864  0.01083  0.49164  Biso   1.000  H
  C389     1.0000 0.72641  0.04952  0.47254  Biso   1.000  C
  H392     1.0000 0.78860  0.01083  0.49164  Biso   1.000  H
  H393     1.0000 0.68151  0.89394  0.50432  Biso   1.000  H
  H394     1.0000 0.63228  0.85444  0.46535  Biso   1.000  H
  C390     1.0000 0.62166  0.93641  0.48635  Biso   1.000  C
  H395     1.0000 0.68147  0.89394  0.50432  Biso   1.000  H
  C391     1.0000 0.15314  0.14734  0.07870  Biso   1.000  C
  C392     1.0000 0.11306  0.22963  0.09460  Biso   1.000  C
  C393     1.0000 0.19218  0.06644  0.06023  Biso   1.000  C
  C394     1.0000 0.03646  0.15112  0.34981  Biso   1.000  C
  C395     1.0000 0.00506  0.14632  0.42290  Biso   1.000  C
  C396     1.0000 0.03641  0.15112  0.34981  Biso   1.000  C
  C397     1.0000 0.91486  0.83021  0.13392  Biso   1.000  C
  C398     1.0000 0.03110  0.86502  0.15097  Biso   1.000  C
  C399     1.0000 0.03106  0.86502  0.15097  Biso   1.000  C
  C400     1.0000 0.88188  0.07451  0.44397  Biso   1.000  C
  H396     1.0000 0.75675  0.09531  0.48474  Biso   1.000  H
  C401     1.0000 0.66742  0.00802  0.50265  Biso   1.000  C
  H397     1.0000 0.70837  0.05565  0.44542  Biso   1.000  H
  H398     1.0000 0.70832  0.05565  0.44542  Biso   1.000  H
  H399     1.0000 0.59897  0.93820  0.46002  Biso   1.000  H
  H400     1.0000 0.58571  0.90984  0.50744  Biso   1.000  H
  H401     1.0000 0.59899  0.93825  0.46002  Biso   1.000  H
  H402     1.0000 0.58567  0.90984  0.50744  Biso   1.000  H
  H403     1.0000 0.15136  0.15582  0.04954  Biso   1.000  H
  H404     1.0000 0.10265  0.25324  0.11544  Biso   1.000  H
  N47      1.0000 0.10681  0.24005  0.05616  Biso   1.000  N
  N48      1.0000 0.10673  0.24005  0.05616  Biso   1.000  N
  N49      1.0000 0.22153  0.03281  0.06997  Biso   1.000  N
  H405     1.0000 0.18233  0.06904  0.03134  Biso   1.000  H
  N50      1.0000 0.22156  0.03286  0.06997  Biso   1.000  N
  H406     1.0000 0.07086  0.16753  0.32862  Biso   1.000  H
  C402     1.0000 0.96813  0.10671  0.33856  Biso   1.000  C
  C403     1.0000 0.93726  0.10375  0.41209  Biso   1.000  C
  H407     1.0000 0.01770  0.15823  0.45154  Biso   1.000  H
  H408     1.0000 0.01766  0.15823  0.45154  Biso   1.000  H
  C404     1.0000 0.92821  0.82735  0.09135  Biso   1.000  C
  H409     1.0000 0.87040  0.81963  0.14243  Biso   1.000  H
  C405     1.0000 0.92817  0.82735  0.09135  Biso   1.000  C
  H410     1.0000 0.87036  0.81963  0.14243  Biso   1.000  H
  H411     1.0000 0.06621  0.87733  0.17134  Biso   1.000  H
  C406     1.0000 0.04519  0.86364  0.10822  Biso   1.000  C
  H412     1.0000 0.06616  0.87733  0.17134  Biso   1.000  H
  C407     1.0000 0.04515  0.86364  0.10822  Biso   1.000  C
  H413     1.0000 0.89288  0.07431  0.47282  Biso   1.000  H
  H414     1.0000 0.89286  0.07436  0.47282  Biso   1.000  H
  H415     1.0000 0.68589  0.00582  0.53052  Biso   1.000  H
  H416     1.0000 0.64038  0.03112  0.50624  Biso   1.000  H
  H417     1.0000 0.68584  0.00582  0.53052  Biso   1.000  H
  C408     1.0000 0.07664  0.28355  0.04736  Biso   1.000  C
  C409     1.0000 0.23616  0.99841  0.03595  Biso   1.000  C
  C410     1.0000 0.91929  0.08294  0.37025  Biso   1.000  C
  C411     1.0000 0.94659  0.08673  0.29372  Biso   1.000  C
  C412     1.0000 0.94650  0.08673  0.29372  Biso   1.000  C
  C413     1.0000 0.99416  0.84682  0.07870  Biso   1.000  C
  C414     1.0000 0.87428  0.80783  0.06023  Biso   1.000  C
  C415     1.0000 0.11660  0.88694  0.09460  Biso   1.000  C
  C416     1.0000 0.11656  0.88694  0.09460  Biso   1.000  C
  C417     1.0000 0.00156  0.23775  0.03595  Biso   1.000  C
  C418     1.0000 0.11353  0.33343  0.01129  Biso   1.000  C
  H418     1.0000 0.07988  0.31012  0.07334  Biso   1.000  H
  C419     1.0000 0.20690  0.92333  0.04736  Biso   1.000  C
  C420     1.0000 0.20685  0.92333  0.04736  Biso   1.000  C
  H419     1.0000 0.21326  0.00122  0.00965  Biso   1.000  H
  C421     1.0000 0.31276  0.03281  0.02784  Biso   1.000  C
  C422     1.0000 0.31278  0.03286  0.02784  Biso   1.000  C
  H420     1.0000 0.87284  0.05202  0.36344  Biso   1.000  H
  H421     1.0000 0.87280  0.05202  0.36344  Biso   1.000  H
  C423     1.0000 0.87836  0.06040  0.28189  Biso   1.000  C
  C424     1.0000 0.99245  0.09322  0.26244  Biso   1.000  C
  C425     1.0000 0.87839  0.06046  0.28189  Biso   1.000  C
  C426     1.0000 0.99241  0.09322  0.26244  Biso   1.000  C
  H422     1.0000 0.00448  0.84861  0.04954  Biso   1.000  H
  H423     1.0000 0.00444  0.84861  0.04954  Biso   1.000  H
  N51      1.0000 0.81130  0.77844  0.06997  Biso   1.000  N
  H424     1.0000 0.88671  0.81764  0.03134  Biso   1.000  H
  N52      1.0000 0.81125  0.77844  0.06997  Biso   1.000  N
  H425     1.0000 0.88667  0.81764  0.03134  Biso   1.000  H
  H426     1.0000 0.15060  0.89732  0.11544  Biso   1.000  H
  N53      1.0000 0.13329  0.89323  0.05616  Biso   1.000  N
  H427     1.0000 0.15056  0.89732  0.11544  Biso   1.000  H
  N54      1.0000 0.13324  0.89323  0.05616  Biso   1.000  N
  H428     1.0000 0.99875  0.21204  0.00965  Biso   1.000  H
  N55      1.0000 0.96714  0.18874  0.06997  Biso   1.000  N
  C427     1.0000 0.96718  0.27992  0.02784  Biso   1.000  C
  C428     1.0000 0.96714  0.27992  0.02784  Biso   1.000  C
  H429     1.0000 0.11267  0.30772  0.98584  Biso   1.000  H
  C429     1.0000 0.07950  0.37575  0.00148  Biso   1.000  C
  H430     1.0000 0.16188  0.36435  0.01914  Biso   1.000  H
  C430     1.0000 0.07945  0.37575  0.00148  Biso   1.000  C
  C431     1.0000 0.21987  0.88643  0.01129  Biso   1.000  C
  H431     1.0000 0.23029  0.92011  0.07334  Biso   1.000  H
  H432     1.0000 0.23025  0.92011  0.07334  Biso   1.000  H
  C432     1.0000 0.32648  0.99591  0.99240  Biso   1.000  C
  C433     1.0000 0.32647  0.99596  0.99240  Biso   1.000  C
  H433     1.0000 0.33058  0.08121  0.01993  Biso   1.000  H
  H434     1.0000 0.33642  0.03163  0.05382  Biso   1.000  H
  H435     1.0000 0.33052  0.08126  0.01993  Biso   1.000  H
  H436     1.0000 0.84565  0.05535  0.30255  Biso   1.000  H
  C434     1.0000 0.85746  0.04144  0.24062  Biso   1.000  C
  C435     1.0000 0.85742  0.04144  0.24062  Biso   1.000  C
  C436     1.0000 0.97144  0.07625  0.22075  Biso   1.000  C
  H437     1.0000 0.03889  0.10952  0.26963  Biso   1.000  H
  H438     1.0000 0.03885  0.10952  0.26963  Biso   1.000  H
  C437     1.0000 0.76229  0.76382  0.03595  Biso   1.000  C
  C438     1.0000 0.76225  0.76382  0.03595  Biso   1.000  C
  C439     1.0000 0.93360  0.12572  0.06023  Biso   1.000  C
  C440     1.0000 0.93351  0.12572  0.06023  Biso   1.000  C
  H439     1.0000 0.91877  0.24930  0.01993  Biso   1.000  H
  H440     1.0000 0.96839  0.30481  0.05382  Biso   1.000  H
  H441     1.0000 0.91879  0.24935  0.01993  Biso   1.000  H
  H442     1.0000 0.96832  0.30486  0.05382  Biso   1.000  H
  C441     1.0000 0.00408  0.33051  0.99240  Biso   1.000  C
  H443     1.0000 0.10199  0.40524  0.97673  Biso   1.000  H
  H444     1.0000 0.08538  0.40575  0.02573  Biso   1.000  H
  C442     1.0000 0.29627  0.92052  0.00148  Biso   1.000  C
  H445     1.0000 0.19510  0.88735  0.98584  Biso   1.000  H
  H446     1.0000 0.19506  0.88735  0.98584  Biso   1.000  H
  H447     1.0000 0.20249  0.83813  0.01914  Biso   1.000  H
  H448     1.0000 0.20245  0.83813  0.01914  Biso   1.000  H
  H449     1.0000 0.30663  0.00153  0.96582  Biso   1.000  H
  H450     1.0000 0.37634  0.01691  0.98833  Biso   1.000  H
  H451     1.0000 0.37629  0.01691  0.98833  Biso   1.000  H
  H452     1.0000 0.81048  0.02192  0.23375  Biso   1.000  H
  C443     1.0000 0.90347  0.05034  0.20925  Biso   1.000  C
  H453     1.0000 0.00420  0.08253  0.19985  Biso   1.000  H
  H454     1.0000 0.00411  0.08253  0.19985  Biso   1.000  H
  H455     1.0000 0.78799  0.78672  0.00965  Biso   1.000  H
  C444     1.0000 0.72009  0.68721  0.02784  Biso   1.000  C
  C445     1.0000 0.71648  0.79311  0.04736  Biso   1.000  C
  H456     1.0000 0.78795  0.78672  0.00965  Biso   1.000  H
  C446     1.0000 0.72005  0.68721  0.02784  Biso   1.000  C
  C447     1.0000 0.71650  0.79316  0.04736  Biso   1.000  C
  C448     1.0000 0.89916  0.07180  0.09135  Biso   1.000  C
  H457     1.0000 0.93097  0.11330  0.03134  Biso   1.000  H
  C449     1.0000 0.89918  0.07185  0.09135  Biso   1.000  C
  H458     1.0000 0.93100  0.11335  0.03134  Biso   1.000  H
  H459     1.0000 0.99846  0.30511  0.96582  Biso   1.000  H
  H460     1.0000 0.98309  0.35944  0.98833  Biso   1.000  H
  H461     1.0000 0.32038  0.91464  0.02573  Biso   1.000  H
  H462     1.0000 0.30331  0.89803  0.97673  Biso   1.000  H
  H463     1.0000 0.30326  0.89803  0.97673  Biso   1.000  H
  C450     1.0000 0.88297  0.03465  0.16393  Biso   1.000  C
  C451     1.0000 0.66947  0.67351  0.99240  Biso   1.000  C
  H464     1.0000 0.75068  0.66942  0.01993  Biso   1.000  H
  H465     1.0000 0.69520  0.66355  0.05382  Biso   1.000  H
  H466     1.0000 0.69516  0.66355  0.05382  Biso   1.000  H
  N56      1.0000 0.75996  0.86670  0.05616  Biso   1.000  N
  C452     1.0000 0.66656  0.78012  0.01129  Biso   1.000  C
  H467     1.0000 0.68988  0.76975  0.07334  Biso   1.000  H
  N57      1.0000 0.75998  0.86675  0.05616  Biso   1.000  N
  C453     1.0000 0.85266  0.00582  0.07870  Biso   1.000  C
  C454     1.0000 0.91534  0.08514  0.13392  Biso   1.000  C
  C455     1.0000 0.83399  0.96892  0.15097  Biso   1.000  C
  C456     1.0000 0.83395  0.96892  0.15097  Biso   1.000  C
  H468     1.0000 0.69488  0.69334  0.96582  Biso   1.000  H
  H469     1.0000 0.64059  0.62363  0.98833  Biso   1.000  H
  H470     1.0000 0.64054  0.62363  0.98833  Biso   1.000  H
  C457     1.0000 0.62429  0.70372  0.00148  Biso   1.000  C
  C458     1.0000 0.62424  0.70372  0.00148  Biso   1.000  C
  C459     1.0000 0.77039  0.88342  0.09460  Biso   1.000  C
  C460     1.0000 0.77035  0.88342  0.09460  Biso   1.000  C
  H471     1.0000 0.69228  0.80491  0.98584  Biso   1.000  H
  H472     1.0000 0.69224  0.80491  0.98584  Biso   1.000  H
  H473     1.0000 0.63571  0.79755  0.01914  Biso   1.000  H
  H474     1.0000 0.63566  0.79755  0.01914  Biso   1.000  H
  C461     1.0000 0.81849  0.95481  0.10822  Biso   1.000  C
  C462     1.0000 0.81844  0.95481  0.10822  Biso   1.000  C
  H475     1.0000 0.84421  0.99555  0.04954  Biso   1.000  H
  H476     1.0000 0.84416  0.99555  0.04954  Biso   1.000  H
  H477     1.0000 0.94921  0.12961  0.14243  Biso   1.000  H
  H478     1.0000 0.94924  0.12966  0.14243  Biso   1.000  H
  H479     1.0000 0.81117  0.93381  0.17134  Biso   1.000  H
  H480     1.0000 0.59476  0.69671  0.97673  Biso   1.000  H
  H481     1.0000 0.59428  0.67964  0.02573  Biso   1.000  H
  H482     1.0000 0.74680  0.84943  0.11544  Biso   1.000  H
  H483     1.0000 0.74676  0.84943  0.11544  Biso   1.000  H
  N58      1.0000 0.09109  0.85362  0.44044  Biso   1.000  N
  C463     1.0000 0.05857  0.77982  0.44709  Biso   1.000  C
  C464     1.0000 0.09128  0.87243  0.40254  Biso   1.000  C
  C465     1.0000 0.98639  0.75365  0.46465  Biso   1.000  C
  H484     1.0000 0.05509  0.75702  0.41944  Biso   1.000  H
  C466     1.0000 0.09991  0.76275  0.47749  Biso   1.000  C
  N59      1.0000 0.09104  0.85362  0.44044  Biso   1.000  N
  H485     1.0000 0.05505  0.75702  0.41944  Biso   1.000  H
  C467     1.0000 0.09987  0.76275  0.47749  Biso   1.000  C
  C468     1.0000 0.11678  0.94521  0.39163  Biso   1.000  C
  H486     1.0000 0.07467  0.83910  0.38075  Biso   1.000  H
  C469     1.0000 0.11677  0.94526  0.39163  Biso   1.000  C
  H487     1.0000 0.07469  0.83915  0.38075  Biso   1.000  H
  N60      1.0000 0.94997  0.77021  0.43322  Biso   1.000  N
  C470     1.0000 0.95047  0.67694  0.47254  Biso   1.000  C
  H488     1.0000 0.98919  0.77782  0.49164  Biso   1.000  H
  H489     1.0000 0.98914  0.77782  0.49164  Biso   1.000  H
  H490     1.0000 0.10607  0.78754  0.50432  Biso   1.000  H
  H491     1.0000 0.14556  0.77782  0.46535  Biso   1.000  H
  C471     1.0000 0.06358  0.68522  0.48635  Biso   1.000  C
  C472     1.0000 0.06354  0.68522  0.48635  Biso   1.000  C
  C473     1.0000 0.11469  0.96350  0.34981  Biso   1.000  C
  C474     1.0000 0.14129  0.99493  0.42290  Biso   1.000  C
  C475     1.0000 0.11467  0.96355  0.34981  Biso   1.000  C
  C476     1.0000 0.14125  0.99493  0.42290  Biso   1.000  C
  C477     1.0000 0.92550  0.80731  0.44397  Biso   1.000  C
  C478     1.0000 0.92546  0.80731  0.44397  Biso   1.000  C
  C479     1.0000 0.99199  0.65941  0.50265  Biso   1.000  C
  H492     1.0000 0.90471  0.66145  0.48474  Biso   1.000  H
  H493     1.0000 0.94438  0.65271  0.44542  Biso   1.000  H
  C480     1.0000 0.99197  0.65946  0.50265  Biso   1.000  C
  H494     1.0000 0.90466  0.66145  0.48474  Biso   1.000  H
  H495     1.0000 0.94433  0.65271  0.44542  Biso   1.000  H
  H496     1.0000 0.06179  0.66073  0.46002  Biso   1.000  H
  H497     1.0000 0.09017  0.67581  0.50744  Biso   1.000  H
  H498     1.0000 0.09670  0.92911  0.32862  Biso   1.000  H
  H499     1.0000 0.09668  0.92916  0.32862  Biso   1.000  H
  C481     1.0000 0.13859  0.03184  0.33856  Biso   1.000  C
  H500     1.0000 0.14056  0.98231  0.45154  Biso   1.000  H
  C482     1.0000 0.16642  0.06270  0.41209  Biso   1.000  C
  C483     1.0000 0.16644  0.06276  0.41209  Biso   1.000  C
  H501     1.0000 0.92570  0.81851  0.47282  Biso   1.000  H
  C484     1.0000 0.89630  0.83353  0.41209  Biso   1.000  C
  H502     1.0000 0.92568  0.81856  0.47282  Biso   1.000  H
  C485     1.0000 0.89625  0.83353  0.41209  Biso   1.000  C
  H503     1.0000 0.99419  0.68000  0.53052  Biso   1.000  H
  H504     1.0000 0.96888  0.60922  0.50624  Biso   1.000  H
  H505     1.0000 0.99417  0.68005  0.53052  Biso   1.000  H
  H506     1.0000 0.96884  0.60922  0.50624  Biso   1.000  H
  C486     1.0000 0.16366  0.08075  0.37025  Biso   1.000  C
  C487     1.0000 0.14017  0.05340  0.29372  Biso   1.000  C
  C488     1.0000 0.14019  0.05345  0.29372  Biso   1.000  C
  C489     1.0000 0.19266  0.11811  0.44397  Biso   1.000  C
  C490     1.0000 0.19268  0.11816  0.44397  Biso   1.000  C
  C491     1.0000 0.91709  0.83634  0.37025  Biso   1.000  C
  C492     1.0000 0.85370  0.85873  0.42290  Biso   1.000  C
  C493     1.0000 0.85366  0.85873  0.42290  Biso   1.000  C
  H507     1.0000 0.17921  0.12715  0.36344  Biso   1.000  H
  H508     1.0000 0.17917  0.12715  0.36344  Biso   1.000  H
  C494     1.0000 0.18207  0.12163  0.28189  Biso   1.000  C
  C495     1.0000 0.10080  0.00751  0.26244  Biso   1.000  C
  C496     1.0000 0.10078  0.00756  0.26244  Biso   1.000  C
  N61      1.0000 0.22976  0.17974  0.43322  Biso   1.000  N
  H509     1.0000 0.18150  0.10712  0.47282  Biso   1.000  H
  H510     1.0000 0.18141  0.10712  0.47282  Biso   1.000  H
  H511     1.0000 0.94796  0.82081  0.36344  Biso   1.000  H
  C497     1.0000 0.89330  0.86144  0.33856  Biso   1.000  C
  H512     1.0000 0.94798  0.82086  0.36344  Biso   1.000  H
  C498     1.0000 0.89325  0.86144  0.33856  Biso   1.000  C
  C499     1.0000 0.82850  0.88321  0.39163  Biso   1.000  C
  H513     1.0000 0.84180  0.85945  0.45154  Biso   1.000  H
  C500     1.0000 0.82845  0.88321  0.39163  Biso   1.000  C
  H514     1.0000 0.84175  0.85945  0.45154  Biso   1.000  H
  H515     1.0000 0.20967  0.15434  0.30255  Biso   1.000  H
  C501     1.0000 0.18394  0.14254  0.24062  Biso   1.000  C
  C502     1.0000 0.10475  0.02851  0.22075  Biso   1.000  C
  H516     1.0000 0.07071  0.96115  0.26963  Biso   1.000  H
  H517     1.0000 0.07067  0.96115  0.26963  Biso   1.000  H
  C503     1.0000 0.24635  0.23274  0.46465  Biso   1.000  C
  C504     1.0000 0.84889  0.88531  0.34981  Biso   1.000  C
  C505     1.0000 0.91328  0.85980  0.29372  Biso   1.000  C
  C506     1.0000 0.84887  0.88536  0.34981  Biso   1.000  C
  C507     1.0000 0.91326  0.85985  0.29372  Biso   1.000  C
  C508     1.0000 0.78118  0.90871  0.40254  Biso   1.000  C
  C509     1.0000 0.78114  0.90871  0.40254  Biso   1.000  C
  C510     1.0000 0.14686  0.09654  0.20925  Biso   1.000  C
  H518     1.0000 0.21149  0.18951  0.23375  Biso   1.000  H
  H519     1.0000 0.21143  0.18956  0.23375  Biso   1.000  H
  H520     1.0000 0.07839  0.99580  0.19985  Biso   1.000  H
  H521     1.0000 0.07837  0.99585  0.19985  Biso   1.000  H
  C511     1.0000 0.22021  0.27874  0.44709  Biso   1.000  C
  C512     1.0000 0.32304  0.27353  0.47254  Biso   1.000  C
  H522     1.0000 0.22214  0.21133  0.49164  Biso   1.000  H
  C513     1.0000 0.22013  0.27874  0.44709  Biso   1.000  C
  H523     1.0000 0.83250  0.90335  0.32862  Biso   1.000  H
  H524     1.0000 0.83246  0.90335  0.32862  Biso   1.000  H
  C514     1.0000 0.93958  0.81794  0.28189  Biso   1.000  C
  C515     1.0000 0.90678  0.89921  0.26244  Biso   1.000  C
  C516     1.0000 0.90676  0.89926  0.26244  Biso   1.000  C
  N62      1.0000 0.76256  0.90892  0.44044  Biso   1.000  N
  H525     1.0000 0.76448  0.92532  0.38075  Biso   1.000  H
  C517     1.0000 0.15171  0.11703  0.16393  Biso   1.000  C
  C518     1.0000 0.15162  0.11703  0.16393  Biso   1.000  C
  N63      1.0000 0.14641  0.23745  0.44044  Biso   1.000  N
  H526     1.0000 0.24295  0.29801  0.41944  Biso   1.000  H
  C519     1.0000 0.23723  0.33711  0.47749  Biso   1.000  C
  N64      1.0000 0.14636  0.23745  0.44044  Biso   1.000  N
  H527     1.0000 0.24291  0.29801  0.41944  Biso   1.000  H
  C520     1.0000 0.23725  0.33716  0.47749  Biso   1.000  C
  C521     1.0000 0.34053  0.33251  0.50265  Biso   1.000  C
  H528     1.0000 0.33860  0.24322  0.48474  Biso   1.000  H
  H529     1.0000 0.34727  0.29162  0.44542  Biso   1.000  H
  H530     1.0000 0.33851  0.24322  0.48474  Biso   1.000  H
  H531     1.0000 0.94468  0.79035  0.30255  Biso   1.000  H
  C522     1.0000 0.95857  0.81600  0.24062  Biso   1.000  C
  C523     1.0000 0.95860  0.81605  0.24062  Biso   1.000  C
  C524     1.0000 0.92378  0.89522  0.22075  Biso   1.000  C
  H532     1.0000 0.89050  0.92931  0.26963  Biso   1.000  H
  H533     1.0000 0.89045  0.92931  0.26963  Biso   1.000  H
  C525     1.0000 0.72128  0.94142  0.44709  Biso   1.000  C
  C526     1.0000 0.13496  0.16605  0.15097  Biso   1.000  C
  C527     1.0000 0.16972  0.08463  0.13392  Biso   1.000  C
  C528     1.0000 0.12759  0.21884  0.40254  Biso   1.000  C
  H534     1.0000 0.21243  0.31850  0.50432  Biso   1.000  H
  H535     1.0000 0.22217  0.36772  0.46535  Biso   1.000  H
  C529     1.0000 0.31477  0.37835  0.48635  Biso   1.000  C
  H536     1.0000 0.21246  0.31856  0.50432  Biso   1.000  H
  C530     1.0000 0.31472  0.37835  0.48635  Biso   1.000  C
  H537     1.0000 0.31991  0.31411  0.53052  Biso   1.000  H
  H538     1.0000 0.39080  0.35965  0.50624  Biso   1.000  H
  H539     1.0000 0.39071  0.35965  0.50624  Biso   1.000  H
  H540     1.0000 0.97806  0.78851  0.23375  Biso   1.000  H
  C531     1.0000 0.94968  0.85311  0.20925  Biso   1.000  C
  H541     1.0000 0.97809  0.78856  0.23375  Biso   1.000  H
  C532     1.0000 0.94966  0.85316  0.20925  Biso   1.000  C
  H542     1.0000 0.91751  0.92164  0.19985  Biso   1.000  H
  H543     1.0000 0.91747  0.92164  0.19985  Biso   1.000  H
  C533     1.0000 0.76725  0.01364  0.46465  Biso   1.000  C
  H544     1.0000 0.70202  0.94495  0.41944  Biso   1.000  H
  C534     1.0000 0.66287  0.90013  0.47749  Biso   1.000  C
  H545     1.0000 0.70197  0.94495  0.41944  Biso   1.000  H
  H546     1.0000 0.12264  0.18884  0.17134  Biso   1.000  H
  C535     1.0000 0.13633  0.18153  0.10822  Biso   1.000  C
  H547     1.0000 0.18035  0.05075  0.14243  Biso   1.000  H
  C536     1.0000 0.17269  0.10083  0.09135  Biso   1.000  C
  C537     1.0000 0.17260  0.10083  0.09135  Biso   1.000  C
  C538     1.0000 0.05480  0.17152  0.39163  Biso   1.000  C
  H548     1.0000 0.16088  0.23550  0.38075  Biso   1.000  H
  C539     1.0000 0.05471  0.17152  0.39163  Biso   1.000  C
  H549     1.0000 0.16087  0.23555  0.38075  Biso   1.000  H
  H550     1.0000 0.33926  0.40104  0.46002  Biso   1.000  H
  H551     1.0000 0.32417  0.41433  0.50744  Biso   1.000  H
  C540     1.0000 0.96538  0.84830  0.16393  Biso   1.000  C
  C541     1.0000 0.96536  0.84835  0.16393  Biso   1.000  C
  N65      1.0000 0.82028  0.05003  0.43322  Biso   1.000  N
  C542     1.0000 0.72650  0.04952  0.47254  Biso   1.000  C
  H552     1.0000 0.78864  0.01083  0.49164  Biso   1.000  H
  C543     1.0000 0.72641  0.04952  0.47254  Biso   1.000  C
  H553     1.0000 0.78860  0.01083  0.49164  Biso   1.000  H
  H554     1.0000 0.68151  0.89394  0.50432  Biso   1.000  H
  H555     1.0000 0.63228  0.85444  0.46535  Biso   1.000  H
  C544     1.0000 0.62166  0.93641  0.48635  Biso   1.000  C
  H556     1.0000 0.68147  0.89394  0.50432  Biso   1.000  H
  C545     1.0000 0.15314  0.14734  0.07870  Biso   1.000  C
  C546     1.0000 0.11306  0.22963  0.09460  Biso   1.000  C
  C547     1.0000 0.19218  0.06644  0.06023  Biso   1.000  C
  C548     1.0000 0.03646  0.15112  0.34981  Biso   1.000  C
  C549     1.0000 0.00506  0.14632  0.42290  Biso   1.000  C
  C550     1.0000 0.03641  0.15112  0.34981  Biso   1.000  C
  C551     1.0000 0.91486  0.83021  0.13392  Biso   1.000  C
  C552     1.0000 0.03110  0.86502  0.15097  Biso   1.000  C
  C553     1.0000 0.03106  0.86502  0.15097  Biso   1.000  C
  C554     1.0000 0.88188  0.07451  0.44397  Biso   1.000  C
  H557     1.0000 0.75675  0.09531  0.48474  Biso   1.000  H
  C555     1.0000 0.66742  0.00802  0.50265  Biso   1.000  C
  H558     1.0000 0.70837  0.05565  0.44542  Biso   1.000  H
  H559     1.0000 0.70832  0.05565  0.44542  Biso   1.000  H
  H560     1.0000 0.59897  0.93820  0.46002  Biso   1.000  H
  H561     1.0000 0.58571  0.90984  0.50744  Biso   1.000  H
  H562     1.0000 0.59899  0.93825  0.46002  Biso   1.000  H
  H563     1.0000 0.58567  0.90984  0.50744  Biso   1.000  H
  H564     1.0000 0.15136  0.15582  0.04954  Biso   1.000  H
  H565     1.0000 0.10265  0.25324  0.11544  Biso   1.000  H
  N66      1.0000 0.10681  0.24005  0.05616  Biso   1.000  N
  N67      1.0000 0.10673  0.24005  0.05616  Biso   1.000  N
  N68      1.0000 0.22153  0.03281  0.06997  Biso   1.000  N
  H566     1.0000 0.18233  0.06904  0.03134  Biso   1.000  H
  N69      1.0000 0.22156  0.03286  0.06997  Biso   1.000  N
  H567     1.0000 0.07086  0.16753  0.32862  Biso   1.000  H
  C556     1.0000 0.96813  0.10671  0.33856  Biso   1.000  C
  C557     1.0000 0.93726  0.10375  0.41209  Biso   1.000  C
  H568     1.0000 0.01770  0.15823  0.45154  Biso   1.000  H
  H569     1.0000 0.01766  0.15823  0.45154  Biso   1.000  H
  C558     1.0000 0.92821  0.82735  0.09135  Biso   1.000  C
  H570     1.0000 0.87040  0.81963  0.14243  Biso   1.000  H
  C559     1.0000 0.92817  0.82735  0.09135  Biso   1.000  C
  H571     1.0000 0.87036  0.81963  0.14243  Biso   1.000  H
  H572     1.0000 0.06621  0.87733  0.17134  Biso   1.000  H
  C560     1.0000 0.04519  0.86364  0.10822  Biso   1.000  C
  H573     1.0000 0.06616  0.87733  0.17134  Biso   1.000  H
  C561     1.0000 0.04515  0.86364  0.10822  Biso   1.000  C
  H574     1.0000 0.89288  0.07431  0.47282  Biso   1.000  H
  H575     1.0000 0.89286  0.07436  0.47282  Biso   1.000  H
  H576     1.0000 0.68589  0.00582  0.53052  Biso   1.000  H
  H577     1.0000 0.64038  0.03112  0.50624  Biso   1.000  H
  H578     1.0000 0.68584  0.00582  0.53052  Biso   1.000  H
  C562     1.0000 0.07664  0.28355  0.04736  Biso   1.000  C
  C563     1.0000 0.23616  0.99841  0.03595  Biso   1.000  C
  C564     1.0000 0.91929  0.08294  0.37025  Biso   1.000  C
  C565     1.0000 0.94659  0.08673  0.29372  Biso   1.000  C
  C566     1.0000 0.94650  0.08673  0.29372  Biso   1.000  C
  C567     1.0000 0.99416  0.84682  0.07870  Biso   1.000  C
  C568     1.0000 0.87428  0.80783  0.06023  Biso   1.000  C
  C569     1.0000 0.11660  0.88694  0.09460  Biso   1.000  C
  C570     1.0000 0.11656  0.88694  0.09460  Biso   1.000  C
  C571     1.0000 0.00156  0.23775  0.03595  Biso   1.000  C
  C572     1.0000 0.11353  0.33343  0.01129  Biso   1.000  C
  H579     1.0000 0.07988  0.31012  0.07334  Biso   1.000  H
  C573     1.0000 0.20690  0.92333  0.04736  Biso   1.000  C
  C574     1.0000 0.20685  0.92333  0.04736  Biso   1.000  C
  H580     1.0000 0.21326  0.00122  0.00965  Biso   1.000  H
  C575     1.0000 0.31276  0.03281  0.02784  Biso   1.000  C
  C576     1.0000 0.31278  0.03286  0.02784  Biso   1.000  C
  H581     1.0000 0.87284  0.05202  0.36344  Biso   1.000  H
  H582     1.0000 0.87280  0.05202  0.36344  Biso   1.000  H
  C577     1.0000 0.87836  0.06040  0.28189  Biso   1.000  C
  C578     1.0000 0.99245  0.09322  0.26244  Biso   1.000  C
  C579     1.0000 0.87839  0.06046  0.28189  Biso   1.000  C
  C580     1.0000 0.99241  0.09322  0.26244  Biso   1.000  C
  H583     1.0000 0.00448  0.84861  0.04954  Biso   1.000  H
  H584     1.0000 0.00444  0.84861  0.04954  Biso   1.000  H
  N70      1.0000 0.81130  0.77844  0.06997  Biso   1.000  N
  H585     1.0000 0.88671  0.81764  0.03134  Biso   1.000  H
  N71      1.0000 0.81125  0.77844  0.06997  Biso   1.000  N
  H586     1.0000 0.88667  0.81764  0.03134  Biso   1.000  H
  H587     1.0000 0.15060  0.89732  0.11544  Biso   1.000  H
  N72      1.0000 0.13329  0.89323  0.05616  Biso   1.000  N
  H588     1.0000 0.15056  0.89732  0.11544  Biso   1.000  H
  N73      1.0000 0.13324  0.89323  0.05616  Biso   1.000  N
  H589     1.0000 0.99875  0.21204  0.00965  Biso   1.000  H
  N74      1.0000 0.96714  0.18874  0.06997  Biso   1.000  N
  C581     1.0000 0.96718  0.27992  0.02784  Biso   1.000  C
  C582     1.0000 0.96714  0.27992  0.02784  Biso   1.000  C
  H590     1.0000 0.11267  0.30772  0.98584  Biso   1.000  H
  C583     1.0000 0.07950  0.37575  0.00148  Biso   1.000  C
  H591     1.0000 0.16188  0.36435  0.01914  Biso   1.000  H
  C584     1.0000 0.07945  0.37575  0.00148  Biso   1.000  C
  C585     1.0000 0.21987  0.88643  0.01129  Biso   1.000  C
  H592     1.0000 0.23029  0.92011  0.07334  Biso   1.000  H
  H593     1.0000 0.23025  0.92011  0.07334  Biso   1.000  H
  C586     1.0000 0.32648  0.99591  0.99240  Biso   1.000  C
  C587     1.0000 0.32647  0.99596  0.99240  Biso   1.000  C
  H594     1.0000 0.33058  0.08121  0.01993  Biso   1.000  H
  H595     1.0000 0.33642  0.03163  0.05382  Biso   1.000  H
  H596     1.0000 0.33052  0.08126  0.01993  Biso   1.000  H
  H597     1.0000 0.84565  0.05535  0.30255  Biso   1.000  H
  C588     1.0000 0.85746  0.04144  0.24062  Biso   1.000  C
  C589     1.0000 0.85742  0.04144  0.24062  Biso   1.000  C
  C590     1.0000 0.97144  0.07625  0.22075  Biso   1.000  C
  H598     1.0000 0.03889  0.10952  0.26963  Biso   1.000  H
  H599     1.0000 0.03885  0.10952  0.26963  Biso   1.000  H
  C591     1.0000 0.76229  0.76382  0.03595  Biso   1.000  C
  C592     1.0000 0.76225  0.76382  0.03595  Biso   1.000  C
  C593     1.0000 0.93360  0.12572  0.06023  Biso   1.000  C
  C594     1.0000 0.93351  0.12572  0.06023  Biso   1.000  C
  H600     1.0000 0.91877  0.24930  0.01993  Biso   1.000  H
  H601     1.0000 0.96839  0.30481  0.05382  Biso   1.000  H
  H602     1.0000 0.91879  0.24935  0.01993  Biso   1.000  H
  H603     1.0000 0.96832  0.30486  0.05382  Biso   1.000  H
  C595     1.0000 0.00408  0.33051  0.99240  Biso   1.000  C
  H604     1.0000 0.10199  0.40524  0.97673  Biso   1.000  H
  H605     1.0000 0.08538  0.40575  0.02573  Biso   1.000  H
  C596     1.0000 0.29627  0.92052  0.00148  Biso   1.000  C
  H606     1.0000 0.19510  0.88735  0.98584  Biso   1.000  H
  H607     1.0000 0.19506  0.88735  0.98584  Biso   1.000  H
  H608     1.0000 0.20249  0.83813  0.01914  Biso   1.000  H
  H609     1.0000 0.20245  0.83813  0.01914  Biso   1.000  H
  H610     1.0000 0.30663  0.00153  0.96582  Biso   1.000  H
  H611     1.0000 0.37634  0.01691  0.98833  Biso   1.000  H
  H612     1.0000 0.37629  0.01691  0.98833  Biso   1.000  H
  H613     1.0000 0.81048  0.02192  0.23375  Biso   1.000  H
  C597     1.0000 0.90347  0.05034  0.20925  Biso   1.000  C
  H614     1.0000 0.00420  0.08253  0.19985  Biso   1.000  H
  H615     1.0000 0.00411  0.08253  0.19985  Biso   1.000  H
  H616     1.0000 0.78799  0.78672  0.00965  Biso   1.000  H
  C598     1.0000 0.72009  0.68721  0.02784  Biso   1.000  C
  C599     1.0000 0.71648  0.79311  0.04736  Biso   1.000  C
  H617     1.0000 0.78795  0.78672  0.00965  Biso   1.000  H
  C600     1.0000 0.72005  0.68721  0.02784  Biso   1.000  C
  C601     1.0000 0.71650  0.79316  0.04736  Biso   1.000  C
  C602     1.0000 0.89916  0.07180  0.09135  Biso   1.000  C
  H618     1.0000 0.93097  0.11330  0.03134  Biso   1.000  H
  C603     1.0000 0.89918  0.07185  0.09135  Biso   1.000  C
  H619     1.0000 0.93100  0.11335  0.03134  Biso   1.000  H
  H620     1.0000 0.99846  0.30511  0.96582  Biso   1.000  H
  H621     1.0000 0.98309  0.35944  0.98833  Biso   1.000  H
  H622     1.0000 0.32038  0.91464  0.02573  Biso   1.000  H
  H623     1.0000 0.30331  0.89803  0.97673  Biso   1.000  H
  H624     1.0000 0.30326  0.89803  0.97673  Biso   1.000  H
  C604     1.0000 0.88297  0.03465  0.16393  Biso   1.000  C
  C605     1.0000 0.66947  0.67351  0.99240  Biso   1.000  C
  H625     1.0000 0.75068  0.66942  0.01993  Biso   1.000  H
  H626     1.0000 0.69520  0.66355  0.05382  Biso   1.000  H
  H627     1.0000 0.69516  0.66355  0.05382  Biso   1.000  H
  N75      1.0000 0.75996  0.86670  0.05616  Biso   1.000  N
  C606     1.0000 0.66656  0.78012  0.01129  Biso   1.000  C
  H628     1.0000 0.68988  0.76975  0.07334  Biso   1.000  H
  N76      1.0000 0.75998  0.86675  0.05616  Biso   1.000  N
  C607     1.0000 0.85266  0.00582  0.07870  Biso   1.000  C
  C608     1.0000 0.91534  0.08514  0.13392  Biso   1.000  C
  C609     1.0000 0.83399  0.96892  0.15097  Biso   1.000  C
  C610     1.0000 0.83395  0.96892  0.15097  Biso   1.000  C
  H629     1.0000 0.69488  0.69334  0.96582  Biso   1.000  H
  H630     1.0000 0.64059  0.62363  0.98833  Biso   1.000  H
  H631     1.0000 0.64054  0.62363  0.98833  Biso   1.000  H
  C611     1.0000 0.62429  0.70372  0.00148  Biso   1.000  C
  C612     1.0000 0.62424  0.70372  0.00148  Biso   1.000  C
  C613     1.0000 0.77039  0.88342  0.09460  Biso   1.000  C
  C614     1.0000 0.77035  0.88342  0.09460  Biso   1.000  C
  H632     1.0000 0.69228  0.80491  0.98584  Biso   1.000  H
  H633     1.0000 0.69224  0.80491  0.98584  Biso   1.000  H
  H634     1.0000 0.63571  0.79755  0.01914  Biso   1.000  H
  H635     1.0000 0.63566  0.79755  0.01914  Biso   1.000  H
  C615     1.0000 0.81849  0.95481  0.10822  Biso   1.000  C
  C616     1.0000 0.81844  0.95481  0.10822  Biso   1.000  C
  H636     1.0000 0.84421  0.99555  0.04954  Biso   1.000  H
  H637     1.0000 0.84416  0.99555  0.04954  Biso   1.000  H
  H638     1.0000 0.94921  0.12961  0.14243  Biso   1.000  H
  H639     1.0000 0.94924  0.12966  0.14243  Biso   1.000  H
  H640     1.0000 0.81117  0.93381  0.17134  Biso   1.000  H
  H641     1.0000 0.59476  0.69671  0.97673  Biso   1.000  H
  H642     1.0000 0.59428  0.67964  0.02573  Biso   1.000  H
  H643     1.0000 0.74680  0.84943  0.11544  Biso   1.000  H
  H644     1.0000 0.74676  0.84943  0.11544  Biso   1.000  H
  C617     1.0000 0.11816  0.92548  0.55603  Biso   1.000  C
  N77      1.0000 0.17976  0.94996  0.56678  Biso   1.000  N
  N78      1.0000 0.17971  0.94996  0.56678  Biso   1.000  N
  H645     1.0000 0.10716  0.92568  0.52718  Biso   1.000  H
  C618     1.0000 0.06274  0.89624  0.58791  Biso   1.000  C
  C619     1.0000 0.23274  0.98635  0.53535  Biso   1.000  C
  C620     1.0000 0.11812  0.92548  0.55603  Biso   1.000  C
  C621     1.0000 0.08075  0.91704  0.62975  Biso   1.000  C
  C622     1.0000 0.08071  0.91704  0.62975  Biso   1.000  C
  C623     1.0000 0.99498  0.85367  0.57710  Biso   1.000  C
  C624     1.0000 0.99493  0.85367  0.57710  Biso   1.000  C
  C625     1.0000 0.27354  0.95047  0.52746  Biso   1.000  C
  H646     1.0000 0.21135  0.98916  0.50836  Biso   1.000  H
  C626     1.0000 0.27876  0.05856  0.55291  Biso   1.000  C
  C627     1.0000 0.27867  0.05856  0.55291  Biso   1.000  C
  H647     1.0000 0.12715  0.94797  0.63656  Biso   1.000  H
  C628     1.0000 0.03187  0.89328  0.66144  Biso   1.000  C
  C629     1.0000 0.03182  0.89328  0.66144  Biso   1.000  C
  C630     1.0000 0.94524  0.82847  0.60837  Biso   1.000  C
  H648     1.0000 0.98234  0.84176  0.54846  Biso   1.000  H
  C631     1.0000 0.33257  0.99197  0.49735  Biso   1.000  C
  H649     1.0000 0.24325  0.90468  0.51526  Biso   1.000  H
  H650     1.0000 0.29163  0.94434  0.55458  Biso   1.000  H
  C632     1.0000 0.33253  0.99197  0.49735  Biso   1.000  C
  H651     1.0000 0.29165  0.94439  0.55458  Biso   1.000  H
  C633     1.0000 0.33712  0.09986  0.52251  Biso   1.000  C
  C634     1.0000 0.33708  0.09986  0.52251  Biso   1.000  C
  N79      1.0000 0.23748  0.09107  0.55956  Biso   1.000  N
  H652     1.0000 0.29798  0.05504  0.58056  Biso   1.000  H
  N80      1.0000 0.23739  0.09107  0.55956  Biso   1.000  N
  H653     1.0000 0.29800  0.05509  0.58056  Biso   1.000  H
  H654     1.0000 0.29809  0.05509  0.58056  Biso   1.000  H
  C635     1.0000 0.05345  0.91326  0.70628  Biso   1.000  C
  C636     1.0000 0.96354  0.84887  0.65019  Biso   1.000  C
  C637     1.0000 0.87245  0.78115  0.59746  Biso   1.000  C
  C638     1.0000 0.87240  0.78115  0.59746  Biso   1.000  C
  H655     1.0000 0.31415  0.99417  0.46948  Biso   1.000  H
  H656     1.0000 0.35966  0.96887  0.49376  Biso   1.000  H
  H657     1.0000 0.35962  0.96887  0.49376  Biso   1.000  H
  C639     1.0000 0.37838  0.06357  0.51365  Biso   1.000  C
  C640     1.0000 0.37833  0.06357  0.51365  Biso   1.000  C
  H658     1.0000 0.31853  0.10604  0.49568  Biso   1.000  H
  H659     1.0000 0.36771  0.14555  0.53465  Biso   1.000  H
  C641     1.0000 0.21885  0.09127  0.59746  Biso   1.000  C
  C642     1.0000 0.12168  0.93958  0.71811  Biso   1.000  C
  C643     1.0000 0.00754  0.90677  0.73756  Biso   1.000  C
  C644     1.0000 0.12163  0.93958  0.71811  Biso   1.000  C
  H660     1.0000 0.92913  0.83246  0.67138  Biso   1.000  H
  N81      1.0000 0.85363  0.76254  0.55956  Biso   1.000  N
  H661     1.0000 0.83915  0.76449  0.61925  Biso   1.000  H
  H662     1.0000 0.40107  0.06178  0.53998  Biso   1.000  H
  H663     1.0000 0.41433  0.09015  0.49256  Biso   1.000  H
  H664     1.0000 0.40103  0.06178  0.53998  Biso   1.000  H
  C645     1.0000 0.17150  0.11678  0.60837  Biso   1.000  C
  H665     1.0000 0.23551  0.07466  0.61925  Biso   1.000  H
  H666     1.0000 0.15435  0.94464  0.69745  Biso   1.000  H
  C646     1.0000 0.14253  0.95855  0.75938  Biso   1.000  C
  H667     1.0000 0.15430  0.94464  0.69745  Biso   1.000  H
  C647     1.0000 0.02855  0.92374  0.77925  Biso   1.000  C
  C648     1.0000 0.02853  0.92379  0.77925  Biso   1.000  C
  H668     1.0000 0.96115  0.89047  0.73037  Biso   1.000  H
  C649     1.0000 0.77982  0.72125  0.55291  Biso   1.000  C
  C650     1.0000 0.15111  0.11468  0.65019  Biso   1.000  C
  C651     1.0000 0.14634  0.14126  0.57710  Biso   1.000  C
  H669     1.0000 0.18956  0.97807  0.76625  Biso   1.000  H
  C652     1.0000 0.09657  0.94965  0.79075  Biso   1.000  C
  H670     1.0000 0.18952  0.97807  0.76625  Biso   1.000  H
  C653     1.0000 0.09652  0.94965  0.79075  Biso   1.000  C
  H671     1.0000 0.99584  0.91745  0.80015  Biso   1.000  H
  H672     1.0000 0.75704  0.70198  0.58056  Biso   1.000  H
  C654     1.0000 0.76277  0.66288  0.52251  Biso   1.000  C
  C655     1.0000 0.75365  0.76724  0.53535  Biso   1.000  C
  C656     1.0000 0.76272  0.66288  0.52251  Biso   1.000  C
  C657     1.0000 0.75360  0.76724  0.53535  Biso   1.000  C
  C658     1.0000 0.10674  0.13855  0.66144  Biso   1.000  C
  H673     1.0000 0.16749  0.09664  0.67138  Biso   1.000  H
  H674     1.0000 0.16752  0.09669  0.67138  Biso   1.000  H
  C659     1.0000 0.10370  0.16646  0.58791  Biso   1.000  C
  H675     1.0000 0.15824  0.14054  0.54846  Biso   1.000  H
  C660     1.0000 0.11703  0.96534  0.83607  Biso   1.000  C
  H676     1.0000 0.78756  0.68148  0.49568  Biso   1.000  H
  H677     1.0000 0.77787  0.63227  0.53465  Biso   1.000  H
  C661     1.0000 0.68523  0.62164  0.51365  Biso   1.000  C
  H678     1.0000 0.77782  0.63227  0.53465  Biso   1.000  H
  C662     1.0000 0.68525  0.62169  0.51365  Biso   1.000  C
  N82      1.0000 0.77023  0.82024  0.56678  Biso   1.000  N
  C663     1.0000 0.67696  0.72646  0.52746  Biso   1.000  C
  H679     1.0000 0.77786  0.78866  0.50836  Biso   1.000  H
  C664     1.0000 0.67691  0.72646  0.52746  Biso   1.000  C
  H680     1.0000 0.77781  0.78866  0.50836  Biso   1.000  H
  C665     1.0000 0.08295  0.16364  0.62975  Biso   1.000  C
  C666     1.0000 0.08671  0.14019  0.70628  Biso   1.000  C
  C667     1.0000 0.08286  0.16364  0.62975  Biso   1.000  C
  C668     1.0000 0.07449  0.19267  0.55603  Biso   1.000  C
  C669     1.0000 0.08465  0.91485  0.86608  Biso   1.000  C
  C670     1.0000 0.08461  0.91485  0.86608  Biso   1.000  C
  C671     1.0000 0.16605  0.03107  0.84903  Biso   1.000  C
  H681     1.0000 0.66073  0.59894  0.53998  Biso   1.000  H
  H682     1.0000 0.67587  0.58566  0.49256  Biso   1.000  H
  C672     1.0000 0.65946  0.66748  0.49735  Biso   1.000  C
  H683     1.0000 0.67582  0.58566  0.49256  Biso   1.000  H
  C673     1.0000 0.80738  0.88188  0.55603  Biso   1.000  C
  C674     1.0000 0.80734  0.88188  0.55603  Biso   1.000  C
  H684     1.0000 0.66144  0.75677  0.51526  Biso   1.000  H
  H685     1.0000 0.65277  0.70837  0.55458  Biso   1.000  H
  H686     1.0000 0.65273  0.70837  0.55458  Biso   1.000  H
  H687     1.0000 0.05203  0.17918  0.63656  Biso   1.000  H
  H688     1.0000 0.05199  0.17918  0.63656  Biso   1.000  H
  C675     1.0000 0.06042  0.18204  0.71811  Biso   1.000  C
  C676     1.0000 0.09321  0.10078  0.73756  Biso   1.000  C
  C677     1.0000 0.06037  0.18204  0.71811  Biso   1.000  C
  H689     1.0000 0.07430  0.18148  0.52718  Biso   1.000  H
  N83      1.0000 0.05007  0.22978  0.56678  Biso   1.000  N
  N84      1.0000 0.05002  0.22978  0.56678  Biso   1.000  N
  C678     1.0000 0.10088  0.92819  0.90865  Biso   1.000  C
  H690     1.0000 0.05078  0.87038  0.85757  Biso   1.000  H
  C679     1.0000 0.10084  0.92819  0.90865  Biso   1.000  C
  H691     1.0000 0.05074  0.87038  0.85757  Biso   1.000  H
  H692     1.0000 0.18887  0.06618  0.82866  Biso   1.000  H
  C680     1.0000 0.18155  0.04517  0.89178  Biso   1.000  C
  H693     1.0000 0.18878  0.06618  0.82866  Biso   1.000  H
  H694     1.0000 0.68008  0.68588  0.46948  Biso   1.000  H
  H695     1.0000 0.60924  0.64034  0.49376  Biso   1.000  H
  H696     1.0000 0.68004  0.68588  0.46948  Biso   1.000  H
  H697     1.0000 0.81854  0.89287  0.52718  Biso   1.000  H
  C681     1.0000 0.83358  0.93728  0.58791  Biso   1.000  C
  C682     1.0000 0.83353  0.93728  0.58791  Biso   1.000  C
  H698     1.0000 0.05531  0.20964  0.69745  Biso   1.000  H
  C683     1.0000 0.04147  0.18399  0.75938  Biso   1.000  C
  C684     1.0000 0.04138  0.18399  0.75938  Biso   1.000  C
  C685     1.0000 0.07622  0.10477  0.77925  Biso   1.000  C
  H699     1.0000 0.10954  0.07068  0.73037  Biso   1.000  H
  C686     1.0000 0.01364  0.24634  0.53535  Biso   1.000  C
  C687     1.0000 0.01358  0.24639  0.53535  Biso   1.000  C
  C688     1.0000 0.14737  0.99417  0.92130  Biso   1.000  C
  C689     1.0000 0.06644  0.87427  0.93977  Biso   1.000  C
  C690     1.0000 0.14733  0.99417  0.92130  Biso   1.000  C
  C691     1.0000 0.22960  0.11657  0.90540  Biso   1.000  C
  C692     1.0000 0.83633  0.91924  0.62975  Biso   1.000  C
  C693     1.0000 0.85870  0.00505  0.57710  Biso   1.000  C
  H700     1.0000 0.02193  0.21148  0.76625  Biso   1.000  H
  C694     1.0000 0.05031  0.14688  0.79075  Biso   1.000  C
  H701     1.0000 0.02189  0.21148  0.76625  Biso   1.000  H
  H702     1.0000 0.08248  0.07834  0.80015  Biso   1.000  H
  C695     1.0000 0.94143  0.22017  0.55291  Biso   1.000  C
  C696     1.0000 0.04957  0.32305  0.52746  Biso   1.000  C
  H703     1.0000 0.01081  0.22216  0.50836  Biso   1.000  H
  C697     1.0000 0.04948  0.32305  0.52746  Biso   1.000  C
  H704     1.0000 0.15579  0.00444  0.95046  Biso   1.000  H
  H705     1.0000 0.15581  0.00449  0.95046  Biso   1.000  H
  N85      1.0000 0.03285  0.81125  0.93003  Biso   1.000  N
  H706     1.0000 0.06907  0.88669  0.96866  Biso   1.000  H
  N86      1.0000 0.03281  0.81125  0.93003  Biso   1.000  N
  H707     1.0000 0.06902  0.88669  0.96866  Biso   1.000  H
  H708     1.0000 0.25319  0.15056  0.88456  Biso   1.000  H
  N87      1.0000 0.24008  0.13329  0.94384  Biso   1.000  N
  N88      1.0000 0.23999  0.13329  0.94384  Biso   1.000  N
  H709     1.0000 0.82083  0.87284  0.63656  Biso   1.000  H
  C698     1.0000 0.86145  0.96815  0.66144  Biso   1.000  C
  H710     1.0000 0.82085  0.87289  0.63656  Biso   1.000  H
  C699     1.0000 0.86141  0.96815  0.66144  Biso   1.000  C
  C700     1.0000 0.88325  0.05478  0.60837  Biso   1.000  C
  H711     1.0000 0.85948  0.01768  0.54846  Biso   1.000  H
  H712     1.0000 0.85943  0.01768  0.54846  Biso   1.000  H
  C701     1.0000 0.03466  0.15169  0.83607  Biso   1.000  C
  N89      1.0000 0.90891  0.14637  0.55956  Biso   1.000  N
  H713     1.0000 0.94490  0.24297  0.58056  Biso   1.000  H
  C702     1.0000 0.90012  0.23724  0.52251  Biso   1.000  C
  C703     1.0000 0.00801  0.34058  0.49735  Biso   1.000  C
  H714     1.0000 0.09533  0.33854  0.51526  Biso   1.000  H
  H715     1.0000 0.05562  0.34728  0.55458  Biso   1.000  H
  H716     1.0000 0.09536  0.33859  0.51526  Biso   1.000  H
  C704     1.0000 0.99843  0.76224  0.96405  Biso   1.000  C
  C705     1.0000 0.99846  0.76229  0.96405  Biso   1.000  C
  C706     1.0000 0.28352  0.20688  0.95264  Biso   1.000  C
  C707     1.0000 0.28347  0.20688  0.95264  Biso   1.000  C
  C708     1.0000 0.88530  0.03649  0.65019  Biso   1.000  C
  C709     1.0000 0.85987  0.94659  0.70628  Biso   1.000  C
  C710     1.0000 0.85983  0.94659  0.70628  Biso   1.000  C
  C711     1.0000 0.90871  0.12756  0.59746  Biso   1.000  C
  C712     1.0000 0.96889  0.13497  0.84903  Biso   1.000  C
  C713     1.0000 0.08518  0.16978  0.86608  Biso   1.000  C
  C714     1.0000 0.08513  0.16978  0.86608  Biso   1.000  C
  H717     1.0000 0.89393  0.21245  0.49568  Biso   1.000  H
  H718     1.0000 0.85443  0.22216  0.53465  Biso   1.000  H
  C715     1.0000 0.93646  0.31477  0.51365  Biso   1.000  C
  H719     1.0000 0.85439  0.22216  0.53465  Biso   1.000  H
  H720     1.0000 0.00581  0.31999  0.46948  Biso   1.000  H
  H721     1.0000 0.03111  0.39077  0.49376  Biso   1.000  H
  H722     1.0000 0.00124  0.78794  0.99035  Biso   1.000  H
  C716     1.0000 0.03285  0.72007  0.97216  Biso   1.000  C
  C717     1.0000 0.92335  0.71644  0.95264  Biso   1.000  C
  C718     1.0000 0.92331  0.71644  0.95264  Biso   1.000  C
  C719     1.0000 0.23770  0.23617  0.96405  Biso   1.000  C
  C720     1.0000 0.33343  0.21986  0.98871  Biso   1.000  C
  H723     1.0000 0.31011  0.23024  0.92666  Biso   1.000  H
  H724     1.0000 0.31014  0.23029  0.92666  Biso   1.000  H
  H725     1.0000 0.90334  0.07088  0.67138  Biso   1.000  H
  C721     1.0000 0.81797  0.87836  0.71811  Biso   1.000  C
  C722     1.0000 0.89924  0.99248  0.73756  Biso   1.000  C
  C723     1.0000 0.81792  0.87836  0.71811  Biso   1.000  C
  H726     1.0000 0.92537  0.16088  0.61925  Biso   1.000  H
  H727     1.0000 0.92528  0.16088  0.61925  Biso   1.000  H
  H728     1.0000 0.93379  0.12266  0.82866  Biso   1.000  H
  C724     1.0000 0.95484  0.13635  0.89178  Biso   1.000  C
  C725     1.0000 0.07182  0.17264  0.90865  Biso   1.000  C
  H729     1.0000 0.12964  0.18036  0.85757  Biso   1.000  H
  C726     1.0000 0.07185  0.17269  0.90865  Biso   1.000  C
  H730     1.0000 0.93825  0.33925  0.53998  Biso   1.000  H
  H731     1.0000 0.90986  0.32418  0.49256  Biso   1.000  H
  H732     1.0000 0.93816  0.33925  0.53998  Biso   1.000  H
  H733     1.0000 0.90978  0.32418  0.49256  Biso   1.000  H
  H734     1.0000 0.08127  0.75069  0.98007  Biso   1.000  H
  H735     1.0000 0.03165  0.69518  0.94618  Biso   1.000  H
  H736     1.0000 0.08123  0.75069  0.98007  Biso   1.000  H
  C727     1.0000 0.99596  0.66947  0.00760  Biso   1.000  C
  C728     1.0000 0.99592  0.66947  0.00760  Biso   1.000  C
  N90      1.0000 0.89322  0.75994  0.94384  Biso   1.000  N
  C729     1.0000 0.88646  0.66656  0.98871  Biso   1.000  C
  H737     1.0000 0.92016  0.68987  0.92666  Biso   1.000  H
  N91      1.0000 0.89325  0.75999  0.94384  Biso   1.000  N
  C730     1.0000 0.88642  0.66656  0.98871  Biso   1.000  C
  H738     1.0000 0.92011  0.68987  0.92666  Biso   1.000  H
  N92      1.0000 0.18870  0.22155  0.93003  Biso   1.000  N
  H739     1.0000 0.21204  0.21327  0.99035  Biso   1.000  H
  C731     1.0000 0.27995  0.31278  0.97216  Biso   1.000  C
  C732     1.0000 0.37575  0.29627  0.99852  Biso   1.000  C
  H740     1.0000 0.36429  0.20244  0.98086  Biso   1.000  H
  H741     1.0000 0.36431  0.20249  0.98086  Biso   1.000  H
  H742     1.0000 0.30771  0.19508  0.01416  Biso   1.000  H
  H743     1.0000 0.79033  0.84565  0.69745  Biso   1.000  H
  C733     1.0000 0.81606  0.85745  0.75938  Biso   1.000  C
  C734     1.0000 0.81601  0.85745  0.75938  Biso   1.000  C
  C735     1.0000 0.89525  0.97148  0.77925  Biso   1.000  C
  H744     1.0000 0.92932  0.03884  0.73037  Biso   1.000  H
  H745     1.0000 0.92935  0.03889  0.73037  Biso   1.000  H
  C736     1.0000 0.88344  0.11305  0.90540  Biso   1.000  C
  C737     1.0000 0.00583  0.15317  0.92130  Biso   1.000  C
  C738     1.0000 0.00579  0.15317  0.92130  Biso   1.000  C
  C739     1.0000 0.12571  0.19216  0.93977  Biso   1.000  C
  C740     1.0000 0.92054  0.62424  0.99852  Biso   1.000  C
  H746     1.0000 0.00158  0.69487  0.03418  Biso   1.000  H
  H747     1.0000 0.01695  0.64055  0.01167  Biso   1.000  H
  H748     1.0000 0.00153  0.69487  0.03418  Biso   1.000  H
  H749     1.0000 0.01690  0.64055  0.01167  Biso   1.000  H
  C741     1.0000 0.88697  0.77036  0.90540  Biso   1.000  C
  C742     1.0000 0.88693  0.77036  0.90540  Biso   1.000  C
  H750     1.0000 0.83816  0.63564  0.98086  Biso   1.000  H
  H751     1.0000 0.83814  0.63569  0.98086  Biso   1.000  H
  H752     1.0000 0.88736  0.69227  0.01416  Biso   1.000  H
  H753     1.0000 0.88732  0.69227  0.01416  Biso   1.000  H
  H754     1.0000 0.24931  0.33057  0.98007  Biso   1.000  H
  H755     1.0000 0.30483  0.33644  0.94618  Biso   1.000  H
  H756     1.0000 0.24927  0.33057  0.98007  Biso   1.000  H
  C743     1.0000 0.33057  0.32648  0.00760  Biso   1.000  C
  C744     1.0000 0.33048  0.32648  0.00760  Biso   1.000  C
  H757     1.0000 0.40576  0.32034  0.97427  Biso   1.000  H
  H758     1.0000 0.40567  0.32034  0.97427  Biso   1.000  H
  H759     1.0000 0.40528  0.30327  0.02327  Biso   1.000  H
  H760     1.0000 0.40523  0.30327  0.02327  Biso   1.000  H
  H761     1.0000 0.78855  0.81048  0.76625  Biso   1.000  H
  C745     1.0000 0.85313  0.90345  0.79075  Biso   1.000  C
  H762     1.0000 0.92165  0.00419  0.80015  Biso   1.000  H
  H763     1.0000 0.84944  0.10267  0.88456  Biso   1.000  H
  N93      1.0000 0.86671  0.10676  0.94384  Biso   1.000  N
  H764     1.0000 0.99555  0.15138  0.95046  Biso   1.000  H
  H765     1.0000 0.11333  0.18235  0.96866  Biso   1.000  H
  H766     1.0000 0.91466  0.59424  0.97427  Biso   1.000  H
  H767     1.0000 0.91461  0.59424  0.97427  Biso   1.000  H
  H768     1.0000 0.89805  0.59475  0.02327  Biso   1.000  H
  H769     1.0000 0.89800  0.59475  0.02327  Biso   1.000  H
  C746     1.0000 0.86366  0.81846  0.89178  Biso   1.000  C
  H770     1.0000 0.89734  0.74675  0.88456  Biso   1.000  H
  C747     1.0000 0.86362  0.81846  0.89178  Biso   1.000  C
  H771     1.0000 0.30512  0.30665  0.03418  Biso   1.000  H
  H772     1.0000 0.35941  0.37636  0.01167  Biso   1.000  H
  C748     1.0000 0.84833  0.88296  0.83607  Biso   1.000  C
  C749     1.0000 0.79310  0.07666  0.95264  Biso   1.000  C
  C750     1.0000 0.86503  0.83394  0.84903  Biso   1.000  C
  C751     1.0000 0.84685  0.85265  0.92130  Biso   1.000  C
  C752     1.0000 0.84681  0.85265  0.92130  Biso   1.000  C
  C753     1.0000 0.83027  0.91536  0.86608  Biso   1.000  C
  C754     1.0000 0.83023  0.91536  0.86608  Biso   1.000  C
  C755     1.0000 0.76388  0.00158  0.96405  Biso   1.000  C
  C756     1.0000 0.78012  0.11356  0.98871  Biso   1.000  C
  H773     1.0000 0.76974  0.07988  0.92666  Biso   1.000  H
  C757     1.0000 0.76379  0.00158  0.96405  Biso   1.000  C
  H774     1.0000 0.87736  0.81115  0.82866  Biso   1.000  H
  H775     1.0000 0.87731  0.81115  0.82866  Biso   1.000  H
  C758     1.0000 0.82735  0.89916  0.90865  Biso   1.000  C
  H776     1.0000 0.84867  0.84416  0.95046  Biso   1.000  H
  H777     1.0000 0.84863  0.84416  0.95046  Biso   1.000  H
  H778     1.0000 0.81964  0.94924  0.85757  Biso   1.000  H
  N94      1.0000 0.77846  0.96718  0.93003  Biso   1.000  N
  H779     1.0000 0.78677  0.99877  0.99035  Biso   1.000  H
  C759     1.0000 0.68728  0.96718  0.97216  Biso   1.000  C
  H780     1.0000 0.78673  0.99877  0.99035  Biso   1.000  H
  C760     1.0000 0.68724  0.96718  0.97216  Biso   1.000  C
  C761     1.0000 0.70377  0.07947  0.99852  Biso   1.000  C
  H781     1.0000 0.79750  0.16186  0.98086  Biso   1.000  H
  C762     1.0000 0.70368  0.07947  0.99852  Biso   1.000  C
  H782     1.0000 0.80489  0.11264  0.01416  Biso   1.000  H
  H783     1.0000 0.80492  0.11269  0.01416  Biso   1.000  H
  C763     1.0000 0.80786  0.93355  0.93977  Biso   1.000  C
  C764     1.0000 0.80781  0.93355  0.93977  Biso   1.000  C
  H784     1.0000 0.66946  0.91878  0.98007  Biso   1.000  H
  H785     1.0000 0.66357  0.96836  0.94618  Biso   1.000  H
  H786     1.0000 0.66353  0.96836  0.94618  Biso   1.000  H
  C765     1.0000 0.67355  0.00408  0.00760  Biso   1.000  C
  H787     1.0000 0.67966  0.08535  0.97427  Biso   1.000  H
  H788     1.0000 0.67957  0.08535  0.97427  Biso   1.000  H
  H789     1.0000 0.69673  0.10196  0.02327  Biso   1.000  H
  H790     1.0000 0.81766  0.93095  0.96866  Biso   1.000  H
  H791     1.0000 0.81762  0.93095  0.96866  Biso   1.000  H
  H792     1.0000 0.69336  0.99846  0.03418  Biso   1.000  H
  H793     1.0000 0.62366  0.98308  0.01167  Biso   1.000  H
  H794     1.0000 0.69332  0.99846  0.03418  Biso   1.000  H
  C766     1.0000 0.11816  0.92548  0.55603  Biso   1.000  C
  N95      1.0000 0.17976  0.94996  0.56678  Biso   1.000  N
  N96      1.0000 0.17971  0.94996  0.56678  Biso   1.000  N
  H795     1.0000 0.10716  0.92568  0.52718  Biso   1.000  H
  C767     1.0000 0.06274  0.89624  0.58791  Biso   1.000  C
  C768     1.0000 0.23274  0.98635  0.53535  Biso   1.000  C
  C769     1.0000 0.11812  0.92548  0.55603  Biso   1.000  C
  C770     1.0000 0.08075  0.91704  0.62975  Biso   1.000  C
  C771     1.0000 0.08071  0.91704  0.62975  Biso   1.000  C
  C772     1.0000 0.99498  0.85367  0.57710  Biso   1.000  C
  C773     1.0000 0.99493  0.85367  0.57710  Biso   1.000  C
  C774     1.0000 0.27354  0.95047  0.52746  Biso   1.000  C
  H796     1.0000 0.21135  0.98916  0.50836  Biso   1.000  H
  C775     1.0000 0.27876  0.05856  0.55291  Biso   1.000  C
  C776     1.0000 0.27867  0.05856  0.55291  Biso   1.000  C
  H797     1.0000 0.12715  0.94797  0.63656  Biso   1.000  H
  C777     1.0000 0.03187  0.89328  0.66144  Biso   1.000  C
  C778     1.0000 0.03182  0.89328  0.66144  Biso   1.000  C
  C779     1.0000 0.94524  0.82847  0.60837  Biso   1.000  C
  H798     1.0000 0.98234  0.84176  0.54846  Biso   1.000  H
  C780     1.0000 0.33257  0.99197  0.49735  Biso   1.000  C
  H799     1.0000 0.24325  0.90468  0.51526  Biso   1.000  H
  H800     1.0000 0.29163  0.94434  0.55458  Biso   1.000  H
  C781     1.0000 0.33253  0.99197  0.49735  Biso   1.000  C
  H801     1.0000 0.29165  0.94439  0.55458  Biso   1.000  H
  C782     1.0000 0.33712  0.09986  0.52251  Biso   1.000  C
  C783     1.0000 0.33708  0.09986  0.52251  Biso   1.000  C
  N97      1.0000 0.23748  0.09107  0.55956  Biso   1.000  N
  H802     1.0000 0.29798  0.05504  0.58056  Biso   1.000  H
  N98      1.0000 0.23739  0.09107  0.55956  Biso   1.000  N
  H803     1.0000 0.29800  0.05509  0.58056  Biso   1.000  H
  H804     1.0000 0.29809  0.05509  0.58056  Biso   1.000  H
  C784     1.0000 0.05345  0.91326  0.70628  Biso   1.000  C
  C785     1.0000 0.96354  0.84887  0.65019  Biso   1.000  C
  C786     1.0000 0.87245  0.78115  0.59746  Biso   1.000  C
  C787     1.0000 0.87240  0.78115  0.59746  Biso   1.000  C
  H805     1.0000 0.31415  0.99417  0.46948  Biso   1.000  H
  H806     1.0000 0.35966  0.96887  0.49376  Biso   1.000  H
  H807     1.0000 0.35962  0.96887  0.49376  Biso   1.000  H
  C788     1.0000 0.37838  0.06357  0.51365  Biso   1.000  C
  C789     1.0000 0.37833  0.06357  0.51365  Biso   1.000  C
  H808     1.0000 0.36771  0.14555  0.53465  Biso   1.000  H
  H809     1.0000 0.31853  0.10604  0.49568  Biso   1.000  H
  C790     1.0000 0.21885  0.09127  0.59746  Biso   1.000  C
  C791     1.0000 0.00754  0.90677  0.73756  Biso   1.000  C
  C792     1.0000 0.12168  0.93958  0.71811  Biso   1.000  C
  C793     1.0000 0.12163  0.93958  0.71811  Biso   1.000  C
  H810     1.0000 0.92913  0.83246  0.67138  Biso   1.000  H
  N99      1.0000 0.85363  0.76254  0.55956  Biso   1.000  N
  H811     1.0000 0.83915  0.76449  0.61925  Biso   1.000  H
  H812     1.0000 0.40107  0.06178  0.53998  Biso   1.000  H
  H813     1.0000 0.41433  0.09015  0.49256  Biso   1.000  H
  H814     1.0000 0.40103  0.06178  0.53998  Biso   1.000  H
  H815     1.0000 0.23551  0.07466  0.61925  Biso   1.000  H
  C794     1.0000 0.17150  0.11678  0.60837  Biso   1.000  C
  C795     1.0000 0.02855  0.92374  0.77925  Biso   1.000  C
  C796     1.0000 0.02853  0.92379  0.77925  Biso   1.000  C
  H816     1.0000 0.96115  0.89047  0.73037  Biso   1.000  H
  C797     1.0000 0.14253  0.95855  0.75938  Biso   1.000  C
  H817     1.0000 0.15435  0.94464  0.69745  Biso   1.000  H
  H818     1.0000 0.15430  0.94464  0.69745  Biso   1.000  H
  C798     1.0000 0.77982  0.72125  0.55291  Biso   1.000  C
  C799     1.0000 0.15111  0.11468  0.65019  Biso   1.000  C
  C800     1.0000 0.14634  0.14126  0.57710  Biso   1.000  C
  C801     1.0000 0.09657  0.94965  0.79075  Biso   1.000  C
  C802     1.0000 0.09652  0.94965  0.79075  Biso   1.000  C
  H819     1.0000 0.99584  0.91745  0.80015  Biso   1.000  H
  H820     1.0000 0.18956  0.97807  0.76625  Biso   1.000  H
  H821     1.0000 0.18952  0.97807  0.76625  Biso   1.000  H
  H822     1.0000 0.75704  0.70198  0.58056  Biso   1.000  H
  C803     1.0000 0.76277  0.66288  0.52251  Biso   1.000  C
  C804     1.0000 0.75365  0.76724  0.53535  Biso   1.000  C
  C805     1.0000 0.76272  0.66288  0.52251  Biso   1.000  C
  C806     1.0000 0.75360  0.76724  0.53535  Biso   1.000  C
  C807     1.0000 0.10674  0.13855  0.66144  Biso   1.000  C
  H823     1.0000 0.16749  0.09664  0.67138  Biso   1.000  H
  H824     1.0000 0.16752  0.09669  0.67138  Biso   1.000  H
  C808     1.0000 0.10370  0.16646  0.58791  Biso   1.000  C
  H825     1.0000 0.15824  0.14054  0.54846  Biso   1.000  H
  C809     1.0000 0.11703  0.96534  0.83607  Biso   1.000  C
  H826     1.0000 0.78756  0.68148  0.49568  Biso   1.000  H
  H827     1.0000 0.77787  0.63227  0.53465  Biso   1.000  H
  C810     1.0000 0.68523  0.62164  0.51365  Biso   1.000  C
  H828     1.0000 0.77782  0.63227  0.53465  Biso   1.000  H
  C811     1.0000 0.68525  0.62169  0.51365  Biso   1.000  C
  N100     1.0000 0.77023  0.82024  0.56678  Biso   1.000  N
  C812     1.0000 0.67696  0.72646  0.52746  Biso   1.000  C
  H829     1.0000 0.77786  0.78866  0.50836  Biso   1.000  H
  C813     1.0000 0.67691  0.72646  0.52746  Biso   1.000  C
  H830     1.0000 0.77781  0.78866  0.50836  Biso   1.000  H
  C814     1.0000 0.08295  0.16364  0.62975  Biso   1.000  C
  C815     1.0000 0.08671  0.14019  0.70628  Biso   1.000  C
  C816     1.0000 0.08286  0.16364  0.62975  Biso   1.000  C
  C817     1.0000 0.07449  0.19267  0.55603  Biso   1.000  C
  C818     1.0000 0.08465  0.91485  0.86608  Biso   1.000  C
  C819     1.0000 0.08461  0.91485  0.86608  Biso   1.000  C
  C820     1.0000 0.16605  0.03107  0.84903  Biso   1.000  C
  H831     1.0000 0.66073  0.59894  0.53998  Biso   1.000  H
  H832     1.0000 0.67587  0.58566  0.49256  Biso   1.000  H
  C821     1.0000 0.65946  0.66748  0.49735  Biso   1.000  C
  H833     1.0000 0.67582  0.58566  0.49256  Biso   1.000  H
  C822     1.0000 0.80738  0.88188  0.55603  Biso   1.000  C
  C823     1.0000 0.80734  0.88188  0.55603  Biso   1.000  C
  H834     1.0000 0.66144  0.75677  0.51526  Biso   1.000  H
  H835     1.0000 0.65277  0.70837  0.55458  Biso   1.000  H
  H836     1.0000 0.65273  0.70837  0.55458  Biso   1.000  H
  H837     1.0000 0.05203  0.17918  0.63656  Biso   1.000  H
  H838     1.0000 0.05199  0.17918  0.63656  Biso   1.000  H
  C824     1.0000 0.06042  0.18204  0.71811  Biso   1.000  C
  C825     1.0000 0.09321  0.10078  0.73756  Biso   1.000  C
  C826     1.0000 0.06037  0.18204  0.71811  Biso   1.000  C
  H839     1.0000 0.07430  0.18148  0.52718  Biso   1.000  H
  N101     1.0000 0.05007  0.22978  0.56678  Biso   1.000  N
  N102     1.0000 0.05002  0.22978  0.56678  Biso   1.000  N
  C827     1.0000 0.10088  0.92819  0.90865  Biso   1.000  C
  H840     1.0000 0.05078  0.87038  0.85757  Biso   1.000  H
  C828     1.0000 0.10084  0.92819  0.90865  Biso   1.000  C
  H841     1.0000 0.05074  0.87038  0.85757  Biso   1.000  H
  H842     1.0000 0.18887  0.06618  0.82866  Biso   1.000  H
  C829     1.0000 0.18155  0.04517  0.89178  Biso   1.000  C
  H843     1.0000 0.18878  0.06618  0.82866  Biso   1.000  H
  H844     1.0000 0.68008  0.68588  0.46948  Biso   1.000  H
  H845     1.0000 0.60924  0.64034  0.49376  Biso   1.000  H
  H846     1.0000 0.68004  0.68588  0.46948  Biso   1.000  H
  H847     1.0000 0.81854  0.89287  0.52718  Biso   1.000  H
  C830     1.0000 0.83358  0.93728  0.58791  Biso   1.000  C
  C831     1.0000 0.83353  0.93728  0.58791  Biso   1.000  C
  H848     1.0000 0.05531  0.20964  0.69745  Biso   1.000  H
  C832     1.0000 0.04147  0.18399  0.75938  Biso   1.000  C
  C833     1.0000 0.04138  0.18399  0.75938  Biso   1.000  C
  C834     1.0000 0.07622  0.10477  0.77925  Biso   1.000  C
  H849     1.0000 0.10954  0.07068  0.73037  Biso   1.000  H
  C835     1.0000 0.01364  0.24634  0.53535  Biso   1.000  C
  C836     1.0000 0.01358  0.24639  0.53535  Biso   1.000  C
  C837     1.0000 0.06644  0.87427  0.93977  Biso   1.000  C
  C838     1.0000 0.14737  0.99417  0.92130  Biso   1.000  C
  C839     1.0000 0.14733  0.99417  0.92130  Biso   1.000  C
  C840     1.0000 0.22960  0.11657  0.90540  Biso   1.000  C
  C841     1.0000 0.83633  0.91924  0.62975  Biso   1.000  C
  C842     1.0000 0.85870  0.00505  0.57710  Biso   1.000  C
  H850     1.0000 0.02193  0.21148  0.76625  Biso   1.000  H
  C843     1.0000 0.05031  0.14688  0.79075  Biso   1.000  C
  H851     1.0000 0.02189  0.21148  0.76625  Biso   1.000  H
  H852     1.0000 0.08248  0.07834  0.80015  Biso   1.000  H
  C844     1.0000 0.94143  0.22017  0.55291  Biso   1.000  C
  C845     1.0000 0.04957  0.32305  0.52746  Biso   1.000  C
  H853     1.0000 0.01081  0.22216  0.50836  Biso   1.000  H
  C846     1.0000 0.04948  0.32305  0.52746  Biso   1.000  C
  N103     1.0000 0.03285  0.81125  0.93003  Biso   1.000  N
  H854     1.0000 0.06907  0.88669  0.96866  Biso   1.000  H
  N104     1.0000 0.03281  0.81125  0.93003  Biso   1.000  N
  H855     1.0000 0.06902  0.88669  0.96866  Biso   1.000  H
  H856     1.0000 0.15579  0.00444  0.95046  Biso   1.000  H
  H857     1.0000 0.15581  0.00449  0.95046  Biso   1.000  H
  H858     1.0000 0.25319  0.15056  0.88456  Biso   1.000  H
  N105     1.0000 0.24008  0.13329  0.94384  Biso   1.000  N
  N106     1.0000 0.23999  0.13329  0.94384  Biso   1.000  N
  H859     1.0000 0.82083  0.87284  0.63656  Biso   1.000  H
  C847     1.0000 0.86145  0.96815  0.66144  Biso   1.000  C
  H860     1.0000 0.82085  0.87289  0.63656  Biso   1.000  H
  C848     1.0000 0.86141  0.96815  0.66144  Biso   1.000  C
  C849     1.0000 0.88325  0.05478  0.60837  Biso   1.000  C
  H861     1.0000 0.85948  0.01768  0.54846  Biso   1.000  H
  H862     1.0000 0.85943  0.01768  0.54846  Biso   1.000  H
  C850     1.0000 0.03466  0.15169  0.83607  Biso   1.000  C
  N107     1.0000 0.90891  0.14637  0.55956  Biso   1.000  N
  H863     1.0000 0.94490  0.24297  0.58056  Biso   1.000  H
  C851     1.0000 0.90012  0.23724  0.52251  Biso   1.000  C
  C852     1.0000 0.00801  0.34058  0.49735  Biso   1.000  C
  H864     1.0000 0.09533  0.33854  0.51526  Biso   1.000  H
  H865     1.0000 0.05562  0.34728  0.55458  Biso   1.000  H
  H866     1.0000 0.09536  0.33859  0.51526  Biso   1.000  H
  C853     1.0000 0.99843  0.76224  0.96405  Biso   1.000  C
  C854     1.0000 0.99846  0.76229  0.96405  Biso   1.000  C
  C855     1.0000 0.28352  0.20688  0.95264  Biso   1.000  C
  C856     1.0000 0.28347  0.20688  0.95264  Biso   1.000  C
  C857     1.0000 0.88530  0.03649  0.65019  Biso   1.000  C
  C858     1.0000 0.85987  0.94659  0.70628  Biso   1.000  C
  C859     1.0000 0.85983  0.94659  0.70628  Biso   1.000  C
  C860     1.0000 0.90871  0.12756  0.59746  Biso   1.000  C
  C861     1.0000 0.96889  0.13497  0.84903  Biso   1.000  C
  C862     1.0000 0.08518  0.16978  0.86608  Biso   1.000  C
  C863     1.0000 0.08513  0.16978  0.86608  Biso   1.000  C
  H867     1.0000 0.89393  0.21245  0.49568  Biso   1.000  H
  H868     1.0000 0.85443  0.22216  0.53465  Biso   1.000  H
  C864     1.0000 0.93646  0.31477  0.51365  Biso   1.000  C
  H869     1.0000 0.85439  0.22216  0.53465  Biso   1.000  H
  H870     1.0000 0.00581  0.31999  0.46948  Biso   1.000  H
  H871     1.0000 0.03111  0.39077  0.49376  Biso   1.000  H
  H872     1.0000 0.00124  0.78794  0.99035  Biso   1.000  H
  C865     1.0000 0.03285  0.72007  0.97216  Biso   1.000  C
  C866     1.0000 0.92335  0.71644  0.95264  Biso   1.000  C
  C867     1.0000 0.92331  0.71644  0.95264  Biso   1.000  C
  C868     1.0000 0.33343  0.21986  0.98871  Biso   1.000  C
  C869     1.0000 0.23770  0.23617  0.96405  Biso   1.000  C
  H873     1.0000 0.31011  0.23024  0.92666  Biso   1.000  H
  H874     1.0000 0.31014  0.23029  0.92666  Biso   1.000  H
  H875     1.0000 0.90334  0.07088  0.67138  Biso   1.000  H
  C870     1.0000 0.81797  0.87836  0.71811  Biso   1.000  C
  C871     1.0000 0.89924  0.99248  0.73756  Biso   1.000  C
  C872     1.0000 0.81792  0.87836  0.71811  Biso   1.000  C
  H876     1.0000 0.92537  0.16088  0.61925  Biso   1.000  H
  H877     1.0000 0.92528  0.16088  0.61925  Biso   1.000  H
  H878     1.0000 0.93379  0.12266  0.82866  Biso   1.000  H
  C873     1.0000 0.95484  0.13635  0.89178  Biso   1.000  C
  C874     1.0000 0.07182  0.17264  0.90865  Biso   1.000  C
  H879     1.0000 0.12964  0.18036  0.85757  Biso   1.000  H
  C875     1.0000 0.07185  0.17269  0.90865  Biso   1.000  C
  H880     1.0000 0.93825  0.33925  0.53998  Biso   1.000  H
  H881     1.0000 0.90986  0.32418  0.49256  Biso   1.000  H
  H882     1.0000 0.93816  0.33925  0.53998  Biso   1.000  H
  H883     1.0000 0.90978  0.32418  0.49256  Biso   1.000  H
  H884     1.0000 0.03165  0.69518  0.94618  Biso   1.000  H
  H885     1.0000 0.08127  0.75069  0.98007  Biso   1.000  H
  H886     1.0000 0.08123  0.75069  0.98007  Biso   1.000  H
  C876     1.0000 0.99596  0.66947  0.00760  Biso   1.000  C
  C877     1.0000 0.99592  0.66947  0.00760  Biso   1.000  C
  N108     1.0000 0.89322  0.75994  0.94384  Biso   1.000  N
  C878     1.0000 0.88646  0.66656  0.98871  Biso   1.000  C
  H887     1.0000 0.92016  0.68987  0.92666  Biso   1.000  H
  N109     1.0000 0.89325  0.75999  0.94384  Biso   1.000  N
  C879     1.0000 0.88642  0.66656  0.98871  Biso   1.000  C
  H888     1.0000 0.92011  0.68987  0.92666  Biso   1.000  H
  C880     1.0000 0.37575  0.29627  0.99852  Biso   1.000  C
  H889     1.0000 0.36429  0.20244  0.98086  Biso   1.000  H
  H890     1.0000 0.36431  0.20249  0.98086  Biso   1.000  H
  H891     1.0000 0.30771  0.19508  0.01416  Biso   1.000  H
  N110     1.0000 0.18870  0.22155  0.93003  Biso   1.000  N
  H892     1.0000 0.21204  0.21327  0.99035  Biso   1.000  H
  C881     1.0000 0.27995  0.31278  0.97216  Biso   1.000  C
  H893     1.0000 0.79033  0.84565  0.69745  Biso   1.000  H
  C882     1.0000 0.81606  0.85745  0.75938  Biso   1.000  C
  C883     1.0000 0.81601  0.85745  0.75938  Biso   1.000  C
  C884     1.0000 0.89525  0.97148  0.77925  Biso   1.000  C
  H894     1.0000 0.92932  0.03884  0.73037  Biso   1.000  H
  H895     1.0000 0.92935  0.03889  0.73037  Biso   1.000  H
  C885     1.0000 0.88344  0.11305  0.90540  Biso   1.000  C
  C886     1.0000 0.00583  0.15317  0.92130  Biso   1.000  C
  C887     1.0000 0.00579  0.15317  0.92130  Biso   1.000  C
  C888     1.0000 0.12571  0.19216  0.93977  Biso   1.000  C
  C889     1.0000 0.92054  0.62424  0.99852  Biso   1.000  C
  H896     1.0000 0.00158  0.69487  0.03418  Biso   1.000  H
  H897     1.0000 0.01695  0.64055  0.01167  Biso   1.000  H
  H898     1.0000 0.00153  0.69487  0.03418  Biso   1.000  H
  H899     1.0000 0.01690  0.64055  0.01167  Biso   1.000  H
  C890     1.0000 0.88697  0.77036  0.90540  Biso   1.000  C
  C891     1.0000 0.88693  0.77036  0.90540  Biso   1.000  C
  H900     1.0000 0.83816  0.63564  0.98086  Biso   1.000  H
  H901     1.0000 0.83814  0.63569  0.98086  Biso   1.000  H
  H902     1.0000 0.88736  0.69227  0.01416  Biso   1.000  H
  H903     1.0000 0.88732  0.69227  0.01416  Biso   1.000  H
  C892     1.0000 0.33057  0.32648  0.00760  Biso   1.000  C
  C893     1.0000 0.33048  0.32648  0.00760  Biso   1.000  C
  H904     1.0000 0.40576  0.32034  0.97427  Biso   1.000  H
  H905     1.0000 0.40567  0.32034  0.97427  Biso   1.000  H
  H906     1.0000 0.40528  0.30327  0.02327  Biso   1.000  H
  H907     1.0000 0.40523  0.30327  0.02327  Biso   1.000  H
  H908     1.0000 0.24931  0.33057  0.98007  Biso   1.000  H
  H909     1.0000 0.30483  0.33644  0.94618  Biso   1.000  H
  H910     1.0000 0.24927  0.33057  0.98007  Biso   1.000  H
  H911     1.0000 0.78855  0.81048  0.76625  Biso   1.000  H
  C894     1.0000 0.85313  0.90345  0.79075  Biso   1.000  C
  H912     1.0000 0.92165  0.00419  0.80015  Biso   1.000  H
  H913     1.0000 0.84944  0.10267  0.88456  Biso   1.000  H
  N111     1.0000 0.86671  0.10676  0.94384  Biso   1.000  N
  H914     1.0000 0.99555  0.15138  0.95046  Biso   1.000  H
  H915     1.0000 0.11333  0.18235  0.96866  Biso   1.000  H
  H916     1.0000 0.91466  0.59424  0.97427  Biso   1.000  H
  H917     1.0000 0.91461  0.59424  0.97427  Biso   1.000  H
  H918     1.0000 0.89805  0.59475  0.02327  Biso   1.000  H
  H919     1.0000 0.89800  0.59475  0.02327  Biso   1.000  H
  C895     1.0000 0.86366  0.81846  0.89178  Biso   1.000  C
  H920     1.0000 0.89734  0.74675  0.88456  Biso   1.000  H
  C896     1.0000 0.86362  0.81846  0.89178  Biso   1.000  C
  H921     1.0000 0.30512  0.30665  0.03418  Biso   1.000  H
  H922     1.0000 0.35941  0.37636  0.01167  Biso   1.000  H
  C897     1.0000 0.84833  0.88296  0.83607  Biso   1.000  C
  C898     1.0000 0.79310  0.07666  0.95264  Biso   1.000  C
  C899     1.0000 0.86503  0.83394  0.84903  Biso   1.000  C
  C900     1.0000 0.84685  0.85265  0.92130  Biso   1.000  C
  C901     1.0000 0.84681  0.85265  0.92130  Biso   1.000  C
  C902     1.0000 0.83027  0.91536  0.86608  Biso   1.000  C
  C903     1.0000 0.83023  0.91536  0.86608  Biso   1.000  C
  C904     1.0000 0.78012  0.11356  0.98871  Biso   1.000  C
  C905     1.0000 0.76388  0.00158  0.96405  Biso   1.000  C
  H923     1.0000 0.76974  0.07988  0.92666  Biso   1.000  H
  C906     1.0000 0.76379  0.00158  0.96405  Biso   1.000  C
  H924     1.0000 0.87736  0.81115  0.82866  Biso   1.000  H
  H925     1.0000 0.87731  0.81115  0.82866  Biso   1.000  H
  C907     1.0000 0.82735  0.89916  0.90865  Biso   1.000  C
  H926     1.0000 0.84867  0.84416  0.95046  Biso   1.000  H
  H927     1.0000 0.84863  0.84416  0.95046  Biso   1.000  H
  H928     1.0000 0.81964  0.94924  0.85757  Biso   1.000  H
  C908     1.0000 0.70377  0.07947  0.99852  Biso   1.000  C
  H929     1.0000 0.79750  0.16186  0.98086  Biso   1.000  H
  C909     1.0000 0.70368  0.07947  0.99852  Biso   1.000  C
  H930     1.0000 0.80489  0.11264  0.01416  Biso   1.000  H
  H931     1.0000 0.80492  0.11269  0.01416  Biso   1.000  H
  N112     1.0000 0.77846  0.96718  0.93003  Biso   1.000  N
  H932     1.0000 0.78677  0.99877  0.99035  Biso   1.000  H
  C910     1.0000 0.68728  0.96718  0.97216  Biso   1.000  C
  H933     1.0000 0.78673  0.99877  0.99035  Biso   1.000  H
  C911     1.0000 0.68724  0.96718  0.97216  Biso   1.000  C
  C912     1.0000 0.80786  0.93355  0.93977  Biso   1.000  C
  C913     1.0000 0.80781  0.93355  0.93977  Biso   1.000  C
  C914     1.0000 0.67355  0.00408  0.00760  Biso   1.000  C
  H934     1.0000 0.67966  0.08535  0.97427  Biso   1.000  H
  H935     1.0000 0.67957  0.08535  0.97427  Biso   1.000  H
  H936     1.0000 0.69673  0.10196  0.02327  Biso   1.000  H
  H937     1.0000 0.66946  0.91878  0.98007  Biso   1.000  H
  H938     1.0000 0.66357  0.96836  0.94618  Biso   1.000  H
  H939     1.0000 0.66353  0.96836  0.94618  Biso   1.000  H
  H940     1.0000 0.81766  0.93095  0.96866  Biso   1.000  H
  H941     1.0000 0.81762  0.93095  0.96866  Biso   1.000  H
  H942     1.0000 0.69336  0.99846  0.03418  Biso   1.000  H
  H943     1.0000 0.62366  0.98308  0.01167  Biso   1.000  H
  H944     1.0000 0.69332  0.99846  0.03418  Biso   1.000  H
  C915     1.0000 0.11816  0.92548  0.55603  Biso   1.000  C
  N113     1.0000 0.17976  0.94996  0.56678  Biso   1.000  N
  N114     1.0000 0.17971  0.94996  0.56678  Biso   1.000  N
  H945     1.0000 0.10716  0.92568  0.52718  Biso   1.000  H
  C916     1.0000 0.06274  0.89624  0.58791  Biso   1.000  C
  C917     1.0000 0.23274  0.98635  0.53535  Biso   1.000  C
  C918     1.0000 0.11812  0.92548  0.55603  Biso   1.000  C
  C919     1.0000 0.99498  0.85367  0.57710  Biso   1.000  C
  C920     1.0000 0.99493  0.85367  0.57710  Biso   1.000  C
  C921     1.0000 0.08075  0.91704  0.62975  Biso   1.000  C
  C922     1.0000 0.08071  0.91704  0.62975  Biso   1.000  C
  C923     1.0000 0.27354  0.95047  0.52746  Biso   1.000  C
  H946     1.0000 0.21135  0.98916  0.50836  Biso   1.000  H
  C924     1.0000 0.27876  0.05856  0.55291  Biso   1.000  C
  C925     1.0000 0.27867  0.05856  0.55291  Biso   1.000  C
  C926     1.0000 0.94524  0.82847  0.60837  Biso   1.000  C
  H947     1.0000 0.98234  0.84176  0.54846  Biso   1.000  H
  H948     1.0000 0.12715  0.94797  0.63656  Biso   1.000  H
  C927     1.0000 0.03187  0.89328  0.66144  Biso   1.000  C
  C928     1.0000 0.03182  0.89328  0.66144  Biso   1.000  C
  H949     1.0000 0.24325  0.90468  0.51526  Biso   1.000  H
  C929     1.0000 0.33257  0.99197  0.49735  Biso   1.000  C
  H950     1.0000 0.29163  0.94434  0.55458  Biso   1.000  H
  C930     1.0000 0.33253  0.99197  0.49735  Biso   1.000  C
  H951     1.0000 0.29165  0.94439  0.55458  Biso   1.000  H
  N115     1.0000 0.23748  0.09107  0.55956  Biso   1.000  N
  H952     1.0000 0.29798  0.05504  0.58056  Biso   1.000  H
  C931     1.0000 0.33712  0.09986  0.52251  Biso   1.000  C
  N116     1.0000 0.23739  0.09107  0.55956  Biso   1.000  N
  H953     1.0000 0.29800  0.05509  0.58056  Biso   1.000  H
  C932     1.0000 0.33708  0.09986  0.52251  Biso   1.000  C
  H954     1.0000 0.29809  0.05509  0.58056  Biso   1.000  H
  C933     1.0000 0.96354  0.84887  0.65019  Biso   1.000  C
  C934     1.0000 0.87245  0.78115  0.59746  Biso   1.000  C
  C935     1.0000 0.87240  0.78115  0.59746  Biso   1.000  C
  C936     1.0000 0.05345  0.91326  0.70628  Biso   1.000  C
  H955     1.0000 0.31415  0.99417  0.46948  Biso   1.000  H
  H956     1.0000 0.35966  0.96887  0.49376  Biso   1.000  H
  H957     1.0000 0.35962  0.96887  0.49376  Biso   1.000  H
  C937     1.0000 0.37838  0.06357  0.51365  Biso   1.000  C
  C938     1.0000 0.37833  0.06357  0.51365  Biso   1.000  C
  C939     1.0000 0.21885  0.09127  0.59746  Biso   1.000  C
  H958     1.0000 0.36771  0.14555  0.53465  Biso   1.000  H
  H959     1.0000 0.31853  0.10604  0.49568  Biso   1.000  H
  H960     1.0000 0.92913  0.83246  0.67138  Biso   1.000  H
  N117     1.0000 0.85363  0.76254  0.55956  Biso   1.000  N
  H961     1.0000 0.83915  0.76449  0.61925  Biso   1.000  H
  C940     1.0000 0.00754  0.90677  0.73756  Biso   1.000  C
  C941     1.0000 0.12168  0.93958  0.71811  Biso   1.000  C
  C942     1.0000 0.12163  0.93958  0.71811  Biso   1.000  C
  H962     1.0000 0.40107  0.06178  0.53998  Biso   1.000  H
  H963     1.0000 0.41433  0.09015  0.49256  Biso   1.000  H
  H964     1.0000 0.40103  0.06178  0.53998  Biso   1.000  H
  H965     1.0000 0.23551  0.07466  0.61925  Biso   1.000  H
  C943     1.0000 0.17150  0.11678  0.60837  Biso   1.000  C
  C944     1.0000 0.77982  0.72125  0.55291  Biso   1.000  C
  H966     1.0000 0.96115  0.89047  0.73037  Biso   1.000  H
  C945     1.0000 0.02855  0.92374  0.77925  Biso   1.000  C
  C946     1.0000 0.02853  0.92379  0.77925  Biso   1.000  C
  C947     1.0000 0.14253  0.95855  0.75938  Biso   1.000  C
  H967     1.0000 0.15435  0.94464  0.69745  Biso   1.000  H
  H968     1.0000 0.15430  0.94464  0.69745  Biso   1.000  H
  C948     1.0000 0.15111  0.11468  0.65019  Biso   1.000  C
  C949     1.0000 0.14634  0.14126  0.57710  Biso   1.000  C
  H969     1.0000 0.75704  0.70198  0.58056  Biso   1.000  H
  C950     1.0000 0.76277  0.66288  0.52251  Biso   1.000  C
  C951     1.0000 0.75365  0.76724  0.53535  Biso   1.000  C
  C952     1.0000 0.76272  0.66288  0.52251  Biso   1.000  C
  C953     1.0000 0.75360  0.76724  0.53535  Biso   1.000  C
  H970     1.0000 0.99584  0.91745  0.80015  Biso   1.000  H
  C954     1.0000 0.09657  0.94965  0.79075  Biso   1.000  C
  C955     1.0000 0.09652  0.94965  0.79075  Biso   1.000  C
  H971     1.0000 0.18956  0.97807  0.76625  Biso   1.000  H
  H972     1.0000 0.18952  0.97807  0.76625  Biso   1.000  H
  C956     1.0000 0.10674  0.13855  0.66144  Biso   1.000  C
  H973     1.0000 0.16749  0.09664  0.67138  Biso   1.000  H
  H974     1.0000 0.16752  0.09669  0.67138  Biso   1.000  H
  C957     1.0000 0.10370  0.16646  0.58791  Biso   1.000  C
  H975     1.0000 0.15824  0.14054  0.54846  Biso   1.000  H
  H976     1.0000 0.78756  0.68148  0.49568  Biso   1.000  H
  H977     1.0000 0.77787  0.63227  0.53465  Biso   1.000  H
  C958     1.0000 0.68523  0.62164  0.51365  Biso   1.000  C
  H978     1.0000 0.77782  0.63227  0.53465  Biso   1.000  H
  C959     1.0000 0.68525  0.62169  0.51365  Biso   1.000  C
  N118     1.0000 0.77023  0.82024  0.56678  Biso   1.000  N
  C960     1.0000 0.67696  0.72646  0.52746  Biso   1.000  C
  H979     1.0000 0.77786  0.78866  0.50836  Biso   1.000  H
  C961     1.0000 0.67691  0.72646  0.52746  Biso   1.000  C
  H980     1.0000 0.77781  0.78866  0.50836  Biso   1.000  H
  C962     1.0000 0.11703  0.96534  0.83607  Biso   1.000  C
  C963     1.0000 0.08295  0.16364  0.62975  Biso   1.000  C
  C964     1.0000 0.08671  0.14019  0.70628  Biso   1.000  C
  C965     1.0000 0.08286  0.16364  0.62975  Biso   1.000  C
  C966     1.0000 0.07449  0.19267  0.55603  Biso   1.000  C
  H981     1.0000 0.66073  0.59894  0.53998  Biso   1.000  H
  H982     1.0000 0.67587  0.58566  0.49256  Biso   1.000  H
  C967     1.0000 0.65946  0.66748  0.49735  Biso   1.000  C
  H983     1.0000 0.67582  0.58566  0.49256  Biso   1.000  H
  C968     1.0000 0.80738  0.88188  0.55603  Biso   1.000  C
  C969     1.0000 0.80734  0.88188  0.55603  Biso   1.000  C
  H984     1.0000 0.66144  0.75677  0.51526  Biso   1.000  H
  H985     1.0000 0.65277  0.70837  0.55458  Biso   1.000  H
  H986     1.0000 0.65273  0.70837  0.55458  Biso   1.000  H
  C970     1.0000 0.08465  0.91485  0.86608  Biso   1.000  C
  C971     1.0000 0.08461  0.91485  0.86608  Biso   1.000  C
  C972     1.0000 0.16605  0.03107  0.84903  Biso   1.000  C
  H987     1.0000 0.05203  0.17918  0.63656  Biso   1.000  H
  H988     1.0000 0.05199  0.17918  0.63656  Biso   1.000  H
  C973     1.0000 0.06042  0.18204  0.71811  Biso   1.000  C
  C974     1.0000 0.09321  0.10078  0.73756  Biso   1.000  C
  C975     1.0000 0.06037  0.18204  0.71811  Biso   1.000  C
  H989     1.0000 0.07430  0.18148  0.52718  Biso   1.000  H
  N119     1.0000 0.05007  0.22978  0.56678  Biso   1.000  N
  N120     1.0000 0.05002  0.22978  0.56678  Biso   1.000  N
  H990     1.0000 0.68008  0.68588  0.46948  Biso   1.000  H
  H991     1.0000 0.60924  0.64034  0.49376  Biso   1.000  H
  H992     1.0000 0.68004  0.68588  0.46948  Biso   1.000  H
  H993     1.0000 0.81854  0.89287  0.52718  Biso   1.000  H
  C976     1.0000 0.83358  0.93728  0.58791  Biso   1.000  C
  C977     1.0000 0.83353  0.93728  0.58791  Biso   1.000  C
  C978     1.0000 0.10088  0.92819  0.90865  Biso   1.000  C
  H994     1.0000 0.05078  0.87038  0.85757  Biso   1.000  H
  C979     1.0000 0.10084  0.92819  0.90865  Biso   1.000  C
  H995     1.0000 0.05074  0.87038  0.85757  Biso   1.000  H
  H996     1.0000 0.18887  0.06618  0.82866  Biso   1.000  H
  C980     1.0000 0.18155  0.04517  0.89178  Biso   1.000  C
  H997     1.0000 0.18878  0.06618  0.82866  Biso   1.000  H
  H998     1.0000 0.05531  0.20964  0.69745  Biso   1.000  H
  C981     1.0000 0.04147  0.18399  0.75938  Biso   1.000  C
  C982     1.0000 0.04138  0.18399  0.75938  Biso   1.000  C
  C983     1.0000 0.07622  0.10477  0.77925  Biso   1.000  C
  H999     1.0000 0.10954  0.07068  0.73037  Biso   1.000  H
  C984     1.0000 0.01364  0.24634  0.53535  Biso   1.000  C
  C985     1.0000 0.01358  0.24639  0.53535  Biso   1.000  C
  C986     1.0000 0.83633  0.91924  0.62975  Biso   1.000  C
  C987     1.0000 0.85870  0.00505  0.57710  Biso   1.000  C
  C988     1.0000 0.06644  0.87427  0.93977  Biso   1.000  C
  C989     1.0000 0.14737  0.99417  0.92130  Biso   1.000  C
  C990     1.0000 0.14733  0.99417  0.92130  Biso   1.000  C
  C991     1.0000 0.22960  0.11657  0.90540  Biso   1.000  C
  H1000    1.0000 0.02193  0.21148  0.76625  Biso   1.000  H
  C992     1.0000 0.05031  0.14688  0.79075  Biso   1.000  C
  H1001    1.0000 0.02189  0.21148  0.76625  Biso   1.000  H
  H1002    1.0000 0.08248  0.07834  0.80015  Biso   1.000  H
  C993     1.0000 0.94143  0.22017  0.55291  Biso   1.000  C
  C994     1.0000 0.04957  0.32305  0.52746  Biso   1.000  C
  H1003    1.0000 0.01081  0.22216  0.50836  Biso   1.000  H
  C995     1.0000 0.04948  0.32305  0.52746  Biso   1.000  C
  H1004    1.0000 0.82083  0.87284  0.63656  Biso   1.000  H
  C996     1.0000 0.86145  0.96815  0.66144  Biso   1.000  C
  H1005    1.0000 0.82085  0.87289  0.63656  Biso   1.000  H
  C997     1.0000 0.86141  0.96815  0.66144  Biso   1.000  C
  C998     1.0000 0.88325  0.05478  0.60837  Biso   1.000  C
  H1006    1.0000 0.85948  0.01768  0.54846  Biso   1.000  H
  H1007    1.0000 0.85943  0.01768  0.54846  Biso   1.000  H
  N121     1.0000 0.03285  0.81125  0.93003  Biso   1.000  N
  H1008    1.0000 0.06907  0.88669  0.96866  Biso   1.000  H
  N122     1.0000 0.03281  0.81125  0.93003  Biso   1.000  N
  H1009    1.0000 0.06902  0.88669  0.96866  Biso   1.000  H
  H1010    1.0000 0.15579  0.00444  0.95046  Biso   1.000  H
  H1011    1.0000 0.15581  0.00449  0.95046  Biso   1.000  H
  H1012    1.0000 0.25319  0.15056  0.88456  Biso   1.000  H
  N123     1.0000 0.24008  0.13329  0.94384  Biso   1.000  N
  N124     1.0000 0.23999  0.13329  0.94384  Biso   1.000  N
  C999     1.0000 0.03466  0.15169  0.83607  Biso   1.000  C
  N125     1.0000 0.90891  0.14637  0.55956  Biso   1.000  N
  H1013    1.0000 0.94490  0.24297  0.58056  Biso   1.000  H
  C1000    1.0000 0.90012  0.23724  0.52251  Biso   1.000  C
  C1001    1.0000 0.00801  0.34058  0.49735  Biso   1.000  C
  H1014    1.0000 0.09533  0.33854  0.51526  Biso   1.000  H
  H1015    1.0000 0.05562  0.34728  0.55458  Biso   1.000  H
  H1016    1.0000 0.09536  0.33859  0.51526  Biso   1.000  H
  C1002    1.0000 0.88530  0.03649  0.65019  Biso   1.000  C
  C1003    1.0000 0.85987  0.94659  0.70628  Biso   1.000  C
  C1004    1.0000 0.85983  0.94659  0.70628  Biso   1.000  C
  C1005    1.0000 0.90871  0.12756  0.59746  Biso   1.000  C
  C1006    1.0000 0.99843  0.76224  0.96405  Biso   1.000  C
  C1007    1.0000 0.99846  0.76229  0.96405  Biso   1.000  C
  C1008    1.0000 0.28352  0.20688  0.95264  Biso   1.000  C
  C1009    1.0000 0.28347  0.20688  0.95264  Biso   1.000  C
  C1010    1.0000 0.96889  0.13497  0.84903  Biso   1.000  C
  C1011    1.0000 0.08518  0.16978  0.86608  Biso   1.000  C
  C1012    1.0000 0.08513  0.16978  0.86608  Biso   1.000  C
  H1017    1.0000 0.89393  0.21245  0.49568  Biso   1.000  H
  H1018    1.0000 0.85443  0.22216  0.53465  Biso   1.000  H
  C1013    1.0000 0.93646  0.31477  0.51365  Biso   1.000  C
  H1019    1.0000 0.85439  0.22216  0.53465  Biso   1.000  H
  H1020    1.0000 0.00581  0.31999  0.46948  Biso   1.000  H
  H1021    1.0000 0.03111  0.39077  0.49376  Biso   1.000  H
  H1022    1.0000 0.90334  0.07088  0.67138  Biso   1.000  H
  C1014    1.0000 0.81797  0.87836  0.71811  Biso   1.000  C
  C1015    1.0000 0.89924  0.99248  0.73756  Biso   1.000  C
  C1016    1.0000 0.81792  0.87836  0.71811  Biso   1.000  C
  H1023    1.0000 0.92537  0.16088  0.61925  Biso   1.000  H
  H1024    1.0000 0.92528  0.16088  0.61925  Biso   1.000  H
  H1025    1.0000 0.00124  0.78794  0.99035  Biso   1.000  H
  C1017    1.0000 0.03285  0.72007  0.97216  Biso   1.000  C
  C1018    1.0000 0.92335  0.71644  0.95264  Biso   1.000  C
  C1019    1.0000 0.92331  0.71644  0.95264  Biso   1.000  C
  C1020    1.0000 0.33343  0.21986  0.98871  Biso   1.000  C
  C1021    1.0000 0.23770  0.23617  0.96405  Biso   1.000  C
  H1026    1.0000 0.31011  0.23024  0.92666  Biso   1.000  H
  H1027    1.0000 0.31014  0.23029  0.92666  Biso   1.000  H
  H1028    1.0000 0.93379  0.12266  0.82866  Biso   1.000  H
  C1022    1.0000 0.95484  0.13635  0.89178  Biso   1.000  C
  C1023    1.0000 0.07182  0.17264  0.90865  Biso   1.000  C
  H1029    1.0000 0.12964  0.18036  0.85757  Biso   1.000  H
  C1024    1.0000 0.07185  0.17269  0.90865  Biso   1.000  C
  H1030    1.0000 0.93825  0.33925  0.53998  Biso   1.000  H
  H1031    1.0000 0.90986  0.32418  0.49256  Biso   1.000  H
  H1032    1.0000 0.93816  0.33925  0.53998  Biso   1.000  H
  H1033    1.0000 0.90978  0.32418  0.49256  Biso   1.000  H
  H1034    1.0000 0.79033  0.84565  0.69745  Biso   1.000  H
  C1025    1.0000 0.81606  0.85745  0.75938  Biso   1.000  C
  C1026    1.0000 0.81601  0.85745  0.75938  Biso   1.000  C
  C1027    1.0000 0.89525  0.97148  0.77925  Biso   1.000  C
  H1035    1.0000 0.92932  0.03884  0.73037  Biso   1.000  H
  H1036    1.0000 0.92935  0.03889  0.73037  Biso   1.000  H
  H1037    1.0000 0.03165  0.69518  0.94618  Biso   1.000  H
  C1028    1.0000 0.99596  0.66947  0.00760  Biso   1.000  C
  C1029    1.0000 0.99592  0.66947  0.00760  Biso   1.000  C
  H1038    1.0000 0.08127  0.75069  0.98007  Biso   1.000  H
  H1039    1.0000 0.08123  0.75069  0.98007  Biso   1.000  H
  N126     1.0000 0.89322  0.75994  0.94384  Biso   1.000  N
  C1030    1.0000 0.88646  0.66656  0.98871  Biso   1.000  C
  H1040    1.0000 0.92016  0.68987  0.92666  Biso   1.000  H
  N127     1.0000 0.89325  0.75999  0.94384  Biso   1.000  N
  C1031    1.0000 0.88642  0.66656  0.98871  Biso   1.000  C
  H1041    1.0000 0.92011  0.68987  0.92666  Biso   1.000  H
  C1032    1.0000 0.37575  0.29627  0.99852  Biso   1.000  C
  H1042    1.0000 0.36429  0.20244  0.98086  Biso   1.000  H
  H1043    1.0000 0.36431  0.20249  0.98086  Biso   1.000  H
  H1044    1.0000 0.30771  0.19508  0.01416  Biso   1.000  H
  N128     1.0000 0.18870  0.22155  0.93003  Biso   1.000  N
  H1045    1.0000 0.21204  0.21327  0.99035  Biso   1.000  H
  C1033    1.0000 0.27995  0.31278  0.97216  Biso   1.000  C
  C1034    1.0000 0.88344  0.11305  0.90540  Biso   1.000  C
  C1035    1.0000 0.00583  0.15317  0.92130  Biso   1.000  C
  C1036    1.0000 0.00579  0.15317  0.92130  Biso   1.000  C
  C1037    1.0000 0.12571  0.19216  0.93977  Biso   1.000  C
  H1046    1.0000 0.78855  0.81048  0.76625  Biso   1.000  H
  C1038    1.0000 0.85313  0.90345  0.79075  Biso   1.000  C
  H1047    1.0000 0.92165  0.00419  0.80015  Biso   1.000  H
  C1039    1.0000 0.92054  0.62424  0.99852  Biso   1.000  C
  H1048    1.0000 0.00158  0.69487  0.03418  Biso   1.000  H
  H1049    1.0000 0.01695  0.64055  0.01167  Biso   1.000  H
  H1050    1.0000 0.00153  0.69487  0.03418  Biso   1.000  H
  H1051    1.0000 0.01690  0.64055  0.01167  Biso   1.000  H
  C1040    1.0000 0.88697  0.77036  0.90540  Biso   1.000  C
  C1041    1.0000 0.88693  0.77036  0.90540  Biso   1.000  C
  H1052    1.0000 0.83816  0.63564  0.98086  Biso   1.000  H
  H1053    1.0000 0.83814  0.63569  0.98086  Biso   1.000  H
  H1054    1.0000 0.88736  0.69227  0.01416  Biso   1.000  H
  H1055    1.0000 0.88732  0.69227  0.01416  Biso   1.000  H
  C1042    1.0000 0.33057  0.32648  0.00760  Biso   1.000  C
  C1043    1.0000 0.33048  0.32648  0.00760  Biso   1.000  C
  H1056    1.0000 0.40576  0.32034  0.97427  Biso   1.000  H
  H1057    1.0000 0.40567  0.32034  0.97427  Biso   1.000  H
  H1058    1.0000 0.40528  0.30327  0.02327  Biso   1.000  H
  H1059    1.0000 0.40523  0.30327  0.02327  Biso   1.000  H
  H1060    1.0000 0.24931  0.33057  0.98007  Biso   1.000  H
  H1061    1.0000 0.30483  0.33644  0.94618  Biso   1.000  H
  H1062    1.0000 0.24927  0.33057  0.98007  Biso   1.000  H
  H1063    1.0000 0.84944  0.10267  0.88456  Biso   1.000  H
  N129     1.0000 0.86671  0.10676  0.94384  Biso   1.000  N
  H1064    1.0000 0.99555  0.15138  0.95046  Biso   1.000  H
  H1065    1.0000 0.11333  0.18235  0.96866  Biso   1.000  H
  C1044    1.0000 0.84833  0.88296  0.83607  Biso   1.000  C
  H1066    1.0000 0.91466  0.59424  0.97427  Biso   1.000  H
  H1067    1.0000 0.91461  0.59424  0.97427  Biso   1.000  H
  H1068    1.0000 0.89805  0.59475  0.02327  Biso   1.000  H
  H1069    1.0000 0.89800  0.59475  0.02327  Biso   1.000  H
  C1045    1.0000 0.86366  0.81846  0.89178  Biso   1.000  C
  H1070    1.0000 0.89734  0.74675  0.88456  Biso   1.000  H
  C1046    1.0000 0.86362  0.81846  0.89178  Biso   1.000  C
  H1071    1.0000 0.30512  0.30665  0.03418  Biso   1.000  H
  H1072    1.0000 0.35941  0.37636  0.01167  Biso   1.000  H
  C1047    1.0000 0.79310  0.07666  0.95264  Biso   1.000  C
  C1048    1.0000 0.86503  0.83394  0.84903  Biso   1.000  C
  C1049    1.0000 0.83027  0.91536  0.86608  Biso   1.000  C
  C1050    1.0000 0.83023  0.91536  0.86608  Biso   1.000  C
  C1051    1.0000 0.84685  0.85265  0.92130  Biso   1.000  C
  C1052    1.0000 0.84681  0.85265  0.92130  Biso   1.000  C
  C1053    1.0000 0.78012  0.11356  0.98871  Biso   1.000  C
  C1054    1.0000 0.76388  0.00158  0.96405  Biso   1.000  C
  H1073    1.0000 0.76974  0.07988  0.92666  Biso   1.000  H
  C1055    1.0000 0.76379  0.00158  0.96405  Biso   1.000  C
  H1074    1.0000 0.87736  0.81115  0.82866  Biso   1.000  H
  H1075    1.0000 0.87731  0.81115  0.82866  Biso   1.000  H
  C1056    1.0000 0.82735  0.89916  0.90865  Biso   1.000  C
  H1076    1.0000 0.81964  0.94924  0.85757  Biso   1.000  H
  H1077    1.0000 0.84867  0.84416  0.95046  Biso   1.000  H
  H1078    1.0000 0.84863  0.84416  0.95046  Biso   1.000  H
  C1057    1.0000 0.70377  0.07947  0.99852  Biso   1.000  C
  H1079    1.0000 0.79750  0.16186  0.98086  Biso   1.000  H
  C1058    1.0000 0.70368  0.07947  0.99852  Biso   1.000  C
  H1080    1.0000 0.80489  0.11264  0.01416  Biso   1.000  H
  H1081    1.0000 0.80492  0.11269  0.01416  Biso   1.000  H
  N130     1.0000 0.77846  0.96718  0.93003  Biso   1.000  N
  H1082    1.0000 0.78677  0.99877  0.99035  Biso   1.000  H
  C1059    1.0000 0.68728  0.96718  0.97216  Biso   1.000  C
  H1083    1.0000 0.78673  0.99877  0.99035  Biso   1.000  H
  C1060    1.0000 0.68724  0.96718  0.97216  Biso   1.000  C
  C1061    1.0000 0.80786  0.93355  0.93977  Biso   1.000  C
  C1062    1.0000 0.80781  0.93355  0.93977  Biso   1.000  C
  C1063    1.0000 0.67355  0.00408  0.00760  Biso   1.000  C
  H1084    1.0000 0.67966  0.08535  0.97427  Biso   1.000  H
  H1085    1.0000 0.67957  0.08535  0.97427  Biso   1.000  H
  H1086    1.0000 0.69673  0.10196  0.02327  Biso   1.000  H
  H1087    1.0000 0.66946  0.91878  0.98007  Biso   1.000  H
  H1088    1.0000 0.66357  0.96836  0.94618  Biso   1.000  H
  H1089    1.0000 0.66353  0.96836  0.94618  Biso   1.000  H
  H1090    1.0000 0.81766  0.93095  0.96866  Biso   1.000  H
  H1091    1.0000 0.81762  0.93095  0.96866  Biso   1.000  H
  H1092    1.0000 0.69336  0.99846  0.03418  Biso   1.000  H
  H1093    1.0000 0.62366  0.98308  0.01167  Biso   1.000  H
  H1094    1.0000 0.69332  0.99846  0.03418  Biso   1.000  H
  C1064    1.0000 0.11816  0.92548  0.55603  Biso   1.000  C
  N131     1.0000 0.17976  0.94996  0.56678  Biso   1.000  N
  N132     1.0000 0.17971  0.94996  0.56678  Biso   1.000  N
  H1095    1.0000 0.10716  0.92568  0.52718  Biso   1.000  H
  C1065    1.0000 0.06274  0.89624  0.58791  Biso   1.000  C
  C1066    1.0000 0.23274  0.98635  0.53535  Biso   1.000  C
  C1067    1.0000 0.11812  0.92548  0.55603  Biso   1.000  C
  C1068    1.0000 0.99498  0.85367  0.57710  Biso   1.000  C
  C1069    1.0000 0.99493  0.85367  0.57710  Biso   1.000  C
  C1070    1.0000 0.08075  0.91704  0.62975  Biso   1.000  C
  C1071    1.0000 0.08071  0.91704  0.62975  Biso   1.000  C
  C1072    1.0000 0.27354  0.95047  0.52746  Biso   1.000  C
  H1096    1.0000 0.21135  0.98916  0.50836  Biso   1.000  H
  C1073    1.0000 0.27876  0.05856  0.55291  Biso   1.000  C
  C1074    1.0000 0.27867  0.05856  0.55291  Biso   1.000  C
  C1075    1.0000 0.94524  0.82847  0.60837  Biso   1.000  C
  H1097    1.0000 0.98234  0.84176  0.54846  Biso   1.000  H
  H1098    1.0000 0.12715  0.94797  0.63656  Biso   1.000  H
  C1076    1.0000 0.03187  0.89328  0.66144  Biso   1.000  C
  C1077    1.0000 0.03182  0.89328  0.66144  Biso   1.000  C
  H1099    1.0000 0.24325  0.90468  0.51526  Biso   1.000  H
  C1078    1.0000 0.33257  0.99197  0.49735  Biso   1.000  C
  H1100    1.0000 0.29163  0.94434  0.55458  Biso   1.000  H
  C1079    1.0000 0.33253  0.99197  0.49735  Biso   1.000  C
  H1101    1.0000 0.29165  0.94439  0.55458  Biso   1.000  H
  N133     1.0000 0.23748  0.09107  0.55956  Biso   1.000  N
  H1102    1.0000 0.29798  0.05504  0.58056  Biso   1.000  H
  C1080    1.0000 0.33712  0.09986  0.52251  Biso   1.000  C
  N134     1.0000 0.23739  0.09107  0.55956  Biso   1.000  N
  H1103    1.0000 0.29800  0.05509  0.58056  Biso   1.000  H
  C1081    1.0000 0.33708  0.09986  0.52251  Biso   1.000  C
  H1104    1.0000 0.29809  0.05509  0.58056  Biso   1.000  H
  C1082    1.0000 0.96354  0.84887  0.65019  Biso   1.000  C
  C1083    1.0000 0.87245  0.78115  0.59746  Biso   1.000  C
  C1084    1.0000 0.87240  0.78115  0.59746  Biso   1.000  C
  C1085    1.0000 0.05345  0.91326  0.70628  Biso   1.000  C
  H1105    1.0000 0.31415  0.99417  0.46948  Biso   1.000  H
  H1106    1.0000 0.35966  0.96887  0.49376  Biso   1.000  H
  H1107    1.0000 0.35962  0.96887  0.49376  Biso   1.000  H
  C1086    1.0000 0.37838  0.06357  0.51365  Biso   1.000  C
  C1087    1.0000 0.37833  0.06357  0.51365  Biso   1.000  C
  C1088    1.0000 0.21885  0.09127  0.59746  Biso   1.000  C
  H1108    1.0000 0.36771  0.14555  0.53465  Biso   1.000  H
  H1109    1.0000 0.31853  0.10604  0.49568  Biso   1.000  H
  H1110    1.0000 0.92913  0.83246  0.67138  Biso   1.000  H
  N135     1.0000 0.85363  0.76254  0.55956  Biso   1.000  N
  H1111    1.0000 0.83915  0.76449  0.61925  Biso   1.000  H
  C1089    1.0000 0.00754  0.90677  0.73756  Biso   1.000  C
  C1090    1.0000 0.12168  0.93958  0.71811  Biso   1.000  C
  C1091    1.0000 0.12163  0.93958  0.71811  Biso   1.000  C
  H1112    1.0000 0.40107  0.06178  0.53998  Biso   1.000  H
  H1113    1.0000 0.41433  0.09015  0.49256  Biso   1.000  H
  H1114    1.0000 0.40103  0.06178  0.53998  Biso   1.000  H
  H1115    1.0000 0.23551  0.07466  0.61925  Biso   1.000  H
  C1092    1.0000 0.17150  0.11678  0.60837  Biso   1.000  C
  C1093    1.0000 0.77982  0.72125  0.55291  Biso   1.000  C
  H1116    1.0000 0.96115  0.89047  0.73037  Biso   1.000  H
  C1094    1.0000 0.02855  0.92374  0.77925  Biso   1.000  C
  C1095    1.0000 0.02853  0.92379  0.77925  Biso   1.000  C
  C1096    1.0000 0.14253  0.95855  0.75938  Biso   1.000  C
  H1117    1.0000 0.15435  0.94464  0.69745  Biso   1.000  H
  H1118    1.0000 0.15430  0.94464  0.69745  Biso   1.000  H
  C1097    1.0000 0.15111  0.11468  0.65019  Biso   1.000  C
  C1098    1.0000 0.14634  0.14126  0.57710  Biso   1.000  C
  H1119    1.0000 0.75704  0.70198  0.58056  Biso   1.000  H
  C1099    1.0000 0.76277  0.66288  0.52251  Biso   1.000  C
  C1100    1.0000 0.75365  0.76724  0.53535  Biso   1.000  C
  C1101    1.0000 0.76272  0.66288  0.52251  Biso   1.000  C
  C1102    1.0000 0.75360  0.76724  0.53535  Biso   1.000  C
  H1120    1.0000 0.99584  0.91745  0.80015  Biso   1.000  H
  C1103    1.0000 0.09657  0.94965  0.79075  Biso   1.000  C
  C1104    1.0000 0.09652  0.94965  0.79075  Biso   1.000  C
  H1121    1.0000 0.18956  0.97807  0.76625  Biso   1.000  H
  H1122    1.0000 0.18952  0.97807  0.76625  Biso   1.000  H
  C1105    1.0000 0.10674  0.13855  0.66144  Biso   1.000  C
  H1123    1.0000 0.16749  0.09664  0.67138  Biso   1.000  H
  H1124    1.0000 0.16752  0.09669  0.67138  Biso   1.000  H
  C1106    1.0000 0.10370  0.16646  0.58791  Biso   1.000  C
  H1125    1.0000 0.15824  0.14054  0.54846  Biso   1.000  H
  H1126    1.0000 0.78756  0.68148  0.49568  Biso   1.000  H
  H1127    1.0000 0.77787  0.63227  0.53465  Biso   1.000  H
  C1107    1.0000 0.68523  0.62164  0.51365  Biso   1.000  C
  H1128    1.0000 0.77782  0.63227  0.53465  Biso   1.000  H
  C1108    1.0000 0.68525  0.62169  0.51365  Biso   1.000  C
  N136     1.0000 0.77023  0.82024  0.56678  Biso   1.000  N
  C1109    1.0000 0.67696  0.72646  0.52746  Biso   1.000  C
  H1129    1.0000 0.77786  0.78866  0.50836  Biso   1.000  H
  C1110    1.0000 0.67691  0.72646  0.52746  Biso   1.000  C
  H1130    1.0000 0.77781  0.78866  0.50836  Biso   1.000  H
  C1111    1.0000 0.11703  0.96534  0.83607  Biso   1.000  C
  C1112    1.0000 0.08295  0.16364  0.62975  Biso   1.000  C
  C1113    1.0000 0.08671  0.14019  0.70628  Biso   1.000  C
  C1114    1.0000 0.08286  0.16364  0.62975  Biso   1.000  C
  C1115    1.0000 0.07449  0.19267  0.55603  Biso   1.000  C
  H1131    1.0000 0.66073  0.59894  0.53998  Biso   1.000  H
  H1132    1.0000 0.67587  0.58566  0.49256  Biso   1.000  H
  C1116    1.0000 0.65946  0.66748  0.49735  Biso   1.000  C
  H1133    1.0000 0.67582  0.58566  0.49256  Biso   1.000  H
  C1117    1.0000 0.80738  0.88188  0.55603  Biso   1.000  C
  C1118    1.0000 0.80734  0.88188  0.55603  Biso   1.000  C
  H1134    1.0000 0.66144  0.75677  0.51526  Biso   1.000  H
  H1135    1.0000 0.65277  0.70837  0.55458  Biso   1.000  H
  H1136    1.0000 0.65273  0.70837  0.55458  Biso   1.000  H
  C1119    1.0000 0.08465  0.91485  0.86608  Biso   1.000  C
  C1120    1.0000 0.08461  0.91485  0.86608  Biso   1.000  C
  C1121    1.0000 0.16605  0.03107  0.84903  Biso   1.000  C
  H1137    1.0000 0.05203  0.17918  0.63656  Biso   1.000  H
  H1138    1.0000 0.05199  0.17918  0.63656  Biso   1.000  H
  C1122    1.0000 0.06042  0.18204  0.71811  Biso   1.000  C
  C1123    1.0000 0.09321  0.10078  0.73756  Biso   1.000  C
  C1124    1.0000 0.06037  0.18204  0.71811  Biso   1.000  C
  H1139    1.0000 0.07430  0.18148  0.52718  Biso   1.000  H
  N137     1.0000 0.05007  0.22978  0.56678  Biso   1.000  N
  N138     1.0000 0.05002  0.22978  0.56678  Biso   1.000  N
  H1140    1.0000 0.68008  0.68588  0.46948  Biso   1.000  H
  H1141    1.0000 0.60924  0.64034  0.49376  Biso   1.000  H
  H1142    1.0000 0.68004  0.68588  0.46948  Biso   1.000  H
  H1143    1.0000 0.81854  0.89287  0.52718  Biso   1.000  H
  C1125    1.0000 0.83358  0.93728  0.58791  Biso   1.000  C
  C1126    1.0000 0.83353  0.93728  0.58791  Biso   1.000  C
  C1127    1.0000 0.10088  0.92819  0.90865  Biso   1.000  C
  H1144    1.0000 0.05078  0.87038  0.85757  Biso   1.000  H
  C1128    1.0000 0.10084  0.92819  0.90865  Biso   1.000  C
  H1145    1.0000 0.05074  0.87038  0.85757  Biso   1.000  H
  H1146    1.0000 0.18887  0.06618  0.82866  Biso   1.000  H
  C1129    1.0000 0.18155  0.04517  0.89178  Biso   1.000  C
  H1147    1.0000 0.18878  0.06618  0.82866  Biso   1.000  H
  H1148    1.0000 0.05531  0.20964  0.69745  Biso   1.000  H
  C1130    1.0000 0.04147  0.18399  0.75938  Biso   1.000  C
  C1131    1.0000 0.04138  0.18399  0.75938  Biso   1.000  C
  C1132    1.0000 0.07622  0.10477  0.77925  Biso   1.000  C
  H1149    1.0000 0.10954  0.07068  0.73037  Biso   1.000  H
  C1133    1.0000 0.01364  0.24634  0.53535  Biso   1.000  C
  C1134    1.0000 0.01358  0.24639  0.53535  Biso   1.000  C
  C1135    1.0000 0.83633  0.91924  0.62975  Biso   1.000  C
  C1136    1.0000 0.85870  0.00505  0.57710  Biso   1.000  C
  C1137    1.0000 0.06644  0.87427  0.93977  Biso   1.000  C
  C1138    1.0000 0.14737  0.99417  0.92130  Biso   1.000  C
  C1139    1.0000 0.14733  0.99417  0.92130  Biso   1.000  C
  C1140    1.0000 0.22960  0.11657  0.90540  Biso   1.000  C
  H1150    1.0000 0.02193  0.21148  0.76625  Biso   1.000  H
  C1141    1.0000 0.05031  0.14688  0.79075  Biso   1.000  C
  H1151    1.0000 0.02189  0.21148  0.76625  Biso   1.000  H
  H1152    1.0000 0.08248  0.07834  0.80015  Biso   1.000  H
  C1142    1.0000 0.94143  0.22017  0.55291  Biso   1.000  C
  C1143    1.0000 0.04957  0.32305  0.52746  Biso   1.000  C
  H1153    1.0000 0.01081  0.22216  0.50836  Biso   1.000  H
  C1144    1.0000 0.04948  0.32305  0.52746  Biso   1.000  C
  H1154    1.0000 0.82083  0.87284  0.63656  Biso   1.000  H
  C1145    1.0000 0.86145  0.96815  0.66144  Biso   1.000  C
  H1155    1.0000 0.82085  0.87289  0.63656  Biso   1.000  H
  C1146    1.0000 0.86141  0.96815  0.66144  Biso   1.000  C
  C1147    1.0000 0.88325  0.05478  0.60837  Biso   1.000  C
  H1156    1.0000 0.85948  0.01768  0.54846  Biso   1.000  H
  H1157    1.0000 0.85943  0.01768  0.54846  Biso   1.000  H
  N139     1.0000 0.03285  0.81125  0.93003  Biso   1.000  N
  H1158    1.0000 0.06907  0.88669  0.96866  Biso   1.000  H
  N140     1.0000 0.03281  0.81125  0.93003  Biso   1.000  N
  H1159    1.0000 0.06902  0.88669  0.96866  Biso   1.000  H
  H1160    1.0000 0.15579  0.00444  0.95046  Biso   1.000  H
  H1161    1.0000 0.15581  0.00449  0.95046  Biso   1.000  H
  H1162    1.0000 0.25319  0.15056  0.88456  Biso   1.000  H
  N141     1.0000 0.24008  0.13329  0.94384  Biso   1.000  N
  N142     1.0000 0.23999  0.13329  0.94384  Biso   1.000  N
  C1148    1.0000 0.03466  0.15169  0.83607  Biso   1.000  C
  N143     1.0000 0.90891  0.14637  0.55956  Biso   1.000  N
  H1163    1.0000 0.94490  0.24297  0.58056  Biso   1.000  H
  C1149    1.0000 0.90012  0.23724  0.52251  Biso   1.000  C
  C1150    1.0000 0.00801  0.34058  0.49735  Biso   1.000  C
  H1164    1.0000 0.09533  0.33854  0.51526  Biso   1.000  H
  H1165    1.0000 0.05562  0.34728  0.55458  Biso   1.000  H
  H1166    1.0000 0.09536  0.33859  0.51526  Biso   1.000  H
  C1151    1.0000 0.88530  0.03649  0.65019  Biso   1.000  C
  C1152    1.0000 0.85987  0.94659  0.70628  Biso   1.000  C
  C1153    1.0000 0.85983  0.94659  0.70628  Biso   1.000  C
  C1154    1.0000 0.90871  0.12756  0.59746  Biso   1.000  C
  C1155    1.0000 0.99843  0.76224  0.96405  Biso   1.000  C
  C1156    1.0000 0.99846  0.76229  0.96405  Biso   1.000  C
  C1157    1.0000 0.28352  0.20688  0.95264  Biso   1.000  C
  C1158    1.0000 0.28347  0.20688  0.95264  Biso   1.000  C
  C1159    1.0000 0.96889  0.13497  0.84903  Biso   1.000  C
  C1160    1.0000 0.08518  0.16978  0.86608  Biso   1.000  C
  C1161    1.0000 0.08513  0.16978  0.86608  Biso   1.000  C
  H1167    1.0000 0.89393  0.21245  0.49568  Biso   1.000  H
  H1168    1.0000 0.85443  0.22216  0.53465  Biso   1.000  H
  C1162    1.0000 0.93646  0.31477  0.51365  Biso   1.000  C
  H1169    1.0000 0.85439  0.22216  0.53465  Biso   1.000  H
  H1170    1.0000 0.00581  0.31999  0.46948  Biso   1.000  H
  H1171    1.0000 0.03111  0.39077  0.49376  Biso   1.000  H
  H1172    1.0000 0.90334  0.07088  0.67138  Biso   1.000  H
  C1163    1.0000 0.81797  0.87836  0.71811  Biso   1.000  C
  C1164    1.0000 0.89924  0.99248  0.73756  Biso   1.000  C
  C1165    1.0000 0.81792  0.87836  0.71811  Biso   1.000  C
  H1173    1.0000 0.92537  0.16088  0.61925  Biso   1.000  H
  H1174    1.0000 0.92528  0.16088  0.61925  Biso   1.000  H
  H1175    1.0000 0.00124  0.78794  0.99035  Biso   1.000  H
  C1166    1.0000 0.03285  0.72007  0.97216  Biso   1.000  C
  C1167    1.0000 0.92335  0.71644  0.95264  Biso   1.000  C
  C1168    1.0000 0.92331  0.71644  0.95264  Biso   1.000  C
  C1169    1.0000 0.33343  0.21986  0.98871  Biso   1.000  C
  C1170    1.0000 0.23770  0.23617  0.96405  Biso   1.000  C
  H1176    1.0000 0.31011  0.23024  0.92666  Biso   1.000  H
  H1177    1.0000 0.31014  0.23029  0.92666  Biso   1.000  H
  H1178    1.0000 0.93379  0.12266  0.82866  Biso   1.000  H
  C1171    1.0000 0.95484  0.13635  0.89178  Biso   1.000  C
  C1172    1.0000 0.07182  0.17264  0.90865  Biso   1.000  C
  H1179    1.0000 0.12964  0.18036  0.85757  Biso   1.000  H
  C1173    1.0000 0.07185  0.17269  0.90865  Biso   1.000  C
  H1180    1.0000 0.93825  0.33925  0.53998  Biso   1.000  H
  H1181    1.0000 0.90986  0.32418  0.49256  Biso   1.000  H
  H1182    1.0000 0.93816  0.33925  0.53998  Biso   1.000  H
  H1183    1.0000 0.90978  0.32418  0.49256  Biso   1.000  H
  H1184    1.0000 0.79033  0.84565  0.69745  Biso   1.000  H
  C1174    1.0000 0.81606  0.85745  0.75938  Biso   1.000  C
  C1175    1.0000 0.81601  0.85745  0.75938  Biso   1.000  C
  C1176    1.0000 0.89525  0.97148  0.77925  Biso   1.000  C
  H1185    1.0000 0.92932  0.03884  0.73037  Biso   1.000  H
  H1186    1.0000 0.92935  0.03889  0.73037  Biso   1.000  H
  H1187    1.0000 0.03165  0.69518  0.94618  Biso   1.000  H
  C1177    1.0000 0.99596  0.66947  0.00760  Biso   1.000  C
  C1178    1.0000 0.99592  0.66947  0.00760  Biso   1.000  C
  H1188    1.0000 0.08127  0.75069  0.98007  Biso   1.000  H
  H1189    1.0000 0.08123  0.75069  0.98007  Biso   1.000  H
  N144     1.0000 0.89322  0.75994  0.94384  Biso   1.000  N
  C1179    1.0000 0.88646  0.66656  0.98871  Biso   1.000  C
  H1190    1.0000 0.92016  0.68987  0.92666  Biso   1.000  H
  N145     1.0000 0.89325  0.75999  0.94384  Biso   1.000  N
  C1180    1.0000 0.88642  0.66656  0.98871  Biso   1.000  C
  H1191    1.0000 0.92011  0.68987  0.92666  Biso   1.000  H
  C1181    1.0000 0.37575  0.29627  0.99852  Biso   1.000  C
  H1192    1.0000 0.36429  0.20244  0.98086  Biso   1.000  H
  H1193    1.0000 0.36431  0.20249  0.98086  Biso   1.000  H
  H1194    1.0000 0.30771  0.19508  0.01416  Biso   1.000  H
  N146     1.0000 0.18870  0.22155  0.93003  Biso   1.000  N
  H1195    1.0000 0.21204  0.21327  0.99035  Biso   1.000  H
  C1182    1.0000 0.27995  0.31278  0.97216  Biso   1.000  C
  C1183    1.0000 0.88344  0.11305  0.90540  Biso   1.000  C
  C1184    1.0000 0.00583  0.15317  0.92130  Biso   1.000  C
  C1185    1.0000 0.00579  0.15317  0.92130  Biso   1.000  C
  C1186    1.0000 0.12571  0.19216  0.93977  Biso   1.000  C
  H1196    1.0000 0.78855  0.81048  0.76625  Biso   1.000  H
  C1187    1.0000 0.85313  0.90345  0.79075  Biso   1.000  C
  H1197    1.0000 0.92165  0.00419  0.80015  Biso   1.000  H
  C1188    1.0000 0.92054  0.62424  0.99852  Biso   1.000  C
  H1198    1.0000 0.00158  0.69487  0.03418  Biso   1.000  H
  H1199    1.0000 0.01695  0.64055  0.01167  Biso   1.000  H
  H1200    1.0000 0.00153  0.69487  0.03418  Biso   1.000  H
  H1201    1.0000 0.01690  0.64055  0.01167  Biso   1.000  H
  C1189    1.0000 0.88697  0.77036  0.90540  Biso   1.000  C
  C1190    1.0000 0.88693  0.77036  0.90540  Biso   1.000  C
  H1202    1.0000 0.83816  0.63564  0.98086  Biso   1.000  H
  H1203    1.0000 0.83814  0.63569  0.98086  Biso   1.000  H
  H1204    1.0000 0.88736  0.69227  0.01416  Biso   1.000  H
  H1205    1.0000 0.88732  0.69227  0.01416  Biso   1.000  H
  C1191    1.0000 0.33057  0.32648  0.00760  Biso   1.000  C
  C1192    1.0000 0.33048  0.32648  0.00760  Biso   1.000  C
  H1206    1.0000 0.40576  0.32034  0.97427  Biso   1.000  H
  H1207    1.0000 0.40567  0.32034  0.97427  Biso   1.000  H
  H1208    1.0000 0.40528  0.30327  0.02327  Biso   1.000  H
  H1209    1.0000 0.40523  0.30327  0.02327  Biso   1.000  H
  H1210    1.0000 0.24931  0.33057  0.98007  Biso   1.000  H
  H1211    1.0000 0.30483  0.33644  0.94618  Biso   1.000  H
  H1212    1.0000 0.24927  0.33057  0.98007  Biso   1.000  H
  H1213    1.0000 0.84944  0.10267  0.88456  Biso   1.000  H
  N147     1.0000 0.86671  0.10676  0.94384  Biso   1.000  N
  H1214    1.0000 0.99555  0.15138  0.95046  Biso   1.000  H
  H1215    1.0000 0.11333  0.18235  0.96866  Biso   1.000  H
  C1193    1.0000 0.84833  0.88296  0.83607  Biso   1.000  C
  H1216    1.0000 0.91466  0.59424  0.97427  Biso   1.000  H
  H1217    1.0000 0.91461  0.59424  0.97427  Biso   1.000  H
  H1218    1.0000 0.89805  0.59475  0.02327  Biso   1.000  H
  H1219    1.0000 0.89800  0.59475  0.02327  Biso   1.000  H
  C1194    1.0000 0.86366  0.81846  0.89178  Biso   1.000  C
  H1220    1.0000 0.89734  0.74675  0.88456  Biso   1.000  H
  C1195    1.0000 0.86362  0.81846  0.89178  Biso   1.000  C
  H1221    1.0000 0.30512  0.30665  0.03418  Biso   1.000  H
  H1222    1.0000 0.35941  0.37636  0.01167  Biso   1.000  H
  C1196    1.0000 0.79310  0.07666  0.95264  Biso   1.000  C
  C1197    1.0000 0.86503  0.83394  0.84903  Biso   1.000  C
  C1198    1.0000 0.83027  0.91536  0.86608  Biso   1.000  C
  C1199    1.0000 0.83023  0.91536  0.86608  Biso   1.000  C
  C1200    1.0000 0.84685  0.85265  0.92130  Biso   1.000  C
  C1201    1.0000 0.84681  0.85265  0.92130  Biso   1.000  C
  C1202    1.0000 0.78012  0.11356  0.98871  Biso   1.000  C
  C1203    1.0000 0.76388  0.00158  0.96405  Biso   1.000  C
  H1223    1.0000 0.76974  0.07988  0.92666  Biso   1.000  H
  C1204    1.0000 0.76379  0.00158  0.96405  Biso   1.000  C
  H1224    1.0000 0.87736  0.81115  0.82866  Biso   1.000  H
  H1225    1.0000 0.87731  0.81115  0.82866  Biso   1.000  H
  C1205    1.0000 0.82735  0.89916  0.90865  Biso   1.000  C
  H1226    1.0000 0.81964  0.94924  0.85757  Biso   1.000  H
  H1227    1.0000 0.84867  0.84416  0.95046  Biso   1.000  H
  H1228    1.0000 0.84863  0.84416  0.95046  Biso   1.000  H
  C1206    1.0000 0.70377  0.07947  0.99852  Biso   1.000  C
  H1229    1.0000 0.79750  0.16186  0.98086  Biso   1.000  H
  C1207    1.0000 0.70368  0.07947  0.99852  Biso   1.000  C
  H1230    1.0000 0.80489  0.11264  0.01416  Biso   1.000  H
  H1231    1.0000 0.80492  0.11269  0.01416  Biso   1.000  H
  N148     1.0000 0.77846  0.96718  0.93003  Biso   1.000  N
  H1232    1.0000 0.78677  0.99877  0.99035  Biso   1.000  H
  C1208    1.0000 0.68728  0.96718  0.97216  Biso   1.000  C
  H1233    1.0000 0.78673  0.99877  0.99035  Biso   1.000  H
  C1209    1.0000 0.68724  0.96718  0.97216  Biso   1.000  C
  C1210    1.0000 0.80786  0.93355  0.93977  Biso   1.000  C
  C1211    1.0000 0.80781  0.93355  0.93977  Biso   1.000  C
  C1212    1.0000 0.67355  0.00408  0.00760  Biso   1.000  C
  H1234    1.0000 0.67966  0.08535  0.97427  Biso   1.000  H
  H1235    1.0000 0.67957  0.08535  0.97427  Biso   1.000  H
  H1236    1.0000 0.69673  0.10196  0.02327  Biso   1.000  H
  H1237    1.0000 0.66946  0.91878  0.98007  Biso   1.000  H
  H1238    1.0000 0.66357  0.96836  0.94618  Biso   1.000  H
  H1239    1.0000 0.66353  0.96836  0.94618  Biso   1.000  H
  H1240    1.0000 0.81766  0.93095  0.96866  Biso   1.000  H
  H1241    1.0000 0.81762  0.93095  0.96866  Biso   1.000  H
  H1242    1.0000 0.69336  0.99846  0.03418  Biso   1.000  H
  H1243    1.0000 0.62366  0.98308  0.01167  Biso   1.000  H
  H1244    1.0000 0.69332  0.99846  0.03418  Biso   1.000  H
  C1213    1.0000 0.21675  0.77972  0.57205  Biso   1.000  C
  N149     1.0000 0.20006  0.77343  0.61052  Biso   1.000  N
  C1214    1.0000 0.28816  0.80302  0.55846  Biso   1.000  C
  H1245    1.0000 0.18275  0.76934  0.55124  Biso   1.000  H
  C1215    1.0000 0.12645  0.74333  0.61928  Biso   1.000  C
  C1216    1.0000 0.33919  0.81984  0.58794  Biso   1.000  C
  C1217    1.0000 0.30225  0.80164  0.51570  Biso   1.000  C
  C1218    1.0000 0.09719  0.66825  0.63073  Biso   1.000  C
  C1219    1.0000 0.11348  0.78023  0.65536  Biso   1.000  C
  H1246    1.0000 0.10306  0.74655  0.59333  Biso   1.000  H
  C1220    1.0000 0.40514  0.83931  0.57533  Biso   1.000  C
  H1247    1.0000 0.32887  0.81805  0.61714  Biso   1.000  H
  C1221    1.0000 0.36797  0.81835  0.50271  Biso   1.000  C
  H1248    1.0000 0.26714  0.78932  0.49533  Biso   1.000  H
  N150     1.0000 0.11177  0.63385  0.59671  Biso   1.000  N
  H1249    1.0000 0.12009  0.66544  0.65703  Biso   1.000  H
  C1222    1.0000 0.02059  0.63385  0.63883  Biso   1.000  C
  C1223    1.0000 0.03708  0.74614  0.66520  Biso   1.000  C
  H1250    1.0000 0.13827  0.77936  0.68083  Biso   1.000  H
  H1251    1.0000 0.13086  0.82852  0.64754  Biso   1.000  H
  C1224    1.0000 0.45907  0.85883  0.60645  Biso   1.000  C
  C1225    1.0000 0.41849  0.83645  0.53276  Biso   1.000  C
  C1226    1.0000 0.38367  0.81355  0.45743  Biso   1.000  C
  C1227    1.0000 0.14117  0.60022  0.60645  Biso   1.000  C
  H1252    1.0000 0.00277  0.58545  0.64675  Biso   1.000  H
  C1228    1.0000 0.00687  0.67075  0.67428  Biso   1.000  C
  H1253    1.0000 0.99688  0.63503  0.61282  Biso   1.000  H
  H1254    1.0000 0.01297  0.75201  0.64095  Biso   1.000  H
  H1255    1.0000 0.03004  0.76862  0.68995  Biso   1.000  H
  N151     1.0000 0.52205  0.88822  0.59671  Biso   1.000  N
  H1256    1.0000 0.44664  0.84902  0.63533  Biso   1.000  H
  H1257    1.0000 0.46295  0.84703  0.52425  Biso   1.000  H
  C1229    1.0000 0.37478  0.85065  0.42606  Biso   1.000  C
  C1230    1.0000 0.40957  0.77144  0.44592  Biso   1.000  C
  C1231    1.0000 0.16066  0.56583  0.57533  Biso   1.000  C
  H1258    1.0000 0.15097  0.59761  0.63533  Biso   1.000  H
  H1259    1.0000 0.02667  0.66513  0.70083  Biso   1.000  H
  H1260    1.0000 0.95697  0.64975  0.67834  Biso   1.000  H
  C1232    1.0000 0.57106  0.90284  0.63073  Biso   1.000  C
  C1233    1.0000 0.39377  0.84871  0.38478  Biso   1.000  C
  H1261    1.0000 0.35529  0.87815  0.43293  Biso   1.000  H
  C1234    1.0000 0.42657  0.76745  0.40421  Biso   1.000  C
  H1262    1.0000 0.41584  0.74501  0.46683  Biso   1.000  H
  C1235    1.0000 0.16358  0.58203  0.53276  Biso   1.000  C
  C1236    1.0000 0.18016  0.51932  0.58794  Biso   1.000  C
  C1237    1.0000 0.61688  0.87355  0.61928  Biso   1.000  C
  H1263    1.0000 0.54536  0.87994  0.65703  Biso   1.000  H
  C1238    1.0000 0.61326  0.97945  0.63883  Biso   1.000  C
  C1239    1.0000 0.42007  0.80685  0.37296  Biso   1.000  C
  H1264    1.0000 0.38867  0.87631  0.36413  Biso   1.000  H
  H1265    1.0000 0.44286  0.73735  0.39705  Biso   1.000  H
  C1240    1.0000 0.18164  0.54962  0.50271  Biso   1.000  C
  H1266    1.0000 0.15295  0.61591  0.52425  Biso   1.000  H
  C1241    1.0000 0.19697  0.48512  0.55846  Biso   1.000  C
  H1267    1.0000 0.18199  0.51083  0.61714  Biso   1.000  H
  N152     1.0000 0.57339  0.79995  0.61052  Biso   1.000  N
  C1242    1.0000 0.66679  0.88653  0.65536  Biso   1.000  C
  H1268    1.0000 0.64347  0.89691  0.59333  Biso   1.000  H
  H1269    1.0000 0.58267  0.99723  0.64675  Biso   1.000  H
  C1243    1.0000 0.66388  0.99315  0.67428  Biso   1.000  C
  H1270    1.0000 0.63815  0.00311  0.61282  Biso   1.000  H
  C1244    1.0000 0.44005  0.80522  0.32812  Biso   1.000  C
  C1245    1.0000 0.18644  0.57012  0.45743  Biso   1.000  C
  C1246    1.0000 0.19834  0.50061  0.51570  Biso   1.000  C
  C1247    1.0000 0.22029  0.43703  0.57205  Biso   1.000  C
  C1248    1.0000 0.56296  0.78324  0.57205  Biso   1.000  C
  C1249    1.0000 0.70906  0.96294  0.66520  Biso   1.000  C
  H1271    1.0000 0.64107  0.86175  0.68083  Biso   1.000  H
  H1272    1.0000 0.69767  0.86916  0.64754  Biso   1.000  H
  H1273    1.0000 0.63847  0.97332  0.70083  Biso   1.000  H
  H1274    1.0000 0.69276  0.04303  0.67834  Biso   1.000  H
  C1250    1.0000 0.48447  0.78135  0.31686  Biso   1.000  C
  C1251    1.0000 0.41626  0.83031  0.29640  Biso   1.000  C
  C1252    1.0000 0.14937  0.52412  0.42606  Biso   1.000  C
  C1253    1.0000 0.22856  0.63814  0.44592  Biso   1.000  C
  H1275    1.0000 0.21067  0.47782  0.49533  Biso   1.000  H
  N153     1.0000 0.22656  0.42666  0.61052  Biso   1.000  N
  H1276    1.0000 0.23065  0.41342  0.55124  Biso   1.000  H
  C1254    1.0000 0.51486  0.71184  0.55846  Biso   1.000  C
  H1277    1.0000 0.58655  0.81723  0.55124  Biso   1.000  H
  H1278    1.0000 0.73907  0.98701  0.64095  Biso   1.000  H
  H1279    1.0000 0.73859  0.96994  0.68995  Biso   1.000  H
  C1255    1.0000 0.50486  0.78345  0.27505  Biso   1.000  C
  H1280    1.0000 0.50085  0.76331  0.33802  Biso   1.000  H
  C1256    1.0000 0.43706  0.83312  0.25459  Biso   1.000  C
  H1281    1.0000 0.38539  0.84585  0.30324  Biso   1.000  H
  C1257    1.0000 0.15128  0.54502  0.38478  Biso   1.000  C
  H1282    1.0000 0.12186  0.47715  0.43293  Biso   1.000  H
  C1258    1.0000 0.23255  0.65915  0.40421  Biso   1.000  C
  H1283    1.0000 0.25496  0.67085  0.46683  Biso   1.000  H
  C1259    1.0000 0.25666  0.38311  0.61928  Biso   1.000  C
  C1260    1.0000 0.49936  0.69774  0.51570  Biso   1.000  C
  C1261    1.0000 0.48069  0.66084  0.58794  Biso   1.000  C
  C1262    1.0000 0.55217  0.75794  0.26414  Biso   1.000  C
  C1263    1.0000 0.47965  0.80793  0.24377  Biso   1.000  C
  C1264    1.0000 0.40785  0.85934  0.22271  Biso   1.000  C
  C1265    1.0000 0.19318  0.61325  0.37296  Biso   1.000  C
  H1284    1.0000 0.12364  0.51231  0.36413  Biso   1.000  H
  H1285    1.0000 0.26266  0.70556  0.39705  Biso   1.000  H
  C1266    1.0000 0.33177  0.42896  0.63073  Biso   1.000  C
  C1267    1.0000 0.21977  0.33323  0.65536  Biso   1.000  C
  H1286    1.0000 0.25347  0.35653  0.59333  Biso   1.000  H
  C1268    1.0000 0.45034  0.63201  0.50271  Biso   1.000  C
  H1287    1.0000 0.52218  0.73285  0.49533  Biso   1.000  H
  C1269    1.0000 0.43420  0.59486  0.57533  Biso   1.000  C
  H1288    1.0000 0.48914  0.67111  0.61714  Biso   1.000  H
  N154     1.0000 0.57079  0.75774  0.22621  Biso   1.000  N
  H1289    1.0000 0.56887  0.74133  0.28593  Biso   1.000  H
  H1290    1.0000 0.49155  0.80721  0.21514  Biso   1.000  H
  N155     1.0000 0.38338  0.89645  0.23343  Biso   1.000  N
  H1291    1.0000 0.40765  0.84815  0.19383  Biso   1.000  H
  C1270    1.0000 0.19476  0.63482  0.32812  Biso   1.000  C
  N156     1.0000 0.36617  0.47792  0.59671  Biso   1.000  N
  H1292    1.0000 0.33455  0.45461  0.65703  Biso   1.000  H
  C1271    1.0000 0.36617  0.38674  0.63883  Biso   1.000  C
  C1272    1.0000 0.25385  0.29091  0.66520  Biso   1.000  C
  H1293    1.0000 0.22068  0.35894  0.68083  Biso   1.000  H
  H1294    1.0000 0.17147  0.30231  0.64754  Biso   1.000  H
  C1273    1.0000 0.42988  0.61632  0.45743  Biso   1.000  C
  C1274    1.0000 0.41797  0.58152  0.53276  Biso   1.000  C
  C1275    1.0000 0.39976  0.54094  0.60645  Biso   1.000  C
  C1276    1.0000 0.61207  0.72523  0.21956  Biso   1.000  C
  C1277    1.0000 0.34698  0.91306  0.20202  Biso   1.000  C
  C1278    1.0000 0.16964  0.58591  0.29640  Biso   1.000  C
  C1279    1.0000 0.21866  0.70315  0.31686  Biso   1.000  C
  H1295    1.0000 0.41458  0.41735  0.64675  Biso   1.000  H
  H1296    1.0000 0.36496  0.36185  0.61282  Biso   1.000  H
  C1280    1.0000 0.32927  0.33614  0.67428  Biso   1.000  C
  H1297    1.0000 0.24797  0.26091  0.64095  Biso   1.000  H
  H1298    1.0000 0.23136  0.26142  0.68995  Biso   1.000  H
  C1281    1.0000 0.47584  0.62521  0.42606  Biso   1.000  C
  C1282    1.0000 0.36186  0.59041  0.44592  Biso   1.000  C
  H1299    1.0000 0.38409  0.53705  0.52425  Biso   1.000  H
  H1300    1.0000 0.40238  0.55335  0.63533  Biso   1.000  H
  C1283    1.0000 0.56605  0.65302  0.20202  Biso   1.000  C
  H1301    1.0000 0.63136  0.72176  0.24724  Biso   1.000  H
  C1284    1.0000 0.67048  0.76653  0.18916  Biso   1.000  C
  C1285    1.0000 0.27478  0.88684  0.21956  Biso   1.000  C
  C1286    1.0000 0.38288  0.98972  0.19411  Biso   1.000  C
  H1302    1.0000 0.34416  0.88883  0.17503  Biso   1.000  H
  C1287    1.0000 0.16689  0.60395  0.25459  Biso   1.000  C
  H1303    1.0000 0.15417  0.53956  0.30324  Biso   1.000  H
  C1288    1.0000 0.21657  0.72145  0.27505  Biso   1.000  C
  H1304    1.0000 0.23665  0.73755  0.33802  Biso   1.000  H
  H1305    1.0000 0.33489  0.36154  0.70083  Biso   1.000  H
  H1306    1.0000 0.35026  0.30721  0.67834  Biso   1.000  H
  C1289    1.0000 0.45499  0.60625  0.38478  Biso   1.000  C
  H1307    1.0000 0.52287  0.64474  0.43293  Biso   1.000  H
  C1290    1.0000 0.34085  0.57344  0.40421  Biso   1.000  C
  H1308    1.0000 0.32915  0.58412  0.46683  Biso   1.000  H
  N157     1.0000 0.51307  0.61663  0.23343  Biso   1.000  N
  C1291    1.0000 0.60685  0.61714  0.19411  Biso   1.000  C
  H1309    1.0000 0.54466  0.65583  0.17503  Biso   1.000  H
  H1310    1.0000 0.65184  0.77271  0.16233  Biso   1.000  H
  H1311    1.0000 0.70107  0.81222  0.20133  Biso   1.000  H
  C1292    1.0000 0.71169  0.73024  0.18033  Biso   1.000  C
  N158     1.0000 0.24226  0.81304  0.22621  Biso   1.000  N
  H1312    1.0000 0.27826  0.90963  0.24724  Biso   1.000  H
  C1293    1.0000 0.23344  0.90391  0.18916  Biso   1.000  C
  C1294    1.0000 0.34132  0.00725  0.16403  Biso   1.000  C
  H1313    1.0000 0.42867  0.00526  0.18194  Biso   1.000  H
  H1314    1.0000 0.38893  0.01395  0.22123  Biso   1.000  H
  C1295    1.0000 0.14069  0.54855  0.22271  Biso   1.000  C
  C1296    1.0000 0.19206  0.67172  0.24377  Biso   1.000  C
  C1297    1.0000 0.24207  0.79423  0.26414  Biso   1.000  C
  C1298    1.0000 0.38677  0.57993  0.37296  Biso   1.000  C
  H1315    1.0000 0.48766  0.61131  0.36413  Biso   1.000  H
  H1316    1.0000 0.29446  0.55714  0.39705  Biso   1.000  H
  C1299    1.0000 0.45148  0.59215  0.22271  Biso   1.000  C
  C1300    1.0000 0.66588  0.65864  0.16403  Biso   1.000  C
  H1317    1.0000 0.57656  0.57134  0.18194  Biso   1.000  H
  H1318    1.0000 0.62496  0.61106  0.22123  Biso   1.000  H
  H1319    1.0000 0.73439  0.72845  0.20663  Biso   1.000  H
  H1320    1.0000 0.74764  0.75682  0.15924  Biso   1.000  H
  H1321    1.0000 0.22728  0.87912  0.16233  Biso   1.000  H
  H1322    1.0000 0.18779  0.88883  0.20133  Biso   1.000  H
  C1301    1.0000 0.26977  0.98144  0.18033  Biso   1.000  C
  H1323    1.0000 0.33916  0.98665  0.13612  Biso   1.000  H
  H1324    1.0000 0.36442  0.05744  0.16043  Biso   1.000  H
  N159     1.0000 0.10355  0.48691  0.23343  Biso   1.000  N
  H1325    1.0000 0.15185  0.55954  0.19383  Biso   1.000  H
  H1326    1.0000 0.19279  0.68435  0.21514  Biso   1.000  H
  H1327    1.0000 0.25868  0.82755  0.28593  Biso   1.000  H
  C1302    1.0000 0.36518  0.55995  0.32812  Biso   1.000  C
  C1303    1.0000 0.39605  0.56291  0.25459  Biso   1.000  C
  H1328    1.0000 0.44047  0.59235  0.19383  Biso   1.000  H
  H1329    1.0000 0.64746  0.66084  0.13612  Biso   1.000  H
  H1330    1.0000 0.69297  0.63554  0.16043  Biso   1.000  H
  H1331    1.0000 0.24318  0.99085  0.15924  Biso   1.000  H
  H1332    1.0000 0.27152  0.00592  0.20663  Biso   1.000  H
  C1304    1.0000 0.08696  0.43391  0.20202  Biso   1.000  C
  C1305    1.0000 0.29685  0.51553  0.31686  Biso   1.000  C
  C1306    1.0000 0.41406  0.58371  0.29640  Biso   1.000  C
  C1307    1.0000 0.32829  0.52034  0.24377  Biso   1.000  C
  C1308    1.0000 0.11314  0.38792  0.21956  Biso   1.000  C
  C1309    1.0000 0.01027  0.39313  0.19411  Biso   1.000  C
  H1333    1.0000 0.11117  0.45533  0.17503  Biso   1.000  H
  C1310    1.0000 0.27855  0.49514  0.27505  Biso   1.000  C
  H1334    1.0000 0.26244  0.49913  0.33802  Biso   1.000  H
  H1335    1.0000 0.46046  0.61463  0.30324  Biso   1.000  H
  H1336    1.0000 0.31565  0.50843  0.21514  Biso   1.000  H
  N160     1.0000 0.18694  0.42921  0.22621  Biso   1.000  N
  H1337    1.0000 0.09036  0.36865  0.24724  Biso   1.000  H
  C1311    1.0000 0.09608  0.32955  0.18916  Biso   1.000  C
  C1312    1.0000 0.99277  0.33415  0.16403  Biso   1.000  C
  H1338    1.0000 0.99475  0.42344  0.18194  Biso   1.000  H
  H1339    1.0000 0.98608  0.37504  0.22123  Biso   1.000  H
  C1313    1.0000 0.20576  0.44782  0.26414  Biso   1.000  C
  H1340    1.0000 0.12087  0.34815  0.16233  Biso   1.000  H
  H1341    1.0000 0.11118  0.29894  0.20133  Biso   1.000  H
  C1314    1.0000 0.01856  0.28836  0.18033  Biso   1.000  C
  H1342    1.0000 0.01339  0.35255  0.13612  Biso   1.000  H
  H1343    1.0000 0.94255  0.30701  0.16043  Biso   1.000  H
  H1344    1.0000 0.17247  0.43115  0.28593  Biso   1.000  H
  H1345    1.0000 0.00918  0.25232  0.15924  Biso   1.000  H
  H1346    1.0000 0.99405  0.26561  0.20663  Biso   1.000  H
  C1315    1.0000 0.33739  0.99718  0.65908  Biso   1.000  C
  C1316    1.0000 0.30050  0.94659  0.69449  Biso   1.000  C
  H1347    1.0000 0.33177  0.97178  0.63250  Biso   1.000  H
  H1348    1.0000 0.31636  0.02611  0.65501  Biso   1.000  H
  C1317    1.0000 0.41277  0.04241  0.66813  Biso   1.000  C
  C1318    1.0000 0.33492  0.90442  0.70259  Biso   1.000  C
  H1349    1.0000 0.25211  0.91602  0.68661  Biso   1.000  H
  H1350    1.0000 0.30170  0.97148  0.72050  Biso   1.000  H
  C1319    1.0000 0.44685  0.00010  0.67797  Biso   1.000  C
  H1351    1.0000 0.41869  0.07242  0.69241  Biso   1.000  H
  H1352    1.0000 0.43526  0.07190  0.64341  Biso   1.000  H
  N161     1.0000 0.30050  0.85541  0.73661  Biso   1.000  N
  H1353    1.0000 0.33211  0.87871  0.67629  Biso   1.000  H
  C1320    1.0000 0.41000  0.95021  0.71404  Biso   1.000  C
  H1354    1.0000 0.44599  0.97439  0.65249  Biso   1.000  H
  H1355    1.0000 0.49515  0.03102  0.68579  Biso   1.000  H
  C1321    1.0000 0.26691  0.79239  0.72687  Biso   1.000  C
  N162     1.0000 0.44013  0.90672  0.72280  Biso   1.000  N
  H1356    1.0000 0.41320  0.97679  0.73999  Biso   1.000  H
  C1322    1.0000 0.23249  0.73852  0.75802  Biso   1.000  C
  H1357    1.0000 0.26431  0.78002  0.69799  Biso   1.000  H
  C1323    1.0000 0.44638  0.89629  0.76127  Biso   1.000  C
  C1324    1.0000 0.18598  0.67249  0.74538  Biso   1.000  C
  C1325    1.0000 0.24870  0.75181  0.80059  Biso   1.000  C
  C1326    1.0000 0.46969  0.84820  0.77489  Biso   1.000  C
  H1358    1.0000 0.43601  0.91991  0.78212  Biso   1.000  H
  C1327    1.0000 0.15180  0.62148  0.77489  Biso   1.000  C
  H1359    1.0000 0.17752  0.66222  0.71621  Biso   1.000  H
  C1328    1.0000 0.21632  0.70131  0.83061  Biso   1.000  C
  H1360    1.0000 0.28257  0.79627  0.80911  Biso   1.000  H
  C1329    1.0000 0.48650  0.81401  0.74538  Biso   1.000  C
  C1330    1.0000 0.46832  0.83272  0.81762  Biso   1.000  C
  C1331    1.0000 0.10371  0.55008  0.76127  Biso   1.000  C
  C1332    1.0000 0.16731  0.63559  0.81762  Biso   1.000  C
  C1333    1.0000 0.23678  0.71700  0.87589  Biso   1.000  C
  C1334    1.0000 0.50600  0.76750  0.75802  Biso   1.000  C
  H1361    1.0000 0.48468  0.82249  0.71621  Biso   1.000  H
  C1335    1.0000 0.48502  0.78370  0.83061  Biso   1.000  C
  H1362    1.0000 0.45599  0.85551  0.83799  Biso   1.000  H
  N163     1.0000 0.09329  0.53342  0.72280  Biso   1.000  N
  H1363    1.0000 0.08012  0.51610  0.78212  Biso   1.000  H
  H1364    1.0000 0.14448  0.60048  0.83799  Biso   1.000  H
  C1336    1.0000 0.19082  0.70811  0.90726  Biso   1.000  C
  C1337    1.0000 0.30480  0.74292  0.88740  Biso   1.000  C
  C1338    1.0000 0.52550  0.73310  0.72687  Biso   1.000  C
  C1339    1.0000 0.50308  0.75130  0.80059  Biso   1.000  C
  C1340    1.0000 0.48022  0.76321  0.87589  Biso   1.000  C
  C1341    1.0000 0.04979  0.45977  0.71404  Biso   1.000  C
  C1342    1.0000 0.21170  0.72712  0.94857  Biso   1.000  C
  H1365    1.0000 0.14379  0.68859  0.90039  Biso   1.000  H
  H1366    1.0000 0.33751  0.74920  0.86649  Biso   1.000  H
  C1343    1.0000 0.32581  0.75989  0.92912  Biso   1.000  C
  N164     1.0000 0.55489  0.69947  0.73661  Biso   1.000  N
  H1367    1.0000 0.51569  0.73571  0.69799  Biso   1.000  H
  H1368    1.0000 0.51371  0.71741  0.80911  Biso   1.000  H
  C1344    1.0000 0.51729  0.80921  0.90726  Biso   1.000  C
  C1345    1.0000 0.43811  0.69518  0.88740  Biso   1.000  C
  C1346    1.0000 0.09561  0.43049  0.70259  Biso   1.000  C
  C1347    1.0000 0.99988  0.44679  0.67797  Biso   1.000  C
  H1369    1.0000 0.02319  0.43642  0.73999  Biso   1.000  H
  C1348    1.0000 0.27990  0.75339  0.96036  Biso   1.000  C
  H1370    1.0000 0.17900  0.72201  0.96919  Biso   1.000  H
  H1371    1.0000 0.37220  0.77619  0.93631  Biso   1.000  H
  C1349    1.0000 0.56947  0.66508  0.70259  Biso   1.000  C
  C1350    1.0000 0.51538  0.78830  0.94857  Biso   1.000  C
  H1372    1.0000 0.54483  0.85623  0.90039  Biso   1.000  H
  H1373    1.0000 0.41173  0.66252  0.86649  Biso   1.000  H
  C1351    1.0000 0.43411  0.67418  0.92912  Biso   1.000  C
  C1352    1.0000 0.05340  0.35388  0.69449  Biso   1.000  C
  N165     1.0000 0.14461  0.44511  0.73661  Biso   1.000  N
  H1374    1.0000 0.12131  0.45339  0.67629  Biso   1.000  H
  C1353    1.0000 0.95760  0.37039  0.66813  Biso   1.000  C
  H1375    1.0000 0.02559  0.47158  0.65249  Biso   1.000  H
  H1376    1.0000 0.96902  0.46422  0.68579  Biso   1.000  H
  C1354    1.0000 0.30149  0.77338  0.00523  Biso   1.000  C
  C1355    1.0000 0.54021  0.59000  0.71404  Biso   1.000  C
  H1377    1.0000 0.54658  0.66789  0.67629  Biso   1.000  H
  C1356    1.0000 0.64607  0.69947  0.69449  Biso   1.000  C
  C1357    1.0000 0.47350  0.72012  0.96036  Biso   1.000  C
  H1378    1.0000 0.54302  0.82101  0.96919  Biso   1.000  H
  H1379    1.0000 0.40403  0.62782  0.93631  Biso   1.000  H
  C1358    1.0000 0.00278  0.34018  0.65908  Biso   1.000  C
  H1380    1.0000 0.08399  0.33609  0.68661  Biso   1.000  H
  H1381    1.0000 0.02852  0.33021  0.72050  Biso   1.000  H
  C1359    1.0000 0.20759  0.47449  0.72687  Biso   1.000  C
  H1382    1.0000 0.92759  0.34631  0.69241  Biso   1.000  H
  H1383    1.0000 0.92807  0.36338  0.64341  Biso   1.000  H
  C1360    1.0000 0.25260  0.74961  0.03692  Biso   1.000  C
  C1361    1.0000 0.36981  0.81779  0.01646  Biso   1.000  C
  N166     1.0000 0.46660  0.55990  0.72280  Biso   1.000  N
  C1362    1.0000 0.55318  0.55310  0.67797  Biso   1.000  C
  H1384    1.0000 0.56361  0.58678  0.73999  Biso   1.000  H
  H1385    1.0000 0.66389  0.74787  0.68661  Biso   1.000  H
  H1386    1.0000 0.66978  0.69830  0.72050  Biso   1.000  H
  C1363    1.0000 0.65982  0.66263  0.65908  Biso   1.000  C
  C1364    1.0000 0.47190  0.69850  0.00523  Biso   1.000  C
  H1387    1.0000 0.02819  0.36001  0.63250  Biso   1.000  H
  H1388    1.0000 0.97390  0.29030  0.65501  Biso   1.000  H
  C1365    1.0000 0.26153  0.49402  0.75802  Biso   1.000  C
  H1389    1.0000 0.22002  0.48431  0.69799  Biso   1.000  H
  C1366    1.0000 0.27061  0.77041  0.07873  Biso   1.000  C
  H1390    1.0000 0.20620  0.71869  0.03011  Biso   1.000  H
  H1391    1.0000 0.40422  0.83420  0.99530  Biso   1.000  H
  C1367    1.0000 0.38811  0.83818  0.05827  Biso   1.000  C
  C1368    1.0000 0.44991  0.55361  0.76127  Biso   1.000  C
  C1369    1.0000 0.62958  0.58719  0.66813  Biso   1.000  C
  H1392    1.0000 0.52841  0.55402  0.65249  Biso   1.000  H
  H1393    1.0000 0.53581  0.50480  0.68579  Biso   1.000  H
  H1394    1.0000 0.63999  0.66820  0.63250  Biso   1.000  H
  H1395    1.0000 0.70969  0.68358  0.65501  Biso   1.000  H
  C1370    1.0000 0.49702  0.74741  0.03692  Biso   1.000  C
  C1371    1.0000 0.44803  0.63022  0.01646  Biso   1.000  C
  C1372    1.0000 0.32747  0.51349  0.74538  Biso   1.000  C
  C1373    1.0000 0.24817  0.49688  0.80059  Biso   1.000  C
  C1374    1.0000 0.21519  0.74118  0.11061  Biso   1.000  C
  C1375    1.0000 0.33838  0.81299  0.08958  Biso   1.000  C
  C1376    1.0000 0.46090  0.88551  0.06921  Biso   1.000  C
  C1377    1.0000 0.37851  0.53030  0.77489  Biso   1.000  C
  H1396    1.0000 0.48391  0.56399  0.78212  Biso   1.000  H
  H1397    1.0000 0.65369  0.58131  0.69241  Biso   1.000  H
  H1398    1.0000 0.63662  0.56470  0.64341  Biso   1.000  H
  C1378    1.0000 0.49980  0.72942  0.07873  Biso   1.000  C
  H1399    1.0000 0.51252  0.79382  0.03011  Biso   1.000  H
  C1379    1.0000 0.45012  0.61193  0.05827  Biso   1.000  C
  H1400    1.0000 0.43001  0.59577  0.99530  Biso   1.000  H
  H1401    1.0000 0.33780  0.51528  0.71621  Biso   1.000  H
  C1380    1.0000 0.29872  0.51502  0.83061  Biso   1.000  C
  H1402    1.0000 0.20371  0.48630  0.80911  Biso   1.000  H
  H1403    1.0000 0.22620  0.74098  0.13950  Biso   1.000  H
  N167     1.0000 0.15360  0.71670  0.09989  Biso   1.000  N
  H1404    1.0000 0.35101  0.82490  0.11821  Biso   1.000  H
  N168     1.0000 0.47972  0.90411  0.10711  Biso   1.000  N
  H1405    1.0000 0.49422  0.90222  0.04739  Biso   1.000  H
  C1381    1.0000 0.36441  0.53168  0.81762  Biso   1.000  C
  C1382    1.0000 0.52597  0.78478  0.11061  Biso   1.000  C
  C1383    1.0000 0.47461  0.66160  0.08958  Biso   1.000  C
  C1384    1.0000 0.42460  0.53910  0.06921  Biso   1.000  C
  C1385    1.0000 0.28299  0.51978  0.87589  Biso   1.000  C
  C1386    1.0000 0.10061  0.68031  0.13130  Biso   1.000  C
  C1387    1.0000 0.55353  0.94541  0.11377  Biso   1.000  C
  H1406    1.0000 0.39952  0.54400  0.83799  Biso   1.000  H
  N169     1.0000 0.56312  0.84641  0.09989  Biso   1.000  N
  H1407    1.0000 0.51481  0.77379  0.13950  Biso   1.000  H
  H1408    1.0000 0.47387  0.64898  0.11821  Biso   1.000  H
  N170     1.0000 0.42440  0.52029  0.10711  Biso   1.000  N
  H1409    1.0000 0.40800  0.50582  0.04739  Biso   1.000  H
  C1388    1.0000 0.29191  0.48272  0.90726  Biso   1.000  C
  C1389    1.0000 0.25709  0.56189  0.88740  Biso   1.000  C
  C1390    1.0000 0.05459  0.60809  0.11377  Biso   1.000  C
  C1391    1.0000 0.05982  0.71619  0.13921  Biso   1.000  C
  H1410    1.0000 0.12200  0.67750  0.15829  Biso   1.000  H
  H1411    1.0000 0.57631  0.96468  0.08611  Biso   1.000  H
  C1392    1.0000 0.57970  0.89941  0.13130  Biso   1.000  C
  C1393    1.0000 0.57058  0.00378  0.14416  Biso   1.000  C
  C1394    1.0000 0.39188  0.44649  0.11377  Biso   1.000  C
  C1395    1.0000 0.27289  0.48461  0.94857  Biso   1.000  C
  H1412    1.0000 0.31137  0.45517  0.90039  Biso   1.000  H
  H1413    1.0000 0.25082  0.58831  0.86649  Biso   1.000  H
  C1396    1.0000 0.24009  0.56588  0.92912  Biso   1.000  C
  N171     1.0000 0.09588  0.57559  0.10711  Biso   1.000  N
  C1397    1.0000 0.99619  0.56680  0.14416  Biso   1.000  C
  H1414    1.0000 0.03533  0.61162  0.08611  Biso   1.000  H
  C1398    1.0000 0.00078  0.67469  0.16929  Biso   1.000  C
  H1415    1.0000 0.09010  0.76198  0.15138  Biso   1.000  H
  H1416    1.0000 0.04172  0.72232  0.11210  Biso   1.000  H
  C1399    1.0000 0.65640  0.94020  0.13921  Biso   1.000  C
  H1417    1.0000 0.55550  0.87800  0.15829  Biso   1.000  H
  H1418    1.0000 0.54581  0.98522  0.17100  Biso   1.000  H
  H1419    1.0000 0.55548  0.03439  0.13199  Biso   1.000  H
  C1400    1.0000 0.64808  0.04502  0.15299  Biso   1.000  C
  C1401    1.0000 0.31971  0.42032  0.13130  Biso   1.000  C
  H1420    1.0000 0.38840  0.42369  0.08611  Biso   1.000  H
  C1402    1.0000 0.43323  0.42942  0.14416  Biso   1.000  C
  C1403    1.0000 0.24662  0.52652  0.96036  Biso   1.000  C
  H1421    1.0000 0.27799  0.45701  0.96919  Biso   1.000  H
  H1422    1.0000 0.22381  0.59598  0.93631  Biso   1.000  H
  C1404    1.0000 0.11450  0.57538  0.06921  Biso   1.000  C
  H1423    1.0000 0.96559  0.52111  0.13199  Biso   1.000  H
  C1405    1.0000 0.95497  0.60308  0.15299  Biso   1.000  C
  H1424    1.0000 0.01483  0.56061  0.17100  Biso   1.000  H
  H1425    1.0000 0.97369  0.69779  0.17289  Biso   1.000  H
  H1426    1.0000 0.01920  0.67249  0.19720  Biso   1.000  H
  C1406    1.0000 0.67389  0.99918  0.16929  Biso   1.000  C
  H1427    1.0000 0.67191  0.90989  0.15138  Biso   1.000  H
  H1428    1.0000 0.68058  0.95829  0.11210  Biso   1.000  H
  H1429    1.0000 0.67262  0.06771  0.12669  Biso   1.000  H
  H1430    1.0000 0.65748  0.08100  0.17409  Biso   1.000  H
  N172     1.0000 0.28328  0.43688  0.09989  Biso   1.000  N
  C1407    1.0000 0.28378  0.34360  0.13921  Biso   1.000  C
  H1431    1.0000 0.32250  0.44449  0.15829  Biso   1.000  H
  H1432    1.0000 0.43938  0.45420  0.17100  Biso   1.000  H
  H1433    1.0000 0.47887  0.44449  0.13199  Biso   1.000  H
  C1408    1.0000 0.39690  0.35188  0.15299  Biso   1.000  C
  C1409    1.0000 0.22661  0.52811  0.00523  Biso   1.000  C
  C1410    1.0000 0.16181  0.54988  0.05827  Biso   1.000  C
  H1434    1.0000 0.09779  0.59199  0.04739  Biso   1.000  H
  H1435    1.0000 0.93230  0.60492  0.12669  Biso   1.000  H
  H1436    1.0000 0.91902  0.57651  0.17409  Biso   1.000  H
  H1437    1.0000 0.65327  0.98078  0.19720  Biso   1.000  H
  H1438    1.0000 0.72411  0.02632  0.17289  Biso   1.000  H
  C1411    1.0000 0.25881  0.47398  0.11061  Biso   1.000  C
  C1412    1.0000 0.32533  0.32613  0.16929  Biso   1.000  C
  H1439    1.0000 0.23802  0.32812  0.15138  Biso   1.000  H
  H1440    1.0000 0.27769  0.31938  0.11210  Biso   1.000  H
  H1441    1.0000 0.39510  0.32740  0.12669  Biso   1.000  H
  H1442    1.0000 0.42349  0.34248  0.17409  Biso   1.000  H
  C1413    1.0000 0.25040  0.50301  0.03692  Biso   1.000  C
  C1414    1.0000 0.18220  0.55197  0.01646  Biso   1.000  C
  C1415    1.0000 0.18701  0.52540  0.08958  Biso   1.000  C
  C1416    1.0000 0.22961  0.50020  0.07873  Biso   1.000  C
  H1443    1.0000 0.25901  0.48518  0.13950  Biso   1.000  H
  H1444    1.0000 0.32752  0.34672  0.19720  Biso   1.000  H
  H1445    1.0000 0.30220  0.27589  0.17289  Biso   1.000  H
  H1446    1.0000 0.28127  0.48748  0.03011  Biso   1.000  H
  H1447    1.0000 0.16581  0.57002  0.99530  Biso   1.000  H
  H1448    1.0000 0.17511  0.52611  0.11821  Biso   1.000  H
  C1417    1.0000 0.37039  0.41281  0.33187  Biso   1.000  C
  C1418    1.0000 0.34022  0.33742  0.34092  Biso   1.000  C
  C1419    1.0000 0.44679  0.44690  0.32203  Biso   1.000  C
  H1449    1.0000 0.34629  0.41868  0.30759  Biso   1.000  H
  H1450    1.0000 0.36340  0.43529  0.35659  Biso   1.000  H
  C1420    1.0000 0.35391  0.30052  0.30551  Biso   1.000  C
  H1451    1.0000 0.35999  0.33180  0.36750  Biso   1.000  H
  H1452    1.0000 0.29033  0.31641  0.34499  Biso   1.000  H
  C1421    1.0000 0.45981  0.40999  0.28596  Biso   1.000  C
  H1453    1.0000 0.47160  0.44598  0.34751  Biso   1.000  H
  H1454    1.0000 0.46421  0.49519  0.31421  Biso   1.000  H
  C1422    1.0000 0.43050  0.33492  0.29741  Biso   1.000  C
  H1455    1.0000 0.33612  0.25212  0.31339  Biso   1.000  H
  H1456    1.0000 0.33020  0.30170  0.27950  Biso   1.000  H
  N173     1.0000 0.53342  0.44010  0.27720  Biso   1.000  N
  H1457    1.0000 0.43641  0.41321  0.26001  Biso   1.000  H
  N174     1.0000 0.44513  0.30052  0.26339  Biso   1.000  N
  H1458    1.0000 0.45340  0.33210  0.32371  Biso   1.000  H
  C1423    1.0000 0.55011  0.44638  0.23873  Biso   1.000  C
  C1424    1.0000 0.47448  0.26689  0.27313  Biso   1.000  C
  C1425    1.0000 0.62151  0.46969  0.22511  Biso   1.000  C
  H1459    1.0000 0.51611  0.43601  0.21788  Biso   1.000  H
  C1426    1.0000 0.49402  0.23249  0.24198  Biso   1.000  C
  H1460    1.0000 0.48429  0.26428  0.30201  Biso   1.000  H
  C1427    1.0000 0.63561  0.46831  0.18238  Biso   1.000  C
  C1428    1.0000 0.67250  0.48650  0.25462  Biso   1.000  C
  C1429    1.0000 0.51348  0.18598  0.25462  Biso   1.000  C
  C1430    1.0000 0.49690  0.24870  0.19941  Biso   1.000  C
  C1431    1.0000 0.70133  0.48502  0.16939  Biso   1.000  C
  H1461    1.0000 0.60050  0.45599  0.16201  Biso   1.000  H
  H1462    1.0000 0.66222  0.48472  0.28379  Biso   1.000  H
  C1432    1.0000 0.73849  0.50598  0.24198  Biso   1.000  C
  C1433    1.0000 0.53029  0.15179  0.22511  Biso   1.000  C
  H1463    1.0000 0.51530  0.17750  0.28379  Biso   1.000  H
  C1434    1.0000 0.51500  0.21629  0.16939  Biso   1.000  C
  H1464    1.0000 0.48631  0.28258  0.19089  Biso   1.000  H
  C1435    1.0000 0.71703  0.48022  0.12411  Biso   1.000  C
  C1436    1.0000 0.75180  0.50311  0.19941  Biso   1.000  C
  C1437    1.0000 0.79238  0.52550  0.27313  Biso   1.000  C
  C1438    1.0000 0.53170  0.16728  0.18238  Biso   1.000  C
  C1439    1.0000 0.55360  0.10370  0.23873  Biso   1.000  C
  C1440    1.0000 0.51980  0.23679  0.12411  Biso   1.000  C
  C1441    1.0000 0.70809  0.51732  0.09274  Biso   1.000  C
  C1442    1.0000 0.74289  0.43810  0.11260  Biso   1.000  C
  H1465    1.0000 0.79631  0.51369  0.19089  Biso   1.000  H
  N175     1.0000 0.85541  0.55489  0.26339  Biso   1.000  N
  H1466    1.0000 0.78000  0.51569  0.30201  Biso   1.000  H
  H1467    1.0000 0.54398  0.14448  0.16201  Biso   1.000  H
  N176     1.0000 0.55992  0.09332  0.27720  Biso   1.000  N
  H1468    1.0000 0.56401  0.08009  0.21788  Biso   1.000  H
  C1443    1.0000 0.48268  0.19079  0.09274  Biso   1.000  C
  C1444    1.0000 0.56191  0.30481  0.11260  Biso   1.000  C
  C1445    1.0000 0.72708  0.51538  0.05143  Biso   1.000  C
  H1469    1.0000 0.68860  0.54482  0.09961  Biso   1.000  H
  H1470    1.0000 0.74919  0.41168  0.13351  Biso   1.000  H
  C1446    1.0000 0.75993  0.43412  0.07088  Biso   1.000  C
  C1447    1.0000 0.90441  0.56951  0.29741  Biso   1.000  C
  C1448    1.0000 0.58998  0.04978  0.28596  Biso   1.000  C
  C1449    1.0000 0.48459  0.21169  0.05143  Biso   1.000  C
  H1471    1.0000 0.45521  0.14382  0.09961  Biso   1.000  H
  H1472    1.0000 0.58832  0.33752  0.13351  Biso   1.000  H
  C1450    1.0000 0.56591  0.32582  0.07088  Biso   1.000  C
  C1451    1.0000 0.75343  0.47352  0.03964  Biso   1.000  C
  H1473    1.0000 0.72198  0.54298  0.03081  Biso   1.000  H
  H1474    1.0000 0.77621  0.40401  0.06369  Biso   1.000  H
  H1475    1.0000 0.87871  0.54661  0.32371  Biso   1.000  H
  C1452    1.0000 0.94661  0.64612  0.30551  Biso   1.000  C
  C1453    1.0000 0.95019  0.54022  0.28596  Biso   1.000  C
  C1454    1.0000 0.66513  0.09562  0.29741  Biso   1.000  C
  H1476    1.0000 0.58678  0.02320  0.26001  Biso   1.000  H
  C1455    1.0000 0.55313  0.99990  0.32203  Biso   1.000  C
  C1456    1.0000 0.52650  0.27992  0.03964  Biso   1.000  C
  H1477    1.0000 0.45699  0.17898  0.03081  Biso   1.000  H
  H1478    1.0000 0.59602  0.37223  0.06369  Biso   1.000  H
  C1457    1.0000 0.77341  0.47189  0.99477  Biso   1.000  C
  H1479    1.0000 0.91598  0.66390  0.31339  Biso   1.000  H
  H1480    1.0000 0.97150  0.66978  0.27950  Biso   1.000  H
  C1458    1.0000 0.99719  0.65981  0.34092  Biso   1.000  C
  N177     1.0000 0.90671  0.46662  0.27720  Biso   1.000  N
  H1481    1.0000 0.97678  0.56358  0.26001  Biso   1.000  H
  C1459    1.0000 0.00010  0.55320  0.32203  Biso   1.000  C
  N178     1.0000 0.69948  0.14459  0.26339  Biso   1.000  N
  H1482    1.0000 0.66791  0.12128  0.32371  Biso   1.000  H
  C1460    1.0000 0.69952  0.05341  0.30551  Biso   1.000  C
  H1483    1.0000 0.55399  0.02561  0.34751  Biso   1.000  H
  C1461    1.0000 0.58721  0.95758  0.33187  Biso   1.000  C
  H1484    1.0000 0.50478  0.96898  0.31421  Biso   1.000  H
  C1462    1.0000 0.52807  0.30149  0.99477  Biso   1.000  C
  C1463    1.0000 0.74958  0.49698  0.96308  Biso   1.000  C
  C1464    1.0000 0.81782  0.44802  0.98354  Biso   1.000  C
  H1485    1.0000 0.97179  0.63998  0.36750  Biso   1.000  H
  H1486    1.0000 0.02612  0.70970  0.34499  Biso   1.000  H
  C1465    1.0000 0.04242  0.62961  0.33187  Biso   1.000  C
  C1466    1.0000 0.89631  0.44991  0.23873  Biso   1.000  C
  H1487    1.0000 0.97443  0.52841  0.34751  Biso   1.000  H
  H1488    1.0000 0.03102  0.53582  0.31421  Biso   1.000  H
  C1467    1.0000 0.73311  0.20760  0.27313  Biso   1.000  C
  H1489    1.0000 0.74789  0.08402  0.31339  Biso   1.000  H
  H1490    1.0000 0.69832  0.02852  0.27950  Biso   1.000  H
  C1468    1.0000 0.66258  0.00281  0.34092  Biso   1.000  C
  H1491    1.0000 0.58128  0.92758  0.30759  Biso   1.000  H
  H1492    1.0000 0.56467  0.92809  0.35659  Biso   1.000  H
  C1469    1.0000 0.50300  0.25258  0.96308  Biso   1.000  C
  C1470    1.0000 0.55202  0.36982  0.98354  Biso   1.000  C
  C1471    1.0000 0.77041  0.49979  0.92127  Biso   1.000  C
  H1493    1.0000 0.71870  0.51252  0.96989  Biso   1.000  H
  H1494    1.0000 0.83421  0.42998  0.00470  Biso   1.000  H
  C1472    1.0000 0.83821  0.45011  0.94173  Biso   1.000  C
  H1495    1.0000 0.07238  0.65368  0.30759  Biso   1.000  H
  H1496    1.0000 0.07190  0.63661  0.35659  Biso   1.000  H
  C1473    1.0000 0.84822  0.37851  0.22511  Biso   1.000  C
  H1497    1.0000 0.91990  0.48390  0.21788  Biso   1.000  H
  C1474    1.0000 0.76751  0.26152  0.24198  Biso   1.000  C
  H1498    1.0000 0.73569  0.22002  0.30201  Biso   1.000  H
  H1499    1.0000 0.66820  0.02821  0.36750  Biso   1.000  H
  H1500    1.0000 0.68357  0.97388  0.34499  Biso   1.000  H
  C1475    1.0000 0.50020  0.27062  0.92127  Biso   1.000  C
  H1501    1.0000 0.48752  0.20622  0.96989  Biso   1.000  H
  H1502    1.0000 0.57001  0.40422  0.00470  Biso   1.000  H
  C1476    1.0000 0.54992  0.38812  0.94173  Biso   1.000  C
  C1477    1.0000 0.74121  0.52601  0.88939  Biso   1.000  C
  C1478    1.0000 0.81301  0.47460  0.91042  Biso   1.000  C
  C1479    1.0000 0.88552  0.42461  0.93079  Biso   1.000  C
  C1480    1.0000 0.81400  0.32751  0.25462  Biso   1.000  C
  C1481    1.0000 0.83271  0.36441  0.18238  Biso   1.000  C
  C1482    1.0000 0.75128  0.24818  0.19941  Biso   1.000  C
  C1483    1.0000 0.47401  0.21522  0.88939  Biso   1.000  C
  C1484    1.0000 0.52541  0.33839  0.91042  Biso   1.000  C
  C1485    1.0000 0.57538  0.46090  0.93079  Biso   1.000  C
  H1503    1.0000 0.74101  0.51482  0.86050  Biso   1.000  H
  N179     1.0000 0.71669  0.56312  0.90011  Biso   1.000  N
  H1504    1.0000 0.82491  0.47388  0.88179  Biso   1.000  H
  N180     1.0000 0.90410  0.42441  0.89289  Biso   1.000  N
  H1505    1.0000 0.90218  0.40800  0.95261  Biso   1.000  H
  H1506    1.0000 0.82250  0.33778  0.28379  Biso   1.000  H
  C1486    1.0000 0.78370  0.29868  0.16939  Biso   1.000  C
  H1507    1.0000 0.85549  0.39952  0.16201  Biso   1.000  H
  H1508    1.0000 0.71740  0.20372  0.19089  Biso   1.000  H
  N181     1.0000 0.43690  0.15358  0.90011  Biso   1.000  N
  H1509    1.0000 0.48521  0.22621  0.86050  Biso   1.000  H
  H1510    1.0000 0.52610  0.35102  0.88179  Biso   1.000  H
  N182     1.0000 0.57562  0.47971  0.89289  Biso   1.000  N
  H1511    1.0000 0.59200  0.49422  0.95261  Biso   1.000  H
  C1487    1.0000 0.68027  0.57968  0.86870  Biso   1.000  C
  C1488    1.0000 0.94539  0.39190  0.88623  Biso   1.000  C
  C1489    1.0000 0.76319  0.28299  0.12411  Biso   1.000  C
  C1490    1.0000 0.42027  0.10058  0.86870  Biso   1.000  C
  C1491    1.0000 0.60810  0.55351  0.88623  Biso   1.000  C
  C1492    1.0000 0.71619  0.65639  0.86079  Biso   1.000  C
  H1512    1.0000 0.67752  0.55550  0.84171  Biso   1.000  H
  H1513    1.0000 0.96469  0.38838  0.91389  Biso   1.000  H
  C1493    1.0000 0.89941  0.31969  0.86870  Biso   1.000  C
  C1494    1.0000 0.00379  0.43320  0.85584  Biso   1.000  C
  C1495    1.0000 0.80920  0.29188  0.09274  Biso   1.000  C
  C1496    1.0000 0.69517  0.25708  0.11260  Biso   1.000  C
  C1497    1.0000 0.44649  0.05458  0.88623  Biso   1.000  C
  C1498    1.0000 0.34358  0.05980  0.86079  Biso   1.000  C
  H1514    1.0000 0.44448  0.12200  0.84171  Biso   1.000  H
  H1515    1.0000 0.61161  0.57630  0.91389  Biso   1.000  H
  C1499    1.0000 0.56679  0.57058  0.85584  Biso   1.000  C
  C1500    1.0000 0.67472  0.67392  0.83071  Biso   1.000  C
  H1516    1.0000 0.76200  0.67188  0.84862  Biso   1.000  H
  H1517    1.0000 0.72233  0.68062  0.88790  Biso   1.000  H
  N183     1.0000 0.84638  0.28330  0.90011  Biso   1.000  N
  C1501    1.0000 0.94020  0.28381  0.86079  Biso   1.000  C
  H1518    1.0000 0.87802  0.32250  0.84171  Biso   1.000  H
  H1519    1.0000 0.98519  0.43938  0.82900  Biso   1.000  H
  H1520    1.0000 0.03438  0.47889  0.86801  Biso   1.000  H
  C1502    1.0000 0.04500  0.39691  0.84701  Biso   1.000  C
  C1503    1.0000 0.78830  0.27292  0.05143  Biso   1.000  C
  H1521    1.0000 0.85619  0.31141  0.09961  Biso   1.000  H
  H1522    1.0000 0.66251  0.25079  0.13351  Biso   1.000  H
  C1504    1.0000 0.67421  0.24011  0.07088  Biso   1.000  C
  C1505    1.0000 0.42944  0.99622  0.85584  Biso   1.000  C
  N184     1.0000 0.52030  0.09588  0.89289  Biso   1.000  N
  H1523    1.0000 0.42371  0.03532  0.91389  Biso   1.000  H
  C1506    1.0000 0.32613  0.00082  0.83071  Biso   1.000  C
  H1524    1.0000 0.32810  0.09010  0.84862  Biso   1.000  H
  H1525    1.0000 0.31940  0.04170  0.88790  Biso   1.000  H
  H1526    1.0000 0.56060  0.54579  0.82900  Biso   1.000  H
  H1527    1.0000 0.52110  0.55550  0.86801  Biso   1.000  H
  C1507    1.0000 0.60312  0.64811  0.84701  Biso   1.000  C
  H1528    1.0000 0.67252  0.65332  0.80280  Biso   1.000  H
  H1529    1.0000 0.69782  0.72411  0.82711  Biso   1.000  H
  C1508    1.0000 0.78479  0.25881  0.88939  Biso   1.000  C
  C1509    1.0000 0.99920  0.32531  0.83071  Biso   1.000  C
  H1530    1.0000 0.90992  0.23801  0.84862  Biso   1.000  H
  H1531    1.0000 0.95832  0.27773  0.88790  Biso   1.000  H
  H1532    1.0000 0.06770  0.39512  0.87331  Biso   1.000  H
  H1533    1.0000 0.08100  0.42349  0.82591  Biso   1.000  H
  C1510    1.0000 0.72012  0.24660  0.03964  Biso   1.000  C
  H1534    1.0000 0.82097  0.27798  0.03081  Biso   1.000  H
  H1535    1.0000 0.62781  0.22381  0.06369  Biso   1.000  H
  H1536    1.0000 0.44449  0.96560  0.86801  Biso   1.000  H
  C1511    1.0000 0.35196  0.95502  0.84701  Biso   1.000  C
  H1537    1.0000 0.45423  0.01482  0.82900  Biso   1.000  H
  C1512    1.0000 0.53907  0.11448  0.93079  Biso   1.000  C
  H1538    1.0000 0.27596  0.97368  0.82711  Biso   1.000  H
  H1539    1.0000 0.34670  0.01922  0.80280  Biso   1.000  H
  H1540    1.0000 0.60487  0.67259  0.87331  Biso   1.000  H
  H1541    1.0000 0.57649  0.65751  0.82591  Biso   1.000  H
  H1542    1.0000 0.77382  0.25902  0.86050  Biso   1.000  H
  C1513    1.0000 0.72941  0.22958  0.92127  Biso   1.000  C
  H1543    1.0000 0.98082  0.32751  0.80280  Biso   1.000  H
  H1544    1.0000 0.02629  0.30221  0.82711  Biso   1.000  H
  C1514    1.0000 0.69849  0.22662  0.99477  Biso   1.000  C
  H1545    1.0000 0.32740  0.93228  0.87331  Biso   1.000  H
  H1546    1.0000 0.34249  0.91899  0.82591  Biso   1.000  H
  C1515    1.0000 0.61191  0.16181  0.94173  Biso   1.000  C
  H1547    1.0000 0.50582  0.09782  0.95261  Biso   1.000  H
  C1516    1.0000 0.74737  0.25038  0.96308  Biso   1.000  C
  C1517    1.0000 0.66160  0.18701  0.91042  Biso   1.000  C
  C1518    1.0000 0.63021  0.18220  0.98354  Biso   1.000  C
  H1548    1.0000 0.79382  0.28130  0.96989  Biso   1.000  H
  H1549    1.0000 0.64901  0.17510  0.88179  Biso   1.000  H
  H1550    1.0000 0.59580  0.16580  0.00470  Biso   1.000  H
  C1519    1.0000 0.63381  0.61325  0.36117  Biso   1.000  C
  C1520    1.0000 0.66823  0.57109  0.36927  Biso   1.000  C
  H1551    1.0000 0.58546  0.58269  0.35325  Biso   1.000  H
  H1552    1.0000 0.63501  0.63814  0.38718  Biso   1.000  H
  C1521    1.0000 0.67075  0.66385  0.32572  Biso   1.000  C
  N185     1.0000 0.63385  0.52208  0.40329  Biso   1.000  N
  H1553    1.0000 0.66542  0.54538  0.34297  Biso   1.000  H
  C1522    1.0000 0.74335  0.61688  0.38072  Biso   1.000  C
  H1554    1.0000 0.66513  0.63845  0.29917  Biso   1.000  H
  H1555    1.0000 0.64976  0.69278  0.32166  Biso   1.000  H
  C1523    1.0000 0.74612  0.70908  0.33480  Biso   1.000  C
  C1524    1.0000 0.60022  0.45906  0.39355  Biso   1.000  C
  N186     1.0000 0.77344  0.57339  0.38948  Biso   1.000  N
  C1525    1.0000 0.78025  0.66677  0.34464  Biso   1.000  C
  H1556    1.0000 0.74655  0.64346  0.40667  Biso   1.000  H
  H1557    1.0000 0.75205  0.73908  0.35905  Biso   1.000  H
  H1558    1.0000 0.76866  0.73857  0.31005  Biso   1.000  H
  C1526    1.0000 0.56585  0.40519  0.42467  Biso   1.000  C
  H1559    1.0000 0.59766  0.44669  0.36467  Biso   1.000  H
  C1527    1.0000 0.77973  0.56296  0.42795  Biso   1.000  C
  H1560    1.0000 0.77934  0.64106  0.31917  Biso   1.000  H
  H1561    1.0000 0.82855  0.69769  0.35246  Biso   1.000  H
  C1528    1.0000 0.51933  0.33916  0.41206  Biso   1.000  C
  C1529    1.0000 0.58205  0.41848  0.46724  Biso   1.000  C
  C1530    1.0000 0.80305  0.51487  0.44154  Biso   1.000  C
  H1562    1.0000 0.76932  0.58658  0.44876  Biso   1.000  H
  C1531    1.0000 0.48511  0.28815  0.44154  Biso   1.000  C
  H1563    1.0000 0.51083  0.32888  0.38286  Biso   1.000  H
  C1532    1.0000 0.54964  0.36798  0.49729  Biso   1.000  C
  H1564    1.0000 0.61593  0.46294  0.47575  Biso   1.000  H
  C1533    1.0000 0.80163  0.49938  0.48430  Biso   1.000  C
  C1534    1.0000 0.81985  0.48068  0.41206  Biso   1.000  C
  C1535    1.0000 0.43702  0.21675  0.42795  Biso   1.000  C
  C1536    1.0000 0.50062  0.30226  0.48430  Biso   1.000  C
  C1537    1.0000 0.57014  0.38367  0.54257  Biso   1.000  C
  C1538    1.0000 0.81833  0.45037  0.49729  Biso   1.000  C
  H1565    1.0000 0.78935  0.52218  0.50467  Biso   1.000  H
  C1539    1.0000 0.83931  0.43417  0.42467  Biso   1.000  C
  H1566    1.0000 0.81803  0.48916  0.38286  Biso   1.000  H
  N187     1.0000 0.42665  0.20009  0.38948  Biso   1.000  N
  H1567    1.0000 0.41343  0.18276  0.44876  Biso   1.000  H
  H1568    1.0000 0.47784  0.26715  0.50467  Biso   1.000  H
  C1540    1.0000 0.52413  0.37478  0.57394  Biso   1.000  C
  C1541    1.0000 0.63816  0.40959  0.55408  Biso   1.000  C
  C1542    1.0000 0.83643  0.41797  0.46724  Biso   1.000  C
  C1543    1.0000 0.81353  0.42988  0.54257  Biso   1.000  C
  C1544    1.0000 0.85885  0.39977  0.39355  Biso   1.000  C
  C1545    1.0000 0.38314  0.12644  0.38072  Biso   1.000  C
  C1546    1.0000 0.54503  0.39374  0.61522  Biso   1.000  C
  H1569    1.0000 0.47715  0.35526  0.56707  Biso   1.000  H
  H1570    1.0000 0.67082  0.41587  0.53317  Biso   1.000  H
  C1547    1.0000 0.65912  0.42655  0.59579  Biso   1.000  C
  H1571    1.0000 0.84702  0.38408  0.47575  Biso   1.000  H
  C1548    1.0000 0.85065  0.47587  0.57394  Biso   1.000  C
  C1549    1.0000 0.77142  0.36185  0.55408  Biso   1.000  C
  N188     1.0000 0.88820  0.36614  0.40329  Biso   1.000  N
  H1572    1.0000 0.84905  0.40238  0.36467  Biso   1.000  H
  C1550    1.0000 0.33323  0.11346  0.34464  Biso   1.000  C
  C1551    1.0000 0.42892  0.09716  0.36927  Biso   1.000  C
  H1573    1.0000 0.35655  0.10309  0.40667  Biso   1.000  H
  C1552    1.0000 0.61321  0.42006  0.62704  Biso   1.000  C
  H1574    1.0000 0.51236  0.38868  0.63587  Biso   1.000  H
  H1575    1.0000 0.70552  0.44286  0.60295  Biso   1.000  H
  C1553    1.0000 0.84874  0.45497  0.61522  Biso   1.000  C
  H1576    1.0000 0.87812  0.52284  0.56707  Biso   1.000  H
  H1577    1.0000 0.74504  0.32919  0.53317  Biso   1.000  H
  C1554    1.0000 0.76742  0.34084  0.59579  Biso   1.000  C
  C1555    1.0000 0.90283  0.33175  0.36927  Biso   1.000  C
  C1556    1.0000 0.29091  0.03705  0.33480  Biso   1.000  C
  H1578    1.0000 0.35890  0.13825  0.31917  Biso   1.000  H
  H1579    1.0000 0.30233  0.13089  0.35246  Biso   1.000  H
  C1557    1.0000 0.38672  0.02055  0.36117  Biso   1.000  C
  N189     1.0000 0.47792  0.11177  0.40329  Biso   1.000  N
  H1580    1.0000 0.45462  0.12005  0.34297  Biso   1.000  H
  C1558    1.0000 0.63484  0.44005  0.67188  Biso   1.000  C
  C1559    1.0000 0.80686  0.38679  0.62704  Biso   1.000  C
  H1581    1.0000 0.87634  0.48768  0.63587  Biso   1.000  H
  H1582    1.0000 0.73734  0.29449  0.60295  Biso   1.000  H
  C1560    1.0000 0.87352  0.25667  0.38072  Biso   1.000  C
  H1583    1.0000 0.87993  0.33456  0.34297  Biso   1.000  H
  C1561    1.0000 0.97942  0.36614  0.36117  Biso   1.000  C
  C1562    1.0000 0.33614  0.00685  0.32572  Biso   1.000  C
  H1584    1.0000 0.26095  0.01298  0.35905  Biso   1.000  H
  H1585    1.0000 0.26143  0.03005  0.31005  Biso   1.000  H
  H1586    1.0000 0.41735  0.00276  0.35325  Biso   1.000  H
  H1587    1.0000 0.36183  0.99688  0.38718  Biso   1.000  H
  C1563    1.0000 0.54095  0.14116  0.39355  Biso   1.000  C
  C1564    1.0000 0.58596  0.41628  0.70360  Biso   1.000  C
  C1565    1.0000 0.70313  0.48446  0.68314  Biso   1.000  C
  C1566    1.0000 0.80526  0.36517  0.67188  Biso   1.000  C
  N190     1.0000 0.79991  0.22657  0.38948  Biso   1.000  N
  C1567    1.0000 0.88654  0.21977  0.34464  Biso   1.000  C
  H1588    1.0000 0.89692  0.25345  0.40667  Biso   1.000  H
  H1589    1.0000 0.99721  0.41454  0.35325  Biso   1.000  H
  C1568    1.0000 0.99311  0.32924  0.32572  Biso   1.000  C
  H1590    1.0000 0.00314  0.36497  0.38718  Biso   1.000  H
  H1591    1.0000 0.36154  0.02668  0.29917  Biso   1.000  H
  H1592    1.0000 0.30726  0.95697  0.32166  Biso   1.000  H
  C1569    1.0000 0.59484  0.16069  0.42467  Biso   1.000  C
  H1593    1.0000 0.55333  0.15098  0.36467  Biso   1.000  H
  C1570    1.0000 0.60393  0.43708  0.74541  Biso   1.000  C
  H1594    1.0000 0.53951  0.38536  0.69676  Biso   1.000  H
  H1595    1.0000 0.73753  0.50087  0.66198  Biso   1.000  H
  C1571    1.0000 0.72142  0.50485  0.72495  Biso   1.000  C
  C1572    1.0000 0.83033  0.41408  0.70360  Biso   1.000  C
  C1573    1.0000 0.78134  0.29689  0.68314  Biso   1.000  C
  C1574    1.0000 0.78322  0.22028  0.42795  Biso   1.000  C
  C1575    1.0000 0.96294  0.25386  0.33480  Biso   1.000  C
  H1596    1.0000 0.86173  0.22069  0.31917  Biso   1.000  H
  H1597    1.0000 0.86912  0.17147  0.35246  Biso   1.000  H
  H1598    1.0000 0.97335  0.33486  0.29917  Biso   1.000  H
  H1599    1.0000 0.04300  0.35025  0.32166  Biso   1.000  H
  C1576    1.0000 0.66083  0.18016  0.41206  Biso   1.000  C
  C1577    1.0000 0.58153  0.16355  0.46724  Biso   1.000  C
  C1578    1.0000 0.54854  0.40785  0.77729  Biso   1.000  C
  C1579    1.0000 0.67173  0.47966  0.75623  Biso   1.000  C
  C1580    1.0000 0.79426  0.55218  0.73586  Biso   1.000  C
  C1581    1.0000 0.83313  0.39604  0.74541  Biso   1.000  C
  H1600    1.0000 0.84583  0.46049  0.69676  Biso   1.000  H
  C1582    1.0000 0.78341  0.27854  0.72495  Biso   1.000  C
  H1601    1.0000 0.76332  0.26244  0.66198  Biso   1.000  H
  C1583    1.0000 0.71182  0.19697  0.44154  Biso   1.000  C
  H1602    1.0000 0.81723  0.23065  0.44876  Biso   1.000  H
  H1603    1.0000 0.98704  0.24798  0.35905  Biso   1.000  H
  H1604    1.0000 0.96993  0.23137  0.31005  Biso   1.000  H
  H1605    1.0000 0.67111  0.18195  0.38286  Biso   1.000  H
  C1584    1.0000 0.63203  0.18169  0.49729  Biso   1.000  C
  H1606    1.0000 0.53703  0.15297  0.47575  Biso   1.000  H
  H1607    1.0000 0.55951  0.40764  0.80617  Biso   1.000  H
  N191     1.0000 0.48695  0.38337  0.76657  Biso   1.000  N
  H1608    1.0000 0.68433  0.49156  0.78486  Biso   1.000  H
  N192     1.0000 0.81303  0.57078  0.77379  Biso   1.000  N
  H1609    1.0000 0.82753  0.56889  0.71407  Biso   1.000  H
  C1585    1.0000 0.85933  0.45144  0.77729  Biso   1.000  C
  C1586    1.0000 0.80792  0.32827  0.75623  Biso   1.000  C
  C1587    1.0000 0.75795  0.20576  0.73586  Biso   1.000  C
  C1588    1.0000 0.69772  0.19835  0.48430  Biso   1.000  C
  C1589    1.0000 0.61630  0.18644  0.54257  Biso   1.000  C
  C1590    1.0000 0.43392  0.34698  0.79798  Biso   1.000  C
  C1591    1.0000 0.88684  0.61208  0.78044  Biso   1.000  C
  N193     1.0000 0.89643  0.51308  0.76657  Biso   1.000  N
  H1610    1.0000 0.84812  0.44046  0.80617  Biso   1.000  H
  H1611    1.0000 0.80723  0.31565  0.78486  Biso   1.000  H
  N194     1.0000 0.75771  0.18696  0.77379  Biso   1.000  N
  H1612    1.0000 0.74136  0.17249  0.71407  Biso   1.000  H
  H1613    1.0000 0.73283  0.21067  0.50467  Biso   1.000  H
  C1592    1.0000 0.62526  0.14939  0.57394  Biso   1.000  C
  C1593    1.0000 0.59044  0.22856  0.55408  Biso   1.000  C
  C1594    1.0000 0.38794  0.27476  0.78044  Biso   1.000  C
  C1595    1.0000 0.39313  0.38286  0.80589  Biso   1.000  C
  H1614    1.0000 0.45531  0.34417  0.82497  Biso   1.000  H
  H1615    1.0000 0.90962  0.63135  0.75276  Biso   1.000  H
  C1596    1.0000 0.90394  0.67044  0.81084  Biso   1.000  C
  C1597    1.0000 0.91306  0.56608  0.79798  Biso   1.000  C
  C1598    1.0000 0.72524  0.11315  0.78044  Biso   1.000  C
  C1599    1.0000 0.60625  0.15128  0.61522  Biso   1.000  C
  H1616    1.0000 0.64473  0.12184  0.56707  Biso   1.000  H
  H1617    1.0000 0.58414  0.25498  0.53317  Biso   1.000  H
  C1600    1.0000 0.57341  0.23254  0.59579  Biso   1.000  C
  N195     1.0000 0.42923  0.24226  0.77379  Biso   1.000  N
  H1618    1.0000 0.36864  0.27829  0.75276  Biso   1.000  H
  C1601    1.0000 0.32954  0.23346  0.81084  Biso   1.000  C
  C1602    1.0000 0.33414  0.34136  0.83597  Biso   1.000  C
  H1619    1.0000 0.42342  0.42865  0.81806  Biso   1.000  H
  H1620    1.0000 0.37504  0.38899  0.77877  Biso   1.000  H
  H1621    1.0000 0.87910  0.65184  0.83767  Biso   1.000  H
  H1622    1.0000 0.88884  0.70106  0.79867  Biso   1.000  H
  C1603    1.0000 0.98144  0.71169  0.81967  Biso   1.000  C
  C1604    1.0000 0.98975  0.60687  0.80589  Biso   1.000  C
  H1623    1.0000 0.88885  0.54467  0.82497  Biso   1.000  H
  C1605    1.0000 0.65306  0.08699  0.79798  Biso   1.000  C
  H1624    1.0000 0.72172  0.09036  0.75276  Biso   1.000  H
  C1606    1.0000 0.76654  0.09608  0.81084  Biso   1.000  C
  C1607    1.0000 0.57993  0.19319  0.62704  Biso   1.000  C
  H1625    1.0000 0.61135  0.12368  0.63587  Biso   1.000  H
  H1626    1.0000 0.55712  0.26265  0.60295  Biso   1.000  H
  C1608    1.0000 0.44781  0.24205  0.73586  Biso   1.000  C
  H1627    1.0000 0.34814  0.22728  0.83767  Biso   1.000  H
  H1628    1.0000 0.29895  0.18777  0.79867  Biso   1.000  H
  C1609    1.0000 0.28833  0.26975  0.81967  Biso   1.000  C
  H1629    1.0000 0.35251  0.33916  0.86388  Biso   1.000  H
  H1630    1.0000 0.30705  0.36446  0.83957  Biso   1.000  H
  H1631    1.0000 0.99084  0.74767  0.84076  Biso   1.000  H
  H1632    1.0000 0.00593  0.73438  0.79337  Biso   1.000  H
  C1610    1.0000 0.00720  0.66585  0.83597  Biso   1.000  C
  H1633    1.0000 0.00523  0.57656  0.81806  Biso   1.000  H
  H1634    1.0000 0.01394  0.62496  0.77877  Biso   1.000  H
  N196     1.0000 0.61664  0.10355  0.76657  Biso   1.000  N
  C1611    1.0000 0.61714  0.01027  0.80589  Biso   1.000  C
  H1635    1.0000 0.65581  0.11116  0.82497  Biso   1.000  H
  H1636    1.0000 0.77274  0.12087  0.83767  Biso   1.000  H
  H1637    1.0000 0.81223  0.11116  0.79867  Biso   1.000  H
  C1612    1.0000 0.73021  0.01855  0.81967  Biso   1.000  C
  C1613    1.0000 0.55992  0.19478  0.67188  Biso   1.000  C
  C1614    1.0000 0.49512  0.21655  0.72495  Biso   1.000  C
  H1638    1.0000 0.43115  0.25866  0.71407  Biso   1.000  H
  H1639    1.0000 0.26566  0.27159  0.79337  Biso   1.000  H
  H1640    1.0000 0.25234  0.24318  0.84076  Biso   1.000  H
  H1641    1.0000 0.98663  0.64745  0.86388  Biso   1.000  H
  H1642    1.0000 0.05742  0.69298  0.83957  Biso   1.000  H
  C1615    1.0000 0.59212  0.14065  0.77729  Biso   1.000  C
  C1616    1.0000 0.65866  0.99274  0.83597  Biso   1.000  C
  H1643    1.0000 0.57133  0.99479  0.81806  Biso   1.000  H
  H1644    1.0000 0.61105  0.98605  0.77877  Biso   1.000  H
  H1645    1.0000 0.75684  0.00915  0.84076  Biso   1.000  H
  H1646    1.0000 0.72850  0.99407  0.79337  Biso   1.000  H
  C1617    1.0000 0.58376  0.16968  0.70360  Biso   1.000  C
  C1618    1.0000 0.51551  0.21864  0.68314  Biso   1.000  C
  C1619    1.0000 0.52032  0.19207  0.75623  Biso   1.000  C
  C1620    1.0000 0.56292  0.16687  0.74541  Biso   1.000  C
  H1647    1.0000 0.59232  0.15184  0.80617  Biso   1.000  H
  H1648    1.0000 0.66084  0.01339  0.86388  Biso   1.000  H
  H1649    1.0000 0.63555  0.94255  0.83957  Biso   1.000  H
  H1650    1.0000 0.61463  0.15414  0.69676  Biso   1.000  H
  H1651    1.0000 0.49912  0.23668  0.66198  Biso   1.000  H
  H1652    1.0000 0.50842  0.19278  0.78486  Biso   1.000  H
