data_image0
_cell_length_a       19.614
_cell_length_b       19.614
_cell_length_c       26.18
_cell_angle_alpha    90
_cell_angle_beta     90
_cell_angle_gamma    120

_symmetry_space_group_name_H-M    "P 1"
_symmetry_int_tables_number       1

loop_
  _symmetry_equiv_pos_as_xyz
  'x, y, z'

loop_
  _atom_site_label
  _atom_site_occupancy
  _atom_site_fract_x
  _atom_site_fract_y
  _atom_site_fract_z
  _atom_site_thermal_displace_type
  _atom_site_B_iso_or_equiv
  _atom_site_type_symbol
  C1       1.0000 0.22209  0.62568  0.38510  Biso   1.000  C
  N1       1.0000 0.21610  0.58047  0.42208  Biso   1.000  N
  N2       1.0000 0.21613  0.58053  0.42208  Biso   1.000  N
  C2       1.0000 0.17129  0.66071  0.38079  Biso   1.000  C
  H1       1.0000 0.25993  0.63681  0.36008  Biso   1.000  H
  C3       1.0000 0.27131  0.55209  0.42311  Biso   1.000  C
  C4       1.0000 0.11698  0.65000  0.41860  Biso   1.000  C
  C5       1.0000 0.17741  0.70540  0.33770  Biso   1.000  C
  C6       1.0000 0.22730  0.46326  0.43178  Biso   1.000  C
  C7       1.0000 0.22732  0.46332  0.43178  Biso   1.000  C
  H2       1.0000 0.29909  0.56381  0.39030  Biso   1.000  H
  C8       1.0000 0.33041  0.59301  0.46581  Biso   1.000  C
  H3       1.0000 0.11258  0.62009  0.44729  Biso   1.000  H
  C9       1.0000 0.06938  0.68297  0.41429  Biso   1.000  C
  C10      1.0000 0.06941  0.68302  0.41429  Biso   1.000  C
  H4       1.0000 0.21370  0.71281  0.31230  Biso   1.000  H
  C11      1.0000 0.13009  0.73872  0.33239  Biso   1.000  C
  C12      1.0000 0.28477  0.43188  0.43338  Biso   1.000  C
  H5       1.0000 0.18957  0.43747  0.40451  Biso   1.000  H
  H6       1.0000 0.19856  0.45137  0.46379  Biso   1.000  H
  H7       1.0000 0.19859  0.45142  0.46379  Biso   1.000  H
  C13      1.0000 0.38700  0.56181  0.46841  Biso   1.000  C
  H8       1.0000 0.30210  0.58218  0.49828  Biso   1.000  H
  N3       1.0000 0.37157  0.67767  0.45638  Biso   1.000  N
  N4       1.0000 0.37159  0.67773  0.45638  Biso   1.000  N
  C14      1.0000 0.07629  0.72706  0.36979  Biso   1.000  C
  C15      1.0000 0.01461  0.66978  0.45531  Biso   1.000  C
  C16      1.0000 0.07632  0.72712  0.36979  Biso   1.000  C
  C17      1.0000 0.13831  0.78840  0.28640  Biso   1.000  C
  H9       1.0000 0.25633  0.37572  0.43999  Biso   1.000  H
  H10      1.0000 0.31139  0.44077  0.40080  Biso   1.000  H
  C18      1.0000 0.34509  0.47421  0.47559  Biso   1.000  C
  H11      1.0000 0.31142  0.44083  0.40080  Biso   1.000  H
  H12      1.0000 0.41750  0.57529  0.43709  Biso   1.000  H
  H13      1.0000 0.42331  0.58701  0.49649  Biso   1.000  H
  C19      1.0000 0.37409  0.72176  0.49148  Biso   1.000  C
  C20      1.0000 0.37412  0.72182  0.49148  Biso   1.000  C
  H14      1.0000 0.04372  0.74861  0.36581  Biso   1.000  H
  H15      1.0000 0.01490  0.64028  0.48308  Biso   1.000  H
  N5       1.0000 0.96649  0.69468  0.45668  Biso   1.000  N
  C21      1.0000 0.20880  0.82761  0.26150  Biso   1.000  C
  C22      1.0000 0.07796  0.79576  0.26688  Biso   1.000  C
  C23      1.0000 0.07799  0.79582  0.26688  Biso   1.000  C
  H16      1.0000 0.31881  0.46090  0.50848  Biso   1.000  H
  H17      1.0000 0.38329  0.45649  0.47559  Biso   1.000  H
  C24      1.0000 0.40672  0.80701  0.48549  Biso   1.000  C
  H18      1.0000 0.35419  0.69951  0.52319  Biso   1.000  H
  C25      1.0000 0.91499  0.67449  0.49989  Biso   1.000  C
  C26      1.0000 0.21839  0.87648  0.22177  Biso   1.000  C
  H19      1.0000 0.25041  0.82090  0.27181  Biso   1.000  H
  C27      1.0000 0.08797  0.84669  0.22708  Biso   1.000  C
  H20      1.0000 0.02790  0.76550  0.28079  Biso   1.000  H
  C28      1.0000 0.41598  0.85316  0.52788  Biso   1.000  C
  C29      1.0000 0.42649  0.84339  0.43739  Biso   1.000  C
  C30      1.0000 0.41601  0.85322  0.52788  Biso   1.000  C
  H21      1.0000 0.93458  0.65400  0.52681  Biso   1.000  H
  C31      1.0000 0.83140  0.60926  0.48499  Biso   1.000  C
  C32      1.0000 0.91369  0.74519  0.52040  Biso   1.000  C
  C33      1.0000 0.83143  0.60932  0.48499  Biso   1.000  C
  C34      1.0000 0.16239  0.89131  0.20546  Biso   1.000  C
  H22      1.0000 0.26669  0.90097  0.20497  Biso   1.000  H
  H23      1.0000 0.26671  0.90102  0.20497  Biso   1.000  H
  H24      1.0000 0.04571  0.85098  0.21505  Biso   1.000  H
  C35      1.0000 0.44331  0.93199  0.52368  Biso   1.000  C
  H25      1.0000 0.40328  0.82991  0.56008  Biso   1.000  H
  H26      1.0000 0.42116  0.81337  0.40871  Biso   1.000  H
  C36      1.0000 0.45308  0.92186  0.43197  Biso   1.000  C
  H27      1.0000 0.42119  0.81342  0.40871  Biso   1.000  H
  C37      1.0000 0.45311  0.92192  0.43197  Biso   1.000  C
  H28      1.0000 0.81248  0.62710  0.45661  Biso   1.000  H
  H29      1.0000 0.83300  0.56281  0.47418  Biso   1.000  H
  C38      1.0000 0.77538  0.58859  0.52998  Biso   1.000  C
  C39      1.0000 0.85719  0.72447  0.56520  Biso   1.000  C
  H30      1.0000 0.89770  0.76827  0.49309  Biso   1.000  H
  N6       1.0000 0.99290  0.80318  0.53751  Biso   1.000  N
  C40      1.0000 0.85722  0.72453  0.56520  Biso   1.000  C
  H31      1.0000 0.89773  0.76833  0.49309  Biso   1.000  H
  C41      1.0000 0.17831  0.95171  0.16497  Biso   1.000  C
  C42      1.0000 0.45401  0.98368  0.56791  Biso   1.000  C
  C43      1.0000 0.46298  0.96696  0.47548  Biso   1.000  C
  C44      1.0000 0.46301  0.96702  0.47548  Biso   1.000  C
  C45      1.0000 0.47489  0.96119  0.38079  Biso   1.000  C
  H32      1.0000 0.72280  0.54950  0.51929  Biso   1.000  H
  H33      1.0000 0.79151  0.56599  0.55710  Biso   1.000  H
  C46      1.0000 0.77418  0.65818  0.54950  Biso   1.000  C
  H34      1.0000 0.85470  0.77068  0.57571  Biso   1.000  H
  H35      1.0000 0.87596  0.70716  0.59400  Biso   1.000  H
  H36      1.0000 0.87599  0.70722  0.59400  Biso   1.000  H
  C47      1.0000 0.02740  0.86688  0.51379  Biso   1.000  C
  C48      1.0000 0.22413  0.95860  0.12376  Biso   1.000  C
  C49      1.0000 0.15630  0.00740  0.17296  Biso   1.000  C
  N7       1.0000 0.43907  0.95819  0.61303  Biso   1.000  N
  H37      1.0000 0.47230  0.03678  0.56211  Biso   1.000  H
  H38      1.0000 0.48302  0.02100  0.47231  Biso   1.000  H
  C50      1.0000 0.42679  0.93199  0.34228  Biso   1.000  C
  C51      1.0000 0.51281  0.94588  0.34507  Biso   1.000  C
  C52      1.0000 0.47040  0.02748  0.37097  Biso   1.000  C
  C53      1.0000 0.54649  0.01600  0.36811  Biso   1.000  C
  H39      1.0000 0.73950  0.64317  0.57888  Biso   1.000  H
  H40      1.0000 0.75340  0.67790  0.52341  Biso   1.000  H
  H41      1.0000 0.73953  0.64323  0.57888  Biso   1.000  H
  C54      1.0000 0.10877  0.92958  0.52659  Biso   1.000  C
  H42      1.0000 0.00118  0.87542  0.48709  Biso   1.000  H
  H43      1.0000 0.23979  0.92151  0.11868  Biso   1.000  H
  C55      1.0000 0.24767  0.02118  0.08908  Biso   1.000  C
  C56      1.0000 0.17918  0.07040  0.14007  Biso   1.000  C
  H44      1.0000 0.12527  0.00246  0.20118  Biso   1.000  H
  H45      1.0000 0.12530  0.00252  0.20118  Biso   1.000  H
  C57      1.0000 0.45497  0.01588  0.65260  Biso   1.000  C
  C58      1.0000 0.44291  0.97249  0.29568  Biso   1.000  C
  H46      1.0000 0.38106  0.88336  0.34568  Biso   1.000  H
  H47      1.0000 0.38109  0.88342  0.34568  Biso   1.000  H
  H48      1.0000 0.52780  0.90856  0.35138  Biso   1.000  H
  C59      1.0000 0.53048  0.98397  0.29855  Biso   1.000  C
  H49      1.0000 0.45048  0.04626  0.39607  Biso   1.000  H
  C60      1.0000 0.49478  0.06798  0.32437  Biso   1.000  C
  H50      1.0000 0.45051  0.04632  0.39607  Biso   1.000  H
  C61      1.0000 0.56691  0.05409  0.32158  Biso   1.000  C
  H51      1.0000 0.58617  0.02989  0.39209  Biso   1.000  H
  C62      1.0000 0.14817  0.92416  0.56860  Biso   1.000  C
  C63      1.0000 0.14888  0.99257  0.49370  Biso   1.000  C
  C64      1.0000 0.14820  0.92422  0.56860  Biso   1.000  C
  C65      1.0000 0.14891  0.99263  0.49370  Biso   1.000  C
  C66      1.0000 0.22400  0.07581  0.09805  Biso   1.000  C
  C67      1.0000 0.29751  0.02777  0.04538  Biso   1.000  C
  C68      1.0000 0.16051  0.13309  0.15286  Biso   1.000  C
  C69      1.0000 0.37827  0.00717  0.67319  Biso   1.000  C
  C70      1.0000 0.50131  0.00558  0.69549  Biso   1.000  C
  H52      1.0000 0.48657  0.06869  0.63801  Biso   1.000  H
  C71      1.0000 0.37830  0.00723  0.67319  Biso   1.000  C
  H53      1.0000 0.40420  0.95371  0.27059  Biso   1.000  H
  C72      1.0000 0.51368  0.03878  0.28587  Biso   1.000  C
  H54      1.0000 0.55626  0.97008  0.27456  Biso   1.000  H
  H55      1.0000 0.49769  0.11661  0.32097  Biso   1.000  H
  H56      1.0000 0.61923  0.09141  0.31528  Biso   1.000  H
  C73      1.0000 0.22647  0.97879  0.57758  Biso   1.000  C
  H57      1.0000 0.12152  0.88289  0.59148  Biso   1.000  H
  H58      1.0000 0.12280  0.99751  0.46551  Biso   1.000  H
  C74      1.0000 0.22659  0.04826  0.50168  Biso   1.000  C
  C75      1.0000 0.22662  0.04832  0.50168  Biso   1.000  C
  H59      1.0000 0.23862  0.11708  0.07517  Biso   1.000  H
  N8       1.0000 0.31652  0.97779  0.03533  Biso   1.000  N
  H60      1.0000 0.31551  0.07152  0.02418  Biso   1.000  H
  H61      1.0000 0.12575  0.12456  0.17956  Biso   1.000  H
  N9       1.0000 0.18971  0.19679  0.12918  Biso   1.000  N
  H62      1.0000 0.12578  0.12462  0.17956  Biso   1.000  H
  H63      1.0000 0.34480  0.95318  0.68541  Biso   1.000  H
  C76      1.0000 0.39531  0.06369  0.71711  Biso   1.000  C
  N10      1.0000 0.33871  0.02218  0.63132  Biso   1.000  N
  H64      1.0000 0.47218  0.95201  0.70821  Biso   1.000  H
  C77      1.0000 0.51672  0.06280  0.73938  Biso   1.000  C
  H65      1.0000 0.55119  0.01417  0.68228  Biso   1.000  H
  C78      1.0000 0.53120  0.07811  0.23468  Biso   1.000  C
  C79      1.0000 0.26972  0.97220  0.62131  Biso   1.000  C
  C80      1.0000 0.26551  0.04137  0.54290  Biso   1.000  C
  C81      1.0000 0.27106  0.10866  0.46119  Biso   1.000  C
  C82      1.0000 0.27109  0.10872  0.46119  Biso   1.000  C
  C83      1.0000 0.37108  0.99280  0.99347  Biso   1.000  C
  C84      1.0000 0.16848  0.25478  0.14626  Biso   1.000  C
  H66      1.0000 0.42472  0.11720  0.70420  Biso   1.000  H
  H67      1.0000 0.34589  0.05591  0.73060  Biso   1.000  H
  C85      1.0000 0.44036  0.05427  0.75890  Biso   1.000  C
  C86      1.0000 0.44039  0.05433  0.75890  Biso   1.000  C
  H68      1.0000 0.54327  0.05238  0.76688  Biso   1.000  H
  H69      1.0000 0.55069  0.11626  0.72769  Biso   1.000  H
  H70      1.0000 0.55071  0.11632  0.72769  Biso   1.000  H
  C87      1.0000 0.58308  0.15658  0.22926  Biso   1.000  C
  C88      1.0000 0.49601  0.03301  0.19118  Biso   1.000  C
  H71      1.0000 0.24398  0.92846  0.64251  Biso   1.000  H
  H72      1.0000 0.24401  0.92852  0.64251  Biso   1.000  H
  H73      1.0000 0.31827  0.07846  0.54801  Biso   1.000  H
  H74      1.0000 0.31830  0.07852  0.54801  Biso   1.000  H
  C89      1.0000 0.24127  0.15329  0.43961  Biso   1.000  C
  C90      1.0000 0.34191  0.12350  0.44488  Biso   1.000  C
  C91      1.0000 0.43907  0.98409  0.01406  Biso   1.000  C
  C92      1.0000 0.33161  0.93629  0.94958  Biso   1.000  C
  H75      1.0000 0.39160  0.04679  0.98128  Biso   1.000  H
  C93      1.0000 0.24049  0.32549  0.16677  Biso   1.000  C
  C94      1.0000 0.13270  0.27550  0.10145  Biso   1.000  C
  H76      1.0000 0.12941  0.23170  0.17357  Biso   1.000  H
  H77      1.0000 0.40913  0.00281  0.77441  Biso   1.000  H
  H78      1.0000 0.45160  0.09377  0.78491  Biso   1.000  H
  H79      1.0000 0.45162  0.09383  0.78491  Biso   1.000  H
  C95      1.0000 0.59970  0.19297  0.18117  Biso   1.000  C
  H80      1.0000 0.60778  0.18661  0.25798  Biso   1.000  H
  C96      1.0000 0.59972  0.19303  0.18117  Biso   1.000  C
  H81      1.0000 0.46200  0.97897  0.19435  Biso   1.000  H
  H82      1.0000 0.46203  0.97903  0.19435  Biso   1.000  H
  C97      1.0000 0.51130  0.06798  0.14301  Biso   1.000  C
  C98      1.0000 0.28218  0.20421  0.39977  Biso   1.000  C
  H83      1.0000 0.19472  0.14899  0.45160  Biso   1.000  H
  C99      1.0000 0.38117  0.17236  0.40516  Biso   1.000  C
  H84      1.0000 0.36571  0.09901  0.46169  Biso   1.000  H
  C100     1.0000 0.38120  0.17242  0.40516  Biso   1.000  C
  N11      1.0000 0.48087  0.04179  0.05363  Biso   1.000  N
  H85      1.0000 0.41787  0.93128  0.02865  Biso   1.000  H
  C101     1.0000 0.49572  0.99439  0.97116  Biso   1.000  C
  H86      1.0000 0.30750  0.88277  0.96245  Biso   1.000  H
  H87      1.0000 0.28997  0.94406  0.93606  Biso   1.000  H
  C102     1.0000 0.38608  0.94571  0.90775  Biso   1.000  C
  H88      1.0000 0.29000  0.94412  0.93606  Biso   1.000  H
  H89      1.0000 0.28056  0.34597  0.13988  Biso   1.000  H
  C103     1.0000 0.22212  0.39072  0.18167  Biso   1.000  C
  N12      1.0000 0.27180  0.30529  0.20997  Biso   1.000  N
  C104     1.0000 0.11599  0.34179  0.11715  Biso   1.000  C
  H90      1.0000 0.08400  0.22929  0.09095  Biso   1.000  H
  H91      1.0000 0.16879  0.29281  0.07265  Biso   1.000  H
  C105     1.0000 0.56280  0.14681  0.13877  Biso   1.000  C
  C106     1.0000 0.65231  0.27821  0.17517  Biso   1.000  C
  C107     1.0000 0.47032  0.01629  0.09878  Biso   1.000  C
  C108     1.0000 0.34990  0.21157  0.38025  Biso   1.000  C
  H92      1.0000 0.26239  0.23447  0.38587  Biso   1.000  H
  C109     1.0000 0.34993  0.21163  0.38025  Biso   1.000  C
  H93      1.0000 0.42950  0.17907  0.39488  Biso   1.000  H
  C110     1.0000 0.45390  0.93717  0.92727  Biso   1.000  C
  H94      1.0000 0.53700  0.98580  0.98438  Biso   1.000  H
  H95      1.0000 0.52016  0.04797  0.95848  Biso   1.000  H
  H96      1.0000 0.52019  0.04803  0.95848  Biso   1.000  H
  H97      1.0000 0.40630  0.99716  0.89228  Biso   1.000  H
  H98      1.0000 0.35781  0.90621  0.88178  Biso   1.000  H
  H99      1.0000 0.40633  0.99722  0.89228  Biso   1.000  H
  H100     1.0000 0.18537  0.37288  0.21008  Biso   1.000  H
  H101     1.0000 0.27018  0.43716  0.19248  Biso   1.000  H
  C111     1.0000 0.18677  0.41138  0.13667  Biso   1.000  C
  H102     1.0000 0.27021  0.43722  0.19248  Biso   1.000  H
  C112     1.0000 0.34482  0.33020  0.21138  Biso   1.000  C
  H103     1.0000 0.09632  0.35681  0.08778  Biso   1.000  H
  H104     1.0000 0.07548  0.32207  0.14328  Biso   1.000  H
  H105     1.0000 0.57336  0.17007  0.10657  Biso   1.000  H
  H106     1.0000 0.57339  0.17012  0.10657  Biso   1.000  H
  H107     1.0000 0.65467  0.30047  0.14347  Biso   1.000  H
  N13      1.0000 0.69389  0.32231  0.21028  Biso   1.000  N
  H108     1.0000 0.65470  0.30052  0.14347  Biso   1.000  H
  H109     1.0000 0.43551  0.96319  0.10458  Biso   1.000  H
  C113     1.0000 0.39136  0.26126  0.33426  Biso   1.000  C
  C114     1.0000 0.39139  0.26132  0.33426  Biso   1.000  C
  H110     1.0000 0.49088  0.94759  0.89977  Biso   1.000  H
  H111     1.0000 0.43441  0.88372  0.93896  Biso   1.000  H
  H112     1.0000 0.17328  0.45047  0.14736  Biso   1.000  H
  H113     1.0000 0.22551  0.43399  0.10955  Biso   1.000  H
  H114     1.0000 0.17331  0.45053  0.14736  Biso   1.000  H
  C115     1.0000 0.38640  0.31701  0.25237  Biso   1.000  C
  H115     1.0000 0.37460  0.35969  0.18358  Biso   1.000  H
  C116     1.0000 0.73739  0.40696  0.20088  Biso   1.000  C
  C117     1.0000 0.73742  0.40702  0.20088  Biso   1.000  C
  C118     1.0000 0.47201  0.29458  0.32895  Biso   1.000  C
  C119     1.0000 0.34921  0.27291  0.29687  Biso   1.000  C
  C120     1.0000 0.46697  0.34998  0.24805  Biso   1.000  C
  C121     1.0000 0.71920  0.44788  0.24358  Biso   1.000  C
  C122     1.0000 0.82518  0.43817  0.19828  Biso   1.000  C
  H116     1.0000 0.71991  0.41780  0.16837  Biso   1.000  H
  C123     1.0000 0.82521  0.43822  0.19828  Biso   1.000  C
  C124     1.0000 0.51056  0.33926  0.28587  Biso   1.000  C
  C125     1.0000 0.51059  0.33932  0.28587  Biso   1.000  C
  H117     1.0000 0.50088  0.28716  0.35435  Biso   1.000  H
  H118     1.0000 0.50091  0.28722  0.35435  Biso   1.000  H
  H119     1.0000 0.29510  0.25137  0.30088  Biso   1.000  H
  H120     1.0000 0.29513  0.25143  0.30088  Biso   1.000  H
  H121     1.0000 0.49248  0.37988  0.21937  Biso   1.000  H
  H122     1.0000 0.73526  0.43616  0.27636  Biso   1.000  H
  C126     1.0000 0.76402  0.53672  0.23487  Biso   1.000  C
  N14      1.0000 0.63562  0.41950  0.24458  Biso   1.000  N
  H123     1.0000 0.73529  0.43622  0.27636  Biso   1.000  H
  C127     1.0000 0.87087  0.52577  0.19106  Biso   1.000  C
  H124     1.0000 0.84220  0.42468  0.22956  Biso   1.000  H
  H125     1.0000 0.83629  0.41297  0.17017  Biso   1.000  H
  C128     1.0000 0.87090  0.52582  0.19106  Biso   1.000  C
  H126     1.0000 0.83632  0.41303  0.17017  Biso   1.000  H
  C129     1.0000 0.59639  0.37429  0.28155  Biso   1.000  C
  H127     1.0000 0.75209  0.56250  0.26215  Biso   1.000  H
  H128     1.0000 0.74718  0.54861  0.20286  Biso   1.000  H
  C130     1.0000 0.85288  0.56809  0.23327  Biso   1.000  C
  H129     1.0000 0.85789  0.53907  0.15817  Biso   1.000  H
  H130     1.0000 0.92679  0.54349  0.19106  Biso   1.000  H
  H131     1.0000 0.62310  0.36316  0.30657  Biso   1.000  H
  H132     1.0000 0.62313  0.36322  0.30657  Biso   1.000  H
  H133     1.0000 0.88060  0.62426  0.22666  Biso   1.000  H
  H134     1.0000 0.87061  0.55920  0.26585  Biso   1.000  H
  H135     1.0000 0.88063  0.62432  0.22666  Biso   1.000  H
  C131     1.0000 0.22209  0.62568  0.38510  Biso   1.000  C
  N15      1.0000 0.21610  0.58047  0.42208  Biso   1.000  N
  N16      1.0000 0.21613  0.58053  0.42208  Biso   1.000  N
  C132     1.0000 0.17129  0.66071  0.38079  Biso   1.000  C
  H136     1.0000 0.25993  0.63681  0.36008  Biso   1.000  H
  C133     1.0000 0.27131  0.55209  0.42311  Biso   1.000  C
  C134     1.0000 0.11698  0.65000  0.41860  Biso   1.000  C
  C135     1.0000 0.17741  0.70540  0.33770  Biso   1.000  C
  C136     1.0000 0.22730  0.46326  0.43178  Biso   1.000  C
  C137     1.0000 0.22732  0.46332  0.43178  Biso   1.000  C
  C138     1.0000 0.33041  0.59301  0.46581  Biso   1.000  C
  H137     1.0000 0.29909  0.56381  0.39030  Biso   1.000  H
  H138     1.0000 0.11258  0.62009  0.44729  Biso   1.000  H
  C139     1.0000 0.06938  0.68297  0.41429  Biso   1.000  C
  C140     1.0000 0.06941  0.68302  0.41429  Biso   1.000  C
  H139     1.0000 0.21370  0.71281  0.31230  Biso   1.000  H
  C141     1.0000 0.13009  0.73872  0.33239  Biso   1.000  C
  C142     1.0000 0.28477  0.43188  0.43338  Biso   1.000  C
  H140     1.0000 0.18957  0.43747  0.40451  Biso   1.000  H
  H141     1.0000 0.19856  0.45137  0.46379  Biso   1.000  H
  H142     1.0000 0.19859  0.45142  0.46379  Biso   1.000  H
  C143     1.0000 0.38700  0.56181  0.46841  Biso   1.000  C
  H143     1.0000 0.30210  0.58218  0.49828  Biso   1.000  H
  N17      1.0000 0.37157  0.67767  0.45638  Biso   1.000  N
  N18      1.0000 0.37159  0.67773  0.45638  Biso   1.000  N
  C144     1.0000 0.01461  0.66978  0.45531  Biso   1.000  C
  C145     1.0000 0.07629  0.72706  0.36979  Biso   1.000  C
  C146     1.0000 0.07632  0.72712  0.36979  Biso   1.000  C
  C147     1.0000 0.13831  0.78840  0.28640  Biso   1.000  C
  H144     1.0000 0.25633  0.37572  0.43999  Biso   1.000  H
  C148     1.0000 0.34509  0.47421  0.47559  Biso   1.000  C
  H145     1.0000 0.31139  0.44077  0.40080  Biso   1.000  H
  H146     1.0000 0.31142  0.44083  0.40080  Biso   1.000  H
  H147     1.0000 0.41750  0.57529  0.43709  Biso   1.000  H
  H148     1.0000 0.42331  0.58701  0.49649  Biso   1.000  H
  C149     1.0000 0.37409  0.72176  0.49148  Biso   1.000  C
  C150     1.0000 0.37412  0.72182  0.49148  Biso   1.000  C
  H149     1.0000 0.01490  0.64028  0.48308  Biso   1.000  H
  N19      1.0000 0.96649  0.69468  0.45668  Biso   1.000  N
  H150     1.0000 0.04372  0.74861  0.36581  Biso   1.000  H
  C151     1.0000 0.20880  0.82761  0.26150  Biso   1.000  C
  C152     1.0000 0.07796  0.79576  0.26688  Biso   1.000  C
  C153     1.0000 0.07799  0.79582  0.26688  Biso   1.000  C
  H151     1.0000 0.31881  0.46090  0.50848  Biso   1.000  H
  H152     1.0000 0.38329  0.45649  0.47559  Biso   1.000  H
  C154     1.0000 0.40672  0.80701  0.48549  Biso   1.000  C
  H153     1.0000 0.35419  0.69951  0.52319  Biso   1.000  H
  C155     1.0000 0.91499  0.67449  0.49989  Biso   1.000  C
  C156     1.0000 0.21839  0.87648  0.22177  Biso   1.000  C
  H154     1.0000 0.25041  0.82090  0.27181  Biso   1.000  H
  C157     1.0000 0.08797  0.84669  0.22708  Biso   1.000  C
  H155     1.0000 0.02790  0.76550  0.28079  Biso   1.000  H
  C158     1.0000 0.42649  0.84339  0.43739  Biso   1.000  C
  C159     1.0000 0.41598  0.85316  0.52788  Biso   1.000  C
  C160     1.0000 0.41601  0.85322  0.52788  Biso   1.000  C
  H156     1.0000 0.93458  0.65400  0.52681  Biso   1.000  H
  C161     1.0000 0.83140  0.60926  0.48499  Biso   1.000  C
  C162     1.0000 0.91369  0.74519  0.52040  Biso   1.000  C
  C163     1.0000 0.83143  0.60932  0.48499  Biso   1.000  C
  C164     1.0000 0.16239  0.89131  0.20546  Biso   1.000  C
  H157     1.0000 0.26669  0.90097  0.20497  Biso   1.000  H
  H158     1.0000 0.26671  0.90102  0.20497  Biso   1.000  H
  H159     1.0000 0.04571  0.85098  0.21505  Biso   1.000  H
  H160     1.0000 0.42116  0.81337  0.40871  Biso   1.000  H
  C165     1.0000 0.45308  0.92186  0.43197  Biso   1.000  C
  H161     1.0000 0.42119  0.81342  0.40871  Biso   1.000  H
  C166     1.0000 0.45311  0.92192  0.43197  Biso   1.000  C
  C167     1.0000 0.44331  0.93199  0.52368  Biso   1.000  C
  H162     1.0000 0.40328  0.82991  0.56008  Biso   1.000  H
  H163     1.0000 0.81248  0.62710  0.45661  Biso   1.000  H
  H164     1.0000 0.83300  0.56281  0.47418  Biso   1.000  H
  C168     1.0000 0.77538  0.58859  0.52998  Biso   1.000  C
  C169     1.0000 0.85719  0.72447  0.56520  Biso   1.000  C
  H165     1.0000 0.89770  0.76827  0.49309  Biso   1.000  H
  N20      1.0000 0.99290  0.80318  0.53751  Biso   1.000  N
  C170     1.0000 0.85722  0.72453  0.56520  Biso   1.000  C
  H166     1.0000 0.89773  0.76833  0.49309  Biso   1.000  H
  C171     1.0000 0.17831  0.95171  0.16497  Biso   1.000  C
  C172     1.0000 0.47489  0.96119  0.38079  Biso   1.000  C
  C173     1.0000 0.46298  0.96696  0.47548  Biso   1.000  C
  C174     1.0000 0.46301  0.96702  0.47548  Biso   1.000  C
  C175     1.0000 0.45401  0.98368  0.56791  Biso   1.000  C
  H167     1.0000 0.72280  0.54950  0.51929  Biso   1.000  H
  H168     1.0000 0.79151  0.56599  0.55710  Biso   1.000  H
  C176     1.0000 0.77418  0.65818  0.54950  Biso   1.000  C
  H169     1.0000 0.85470  0.77068  0.57571  Biso   1.000  H
  H170     1.0000 0.87596  0.70716  0.59400  Biso   1.000  H
  H171     1.0000 0.87599  0.70722  0.59400  Biso   1.000  H
  C177     1.0000 0.02740  0.86688  0.51379  Biso   1.000  C
  C178     1.0000 0.22413  0.95860  0.12376  Biso   1.000  C
  C179     1.0000 0.15630  0.00740  0.17296  Biso   1.000  C
  C180     1.0000 0.42679  0.93199  0.34228  Biso   1.000  C
  C181     1.0000 0.51281  0.94588  0.34507  Biso   1.000  C
  C182     1.0000 0.47040  0.02748  0.37097  Biso   1.000  C
  C183     1.0000 0.54649  0.01600  0.36811  Biso   1.000  C
  H172     1.0000 0.48302  0.02100  0.47231  Biso   1.000  H
  N21      1.0000 0.43907  0.95819  0.61303  Biso   1.000  N
  H173     1.0000 0.47230  0.03678  0.56211  Biso   1.000  H
  H174     1.0000 0.73950  0.64317  0.57888  Biso   1.000  H
  H175     1.0000 0.75340  0.67790  0.52341  Biso   1.000  H
  H176     1.0000 0.73953  0.64323  0.57888  Biso   1.000  H
  C184     1.0000 0.10877  0.92958  0.52659  Biso   1.000  C
  H177     1.0000 0.00118  0.87542  0.48709  Biso   1.000  H
  H178     1.0000 0.23979  0.92151  0.11868  Biso   1.000  H
  C185     1.0000 0.24767  0.02118  0.08908  Biso   1.000  C
  C186     1.0000 0.17918  0.07040  0.14007  Biso   1.000  C
  H179     1.0000 0.12527  0.00246  0.20118  Biso   1.000  H
  H180     1.0000 0.12530  0.00252  0.20118  Biso   1.000  H
  C187     1.0000 0.44291  0.97249  0.29568  Biso   1.000  C
  H181     1.0000 0.38106  0.88336  0.34568  Biso   1.000  H
  H182     1.0000 0.38109  0.88342  0.34568  Biso   1.000  H
  H183     1.0000 0.52780  0.90856  0.35138  Biso   1.000  H
  C188     1.0000 0.53048  0.98397  0.29855  Biso   1.000  C
  H184     1.0000 0.45048  0.04626  0.39607  Biso   1.000  H
  C189     1.0000 0.49478  0.06798  0.32437  Biso   1.000  C
  H185     1.0000 0.45051  0.04632  0.39607  Biso   1.000  H
  C190     1.0000 0.56691  0.05409  0.32158  Biso   1.000  C
  H186     1.0000 0.58617  0.02989  0.39209  Biso   1.000  H
  C191     1.0000 0.45497  0.01588  0.65260  Biso   1.000  C
  C192     1.0000 0.14817  0.92416  0.56860  Biso   1.000  C
  C193     1.0000 0.14888  0.99257  0.49370  Biso   1.000  C
  C194     1.0000 0.14820  0.92422  0.56860  Biso   1.000  C
  C195     1.0000 0.14891  0.99263  0.49370  Biso   1.000  C
  C196     1.0000 0.22400  0.07581  0.09805  Biso   1.000  C
  C197     1.0000 0.29751  0.02777  0.04538  Biso   1.000  C
  C198     1.0000 0.16051  0.13309  0.15286  Biso   1.000  C
  H187     1.0000 0.40420  0.95371  0.27059  Biso   1.000  H
  C199     1.0000 0.51368  0.03878  0.28587  Biso   1.000  C
  H188     1.0000 0.55626  0.97008  0.27456  Biso   1.000  H
  H189     1.0000 0.49769  0.11661  0.32097  Biso   1.000  H
  H190     1.0000 0.61923  0.09141  0.31528  Biso   1.000  H
  C200     1.0000 0.37827  0.00717  0.67319  Biso   1.000  C
  C201     1.0000 0.50131  0.00558  0.69549  Biso   1.000  C
  H191     1.0000 0.48657  0.06869  0.63801  Biso   1.000  H
  C202     1.0000 0.37830  0.00723  0.67319  Biso   1.000  C
  C203     1.0000 0.22647  0.97879  0.57758  Biso   1.000  C
  H192     1.0000 0.12152  0.88289  0.59148  Biso   1.000  H
  H193     1.0000 0.12280  0.99751  0.46551  Biso   1.000  H
  C204     1.0000 0.22659  0.04826  0.50168  Biso   1.000  C
  C205     1.0000 0.22662  0.04832  0.50168  Biso   1.000  C
  H194     1.0000 0.23862  0.11708  0.07517  Biso   1.000  H
  N22      1.0000 0.31652  0.97779  0.03533  Biso   1.000  N
  H195     1.0000 0.31551  0.07152  0.02418  Biso   1.000  H
  H196     1.0000 0.12575  0.12456  0.17956  Biso   1.000  H
  N23      1.0000 0.18971  0.19679  0.12918  Biso   1.000  N
  H197     1.0000 0.12578  0.12462  0.17956  Biso   1.000  H
  C206     1.0000 0.53120  0.07811  0.23468  Biso   1.000  C
  H198     1.0000 0.34480  0.95318  0.68541  Biso   1.000  H
  C207     1.0000 0.39531  0.06369  0.71711  Biso   1.000  C
  N24      1.0000 0.33871  0.02218  0.63132  Biso   1.000  N
  H199     1.0000 0.47218  0.95201  0.70821  Biso   1.000  H
  C208     1.0000 0.51672  0.06280  0.73938  Biso   1.000  C
  H200     1.0000 0.55119  0.01417  0.68228  Biso   1.000  H
  C209     1.0000 0.26972  0.97220  0.62131  Biso   1.000  C
  C210     1.0000 0.26551  0.04137  0.54290  Biso   1.000  C
  C211     1.0000 0.27106  0.10866  0.46119  Biso   1.000  C
  C212     1.0000 0.27109  0.10872  0.46119  Biso   1.000  C
  C213     1.0000 0.37108  0.99280  0.99347  Biso   1.000  C
  C214     1.0000 0.16848  0.25478  0.14626  Biso   1.000  C
  C215     1.0000 0.58308  0.15658  0.22926  Biso   1.000  C
  C216     1.0000 0.49601  0.03301  0.19118  Biso   1.000  C
  H201     1.0000 0.42472  0.11720  0.70420  Biso   1.000  H
  H202     1.0000 0.34589  0.05591  0.73060  Biso   1.000  H
  C217     1.0000 0.44036  0.05427  0.75890  Biso   1.000  C
  C218     1.0000 0.44039  0.05433  0.75890  Biso   1.000  C
  H203     1.0000 0.54327  0.05238  0.76688  Biso   1.000  H
  H204     1.0000 0.55069  0.11626  0.72769  Biso   1.000  H
  H205     1.0000 0.55071  0.11632  0.72769  Biso   1.000  H
  H206     1.0000 0.24398  0.92846  0.64251  Biso   1.000  H
  H207     1.0000 0.24401  0.92852  0.64251  Biso   1.000  H
  H208     1.0000 0.31827  0.07846  0.54801  Biso   1.000  H
  H209     1.0000 0.31830  0.07852  0.54801  Biso   1.000  H
  C219     1.0000 0.24127  0.15329  0.43961  Biso   1.000  C
  C220     1.0000 0.34191  0.12350  0.44488  Biso   1.000  C
  C221     1.0000 0.43907  0.98409  0.01406  Biso   1.000  C
  C222     1.0000 0.33161  0.93629  0.94958  Biso   1.000  C
  H210     1.0000 0.39160  0.04679  0.98128  Biso   1.000  H
  C223     1.0000 0.24049  0.32549  0.16677  Biso   1.000  C
  C224     1.0000 0.13270  0.27550  0.10145  Biso   1.000  C
  H211     1.0000 0.12941  0.23170  0.17357  Biso   1.000  H
  C225     1.0000 0.59970  0.19297  0.18117  Biso   1.000  C
  H212     1.0000 0.60778  0.18661  0.25798  Biso   1.000  H
  C226     1.0000 0.59972  0.19303  0.18117  Biso   1.000  C
  H213     1.0000 0.46200  0.97897  0.19435  Biso   1.000  H
  H214     1.0000 0.46203  0.97903  0.19435  Biso   1.000  H
  C227     1.0000 0.51130  0.06798  0.14301  Biso   1.000  C
  H215     1.0000 0.40913  0.00281  0.77441  Biso   1.000  H
  H216     1.0000 0.45160  0.09377  0.78491  Biso   1.000  H
  H217     1.0000 0.45162  0.09383  0.78491  Biso   1.000  H
  C228     1.0000 0.28218  0.20421  0.39977  Biso   1.000  C
  H218     1.0000 0.19472  0.14899  0.45160  Biso   1.000  H
  C229     1.0000 0.38117  0.17236  0.40516  Biso   1.000  C
  H219     1.0000 0.36571  0.09901  0.46169  Biso   1.000  H
  C230     1.0000 0.38120  0.17242  0.40516  Biso   1.000  C
  N25      1.0000 0.48087  0.04179  0.05363  Biso   1.000  N
  H220     1.0000 0.41787  0.93128  0.02865  Biso   1.000  H
  C231     1.0000 0.49572  0.99439  0.97116  Biso   1.000  C
  H221     1.0000 0.30750  0.88277  0.96245  Biso   1.000  H
  H222     1.0000 0.28997  0.94406  0.93606  Biso   1.000  H
  C232     1.0000 0.38608  0.94571  0.90775  Biso   1.000  C
  H223     1.0000 0.29000  0.94412  0.93606  Biso   1.000  H
  H224     1.0000 0.28056  0.34597  0.13988  Biso   1.000  H
  C233     1.0000 0.22212  0.39072  0.18167  Biso   1.000  C
  N26      1.0000 0.27180  0.30529  0.20997  Biso   1.000  N
  C234     1.0000 0.11599  0.34179  0.11715  Biso   1.000  C
  H225     1.0000 0.08400  0.22929  0.09095  Biso   1.000  H
  H226     1.0000 0.16879  0.29281  0.07265  Biso   1.000  H
  C235     1.0000 0.56280  0.14681  0.13877  Biso   1.000  C
  C236     1.0000 0.65231  0.27821  0.17517  Biso   1.000  C
  C237     1.0000 0.47032  0.01629  0.09878  Biso   1.000  C
  C238     1.0000 0.34990  0.21157  0.38025  Biso   1.000  C
  H227     1.0000 0.26239  0.23447  0.38587  Biso   1.000  H
  C239     1.0000 0.34993  0.21163  0.38025  Biso   1.000  C
  H228     1.0000 0.42950  0.17907  0.39488  Biso   1.000  H
  C240     1.0000 0.45390  0.93717  0.92727  Biso   1.000  C
  H229     1.0000 0.53700  0.98580  0.98438  Biso   1.000  H
  H230     1.0000 0.52016  0.04797  0.95848  Biso   1.000  H
  H231     1.0000 0.52019  0.04803  0.95848  Biso   1.000  H
  H232     1.0000 0.40630  0.99716  0.89228  Biso   1.000  H
  H233     1.0000 0.35781  0.90621  0.88178  Biso   1.000  H
  H234     1.0000 0.40633  0.99722  0.89228  Biso   1.000  H
  H235     1.0000 0.18537  0.37288  0.21008  Biso   1.000  H
  H236     1.0000 0.27018  0.43716  0.19248  Biso   1.000  H
  C241     1.0000 0.18677  0.41138  0.13667  Biso   1.000  C
  H237     1.0000 0.27021  0.43722  0.19248  Biso   1.000  H
  C242     1.0000 0.34482  0.33020  0.21138  Biso   1.000  C
  H238     1.0000 0.09632  0.35681  0.08778  Biso   1.000  H
  H239     1.0000 0.07548  0.32207  0.14328  Biso   1.000  H
  H240     1.0000 0.57336  0.17007  0.10657  Biso   1.000  H
  H241     1.0000 0.57339  0.17012  0.10657  Biso   1.000  H
  H242     1.0000 0.65467  0.30047  0.14347  Biso   1.000  H
  N27      1.0000 0.69389  0.32231  0.21028  Biso   1.000  N
  H243     1.0000 0.65470  0.30052  0.14347  Biso   1.000  H
  H244     1.0000 0.43551  0.96319  0.10458  Biso   1.000  H
  C243     1.0000 0.39136  0.26126  0.33426  Biso   1.000  C
  C244     1.0000 0.39139  0.26132  0.33426  Biso   1.000  C
  H245     1.0000 0.49088  0.94759  0.89977  Biso   1.000  H
  H246     1.0000 0.43441  0.88372  0.93896  Biso   1.000  H
  H247     1.0000 0.17328  0.45047  0.14736  Biso   1.000  H
  H248     1.0000 0.22551  0.43399  0.10955  Biso   1.000  H
  H249     1.0000 0.17331  0.45053  0.14736  Biso   1.000  H
  C245     1.0000 0.38640  0.31701  0.25237  Biso   1.000  C
  H250     1.0000 0.37460  0.35969  0.18358  Biso   1.000  H
  C246     1.0000 0.73739  0.40696  0.20088  Biso   1.000  C
  C247     1.0000 0.73742  0.40702  0.20088  Biso   1.000  C
  C248     1.0000 0.47201  0.29458  0.32895  Biso   1.000  C
  C249     1.0000 0.34921  0.27291  0.29687  Biso   1.000  C
  C250     1.0000 0.46697  0.34998  0.24805  Biso   1.000  C
  C251     1.0000 0.71920  0.44788  0.24358  Biso   1.000  C
  C252     1.0000 0.82518  0.43817  0.19828  Biso   1.000  C
  H251     1.0000 0.71991  0.41780  0.16837  Biso   1.000  H
  C253     1.0000 0.82521  0.43822  0.19828  Biso   1.000  C
  C254     1.0000 0.51056  0.33926  0.28587  Biso   1.000  C
  C255     1.0000 0.51059  0.33932  0.28587  Biso   1.000  C
  H252     1.0000 0.50088  0.28716  0.35435  Biso   1.000  H
  H253     1.0000 0.50091  0.28722  0.35435  Biso   1.000  H
  H254     1.0000 0.29510  0.25137  0.30088  Biso   1.000  H
  H255     1.0000 0.29513  0.25143  0.30088  Biso   1.000  H
  H256     1.0000 0.49248  0.37988  0.21937  Biso   1.000  H
  H257     1.0000 0.73526  0.43616  0.27636  Biso   1.000  H
  C256     1.0000 0.76402  0.53672  0.23487  Biso   1.000  C
  N28      1.0000 0.63562  0.41950  0.24458  Biso   1.000  N
  H258     1.0000 0.73529  0.43622  0.27636  Biso   1.000  H
  C257     1.0000 0.87087  0.52577  0.19106  Biso   1.000  C
  H259     1.0000 0.84220  0.42468  0.22956  Biso   1.000  H
  H260     1.0000 0.83629  0.41297  0.17017  Biso   1.000  H
  C258     1.0000 0.87090  0.52582  0.19106  Biso   1.000  C
  H261     1.0000 0.83632  0.41303  0.17017  Biso   1.000  H
  C259     1.0000 0.59639  0.37429  0.28155  Biso   1.000  C
  H262     1.0000 0.75209  0.56250  0.26215  Biso   1.000  H
  H263     1.0000 0.74718  0.54861  0.20286  Biso   1.000  H
  C260     1.0000 0.85288  0.56809  0.23327  Biso   1.000  C
  H264     1.0000 0.85789  0.53907  0.15817  Biso   1.000  H
  H265     1.0000 0.92679  0.54349  0.19106  Biso   1.000  H
  H266     1.0000 0.62310  0.36316  0.30657  Biso   1.000  H
  H267     1.0000 0.62313  0.36322  0.30657  Biso   1.000  H
  H268     1.0000 0.88060  0.62426  0.22666  Biso   1.000  H
  H269     1.0000 0.87061  0.55920  0.26585  Biso   1.000  H
  H270     1.0000 0.88063  0.62432  0.22666  Biso   1.000  H
  C261     1.0000 0.43720  0.58400  0.19458  Biso   1.000  C
  C262     1.0000 0.48870  0.55669  0.19034  Biso   1.000  C
  H271     1.0000 0.42658  0.59672  0.22678  Biso   1.000  H
  C263     1.0000 0.40030  0.59330  0.15218  Biso   1.000  C
  C264     1.0000 0.40030  0.59330  0.15214  Biso   1.000  C
  C265     1.0000 0.52969  0.54597  0.23457  Biso   1.000  C
  C266     1.0000 0.50401  0.53702  0.14213  Biso   1.000  C
  C267     1.0000 0.41692  0.57352  0.10405  Biso   1.000  C
  C268     1.0000 0.34773  0.62592  0.15817  Biso   1.000  C
  H272     1.0000 0.56451  0.52772  0.22876  Biso   1.000  H
  N29      1.0000 0.51912  0.56093  0.27968  Biso   1.000  N
  C269     1.0000 0.46883  0.54691  0.09862  Biso   1.000  C
  H273     1.0000 0.53800  0.51701  0.13896  Biso   1.000  H
  H274     1.0000 0.39219  0.57882  0.07536  Biso   1.000  H
  H275     1.0000 0.34529  0.64582  0.18988  Biso   1.000  H
  N30      1.0000 0.30609  0.62839  0.12303  Biso   1.000  N
  H276     1.0000 0.34529  0.64582  0.18984  Biso   1.000  H
  C270     1.0000 0.56090  0.54497  0.31925  Biso   1.000  C
  C271     1.0000 0.48631  0.52507  0.04748  Biso   1.000  C
  C272     1.0000 0.48631  0.52507  0.04744  Biso   1.000  C
  C273     1.0000 0.26261  0.66960  0.13247  Biso   1.000  C
  C274     1.0000 0.62888  0.62168  0.33988  Biso   1.000  C
  C275     1.0000 0.50432  0.49870  0.36215  Biso   1.000  C
  H277     1.0000 0.58209  0.51342  0.30466  Biso   1.000  H
  C276     1.0000 0.62888  0.62168  0.33984  Biso   1.000  C
  C277     1.0000 0.55709  0.52961  0.03762  Biso   1.000  C
  C278     1.0000 0.50523  0.57323  0.00898  Biso   1.000  C
  C279     1.0000 0.43312  0.48722  0.01173  Biso   1.000  C
  C280     1.0000 0.46948  0.45349  0.03476  Biso   1.000  C
  C281     1.0000 0.28079  0.72871  0.08976  Biso   1.000  C
  C282     1.0000 0.17482  0.61303  0.13506  Biso   1.000  C
  H278     1.0000 0.28013  0.69792  0.16497  Biso   1.000  H
  H279     1.0000 0.60841  0.65518  0.35206  Biso   1.000  H
  C283     1.0000 0.66843  0.60473  0.38377  Biso   1.000  C
  N31      1.0000 0.68351  0.66130  0.29801  Biso   1.000  N
  C284     1.0000 0.54606  0.48327  0.40607  Biso   1.000  C
  H280     1.0000 0.46299  0.44878  0.34897  Biso   1.000  H
  H281     1.0000 0.47981  0.52778  0.37487  Biso   1.000  H
  H282     1.0000 0.59580  0.54950  0.06272  Biso   1.000  H
  C285     1.0000 0.57317  0.50517  0.99102  Biso   1.000  C
  H283     1.0000 0.50233  0.61891  0.01238  Biso   1.000  H
  C286     1.0000 0.52959  0.55710  0.96238  Biso   1.000  C
  H284     1.0000 0.38080  0.47221  0.01803  Biso   1.000  H
  C287     1.0000 0.45352  0.46950  0.96524  Biso   1.000  C
  H285     1.0000 0.44372  0.41381  0.05875  Biso   1.000  H
  C288     1.0000 0.48723  0.43312  0.98827  Biso   1.000  C
  H286     1.0000 0.26471  0.70092  0.05695  Biso   1.000  H
  C289     1.0000 0.23599  0.77269  0.09847  Biso   1.000  C
  N32      1.0000 0.36440  0.78387  0.08877  Biso   1.000  N
  C290     1.0000 0.12911  0.65488  0.14228  Biso   1.000  C
  H287     1.0000 0.15781  0.58247  0.10378  Biso   1.000  H
  H288     1.0000 0.16370  0.57670  0.16318  Biso   1.000  H
  C291     1.0000 0.12911  0.65488  0.14225  Biso   1.000  C
  H289     1.0000 0.15781  0.58247  0.10374  Biso   1.000  H
  H290     1.0000 0.16370  0.57670  0.16314  Biso   1.000  H
  H291     1.0000 0.69251  0.57529  0.37086  Biso   1.000  H
  H292     1.0000 0.71000  0.65412  0.39725  Biso   1.000  H
  C292     1.0000 0.61388  0.55957  0.42555  Biso   1.000  C
  C293     1.0000 0.70251  0.73030  0.28797  Biso   1.000  C
  H293     1.0000 0.50913  0.45672  0.43358  Biso   1.000  H
  H294     1.0000 0.56558  0.44931  0.39435  Biso   1.000  H
  H295     1.0000 0.50913  0.45672  0.43354  Biso   1.000  H
  C294     1.0000 0.52508  0.48628  0.95252  Biso   1.000  C
  H296     1.0000 0.61889  0.50229  0.98762  Biso   1.000  H
  H297     1.0000 0.54949  0.59578  0.93728  Biso   1.000  H
  H298     1.0000 0.54949  0.59578  0.93724  Biso   1.000  H
  H299     1.0000 0.41381  0.44371  0.94125  Biso   1.000  H
  H300     1.0000 0.47218  0.38078  0.98197  Biso   1.000  H
  H301     1.0000 0.24793  0.81042  0.07116  Biso   1.000  H
  H302     1.0000 0.25280  0.80141  0.13048  Biso   1.000  H
  C295     1.0000 0.14710  0.71523  0.10008  Biso   1.000  C
  H303     1.0000 0.25280  0.80141  0.13044  Biso   1.000  H
  C296     1.0000 0.40359  0.77792  0.05176  Biso   1.000  C
  H304     1.0000 0.14212  0.68120  0.17517  Biso   1.000  H
  H305     1.0000 0.07320  0.61668  0.14228  Biso   1.000  H
  H306     1.0000 0.07320  0.61668  0.14225  Biso   1.000  H
  H307     1.0000 0.59370  0.59089  0.44106  Biso   1.000  H
  H308     1.0000 0.64220  0.54839  0.45157  Biso   1.000  H
  C297     1.0000 0.75231  0.77351  0.24427  Biso   1.000  C
  H309     1.0000 0.68453  0.75602  0.30917  Biso   1.000  H
  C298     1.0000 0.54688  0.46879  0.90138  Biso   1.000  C
  H310     1.0000 0.11939  0.74372  0.10668  Biso   1.000  H
  H311     1.0000 0.12941  0.68862  0.06746  Biso   1.000  H
  H312     1.0000 0.11939  0.74372  0.10665  Biso   1.000  H
  C299     1.0000 0.48938  0.82867  0.04748  Biso   1.000  C
  H313     1.0000 0.37690  0.74013  0.02678  Biso   1.000  H
  C300     1.0000 0.48938  0.82867  0.04744  Biso   1.000  C
  C301     1.0000 0.77601  0.85181  0.23526  Biso   1.000  C
  C302     1.0000 0.77588  0.73448  0.20955  Biso   1.000  C
  C303     1.0000 0.57351  0.41693  0.89595  Biso   1.000  C
  C304     1.0000 0.53700  0.50400  0.85787  Biso   1.000  C
  C305     1.0000 0.57351  0.41693  0.89591  Biso   1.000  C
  C306     1.0000 0.53700  0.50400  0.85783  Biso   1.000  C
  C307     1.0000 0.53302  0.88301  0.08526  Biso   1.000  C
  C308     1.0000 0.52801  0.82261  0.00435  Biso   1.000  C
  H314     1.0000 0.76141  0.87848  0.25817  Biso   1.000  H
  C309     1.0000 0.82079  0.89119  0.19328  Biso   1.000  C
  C310     1.0000 0.82079  0.89119  0.19324  Biso   1.000  C
  C311     1.0000 0.82169  0.77339  0.16837  Biso   1.000  C
  H315     1.0000 0.76021  0.68173  0.21467  Biso   1.000  H
  C312     1.0000 0.59330  0.40032  0.84782  Biso   1.000  C
  H316     1.0000 0.57879  0.39220  0.92464  Biso   1.000  H
  C313     1.0000 0.55667  0.48869  0.80966  Biso   1.000  C
  H317     1.0000 0.51700  0.53802  0.86104  Biso   1.000  H
  H318     1.0000 0.50749  0.88743  0.11398  Biso   1.000  H
  C314     1.0000 0.61360  0.93058  0.08098  Biso   1.000  C
  H319     1.0000 0.50749  0.88743  0.11394  Biso   1.000  H
  C315     1.0000 0.61360  0.93058  0.08094  Biso   1.000  C
  H320     1.0000 0.49909  0.78628  0.97895  Biso   1.000  H
  C316     1.0000 0.60859  0.86988  0.99908  Biso   1.000  C
  C317     1.0000 0.60859  0.86988  0.99905  Biso   1.000  C
  C318     1.0000 0.84372  0.85110  0.16035  Biso   1.000  C
  C319     1.0000 0.83952  0.97261  0.18048  Biso   1.000  C
  C320     1.0000 0.83952  0.97261  0.18044  Biso   1.000  C
  C321     1.0000 0.83757  0.72888  0.12788  Biso   1.000  C
  C322     1.0000 0.83757  0.72888  0.12785  Biso   1.000  C
  C323     1.0000 0.58399  0.43718  0.80542  Biso   1.000  C
  C324     1.0000 0.62592  0.34769  0.84183  Biso   1.000  C
  C325     1.0000 0.54599  0.52972  0.76543  Biso   1.000  C
  C326     1.0000 0.65079  0.92369  0.03648  Biso   1.000  C
  C327     1.0000 0.65518  0.98539  0.12196  Biso   1.000  C
  C328     1.0000 0.65079  0.92369  0.03644  Biso   1.000  C
  C329     1.0000 0.65008  0.86170  0.95306  Biso   1.000  C
  H321     1.0000 0.87471  0.87718  0.13216  Biso   1.000  H
  H322     1.0000 0.87419  0.99881  0.15378  Biso   1.000  H
  H323     1.0000 0.87419  0.99881  0.15374  Biso   1.000  H
  N33      1.0000 0.81033  0.00711  0.20416  Biso   1.000  N
  C330     1.0000 0.91197  0.75867  0.10626  Biso   1.000  C
  C331     1.0000 0.78159  0.65812  0.11157  Biso   1.000  C
  H324     1.0000 0.59669  0.42658  0.77322  Biso   1.000  H
  H325     1.0000 0.64577  0.34528  0.81012  Biso   1.000  H
  N34      1.0000 0.62841  0.30607  0.87697  Biso   1.000  N
  N35      1.0000 0.62841  0.30607  0.87693  Biso   1.000  N
  H326     1.0000 0.52770  0.56452  0.77124  Biso   1.000  H
  N36      1.0000 0.56093  0.51913  0.72032  Biso   1.000  N
  N37      1.0000 0.56093  0.51913  0.72028  Biso   1.000  N
  H327     1.0000 0.70488  0.95630  0.03247  Biso   1.000  H
  N38      1.0000 0.72817  0.03348  0.12338  Biso   1.000  N
  H328     1.0000 0.62541  0.98509  0.14977  Biso   1.000  H
  C332     1.0000 0.61879  0.79117  0.92815  Biso   1.000  C
  C333     1.0000 0.71780  0.92198  0.93358  Biso   1.000  C
  C334     1.0000 0.83151  0.08629  0.18705  Biso   1.000  C
  C335     1.0000 0.92203  0.71782  0.06642  Biso   1.000  C
  H329     1.0000 0.95430  0.80530  0.11826  Biso   1.000  H
  C336     1.0000 0.79120  0.61880  0.07185  Biso   1.000  C
  H330     1.0000 0.73327  0.63428  0.12838  Biso   1.000  H
  C337     1.0000 0.79120  0.61880  0.07181  Biso   1.000  C
  H331     1.0000 0.73327  0.63428  0.12834  Biso   1.000  H
  C338     1.0000 0.66960  0.26262  0.86753  Biso   1.000  C
  C339     1.0000 0.54502  0.56093  0.68075  Biso   1.000  C
  C340     1.0000 0.54502  0.56093  0.68071  Biso   1.000  C
  C341     1.0000 0.75949  0.08500  0.16658  Biso   1.000  C
  C342     1.0000 0.75949  0.08500  0.16654  Biso   1.000  C
  C343     1.0000 0.65810  0.78157  0.88843  Biso   1.000  C
  H332     1.0000 0.57048  0.74961  0.93846  Biso   1.000  H
  C344     1.0000 0.75868  0.91197  0.89374  Biso   1.000  C
  H333     1.0000 0.73760  0.97208  0.94748  Biso   1.000  H
  H334     1.0000 0.73760  0.97208  0.94744  Biso   1.000  H
  C345     1.0000 0.86732  0.14281  0.23186  Biso   1.000  C
  H335     1.0000 0.87062  0.10231  0.15978  Biso   1.000  H
  H336     1.0000 0.87062  0.10231  0.15974  Biso   1.000  H
  C346     1.0000 0.86172  0.65012  0.04694  Biso   1.000  C
  H337     1.0000 0.97209  0.73760  0.05252  Biso   1.000  H
  H338     1.0000 0.74962  0.57052  0.06154  Biso   1.000  H
  C347     1.0000 0.72871  0.28082  0.91024  Biso   1.000  C
  C348     1.0000 0.61299  0.17479  0.86494  Biso   1.000  C
  H339     1.0000 0.69792  0.28011  0.83503  Biso   1.000  H
  C349     1.0000 0.62169  0.62892  0.66012  Biso   1.000  C
  C350     1.0000 0.49870  0.50429  0.63785  Biso   1.000  C
  H340     1.0000 0.51340  0.58212  0.69534  Biso   1.000  H
  C351     1.0000 0.49870  0.50429  0.63782  Biso   1.000  C
  H341     1.0000 0.71940  0.06539  0.19347  Biso   1.000  H
  C352     1.0000 0.77788  0.16859  0.15168  Biso   1.000  C
  C353     1.0000 0.77788  0.16859  0.15164  Biso   1.000  C
  C354     1.0000 0.72889  0.83762  0.87212  Biso   1.000  C
  H342     1.0000 0.63432  0.73330  0.87162  Biso   1.000  H
  H343     1.0000 0.80528  0.95430  0.88174  Biso   1.000  H
  C355     1.0000 0.88399  0.22582  0.21616  Biso   1.000  C
  H344     1.0000 0.91597  0.14528  0.24236  Biso   1.000  H
  H345     1.0000 0.83121  0.12403  0.26066  Biso   1.000  H
  C356     1.0000 0.86992  0.60861  0.00092  Biso   1.000  C
  H346     1.0000 0.70092  0.26469  0.94305  Biso   1.000  H
  C357     1.0000 0.77269  0.23601  0.90153  Biso   1.000  C
  N39      1.0000 0.78392  0.36441  0.91123  Biso   1.000  N
  H347     1.0000 0.70092  0.26469  0.94301  Biso   1.000  H
  C358     1.0000 0.65490  0.12910  0.85772  Biso   1.000  C
  H348     1.0000 0.58251  0.15777  0.89622  Biso   1.000  H
  H349     1.0000 0.57671  0.16372  0.83682  Biso   1.000  H
  H350     1.0000 0.65521  0.60838  0.64794  Biso   1.000  H
  C359     1.0000 0.60473  0.66842  0.61623  Biso   1.000  C
  N40      1.0000 0.66132  0.68350  0.70199  Biso   1.000  N
  C360     1.0000 0.48330  0.54609  0.59393  Biso   1.000  C
  H351     1.0000 0.44880  0.46302  0.65103  Biso   1.000  H
  H352     1.0000 0.52781  0.47980  0.62513  Biso   1.000  H
  H353     1.0000 0.81461  0.18749  0.12326  Biso   1.000  H
  H354     1.0000 0.72983  0.16700  0.14087  Biso   1.000  H
  C361     1.0000 0.81317  0.22458  0.19668  Biso   1.000  C
  C362     1.0000 0.81317  0.22458  0.19664  Biso   1.000  C
  C363     1.0000 0.77341  0.82172  0.83163  Biso   1.000  C
  H355     1.0000 0.90367  0.26049  0.24557  Biso   1.000  H
  H356     1.0000 0.92451  0.24660  0.19007  Biso   1.000  H
  C364     1.0000 0.82259  0.52802  0.99565  Biso   1.000  C
  C365     1.0000 0.92371  0.65082  0.96352  Biso   1.000  C
  C366     1.0000 0.82259  0.52802  0.99561  Biso   1.000  C
  H357     1.0000 0.81040  0.24791  0.92884  Biso   1.000  H
  H358     1.0000 0.80137  0.25279  0.86952  Biso   1.000  H
  C367     1.0000 0.71519  0.14712  0.89992  Biso   1.000  C
  C368     1.0000 0.77793  0.40362  0.94824  Biso   1.000  C
  H359     1.0000 0.68118  0.14212  0.82483  Biso   1.000  H
  H360     1.0000 0.61668  0.07318  0.85772  Biso   1.000  H
  H361     1.0000 0.57532  0.69250  0.62914  Biso   1.000  H
  H362     1.0000 0.65412  0.70999  0.60275  Biso   1.000  H
  C369     1.0000 0.55958  0.61391  0.57445  Biso   1.000  C
  H363     1.0000 0.65412  0.70999  0.60271  Biso   1.000  H
  C370     1.0000 0.73032  0.70251  0.71203  Biso   1.000  C
  H364     1.0000 0.45671  0.50912  0.56642  Biso   1.000  H
  H365     1.0000 0.44930  0.56558  0.60565  Biso   1.000  H
  H366     1.0000 0.44930  0.56558  0.60561  Biso   1.000  H
  H367     1.0000 0.82669  0.27721  0.18598  Biso   1.000  H
  H368     1.0000 0.77449  0.20851  0.22376  Biso   1.000  H
  H369     1.0000 0.82669  0.27721  0.18594  Biso   1.000  H
  C371     1.0000 0.85108  0.84368  0.83965  Biso   1.000  C
  C372     1.0000 0.73450  0.77592  0.79045  Biso   1.000  C
  C373     1.0000 0.85108  0.84368  0.83961  Biso   1.000  C
  C374     1.0000 0.73450  0.77592  0.79041  Biso   1.000  C
  H370     1.0000 0.78631  0.49911  0.02105  Biso   1.000  H
  H371     1.0000 0.78631  0.49911  0.02101  Biso   1.000  H
  C375     1.0000 0.82872  0.48940  0.95252  Biso   1.000  C
  H372     1.0000 0.95632  0.70492  0.96753  Biso   1.000  H
  C376     1.0000 0.93060  0.61361  0.91902  Biso   1.000  C
  H373     1.0000 0.74370  0.11939  0.89332  Biso   1.000  H
  H374     1.0000 0.68859  0.12940  0.93254  Biso   1.000  H
  H375     1.0000 0.74009  0.37689  0.97322  Biso   1.000  H
  H376     1.0000 0.59088  0.59372  0.55894  Biso   1.000  H
  H377     1.0000 0.54840  0.64223  0.54843  Biso   1.000  H
  C377     1.0000 0.77353  0.75232  0.75573  Biso   1.000  C
  H378     1.0000 0.75598  0.68450  0.69083  Biso   1.000  H
  C378     1.0000 0.89117  0.82078  0.80672  Biso   1.000  C
  H379     1.0000 0.87719  0.87471  0.86784  Biso   1.000  H
  H380     1.0000 0.68172  0.76020  0.78533  Biso   1.000  H
  C379     1.0000 0.88301  0.53302  0.91474  Biso   1.000  C
  C380     1.0000 0.98538  0.65518  0.87804  Biso   1.000  C
  C381     1.0000 0.85179  0.77598  0.76474  Biso   1.000  C
  C382     1.0000 0.97262  0.83950  0.81952  Biso   1.000  C
  H381     1.0000 0.88739  0.50753  0.88602  Biso   1.000  H
  H382     1.0000 0.98507  0.62539  0.85023  Biso   1.000  H
  N41      1.0000 0.03351  0.72818  0.87662  Biso   1.000  N
  H383     1.0000 0.87850  0.76138  0.74183  Biso   1.000  H
  N42      1.0000 0.00712  0.81030  0.79584  Biso   1.000  N
  H384     1.0000 0.99878  0.87418  0.84622  Biso   1.000  H
  C383     1.0000 0.08501  0.75950  0.83342  Biso   1.000  C
  C384     1.0000 0.08629  0.83150  0.81295  Biso   1.000  C
  C385     1.0000 0.08629  0.83150  0.81291  Biso   1.000  C
  H385     1.0000 0.06542  0.71941  0.80653  Biso   1.000  H
  C386     1.0000 0.16861  0.77792  0.84832  Biso   1.000  C
  C387     1.0000 0.14278  0.86729  0.76814  Biso   1.000  C
  H386     1.0000 0.10232  0.87059  0.84022  Biso   1.000  H
  H387     1.0000 0.18751  0.81460  0.87674  Biso   1.000  H
  H388     1.0000 0.16699  0.72983  0.85913  Biso   1.000  H
  C388     1.0000 0.22458  0.81319  0.80332  Biso   1.000  C
  C389     1.0000 0.22578  0.88401  0.78384  Biso   1.000  C
  H389     1.0000 0.14530  0.91598  0.75764  Biso   1.000  H
  H390     1.0000 0.12402  0.83120  0.73934  Biso   1.000  H
  H391     1.0000 0.27724  0.82673  0.81402  Biso   1.000  H
  H392     1.0000 0.20851  0.77451  0.77624  Biso   1.000  H
  H393     1.0000 0.26049  0.90367  0.75443  Biso   1.000  H
  H394     1.0000 0.24659  0.92451  0.80993  Biso   1.000  H
  C390     1.0000 0.43720  0.58400  0.19458  Biso   1.000  C
  C391     1.0000 0.48870  0.55669  0.19034  Biso   1.000  C
  H395     1.0000 0.42658  0.59672  0.22678  Biso   1.000  H
  C392     1.0000 0.40030  0.59330  0.15218  Biso   1.000  C
  C393     1.0000 0.40030  0.59330  0.15214  Biso   1.000  C
  C394     1.0000 0.52969  0.54597  0.23457  Biso   1.000  C
  C395     1.0000 0.50401  0.53702  0.14213  Biso   1.000  C
  C396     1.0000 0.41692  0.57352  0.10405  Biso   1.000  C
  C397     1.0000 0.34773  0.62592  0.15817  Biso   1.000  C
  H396     1.0000 0.56451  0.52772  0.22876  Biso   1.000  H
  N43      1.0000 0.51912  0.56093  0.27968  Biso   1.000  N
  C398     1.0000 0.46883  0.54691  0.09862  Biso   1.000  C
  H397     1.0000 0.53800  0.51701  0.13896  Biso   1.000  H
  H398     1.0000 0.39219  0.57882  0.07536  Biso   1.000  H
  N44      1.0000 0.30609  0.62839  0.12303  Biso   1.000  N
  H399     1.0000 0.34529  0.64582  0.18988  Biso   1.000  H
  H400     1.0000 0.34529  0.64582  0.18984  Biso   1.000  H
  C399     1.0000 0.56090  0.54497  0.31925  Biso   1.000  C
  C400     1.0000 0.48631  0.52507  0.04748  Biso   1.000  C
  C401     1.0000 0.48631  0.52507  0.04744  Biso   1.000  C
  C402     1.0000 0.26261  0.66960  0.13247  Biso   1.000  C
  C403     1.0000 0.50432  0.49870  0.36215  Biso   1.000  C
  H401     1.0000 0.58209  0.51342  0.30466  Biso   1.000  H
  C404     1.0000 0.62888  0.62168  0.33988  Biso   1.000  C
  C405     1.0000 0.62888  0.62168  0.33984  Biso   1.000  C
  C406     1.0000 0.55709  0.52961  0.03762  Biso   1.000  C
  C407     1.0000 0.50523  0.57323  0.00898  Biso   1.000  C
  C408     1.0000 0.43312  0.48722  0.01173  Biso   1.000  C
  C409     1.0000 0.46948  0.45349  0.03476  Biso   1.000  C
  C410     1.0000 0.28079  0.72871  0.08976  Biso   1.000  C
  C411     1.0000 0.17482  0.61303  0.13506  Biso   1.000  C
  H402     1.0000 0.28013  0.69792  0.16497  Biso   1.000  H
  C412     1.0000 0.54606  0.48327  0.40607  Biso   1.000  C
  H403     1.0000 0.46299  0.44878  0.34897  Biso   1.000  H
  H404     1.0000 0.47981  0.52778  0.37487  Biso   1.000  H
  H405     1.0000 0.60841  0.65518  0.35206  Biso   1.000  H
  C413     1.0000 0.66843  0.60473  0.38377  Biso   1.000  C
  N45      1.0000 0.68351  0.66130  0.29801  Biso   1.000  N
  H406     1.0000 0.59580  0.54950  0.06272  Biso   1.000  H
  C414     1.0000 0.57317  0.50517  0.99102  Biso   1.000  C
  H407     1.0000 0.50233  0.61891  0.01238  Biso   1.000  H
  C415     1.0000 0.52959  0.55710  0.96238  Biso   1.000  C
  C416     1.0000 0.45352  0.46950  0.96524  Biso   1.000  C
  H408     1.0000 0.38080  0.47221  0.01803  Biso   1.000  H
  C417     1.0000 0.48723  0.43312  0.98827  Biso   1.000  C
  H409     1.0000 0.44372  0.41381  0.05875  Biso   1.000  H
  H410     1.0000 0.26471  0.70092  0.05695  Biso   1.000  H
  C418     1.0000 0.23599  0.77269  0.09847  Biso   1.000  C
  N46      1.0000 0.36440  0.78387  0.08877  Biso   1.000  N
  C419     1.0000 0.12911  0.65488  0.14228  Biso   1.000  C
  H411     1.0000 0.15781  0.58247  0.10378  Biso   1.000  H
  H412     1.0000 0.16370  0.57670  0.16318  Biso   1.000  H
  C420     1.0000 0.12911  0.65488  0.14225  Biso   1.000  C
  H413     1.0000 0.15781  0.58247  0.10374  Biso   1.000  H
  H414     1.0000 0.16370  0.57670  0.16314  Biso   1.000  H
  C421     1.0000 0.61388  0.55957  0.42555  Biso   1.000  C
  H415     1.0000 0.56558  0.44931  0.39435  Biso   1.000  H
  H416     1.0000 0.50913  0.45672  0.43358  Biso   1.000  H
  H417     1.0000 0.50913  0.45672  0.43354  Biso   1.000  H
  H418     1.0000 0.69251  0.57529  0.37086  Biso   1.000  H
  H419     1.0000 0.71000  0.65412  0.39725  Biso   1.000  H
  C422     1.0000 0.70251  0.73030  0.28797  Biso   1.000  C
  C423     1.0000 0.52508  0.48628  0.95252  Biso   1.000  C
  H420     1.0000 0.61889  0.50229  0.98762  Biso   1.000  H
  H421     1.0000 0.54949  0.59578  0.93728  Biso   1.000  H
  H422     1.0000 0.54949  0.59578  0.93724  Biso   1.000  H
  H423     1.0000 0.41381  0.44371  0.94125  Biso   1.000  H
  H424     1.0000 0.47218  0.38078  0.98197  Biso   1.000  H
  H425     1.0000 0.24793  0.81042  0.07116  Biso   1.000  H
  C424     1.0000 0.14710  0.71523  0.10008  Biso   1.000  C
  H426     1.0000 0.25280  0.80141  0.13048  Biso   1.000  H
  H427     1.0000 0.25280  0.80141  0.13044  Biso   1.000  H
  C425     1.0000 0.40359  0.77792  0.05176  Biso   1.000  C
  H428     1.0000 0.14212  0.68120  0.17517  Biso   1.000  H
  H429     1.0000 0.07320  0.61668  0.14228  Biso   1.000  H
  H430     1.0000 0.07320  0.61668  0.14225  Biso   1.000  H
  H431     1.0000 0.59370  0.59089  0.44106  Biso   1.000  H
  H432     1.0000 0.64220  0.54839  0.45157  Biso   1.000  H
  C426     1.0000 0.75231  0.77351  0.24427  Biso   1.000  C
  H433     1.0000 0.68453  0.75602  0.30917  Biso   1.000  H
  C427     1.0000 0.54688  0.46879  0.90138  Biso   1.000  C
  H434     1.0000 0.12941  0.68862  0.06746  Biso   1.000  H
  H435     1.0000 0.11939  0.74372  0.10668  Biso   1.000  H
  H436     1.0000 0.11939  0.74372  0.10665  Biso   1.000  H
  H437     1.0000 0.37690  0.74013  0.02678  Biso   1.000  H
  C428     1.0000 0.48938  0.82867  0.04748  Biso   1.000  C
  C429     1.0000 0.48938  0.82867  0.04744  Biso   1.000  C
  C430     1.0000 0.77601  0.85181  0.23526  Biso   1.000  C
  C431     1.0000 0.77588  0.73448  0.20955  Biso   1.000  C
  C432     1.0000 0.57351  0.41693  0.89595  Biso   1.000  C
  C433     1.0000 0.53700  0.50400  0.85787  Biso   1.000  C
  C434     1.0000 0.57351  0.41693  0.89591  Biso   1.000  C
  C435     1.0000 0.53700  0.50400  0.85783  Biso   1.000  C
  C436     1.0000 0.53302  0.88301  0.08526  Biso   1.000  C
  C437     1.0000 0.52801  0.82261  0.00435  Biso   1.000  C
  H438     1.0000 0.76141  0.87848  0.25817  Biso   1.000  H
  C438     1.0000 0.82079  0.89119  0.19328  Biso   1.000  C
  C439     1.0000 0.82079  0.89119  0.19324  Biso   1.000  C
  C440     1.0000 0.82169  0.77339  0.16837  Biso   1.000  C
  H439     1.0000 0.76021  0.68173  0.21467  Biso   1.000  H
  C441     1.0000 0.59330  0.40032  0.84782  Biso   1.000  C
  H440     1.0000 0.57879  0.39220  0.92464  Biso   1.000  H
  C442     1.0000 0.55667  0.48869  0.80966  Biso   1.000  C
  H441     1.0000 0.51700  0.53802  0.86104  Biso   1.000  H
  H442     1.0000 0.50749  0.88743  0.11398  Biso   1.000  H
  C443     1.0000 0.61360  0.93058  0.08098  Biso   1.000  C
  H443     1.0000 0.50749  0.88743  0.11394  Biso   1.000  H
  C444     1.0000 0.61360  0.93058  0.08094  Biso   1.000  C
  H444     1.0000 0.49909  0.78628  0.97895  Biso   1.000  H
  C445     1.0000 0.60859  0.86988  0.99908  Biso   1.000  C
  C446     1.0000 0.60859  0.86988  0.99905  Biso   1.000  C
  C447     1.0000 0.84372  0.85110  0.16035  Biso   1.000  C
  C448     1.0000 0.83952  0.97261  0.18048  Biso   1.000  C
  C449     1.0000 0.83952  0.97261  0.18044  Biso   1.000  C
  C450     1.0000 0.83757  0.72888  0.12788  Biso   1.000  C
  C451     1.0000 0.83757  0.72888  0.12785  Biso   1.000  C
  C452     1.0000 0.58399  0.43718  0.80542  Biso   1.000  C
  C453     1.0000 0.62592  0.34769  0.84183  Biso   1.000  C
  C454     1.0000 0.54599  0.52972  0.76543  Biso   1.000  C
  C455     1.0000 0.65518  0.98539  0.12196  Biso   1.000  C
  C456     1.0000 0.65079  0.92369  0.03648  Biso   1.000  C
  C457     1.0000 0.65079  0.92369  0.03644  Biso   1.000  C
  C458     1.0000 0.65008  0.86170  0.95306  Biso   1.000  C
  H445     1.0000 0.87471  0.87718  0.13216  Biso   1.000  H
  H446     1.0000 0.87419  0.99881  0.15378  Biso   1.000  H
  H447     1.0000 0.87419  0.99881  0.15374  Biso   1.000  H
  N47      1.0000 0.81033  0.00711  0.20416  Biso   1.000  N
  C459     1.0000 0.91197  0.75867  0.10626  Biso   1.000  C
  C460     1.0000 0.78159  0.65812  0.11157  Biso   1.000  C
  H448     1.0000 0.59669  0.42658  0.77322  Biso   1.000  H
  H449     1.0000 0.64577  0.34528  0.81012  Biso   1.000  H
  N48      1.0000 0.62841  0.30607  0.87697  Biso   1.000  N
  N49      1.0000 0.62841  0.30607  0.87693  Biso   1.000  N
  H450     1.0000 0.52770  0.56452  0.77124  Biso   1.000  H
  N50      1.0000 0.56093  0.51913  0.72032  Biso   1.000  N
  N51      1.0000 0.56093  0.51913  0.72028  Biso   1.000  N
  N52      1.0000 0.72817  0.03348  0.12338  Biso   1.000  N
  H451     1.0000 0.62541  0.98509  0.14977  Biso   1.000  H
  H452     1.0000 0.70488  0.95630  0.03247  Biso   1.000  H
  C461     1.0000 0.61879  0.79117  0.92815  Biso   1.000  C
  C462     1.0000 0.71780  0.92198  0.93358  Biso   1.000  C
  C463     1.0000 0.83151  0.08629  0.18705  Biso   1.000  C
  C464     1.0000 0.92203  0.71782  0.06642  Biso   1.000  C
  H453     1.0000 0.95430  0.80530  0.11826  Biso   1.000  H
  C465     1.0000 0.79120  0.61880  0.07185  Biso   1.000  C
  H454     1.0000 0.73327  0.63428  0.12838  Biso   1.000  H
  C466     1.0000 0.79120  0.61880  0.07181  Biso   1.000  C
  H455     1.0000 0.73327  0.63428  0.12834  Biso   1.000  H
  C467     1.0000 0.66960  0.26262  0.86753  Biso   1.000  C
  C468     1.0000 0.54502  0.56093  0.68075  Biso   1.000  C
  C469     1.0000 0.54502  0.56093  0.68071  Biso   1.000  C
  C470     1.0000 0.75949  0.08500  0.16658  Biso   1.000  C
  C471     1.0000 0.75949  0.08500  0.16654  Biso   1.000  C
  C472     1.0000 0.65810  0.78157  0.88843  Biso   1.000  C
  H456     1.0000 0.57048  0.74961  0.93846  Biso   1.000  H
  C473     1.0000 0.75868  0.91197  0.89374  Biso   1.000  C
  H457     1.0000 0.73760  0.97208  0.94748  Biso   1.000  H
  H458     1.0000 0.73760  0.97208  0.94744  Biso   1.000  H
  C474     1.0000 0.86732  0.14281  0.23186  Biso   1.000  C
  H459     1.0000 0.87062  0.10231  0.15978  Biso   1.000  H
  H460     1.0000 0.87062  0.10231  0.15974  Biso   1.000  H
  C475     1.0000 0.86172  0.65012  0.04694  Biso   1.000  C
  H461     1.0000 0.97209  0.73760  0.05252  Biso   1.000  H
  H462     1.0000 0.74962  0.57052  0.06154  Biso   1.000  H
  C476     1.0000 0.72871  0.28082  0.91024  Biso   1.000  C
  C477     1.0000 0.61299  0.17479  0.86494  Biso   1.000  C
  H463     1.0000 0.69792  0.28011  0.83503  Biso   1.000  H
  C478     1.0000 0.62169  0.62892  0.66012  Biso   1.000  C
  C479     1.0000 0.49870  0.50429  0.63785  Biso   1.000  C
  H464     1.0000 0.51340  0.58212  0.69534  Biso   1.000  H
  C480     1.0000 0.49870  0.50429  0.63782  Biso   1.000  C
  H465     1.0000 0.71940  0.06539  0.19347  Biso   1.000  H
  C481     1.0000 0.77788  0.16859  0.15168  Biso   1.000  C
  C482     1.0000 0.77788  0.16859  0.15164  Biso   1.000  C
  C483     1.0000 0.72889  0.83762  0.87212  Biso   1.000  C
  H466     1.0000 0.63432  0.73330  0.87162  Biso   1.000  H
  H467     1.0000 0.80528  0.95430  0.88174  Biso   1.000  H
  C484     1.0000 0.88399  0.22582  0.21616  Biso   1.000  C
  H468     1.0000 0.91597  0.14528  0.24236  Biso   1.000  H
  H469     1.0000 0.83121  0.12403  0.26066  Biso   1.000  H
  C485     1.0000 0.86992  0.60861  0.00092  Biso   1.000  C
  H470     1.0000 0.70092  0.26469  0.94305  Biso   1.000  H
  C486     1.0000 0.77269  0.23601  0.90153  Biso   1.000  C
  N53      1.0000 0.78392  0.36441  0.91123  Biso   1.000  N
  H471     1.0000 0.70092  0.26469  0.94301  Biso   1.000  H
  C487     1.0000 0.65490  0.12910  0.85772  Biso   1.000  C
  H472     1.0000 0.58251  0.15777  0.89622  Biso   1.000  H
  H473     1.0000 0.57671  0.16372  0.83682  Biso   1.000  H
  H474     1.0000 0.65521  0.60838  0.64794  Biso   1.000  H
  C488     1.0000 0.60473  0.66842  0.61623  Biso   1.000  C
  N54      1.0000 0.66132  0.68350  0.70199  Biso   1.000  N
  C489     1.0000 0.48330  0.54609  0.59393  Biso   1.000  C
  H475     1.0000 0.44880  0.46302  0.65103  Biso   1.000  H
  H476     1.0000 0.52781  0.47980  0.62513  Biso   1.000  H
  H477     1.0000 0.81461  0.18749  0.12326  Biso   1.000  H
  H478     1.0000 0.72983  0.16700  0.14087  Biso   1.000  H
  C490     1.0000 0.81317  0.22458  0.19668  Biso   1.000  C
  C491     1.0000 0.81317  0.22458  0.19664  Biso   1.000  C
  C492     1.0000 0.77341  0.82172  0.83163  Biso   1.000  C
  H479     1.0000 0.90367  0.26049  0.24557  Biso   1.000  H
  H480     1.0000 0.92451  0.24660  0.19007  Biso   1.000  H
  C493     1.0000 0.82259  0.52802  0.99565  Biso   1.000  C
  C494     1.0000 0.92371  0.65082  0.96352  Biso   1.000  C
  C495     1.0000 0.82259  0.52802  0.99561  Biso   1.000  C
  H481     1.0000 0.81040  0.24791  0.92884  Biso   1.000  H
  H482     1.0000 0.80137  0.25279  0.86952  Biso   1.000  H
  C496     1.0000 0.71519  0.14712  0.89992  Biso   1.000  C
  C497     1.0000 0.77793  0.40362  0.94824  Biso   1.000  C
  H483     1.0000 0.68118  0.14212  0.82483  Biso   1.000  H
  H484     1.0000 0.61668  0.07318  0.85772  Biso   1.000  H
  H485     1.0000 0.57532  0.69250  0.62914  Biso   1.000  H
  H486     1.0000 0.65412  0.70999  0.60275  Biso   1.000  H
  C498     1.0000 0.55958  0.61391  0.57445  Biso   1.000  C
  H487     1.0000 0.65412  0.70999  0.60271  Biso   1.000  H
  C499     1.0000 0.73032  0.70251  0.71203  Biso   1.000  C
  H488     1.0000 0.45671  0.50912  0.56642  Biso   1.000  H
  H489     1.0000 0.44930  0.56558  0.60565  Biso   1.000  H
  H490     1.0000 0.44930  0.56558  0.60561  Biso   1.000  H
  H491     1.0000 0.82669  0.27721  0.18598  Biso   1.000  H
  H492     1.0000 0.77449  0.20851  0.22376  Biso   1.000  H
  H493     1.0000 0.82669  0.27721  0.18594  Biso   1.000  H
  C500     1.0000 0.85108  0.84368  0.83965  Biso   1.000  C
  C501     1.0000 0.73450  0.77592  0.79045  Biso   1.000  C
  C502     1.0000 0.85108  0.84368  0.83961  Biso   1.000  C
  C503     1.0000 0.73450  0.77592  0.79041  Biso   1.000  C
  C504     1.0000 0.82872  0.48940  0.95252  Biso   1.000  C
  H494     1.0000 0.78631  0.49911  0.02105  Biso   1.000  H
  H495     1.0000 0.78631  0.49911  0.02101  Biso   1.000  H
  H496     1.0000 0.95632  0.70492  0.96753  Biso   1.000  H
  C505     1.0000 0.93060  0.61361  0.91902  Biso   1.000  C
  H497     1.0000 0.74370  0.11939  0.89332  Biso   1.000  H
  H498     1.0000 0.68859  0.12940  0.93254  Biso   1.000  H
  H499     1.0000 0.74009  0.37689  0.97322  Biso   1.000  H
  H500     1.0000 0.59088  0.59372  0.55894  Biso   1.000  H
  H501     1.0000 0.54840  0.64223  0.54843  Biso   1.000  H
  C506     1.0000 0.77353  0.75232  0.75573  Biso   1.000  C
  H502     1.0000 0.75598  0.68450  0.69083  Biso   1.000  H
  C507     1.0000 0.89117  0.82078  0.80672  Biso   1.000  C
  H503     1.0000 0.87719  0.87471  0.86784  Biso   1.000  H
  H504     1.0000 0.68172  0.76020  0.78533  Biso   1.000  H
  C508     1.0000 0.88301  0.53302  0.91474  Biso   1.000  C
  C509     1.0000 0.98538  0.65518  0.87804  Biso   1.000  C
  C510     1.0000 0.85179  0.77598  0.76474  Biso   1.000  C
  C511     1.0000 0.97262  0.83950  0.81952  Biso   1.000  C
  H505     1.0000 0.88739  0.50753  0.88602  Biso   1.000  H
  H506     1.0000 0.98507  0.62539  0.85023  Biso   1.000  H
  N55      1.0000 0.03351  0.72818  0.87662  Biso   1.000  N
  H507     1.0000 0.87850  0.76138  0.74183  Biso   1.000  H
  N56      1.0000 0.00712  0.81030  0.79584  Biso   1.000  N
  H508     1.0000 0.99878  0.87418  0.84622  Biso   1.000  H
  C512     1.0000 0.08501  0.75950  0.83342  Biso   1.000  C
  C513     1.0000 0.08629  0.83150  0.81295  Biso   1.000  C
  C514     1.0000 0.08629  0.83150  0.81291  Biso   1.000  C
  H509     1.0000 0.06542  0.71941  0.80653  Biso   1.000  H
  C515     1.0000 0.16861  0.77792  0.84832  Biso   1.000  C
  C516     1.0000 0.14278  0.86729  0.76814  Biso   1.000  C
  H510     1.0000 0.10232  0.87059  0.84022  Biso   1.000  H
  H511     1.0000 0.18751  0.81460  0.87674  Biso   1.000  H
  H512     1.0000 0.16699  0.72983  0.85913  Biso   1.000  H
  C517     1.0000 0.22458  0.81319  0.80332  Biso   1.000  C
  C518     1.0000 0.22578  0.88401  0.78384  Biso   1.000  C
  H513     1.0000 0.14530  0.91598  0.75764  Biso   1.000  H
  H514     1.0000 0.12402  0.83120  0.73934  Biso   1.000  H
  H515     1.0000 0.27724  0.82673  0.81402  Biso   1.000  H
  H516     1.0000 0.20851  0.77451  0.77624  Biso   1.000  H
  H517     1.0000 0.26049  0.90367  0.75443  Biso   1.000  H
  H518     1.0000 0.24659  0.92451  0.80993  Biso   1.000  H
  C519     1.0000 0.06278  0.51671  0.26058  Biso   1.000  C
  C520     1.0000 0.05431  0.44042  0.24110  Biso   1.000  C
  C521     1.0000 0.00562  0.50129  0.30451  Biso   1.000  C
  H519     1.0000 0.05243  0.54332  0.23312  Biso   1.000  H
  H520     1.0000 0.11627  0.55068  0.27231  Biso   1.000  H
  C522     1.0000 0.06373  0.39532  0.28289  Biso   1.000  C
  H521     1.0000 0.00280  0.40910  0.22559  Biso   1.000  H
  H522     1.0000 0.09380  0.45160  0.21509  Biso   1.000  H
  C523     1.0000 0.01592  0.45502  0.34740  Biso   1.000  C
  H523     1.0000 0.01421  0.55121  0.31769  Biso   1.000  H
  H524     1.0000 0.95202  0.47221  0.29179  Biso   1.000  H
  C524     1.0000 0.00719  0.37831  0.32681  Biso   1.000  C
  H525     1.0000 0.11721  0.42470  0.29580  Biso   1.000  H
  H526     1.0000 0.05590  0.34593  0.26940  Biso   1.000  H
  H527     1.0000 0.06867  0.48657  0.36199  Biso   1.000  H
  N57      1.0000 0.95822  0.43912  0.38697  Biso   1.000  N
  N58      1.0000 0.02220  0.33869  0.36864  Biso   1.000  N
  H528     1.0000 0.95322  0.34481  0.31459  Biso   1.000  H
  C525     1.0000 0.98371  0.45402  0.43209  Biso   1.000  C
  C526     1.0000 0.97221  0.26969  0.37869  Biso   1.000  C
  H529     1.0000 0.03681  0.47232  0.43789  Biso   1.000  H
  C527     1.0000 0.93201  0.44330  0.47632  Biso   1.000  C
  C528     1.0000 0.97879  0.22648  0.42238  Biso   1.000  C
  H530     1.0000 0.92853  0.24402  0.35749  Biso   1.000  H
  C529     1.0000 0.85319  0.41598  0.47208  Biso   1.000  C
  C530     1.0000 0.96701  0.46302  0.52452  Biso   1.000  C
  C531     1.0000 0.04139  0.26551  0.45710  Biso   1.000  C
  C532     1.0000 0.92420  0.14818  0.43140  Biso   1.000  C
  H531     1.0000 0.82989  0.40333  0.43988  Biso   1.000  H
  C533     1.0000 0.80699  0.40668  0.51451  Biso   1.000  C
  H532     1.0000 0.02098  0.48298  0.52769  Biso   1.000  H
  C534     1.0000 0.92191  0.45307  0.56803  Biso   1.000  C
  C535     1.0000 0.04829  0.22660  0.49828  Biso   1.000  C
  H533     1.0000 0.07850  0.31832  0.45199  Biso   1.000  H
  H534     1.0000 0.88292  0.12151  0.40848  Biso   1.000  H
  C536     1.0000 0.92959  0.10879  0.47341  Biso   1.000  C
  C537     1.0000 0.84342  0.42652  0.56261  Biso   1.000  C
  C538     1.0000 0.72183  0.37413  0.50848  Biso   1.000  C
  C539     1.0000 0.96123  0.47491  0.61921  Biso   1.000  C
  C540     1.0000 0.10868  0.27110  0.53881  Biso   1.000  C
  C541     1.0000 0.99261  0.14889  0.50630  Biso   1.000  C
  C542     1.0000 0.86690  0.02738  0.48621  Biso   1.000  C
  H535     1.0000 0.81340  0.42122  0.59129  Biso   1.000  H
  H536     1.0000 0.69950  0.35423  0.47681  Biso   1.000  H
  N59      1.0000 0.67769  0.37160  0.54362  Biso   1.000  N
  C543     1.0000 0.02748  0.47038  0.62903  Biso   1.000  C
  C544     1.0000 0.01599  0.54650  0.63189  Biso   1.000  C
  C545     1.0000 0.93203  0.42682  0.65768  Biso   1.000  C
  C546     1.0000 0.94589  0.51277  0.65493  Biso   1.000  C
  C547     1.0000 0.15329  0.24131  0.56039  Biso   1.000  C
  C548     1.0000 0.12350  0.34192  0.55508  Biso   1.000  C
  H537     1.0000 0.99752  0.12281  0.53449  Biso   1.000  H
  N60      1.0000 0.80321  0.99288  0.46249  Biso   1.000  N
  H538     1.0000 0.87537  0.00118  0.51291  Biso   1.000  H
  C549     1.0000 0.59300  0.33039  0.53419  Biso   1.000  C
  H539     1.0000 0.04629  0.45048  0.60393  Biso   1.000  H
  C550     1.0000 0.06799  0.49481  0.67563  Biso   1.000  C
  C551     1.0000 0.05411  0.56687  0.67838  Biso   1.000  C
  H540     1.0000 0.02991  0.58618  0.60791  Biso   1.000  H
  C552     1.0000 0.97249  0.44289  0.70428  Biso   1.000  C
  H541     1.0000 0.88341  0.38107  0.65428  Biso   1.000  H
  H542     1.0000 0.90858  0.52778  0.64862  Biso   1.000  H
  C553     1.0000 0.98402  0.53049  0.70141  Biso   1.000  C
  H543     1.0000 0.14899  0.19469  0.54840  Biso   1.000  H
  C554     1.0000 0.20423  0.28223  0.60023  Biso   1.000  C
  H544     1.0000 0.09899  0.36571  0.53831  Biso   1.000  H
  C555     1.0000 0.17239  0.38119  0.59484  Biso   1.000  C
  C556     1.0000 0.74521  0.91369  0.47960  Biso   1.000  C
  C557     1.0000 0.55208  0.27128  0.57689  Biso   1.000  C
  C558     1.0000 0.56182  0.38702  0.53159  Biso   1.000  C
  H545     1.0000 0.58224  0.30213  0.50168  Biso   1.000  H
  C559     1.0000 0.03880  0.51371  0.71413  Biso   1.000  C
  H546     1.0000 0.11660  0.49770  0.67903  Biso   1.000  H
  H547     1.0000 0.09139  0.61921  0.68468  Biso   1.000  H
  H548     1.0000 0.95371  0.40421  0.72941  Biso   1.000  H
  H549     1.0000 0.97009  0.55627  0.72544  Biso   1.000  H
  C560     1.0000 0.21159  0.34987  0.61971  Biso   1.000  C
  H550     1.0000 0.23449  0.26239  0.61413  Biso   1.000  H
  H551     1.0000 0.17912  0.42952  0.60512  Biso   1.000  H
  C561     1.0000 0.67448  0.91499  0.50011  Biso   1.000  C
  C562     1.0000 0.72450  0.85718  0.43480  Biso   1.000  C
  H552     1.0000 0.76831  0.89768  0.50691  Biso   1.000  H
  H553     1.0000 0.56381  0.29912  0.60970  Biso   1.000  H
  C563     1.0000 0.46330  0.22730  0.56818  Biso   1.000  C
  N61      1.0000 0.58053  0.21612  0.57788  Biso   1.000  N
  C564     1.0000 0.47422  0.34510  0.52441  Biso   1.000  C
  H554     1.0000 0.57533  0.41751  0.56291  Biso   1.000  H
  H555     1.0000 0.58699  0.42328  0.50351  Biso   1.000  H
  C565     1.0000 0.07808  0.53120  0.76528  Biso   1.000  C
  C566     1.0000 0.26130  0.39138  0.66574  Biso   1.000  C
  H556     1.0000 0.65400  0.93459  0.47319  Biso   1.000  H
  C567     1.0000 0.60928  0.83139  0.51501  Biso   1.000  C
  N62      1.0000 0.69468  0.96650  0.54328  Biso   1.000  N
  C568     1.0000 0.65820  0.77423  0.45050  Biso   1.000  C
  H557     1.0000 0.77068  0.85471  0.42429  Biso   1.000  H
  H558     1.0000 0.70720  0.87602  0.40600  Biso   1.000  H
  H559     1.0000 0.43753  0.18962  0.59549  Biso   1.000  H
  H560     1.0000 0.45138  0.19857  0.53621  Biso   1.000  H
  C569     1.0000 0.43190  0.28482  0.56658  Biso   1.000  C
  C570     1.0000 0.62569  0.22212  0.61490  Biso   1.000  C
  H561     1.0000 0.46091  0.31879  0.49148  Biso   1.000  H
  H562     1.0000 0.45652  0.38331  0.52441  Biso   1.000  H
  C571     1.0000 0.15661  0.58312  0.77074  Biso   1.000  C
  C572     1.0000 0.03300  0.49599  0.80882  Biso   1.000  C
  C573     1.0000 0.29457  0.47197  0.67105  Biso   1.000  C
  C574     1.0000 0.27291  0.34922  0.70313  Biso   1.000  C
  H563     1.0000 0.62711  0.81250  0.54339  Biso   1.000  H
  H564     1.0000 0.56282  0.83298  0.52578  Biso   1.000  H
  C575     1.0000 0.58858  0.77541  0.47002  Biso   1.000  C
  C576     1.0000 0.66979  0.01460  0.54469  Biso   1.000  C
  H565     1.0000 0.64317  0.73949  0.42108  Biso   1.000  H
  H566     1.0000 0.67791  0.75339  0.47659  Biso   1.000  H
  H567     1.0000 0.37569  0.25633  0.56001  Biso   1.000  H
  H568     1.0000 0.44082  0.31143  0.59920  Biso   1.000  H
  C577     1.0000 0.66071  0.17132  0.61921  Biso   1.000  C
  H569     1.0000 0.63679  0.25992  0.63988  Biso   1.000  H
  C578     1.0000 0.19300  0.59972  0.81883  Biso   1.000  C
  H570     1.0000 0.18658  0.60779  0.74202  Biso   1.000  H
  C579     1.0000 0.06798  0.51130  0.85699  Biso   1.000  C
  H571     1.0000 0.97900  0.46202  0.80561  Biso   1.000  H
  C580     1.0000 0.33932  0.51059  0.71413  Biso   1.000  C
  H572     1.0000 0.28720  0.50088  0.64565  Biso   1.000  H
  H573     1.0000 0.25142  0.29512  0.69912  Biso   1.000  H
  C581     1.0000 0.31698  0.38637  0.74763  Biso   1.000  C
  H574     1.0000 0.54947  0.72278  0.48071  Biso   1.000  H
  H575     1.0000 0.56597  0.79148  0.44290  Biso   1.000  H
  C582     1.0000 0.68302  0.06941  0.58571  Biso   1.000  C
  H576     1.0000 0.64031  0.01489  0.51688  Biso   1.000  H
  C583     1.0000 0.65000  0.11698  0.58140  Biso   1.000  C
  C584     1.0000 0.70539  0.17738  0.66230  Biso   1.000  C
  C585     1.0000 0.14681  0.56281  0.86123  Biso   1.000  C
  C586     1.0000 0.27822  0.65229  0.82483  Biso   1.000  C
  C587     1.0000 0.01629  0.47032  0.90122  Biso   1.000  C
  C588     1.0000 0.35001  0.46703  0.75191  Biso   1.000  C
  C589     1.0000 0.37433  0.59642  0.71841  Biso   1.000  C
  C590     1.0000 0.33020  0.34481  0.78862  Biso   1.000  C
  C591     1.0000 0.72710  0.07630  0.63021  Biso   1.000  C
  H577     1.0000 0.62009  0.11262  0.55271  Biso   1.000  H
  C592     1.0000 0.73870  0.13011  0.66761  Biso   1.000  C
  H578     1.0000 0.71280  0.21370  0.68770  Biso   1.000  H
  H579     1.0000 0.17010  0.57341  0.89343  Biso   1.000  H
  H580     1.0000 0.30048  0.65471  0.85653  Biso   1.000  H
  N63      1.0000 0.32233  0.69392  0.78972  Biso   1.000  N
  N64      1.0000 0.04183  0.48092  0.94637  Biso   1.000  N
  H581     1.0000 0.96317  0.43547  0.89542  Biso   1.000  H
  H582     1.0000 0.37989  0.49252  0.78063  Biso   1.000  H
  H583     1.0000 0.36319  0.62309  0.69343  Biso   1.000  H
  N65      1.0000 0.41950  0.63557  0.75542  Biso   1.000  N
  H584     1.0000 0.35968  0.37460  0.81642  Biso   1.000  H
  N66      1.0000 0.30532  0.27181  0.79003  Biso   1.000  N
  H585     1.0000 0.74857  0.04368  0.63419  Biso   1.000  H
  C593     1.0000 0.78838  0.13829  0.71360  Biso   1.000  C
  C594     1.0000 0.40700  0.73742  0.79912  Biso   1.000  C
  C595     1.0000 0.98412  0.43912  0.98594  Biso   1.000  C
  C596     1.0000 0.44789  0.71917  0.75642  Biso   1.000  C
  C597     1.0000 0.32551  0.24049  0.83323  Biso   1.000  C
  C598     1.0000 0.82762  0.20882  0.73850  Biso   1.000  C
  C599     1.0000 0.79581  0.07800  0.73308  Biso   1.000  C
  C600     1.0000 0.43819  0.82520  0.80172  Biso   1.000  C
  H586     1.0000 0.41781  0.71988  0.83163  Biso   1.000  H
  H587     1.0000 0.93130  0.41793  0.97131  Biso   1.000  H
  C601     1.0000 0.99279  0.37112  0.00653  Biso   1.000  C
  C602     1.0000 0.99441  0.49570  0.02884  Biso   1.000  C
  H588     1.0000 0.43622  0.73530  0.72364  Biso   1.000  H
  C603     1.0000 0.53667  0.76397  0.76513  Biso   1.000  C
  H589     1.0000 0.34601  0.28058  0.86012  Biso   1.000  H
  C604     1.0000 0.39071  0.22212  0.81833  Biso   1.000  C
  C605     1.0000 0.25479  0.16849  0.85374  Biso   1.000  C
  H590     1.0000 0.82087  0.25038  0.72819  Biso   1.000  H
  C606     1.0000 0.87652  0.21841  0.77823  Biso   1.000  C
  H591     1.0000 0.76551  0.02790  0.71921  Biso   1.000  H
  C607     1.0000 0.84670  0.08801  0.77292  Biso   1.000  C
  C608     1.0000 0.52578  0.87088  0.80894  Biso   1.000  C
  H592     1.0000 0.42473  0.84221  0.77044  Biso   1.000  H
  H593     1.0000 0.41301  0.83632  0.82983  Biso   1.000  H
  N67      1.0000 0.97781  0.31649  0.96467  Biso   1.000  N
  C609     1.0000 0.93633  0.33162  0.05042  Biso   1.000  C
  H594     1.0000 0.04683  0.39161  0.01872  Biso   1.000  H
  C610     1.0000 0.93721  0.45390  0.07273  Biso   1.000  C
  H595     1.0000 0.98581  0.53702  0.01562  Biso   1.000  H
  H596     1.0000 0.04800  0.52019  0.04152  Biso   1.000  H
  H597     1.0000 0.56249  0.75208  0.73782  Biso   1.000  H
  H598     1.0000 0.54857  0.74719  0.79714  Biso   1.000  H
  C611     1.0000 0.56810  0.85293  0.76673  Biso   1.000  C
  H599     1.0000 0.37290  0.18539  0.78992  Biso   1.000  H
  H600     1.0000 0.43719  0.27022  0.80752  Biso   1.000  H
  C612     1.0000 0.41139  0.18680  0.86333  Biso   1.000  C
  C613     1.0000 0.27548  0.13270  0.89851  Biso   1.000  C
  H601     1.0000 0.23172  0.12940  0.82643  Biso   1.000  H
  N68      1.0000 0.19681  0.18968  0.87082  Biso   1.000  N
  C614     1.0000 0.89130  0.16243  0.79454  Biso   1.000  C
  H602     1.0000 0.90101  0.26669  0.79503  Biso   1.000  H
  H603     1.0000 0.85098  0.04568  0.78491  Biso   1.000  H
  H604     1.0000 0.53906  0.85787  0.84183  Biso   1.000  H
  H605     1.0000 0.54350  0.92681  0.80894  Biso   1.000  H
  C615     1.0000 0.02780  0.29748  0.95462  Biso   1.000  C
  H606     1.0000 0.88281  0.30748  0.03751  Biso   1.000  H
  H607     1.0000 0.94412  0.29000  0.06394  Biso   1.000  H
  C616     1.0000 0.94566  0.38608  0.09221  Biso   1.000  C
  H608     1.0000 0.94762  0.49093  0.10023  Biso   1.000  H
  H609     1.0000 0.88372  0.43441  0.06104  Biso   1.000  H
  H610     1.0000 0.62430  0.88060  0.77334  Biso   1.000  H
  H611     1.0000 0.55919  0.87059  0.73411  Biso   1.000  H
  H612     1.0000 0.45053  0.17332  0.85264  Biso   1.000  H
  H613     1.0000 0.43399  0.22548  0.89041  Biso   1.000  H
  C617     1.0000 0.34177  0.11598  0.88281  Biso   1.000  C
  H614     1.0000 0.22932  0.08401  0.90901  Biso   1.000  H
  H615     1.0000 0.29281  0.16878  0.92731  Biso   1.000  H
  C618     1.0000 0.13311  0.16048  0.84714  Biso   1.000  C
  C619     1.0000 0.95171  0.17832  0.83503  Biso   1.000  C
  C620     1.0000 0.02120  0.24767  0.91092  Biso   1.000  C
  H616     1.0000 0.07148  0.31549  0.97582  Biso   1.000  H
  H617     1.0000 0.99719  0.40633  0.10772  Biso   1.000  H
  H618     1.0000 0.90620  0.35782  0.11822  Biso   1.000  H
  H619     1.0000 0.35681  0.09631  0.91222  Biso   1.000  H
  H620     1.0000 0.32207  0.07547  0.85672  Biso   1.000  H
  C621     1.0000 0.07038  0.17920  0.85993  Biso   1.000  C
  H621     1.0000 0.12459  0.12581  0.82044  Biso   1.000  H
  C622     1.0000 0.00739  0.15630  0.82704  Biso   1.000  C
  C623     1.0000 0.95860  0.22412  0.87624  Biso   1.000  C
  C624     1.0000 0.07580  0.22401  0.90191  Biso   1.000  C
  H622     1.0000 0.00248  0.12528  0.79882  Biso   1.000  H
  H623     1.0000 0.92151  0.23978  0.88132  Biso   1.000  H
  H624     1.0000 0.11711  0.23861  0.92483  Biso   1.000  H
  C625     1.0000 0.06278  0.51671  0.26058  Biso   1.000  C
  C626     1.0000 0.05431  0.44042  0.24110  Biso   1.000  C
  C627     1.0000 0.00562  0.50129  0.30451  Biso   1.000  C
  H625     1.0000 0.05243  0.54332  0.23312  Biso   1.000  H
  H626     1.0000 0.11627  0.55068  0.27231  Biso   1.000  H
  C628     1.0000 0.06373  0.39532  0.28289  Biso   1.000  C
  H627     1.0000 0.00280  0.40910  0.22559  Biso   1.000  H
  H628     1.0000 0.09380  0.45160  0.21509  Biso   1.000  H
  C629     1.0000 0.01592  0.45502  0.34740  Biso   1.000  C
  H629     1.0000 0.01421  0.55121  0.31769  Biso   1.000  H
  H630     1.0000 0.95202  0.47221  0.29179  Biso   1.000  H
  C630     1.0000 0.00719  0.37831  0.32681  Biso   1.000  C
  H631     1.0000 0.11721  0.42470  0.29580  Biso   1.000  H
  H632     1.0000 0.05590  0.34593  0.26940  Biso   1.000  H
  H633     1.0000 0.06867  0.48657  0.36199  Biso   1.000  H
  N69      1.0000 0.95822  0.43912  0.38697  Biso   1.000  N
  N70      1.0000 0.02220  0.33869  0.36864  Biso   1.000  N
  H634     1.0000 0.95322  0.34481  0.31459  Biso   1.000  H
  C631     1.0000 0.98371  0.45402  0.43209  Biso   1.000  C
  C632     1.0000 0.97221  0.26969  0.37869  Biso   1.000  C
  H635     1.0000 0.03681  0.47232  0.43789  Biso   1.000  H
  C633     1.0000 0.93201  0.44330  0.47632  Biso   1.000  C
  C634     1.0000 0.97879  0.22648  0.42238  Biso   1.000  C
  H636     1.0000 0.92853  0.24402  0.35749  Biso   1.000  H
  C635     1.0000 0.85319  0.41598  0.47208  Biso   1.000  C
  C636     1.0000 0.96701  0.46302  0.52452  Biso   1.000  C
  C637     1.0000 0.04139  0.26551  0.45710  Biso   1.000  C
  C638     1.0000 0.92420  0.14818  0.43140  Biso   1.000  C
  H637     1.0000 0.82989  0.40333  0.43988  Biso   1.000  H
  C639     1.0000 0.80699  0.40668  0.51451  Biso   1.000  C
  H638     1.0000 0.02098  0.48298  0.52769  Biso   1.000  H
  C640     1.0000 0.92191  0.45307  0.56803  Biso   1.000  C
  C641     1.0000 0.04829  0.22660  0.49828  Biso   1.000  C
  H639     1.0000 0.07850  0.31832  0.45199  Biso   1.000  H
  H640     1.0000 0.88292  0.12151  0.40848  Biso   1.000  H
  C642     1.0000 0.92959  0.10879  0.47341  Biso   1.000  C
  C643     1.0000 0.84342  0.42652  0.56261  Biso   1.000  C
  C644     1.0000 0.72183  0.37413  0.50848  Biso   1.000  C
  C645     1.0000 0.96123  0.47491  0.61921  Biso   1.000  C
  C646     1.0000 0.10868  0.27110  0.53881  Biso   1.000  C
  C647     1.0000 0.99261  0.14889  0.50630  Biso   1.000  C
  C648     1.0000 0.86690  0.02738  0.48621  Biso   1.000  C
  H641     1.0000 0.81340  0.42122  0.59129  Biso   1.000  H
  H642     1.0000 0.69950  0.35423  0.47681  Biso   1.000  H
  N71      1.0000 0.67769  0.37160  0.54362  Biso   1.000  N
  C649     1.0000 0.02748  0.47038  0.62903  Biso   1.000  C
  C650     1.0000 0.93203  0.42682  0.65768  Biso   1.000  C
  C651     1.0000 0.94589  0.51277  0.65493  Biso   1.000  C
  C652     1.0000 0.01599  0.54650  0.63189  Biso   1.000  C
  C653     1.0000 0.15329  0.24131  0.56039  Biso   1.000  C
  C654     1.0000 0.12350  0.34192  0.55508  Biso   1.000  C
  H643     1.0000 0.99752  0.12281  0.53449  Biso   1.000  H
  N72      1.0000 0.80321  0.99288  0.46249  Biso   1.000  N
  H644     1.0000 0.87537  0.00118  0.51291  Biso   1.000  H
  C655     1.0000 0.59300  0.33039  0.53419  Biso   1.000  C
  H645     1.0000 0.04629  0.45048  0.60393  Biso   1.000  H
  C656     1.0000 0.06799  0.49481  0.67563  Biso   1.000  C
  C657     1.0000 0.97249  0.44289  0.70428  Biso   1.000  C
  H646     1.0000 0.88341  0.38107  0.65428  Biso   1.000  H
  H647     1.0000 0.90858  0.52778  0.64862  Biso   1.000  H
  C658     1.0000 0.98402  0.53049  0.70141  Biso   1.000  C
  C659     1.0000 0.05411  0.56687  0.67838  Biso   1.000  C
  H648     1.0000 0.02991  0.58618  0.60791  Biso   1.000  H
  H649     1.0000 0.14899  0.19469  0.54840  Biso   1.000  H
  C660     1.0000 0.20423  0.28223  0.60023  Biso   1.000  C
  H650     1.0000 0.09899  0.36571  0.53831  Biso   1.000  H
  C661     1.0000 0.17239  0.38119  0.59484  Biso   1.000  C
  C662     1.0000 0.74521  0.91369  0.47960  Biso   1.000  C
  C663     1.0000 0.55208  0.27128  0.57689  Biso   1.000  C
  C664     1.0000 0.56182  0.38702  0.53159  Biso   1.000  C
  H651     1.0000 0.58224  0.30213  0.50168  Biso   1.000  H
  C665     1.0000 0.03880  0.51371  0.71413  Biso   1.000  C
  H652     1.0000 0.11660  0.49770  0.67903  Biso   1.000  H
  H653     1.0000 0.95371  0.40421  0.72941  Biso   1.000  H
  H654     1.0000 0.97009  0.55627  0.72544  Biso   1.000  H
  H655     1.0000 0.09139  0.61921  0.68468  Biso   1.000  H
  C666     1.0000 0.21159  0.34987  0.61971  Biso   1.000  C
  H656     1.0000 0.23449  0.26239  0.61413  Biso   1.000  H
  H657     1.0000 0.17912  0.42952  0.60512  Biso   1.000  H
  C667     1.0000 0.67448  0.91499  0.50011  Biso   1.000  C
  C668     1.0000 0.72450  0.85718  0.43480  Biso   1.000  C
  H658     1.0000 0.76831  0.89768  0.50691  Biso   1.000  H
  H659     1.0000 0.56381  0.29912  0.60970  Biso   1.000  H
  C669     1.0000 0.46330  0.22730  0.56818  Biso   1.000  C
  N73      1.0000 0.58053  0.21612  0.57788  Biso   1.000  N
  C670     1.0000 0.47422  0.34510  0.52441  Biso   1.000  C
  H660     1.0000 0.57533  0.41751  0.56291  Biso   1.000  H
  H661     1.0000 0.58699  0.42328  0.50351  Biso   1.000  H
  C671     1.0000 0.07808  0.53120  0.76528  Biso   1.000  C
  C672     1.0000 0.26130  0.39138  0.66574  Biso   1.000  C
  H662     1.0000 0.65400  0.93459  0.47319  Biso   1.000  H
  C673     1.0000 0.60928  0.83139  0.51501  Biso   1.000  C
  N74      1.0000 0.69468  0.96650  0.54328  Biso   1.000  N
  C674     1.0000 0.65820  0.77423  0.45050  Biso   1.000  C
  H663     1.0000 0.77068  0.85471  0.42429  Biso   1.000  H
  H664     1.0000 0.70720  0.87602  0.40600  Biso   1.000  H
  H665     1.0000 0.43753  0.18962  0.59549  Biso   1.000  H
  H666     1.0000 0.45138  0.19857  0.53621  Biso   1.000  H
  C675     1.0000 0.43190  0.28482  0.56658  Biso   1.000  C
  C676     1.0000 0.62569  0.22212  0.61490  Biso   1.000  C
  H667     1.0000 0.46091  0.31879  0.49148  Biso   1.000  H
  H668     1.0000 0.45652  0.38331  0.52441  Biso   1.000  H
  C677     1.0000 0.15661  0.58312  0.77074  Biso   1.000  C
  C678     1.0000 0.03300  0.49599  0.80882  Biso   1.000  C
  C679     1.0000 0.29457  0.47197  0.67105  Biso   1.000  C
  C680     1.0000 0.27291  0.34922  0.70313  Biso   1.000  C
  H669     1.0000 0.62711  0.81250  0.54339  Biso   1.000  H
  H670     1.0000 0.56282  0.83298  0.52578  Biso   1.000  H
  C681     1.0000 0.58858  0.77541  0.47002  Biso   1.000  C
  C682     1.0000 0.66979  0.01460  0.54469  Biso   1.000  C
  H671     1.0000 0.64317  0.73949  0.42108  Biso   1.000  H
  H672     1.0000 0.67791  0.75339  0.47659  Biso   1.000  H
  H673     1.0000 0.37569  0.25633  0.56001  Biso   1.000  H
  H674     1.0000 0.44082  0.31143  0.59920  Biso   1.000  H
  C683     1.0000 0.66071  0.17132  0.61921  Biso   1.000  C
  H675     1.0000 0.63679  0.25992  0.63988  Biso   1.000  H
  C684     1.0000 0.19300  0.59972  0.81883  Biso   1.000  C
  H676     1.0000 0.18658  0.60779  0.74202  Biso   1.000  H
  C685     1.0000 0.06798  0.51130  0.85699  Biso   1.000  C
  H677     1.0000 0.97900  0.46202  0.80561  Biso   1.000  H
  C686     1.0000 0.33932  0.51059  0.71413  Biso   1.000  C
  H678     1.0000 0.28720  0.50088  0.64565  Biso   1.000  H
  H679     1.0000 0.25142  0.29512  0.69912  Biso   1.000  H
  C687     1.0000 0.31698  0.38637  0.74763  Biso   1.000  C
  H680     1.0000 0.54947  0.72278  0.48071  Biso   1.000  H
  H681     1.0000 0.56597  0.79148  0.44290  Biso   1.000  H
  C688     1.0000 0.68302  0.06941  0.58571  Biso   1.000  C
  H682     1.0000 0.64031  0.01489  0.51688  Biso   1.000  H
  C689     1.0000 0.65000  0.11698  0.58140  Biso   1.000  C
  C690     1.0000 0.70539  0.17738  0.66230  Biso   1.000  C
  C691     1.0000 0.14681  0.56281  0.86123  Biso   1.000  C
  C692     1.0000 0.27822  0.65229  0.82483  Biso   1.000  C
  C693     1.0000 0.01629  0.47032  0.90122  Biso   1.000  C
  C694     1.0000 0.35001  0.46703  0.75191  Biso   1.000  C
  C695     1.0000 0.37433  0.59642  0.71841  Biso   1.000  C
  C696     1.0000 0.33020  0.34481  0.78862  Biso   1.000  C
  C697     1.0000 0.72710  0.07630  0.63021  Biso   1.000  C
  H683     1.0000 0.62009  0.11262  0.55271  Biso   1.000  H
  C698     1.0000 0.73870  0.13011  0.66761  Biso   1.000  C
  H684     1.0000 0.71280  0.21370  0.68770  Biso   1.000  H
  H685     1.0000 0.17010  0.57341  0.89343  Biso   1.000  H
  H686     1.0000 0.30048  0.65471  0.85653  Biso   1.000  H
  N75      1.0000 0.32233  0.69392  0.78972  Biso   1.000  N
  N76      1.0000 0.04183  0.48092  0.94637  Biso   1.000  N
  H687     1.0000 0.96317  0.43547  0.89542  Biso   1.000  H
  H688     1.0000 0.37989  0.49252  0.78063  Biso   1.000  H
  H689     1.0000 0.36319  0.62309  0.69343  Biso   1.000  H
  N77      1.0000 0.41950  0.63557  0.75542  Biso   1.000  N
  H690     1.0000 0.35968  0.37460  0.81642  Biso   1.000  H
  N78      1.0000 0.30532  0.27181  0.79003  Biso   1.000  N
  H691     1.0000 0.74857  0.04368  0.63419  Biso   1.000  H
  C699     1.0000 0.78838  0.13829  0.71360  Biso   1.000  C
  C700     1.0000 0.40700  0.73742  0.79912  Biso   1.000  C
  C701     1.0000 0.98412  0.43912  0.98594  Biso   1.000  C
  C702     1.0000 0.44789  0.71917  0.75642  Biso   1.000  C
  C703     1.0000 0.32551  0.24049  0.83323  Biso   1.000  C
  C704     1.0000 0.82762  0.20882  0.73850  Biso   1.000  C
  C705     1.0000 0.79581  0.07800  0.73308  Biso   1.000  C
  C706     1.0000 0.43819  0.82520  0.80172  Biso   1.000  C
  H692     1.0000 0.41781  0.71988  0.83163  Biso   1.000  H
  H693     1.0000 0.93130  0.41793  0.97131  Biso   1.000  H
  C707     1.0000 0.99279  0.37112  0.00653  Biso   1.000  C
  C708     1.0000 0.99441  0.49570  0.02884  Biso   1.000  C
  H694     1.0000 0.43622  0.73530  0.72364  Biso   1.000  H
  C709     1.0000 0.53667  0.76397  0.76513  Biso   1.000  C
  H695     1.0000 0.34601  0.28058  0.86012  Biso   1.000  H
  C710     1.0000 0.39071  0.22212  0.81833  Biso   1.000  C
  C711     1.0000 0.25479  0.16849  0.85374  Biso   1.000  C
  H696     1.0000 0.82087  0.25038  0.72819  Biso   1.000  H
  C712     1.0000 0.87652  0.21841  0.77823  Biso   1.000  C
  H697     1.0000 0.76551  0.02790  0.71921  Biso   1.000  H
  C713     1.0000 0.84670  0.08801  0.77292  Biso   1.000  C
  C714     1.0000 0.52578  0.87088  0.80894  Biso   1.000  C
  H698     1.0000 0.42473  0.84221  0.77044  Biso   1.000  H
  H699     1.0000 0.41301  0.83632  0.82983  Biso   1.000  H
  N79      1.0000 0.97781  0.31649  0.96467  Biso   1.000  N
  C715     1.0000 0.93633  0.33162  0.05042  Biso   1.000  C
  H700     1.0000 0.04683  0.39161  0.01872  Biso   1.000  H
  C716     1.0000 0.93721  0.45390  0.07273  Biso   1.000  C
  H701     1.0000 0.98581  0.53702  0.01562  Biso   1.000  H
  H702     1.0000 0.04800  0.52019  0.04152  Biso   1.000  H
  H703     1.0000 0.56249  0.75208  0.73782  Biso   1.000  H
  H704     1.0000 0.54857  0.74719  0.79714  Biso   1.000  H
  C717     1.0000 0.56810  0.85293  0.76673  Biso   1.000  C
  H705     1.0000 0.37290  0.18539  0.78992  Biso   1.000  H
  H706     1.0000 0.43719  0.27022  0.80752  Biso   1.000  H
  C718     1.0000 0.41139  0.18680  0.86333  Biso   1.000  C
  C719     1.0000 0.27548  0.13270  0.89851  Biso   1.000  C
  H707     1.0000 0.23172  0.12940  0.82643  Biso   1.000  H
  N80      1.0000 0.19681  0.18968  0.87082  Biso   1.000  N
  C720     1.0000 0.89130  0.16243  0.79454  Biso   1.000  C
  H708     1.0000 0.90101  0.26669  0.79503  Biso   1.000  H
  H709     1.0000 0.85098  0.04568  0.78491  Biso   1.000  H
  H710     1.0000 0.53906  0.85787  0.84183  Biso   1.000  H
  H711     1.0000 0.54350  0.92681  0.80894  Biso   1.000  H
  C721     1.0000 0.02780  0.29748  0.95462  Biso   1.000  C
  H712     1.0000 0.88281  0.30748  0.03751  Biso   1.000  H
  H713     1.0000 0.94412  0.29000  0.06394  Biso   1.000  H
  C722     1.0000 0.94566  0.38608  0.09221  Biso   1.000  C
  H714     1.0000 0.94762  0.49093  0.10023  Biso   1.000  H
  H715     1.0000 0.88372  0.43441  0.06104  Biso   1.000  H
  H716     1.0000 0.62430  0.88060  0.77334  Biso   1.000  H
  H717     1.0000 0.55919  0.87059  0.73411  Biso   1.000  H
  H718     1.0000 0.45053  0.17332  0.85264  Biso   1.000  H
  H719     1.0000 0.43399  0.22548  0.89041  Biso   1.000  H
  C723     1.0000 0.34177  0.11598  0.88281  Biso   1.000  C
  H720     1.0000 0.22932  0.08401  0.90901  Biso   1.000  H
  H721     1.0000 0.29281  0.16878  0.92731  Biso   1.000  H
  C724     1.0000 0.13311  0.16048  0.84714  Biso   1.000  C
  C725     1.0000 0.95171  0.17832  0.83503  Biso   1.000  C
  C726     1.0000 0.02120  0.24767  0.91092  Biso   1.000  C
  H722     1.0000 0.07148  0.31549  0.97582  Biso   1.000  H
  H723     1.0000 0.99719  0.40633  0.10772  Biso   1.000  H
  H724     1.0000 0.90620  0.35782  0.11822  Biso   1.000  H
  H725     1.0000 0.35681  0.09631  0.91222  Biso   1.000  H
  H726     1.0000 0.32207  0.07547  0.85672  Biso   1.000  H
  C727     1.0000 0.07038  0.17920  0.85993  Biso   1.000  C
  H727     1.0000 0.12459  0.12581  0.82044  Biso   1.000  H
  C728     1.0000 0.00739  0.15630  0.82704  Biso   1.000  C
  C729     1.0000 0.95860  0.22412  0.87624  Biso   1.000  C
  C730     1.0000 0.07580  0.22401  0.90191  Biso   1.000  C
  H728     1.0000 0.00248  0.12528  0.79882  Biso   1.000  H
  H729     1.0000 0.92151  0.23978  0.88132  Biso   1.000  H
  H730     1.0000 0.11711  0.23861  0.92483  Biso   1.000  H
