data_image0
_cell_length_a       22.26
_cell_length_b       22.26
_cell_length_c       42.35
_cell_angle_alpha    90
_cell_angle_beta     90
_cell_angle_gamma    120

_symmetry_space_group_name_H-M    "P 1"
_symmetry_int_tables_number       1

loop_
  _symmetry_equiv_pos_as_xyz
  'x, y, z'

loop_
  _atom_site_label
  _atom_site_occupancy
  _atom_site_fract_x
  _atom_site_fract_y
  _atom_site_fract_z
  _atom_site_thermal_displace_type
  _atom_site_B_iso_or_equiv
  _atom_site_type_symbol
  C1       1.0000 0.51931  0.18840  0.48878  Biso   1.000  C
  C2       1.0000 0.51969  0.17658  0.45450  Biso   1.000  C
  C3       1.0000 0.52193  0.19292  0.51667  Biso   1.000  C
  C4       1.0000 0.48892  0.20210  0.43424  Biso   1.000  C
  C5       1.0000 0.55600  0.14218  0.44444  Biso   1.000  C
  C6       1.0000 0.52481  0.19338  0.55060  Biso   1.000  C
  C7       1.0000 0.49127  0.19198  0.40123  Biso   1.000  C
  H1       1.0000 0.46710  0.22539  0.44210  Biso   1.000  H
  C8       1.0000 0.56041  0.13160  0.41192  Biso   1.000  C
  H2       1.0000 0.57648  0.12699  0.45910  Biso   1.000  H
  C9       1.0000 0.52612  0.13741  0.56560  Biso   1.000  C
  C10      1.0000 0.46900  0.19380  0.56630  Biso   1.000  C
  C11      1.0000 0.52440  0.24619  0.56770  Biso   1.000  C
  C12      1.0000 0.57789  0.19198  0.56720  Biso   1.000  C
  C13      1.0000 0.45630  0.21538  0.37877  Biso   1.000  C
  C14      1.0000 0.52811  0.15811  0.39157  Biso   1.000  C
  C15      1.0000 0.59960  0.09560  0.40260  Biso   1.000  C
  H3       1.0000 0.52639  0.10229  0.55370  Biso   1.000  H
  C16      1.0000 0.52712  0.13565  0.60038  Biso   1.000  C
  H4       1.0000 0.43328  0.19468  0.55540  Biso   1.000  H
  C17      1.0000 0.47073  0.19276  0.60106  Biso   1.000  C
  H5       1.0000 0.52351  0.28250  0.55731  Biso   1.000  H
  C18      1.0000 0.52535  0.24458  0.59946  Biso   1.000  C
  H6       1.0000 0.61368  0.19178  0.55589  Biso   1.000  H
  C19      1.0000 0.57953  0.19105  0.59896  Biso   1.000  C
  N1       1.0000 0.41331  0.23831  0.38463  Biso   1.000  N
  H7       1.0000 0.46611  0.21361  0.35759  Biso   1.000  H
  H8       1.0000 0.53139  0.15272  0.37001  Biso   1.000  H
  N2       1.0000 0.61161  0.08808  0.37332  Biso   1.000  N
  H9       1.0000 0.61570  0.07812  0.41830  Biso   1.000  H
  C20      1.0000 0.52673  0.19146  0.61606  Biso   1.000  C
  H10      1.0000 0.52801  0.09996  0.61126  Biso   1.000  H
  H11      1.0000 0.43562  0.19307  0.61296  Biso   1.000  H
  H12      1.0000 0.52514  0.28038  0.61077  Biso   1.000  H
  H13      1.0000 0.61584  0.19017  0.60937  Biso   1.000  H
  C21      1.0000 0.38599  0.26471  0.36007  Biso   1.000  C
  C22      1.0000 0.65992  0.05820  0.36697  Biso   1.000  C
  C23      1.0000 0.52622  0.18856  0.64999  Biso   1.000  C
  C24      1.0000 0.30580  0.21330  0.35320  Biso   1.000  C
  H14      1.0000 0.41100  0.26782  0.34059  Biso   1.000  H
  C25      1.0000 0.39830  0.34008  0.36697  Biso   1.000  C
  C26      1.0000 0.73530  0.12128  0.36007  Biso   1.000  C
  C27      1.0000 0.63239  0.00342  0.34090  Biso   1.000  C
  H15      1.0000 0.66242  0.03579  0.38640  Biso   1.000  H
  C28      1.0000 0.52173  0.18597  0.67790  Biso   1.000  C
  C29      1.0000 0.27609  0.24131  0.32739  Biso   1.000  C
  H16      1.0000 0.27980  0.20578  0.37261  Biso   1.000  H
  H17      1.0000 0.29949  0.16880  0.34640  Biso   1.000  H
  C30      1.0000 0.37098  0.36757  0.34090  Biso   1.000  C
  N3       1.0000 0.47649  0.38838  0.37332  Biso   1.000  N
  H18      1.0000 0.37338  0.33759  0.38640  Biso   1.000  H
  N4       1.0000 0.76172  0.17502  0.38463  Biso   1.000  N
  H19      1.0000 0.73221  0.14322  0.34059  Biso   1.000  H
  C31      1.0000 0.78668  0.09249  0.35320  Biso   1.000  C
  H20      1.0000 0.62590  0.02350  0.32179  Biso   1.000  H
  C32      1.0000 0.68301  0.97401  0.33360  Biso   1.000  C
  H21      1.0000 0.58751  0.96540  0.34720  Biso   1.000  H
  C33      1.0000 0.50995  0.18638  0.71216  Biso   1.000  C
  H22      1.0000 0.29571  0.24012  0.30720  Biso   1.000  H
  H23      1.0000 0.22632  0.21050  0.32609  Biso   1.000  H
  C34      1.0000 0.29098  0.31700  0.33360  Biso   1.000  C
  H24      1.0000 0.37790  0.41250  0.34720  Biso   1.000  H
  H25      1.0000 0.39761  0.37411  0.32179  Biso   1.000  H
  C35      1.0000 0.49603  0.40041  0.40260  Biso   1.000  C
  C36      1.0000 0.78460  0.24090  0.37877  Biso   1.000  C
  H26      1.0000 0.79420  0.07402  0.37261  Biso   1.000  H
  H27      1.0000 0.83122  0.13072  0.34640  Biso   1.000  H
  C37      1.0000 0.75869  0.03481  0.32739  Biso   1.000  C
  H28      1.0000 0.66638  0.94408  0.31521  Biso   1.000  H
  H29      1.0000 0.68310  0.94652  0.35140  Biso   1.000  H
  C38      1.0000 0.47554  0.22269  0.72224  Biso   1.000  C
  C39      1.0000 0.53542  0.15557  0.73242  Biso   1.000  C
  H30      1.0000 0.27772  0.33360  0.31521  Biso   1.000  H
  H31      1.0000 0.26339  0.31689  0.35140  Biso   1.000  H
  H32      1.0000 0.46240  0.38428  0.41830  Biso   1.000  H
  C40      1.0000 0.57118  0.43957  0.41192  Biso   1.000  C
  H33      1.0000 0.78641  0.25252  0.35759  Biso   1.000  H
  C41      1.0000 0.80801  0.29931  0.40123  Biso   1.000  C
  H34      1.0000 0.75992  0.05561  0.30720  Biso   1.000  H
  H35      1.0000 0.78949  0.01582  0.32609  Biso   1.000  H
  C42      1.0000 0.46492  0.22705  0.75473  Biso   1.000  C
  H36      1.0000 0.46036  0.24318  0.70756  Biso   1.000  H
  C43      1.0000 0.52534  0.15795  0.76545  Biso   1.000  C
  H37      1.0000 0.55876  0.13378  0.72456  Biso   1.000  H
  C44      1.0000 0.58619  0.44398  0.44444  Biso   1.000  C
  C45      1.0000 0.63002  0.47189  0.39157  Biso   1.000  C
  C46      1.0000 0.84192  0.37001  0.39157  Biso   1.000  C
  C47      1.0000 0.79790  0.28681  0.43424  Biso   1.000  C
  C48      1.0000 0.42896  0.26627  0.76406  Biso   1.000  C
  C49      1.0000 0.49146  0.19478  0.77509  Biso   1.000  C
  C50      1.0000 0.54874  0.12299  0.78789  Biso   1.000  C
  H38      1.0000 0.55052  0.42349  0.45910  Biso   1.000  H
  C51      1.0000 0.65690  0.48030  0.45450  Biso   1.000  C
  C52      1.0000 0.70072  0.50872  0.40123  Biso   1.000  C
  H39      1.0000 0.62133  0.46862  0.37001  Biso   1.000  H
  C53      1.0000 0.86839  0.42879  0.41192  Biso   1.000  C
  H40      1.0000 0.84729  0.37868  0.37001  Biso   1.000  H
  H41      1.0000 0.77457  0.24168  0.44210  Biso   1.000  H
  C54      1.0000 0.82339  0.34309  0.45450  Biso   1.000  C
  N5       1.0000 0.42142  0.27825  0.79334  Biso   1.000  N
  H42      1.0000 0.41143  0.28235  0.74836  Biso   1.000  H
  H43      1.0000 0.48604  0.19805  0.79667  Biso   1.000  H
  N6       1.0000 0.57167  0.07999  0.78203  Biso   1.000  N
  H44      1.0000 0.54692  0.13274  0.80907  Biso   1.000  H
  C55      1.0000 0.66911  0.48071  0.48878  Biso   1.000  C
  C56      1.0000 0.71319  0.51111  0.43424  Biso   1.000  C
  C57      1.0000 0.75908  0.54368  0.37877  Biso   1.000  C
  C58      1.0000 0.90438  0.50400  0.40260  Biso   1.000  C
  C59      1.0000 0.85780  0.41379  0.44444  Biso   1.000  C
  C60      1.0000 0.81159  0.33090  0.48878  Biso   1.000  C
  C61      1.0000 0.39153  0.32654  0.79969  Biso   1.000  C
  C62      1.0000 0.59802  0.05265  0.80659  Biso   1.000  C
  C63      1.0000 0.67100  0.47812  0.51667  Biso   1.000  C
  H45      1.0000 0.75832  0.53289  0.44210  Biso   1.000  H
  N7       1.0000 0.82501  0.58669  0.38463  Biso   1.000  N
  H46      1.0000 0.74749  0.53388  0.35759  Biso   1.000  H
  N8       1.0000 0.91189  0.52351  0.37332  Biso   1.000  N
  H47      1.0000 0.92191  0.53762  0.41830  Biso   1.000  H
  H48      1.0000 0.87299  0.44948  0.45910  Biso   1.000  H
  C64      1.0000 0.80708  0.32898  0.51667  Biso   1.000  C
  C65      1.0000 0.45462  0.40197  0.80659  Biso   1.000  C
  C66      1.0000 0.33672  0.29905  0.82576  Biso   1.000  C
  H49      1.0000 0.36912  0.32908  0.78026  Biso   1.000  H
  H50      1.0000 0.60114  0.07765  0.82607  Biso   1.000  H
  C67      1.0000 0.67344  0.06495  0.79969  Biso   1.000  C
  C68      1.0000 0.54665  0.97246  0.81346  Biso   1.000  C
  C69      1.0000 0.66860  0.47521  0.55060  Biso   1.000  C
  C70      1.0000 0.87871  0.61402  0.36007  Biso   1.000  C
  C71      1.0000 0.94181  0.60168  0.36697  Biso   1.000  C
  C72      1.0000 0.80659  0.33142  0.55060  Biso   1.000  C
  N9       1.0000 0.50834  0.42837  0.78203  Biso   1.000  N
  H51      1.0000 0.47652  0.39885  0.82607  Biso   1.000  H
  C73      1.0000 0.42583  0.45337  0.81346  Biso   1.000  C
  C74      1.0000 0.30732  0.34968  0.83306  Biso   1.000  C
  H52      1.0000 0.29874  0.25418  0.81946  Biso   1.000  H
  H53      1.0000 0.35684  0.29257  0.84486  Biso   1.000  H
  N10      1.0000 0.72172  0.14317  0.79334  Biso   1.000  N
  C75      1.0000 0.70095  0.03766  0.82576  Biso   1.000  C
  H54      1.0000 0.67092  0.04005  0.78026  Biso   1.000  H
  H55      1.0000 0.53914  0.94647  0.79407  Biso   1.000  H
  H56      1.0000 0.50214  0.96618  0.82026  Biso   1.000  H
  C76      1.0000 0.57463  0.94278  0.83927  Biso   1.000  C
  C77      1.0000 0.61131  0.47391  0.56560  Biso   1.000  C
  C78      1.0000 0.72479  0.53098  0.56630  Biso   1.000  C
  C79      1.0000 0.72179  0.47557  0.56770  Biso   1.000  C
  C80      1.0000 0.61410  0.42209  0.56720  Biso   1.000  C
  H57      1.0000 0.85682  0.58902  0.34059  Biso   1.000  H
  C81      1.0000 0.90753  0.69422  0.35320  Biso   1.000  C
  C82      1.0000 0.99663  0.62902  0.34090  Biso   1.000  C
  H58      1.0000 0.96419  0.62658  0.38640  Biso   1.000  H
  C83      1.0000 0.86258  0.38869  0.56560  Biso   1.000  C
  C84      1.0000 0.80619  0.27519  0.56630  Biso   1.000  C
  C85      1.0000 0.75379  0.27820  0.56770  Biso   1.000  C
  C86      1.0000 0.80799  0.38589  0.56720  Biso   1.000  C
  C87      1.0000 0.57423  0.45125  0.78789  Biso   1.000  C
  H59      1.0000 0.40733  0.46084  0.79407  Biso   1.000  H
  H60      1.0000 0.46403  0.49788  0.82026  Biso   1.000  H
  C88      1.0000 0.36812  0.42536  0.83927  Biso   1.000  C
  H61      1.0000 0.27746  0.33308  0.85148  Biso   1.000  H
  H62      1.0000 0.27983  0.34978  0.81528  Biso   1.000  H
  C89      1.0000 0.73372  0.16267  0.76406  Biso   1.000  C
  H63      1.0000 0.74582  0.04456  0.81946  Biso   1.000  H
  H64      1.0000 0.70743  0.06427  0.84486  Biso   1.000  H
  C90      1.0000 0.65035  0.95767  0.83306  Biso   1.000  C
  H65      1.0000 0.57342  0.96239  0.85946  Biso   1.000  H
  H66      1.0000 0.54384  0.89299  0.84057  Biso   1.000  H
  H67      1.0000 0.57589  0.47360  0.55370  Biso   1.000  H
  C91      1.0000 0.60854  0.47288  0.60038  Biso   1.000  C
  H68      1.0000 0.76139  0.56672  0.55540  Biso   1.000  H
  C92      1.0000 0.72204  0.52926  0.60106  Biso   1.000  C
  H69      1.0000 0.75901  0.47651  0.55731  Biso   1.000  H
  C93      1.0000 0.71922  0.47464  0.59946  Biso   1.000  C
  H70      1.0000 0.57810  0.38630  0.55589  Biso   1.000  H
  C94      1.0000 0.61155  0.42049  0.59896  Biso   1.000  C
  H71      1.0000 0.92601  0.72021  0.37261  Biso   1.000  H
  H72      1.0000 0.86930  0.70050  0.34640  Biso   1.000  H
  C95      1.0000 0.96518  0.72389  0.32739  Biso   1.000  C
  C96      1.0000 0.02602  0.70900  0.33360  Biso   1.000  C
  H73      1.0000 0.97649  0.60241  0.32179  Biso   1.000  H
  H74      1.0000 0.03460  0.62212  0.34720  Biso   1.000  H
  H75      1.0000 0.89773  0.42412  0.55370  Biso   1.000  H
  C97      1.0000 0.86434  0.39149  0.60038  Biso   1.000  C
  H76      1.0000 0.80529  0.23862  0.55540  Biso   1.000  H
  C98      1.0000 0.80723  0.27799  0.60106  Biso   1.000  C
  H77      1.0000 0.71749  0.24100  0.55731  Biso   1.000  H
  C99      1.0000 0.75544  0.28079  0.59946  Biso   1.000  C
  H78      1.0000 0.80820  0.42189  0.55589  Biso   1.000  H
  C100     1.0000 0.80893  0.38848  0.59896  Biso   1.000  C
  C101     1.0000 0.63260  0.47464  0.76545  Biso   1.000  C
  H79      1.0000 0.58583  0.45306  0.80907  Biso   1.000  H
  H80      1.0000 0.38893  0.42655  0.85946  Biso   1.000  H
  H81      1.0000 0.34916  0.45617  0.84057  Biso   1.000  H
  H82      1.0000 0.71763  0.12906  0.74836  Biso   1.000  H
  C102     1.0000 0.77294  0.23789  0.75473  Biso   1.000  C
  H83      1.0000 0.66694  0.94439  0.85148  Biso   1.000  H
  H84      1.0000 0.65026  0.93007  0.81528  Biso   1.000  H
  C103     1.0000 0.66477  0.47329  0.61606  Biso   1.000  C
  H85      1.0000 0.57191  0.47194  0.61126  Biso   1.000  H
  H86      1.0000 0.75744  0.56438  0.61296  Biso   1.000  H
  H87      1.0000 0.75521  0.47485  0.61077  Biso   1.000  H
  H88      1.0000 0.57434  0.38417  0.60937  Biso   1.000  H
  H89      1.0000 0.94437  0.70428  0.30720  Biso   1.000  H
  H90      1.0000 0.98419  0.77369  0.32609  Biso   1.000  H
  H91      1.0000 0.05589  0.72228  0.31521  Biso   1.000  H
  H92      1.0000 0.05352  0.73660  0.35140  Biso   1.000  H
  C104     1.0000 0.80851  0.33526  0.61606  Biso   1.000  C
  H93      1.0000 0.90001  0.42806  0.61126  Biso   1.000  H
  H94      1.0000 0.80695  0.24256  0.61296  Biso   1.000  H
  H95      1.0000 0.71965  0.24479  0.61077  Biso   1.000  H
  H96      1.0000 0.80983  0.42567  0.60937  Biso   1.000  H
  C105     1.0000 0.62016  0.46458  0.73242  Biso   1.000  C
  C106     1.0000 0.70334  0.50857  0.77509  Biso   1.000  C
  C107     1.0000 0.77734  0.25288  0.72224  Biso   1.000  C
  C108     1.0000 0.80525  0.29666  0.77509  Biso   1.000  C
  C109     1.0000 0.66235  0.47376  0.64999  Biso   1.000  C
  C110     1.0000 0.81141  0.33764  0.64999  Biso   1.000  C
  C111     1.0000 0.67643  0.49005  0.71216  Biso   1.000  C
  H97      1.0000 0.57505  0.44129  0.72456  Biso   1.000  H
  C112     1.0000 0.76215  0.53507  0.75473  Biso   1.000  C
  H98      1.0000 0.71201  0.51396  0.79667  Biso   1.000  H
  C113     1.0000 0.81363  0.32359  0.71216  Biso   1.000  C
  H99      1.0000 0.75682  0.21714  0.70756  Biso   1.000  H
  C114     1.0000 0.84204  0.36737  0.76545  Biso   1.000  C
  H100     1.0000 0.80193  0.28795  0.79667  Biso   1.000  H
  C115     1.0000 0.66425  0.47827  0.67790  Biso   1.000  C
  C116     1.0000 0.81402  0.33578  0.67790  Biso   1.000  C
  C117     1.0000 0.74715  0.52449  0.72224  Biso   1.000  C
  C118     1.0000 0.83733  0.57107  0.76406  Biso   1.000  C
  C119     1.0000 0.84443  0.37987  0.73242  Biso   1.000  C
  C120     1.0000 0.87704  0.42578  0.78789  Biso   1.000  C
  H101     1.0000 0.78283  0.53969  0.70756  Biso   1.000  H
  N11      1.0000 0.85684  0.57854  0.79334  Biso   1.000  N
  H102     1.0000 0.87092  0.58855  0.74836  Biso   1.000  H
  H103     1.0000 0.86620  0.42495  0.72456  Biso   1.000  H
  N12      1.0000 0.92004  0.49166  0.78203  Biso   1.000  N
  H104     1.0000 0.86723  0.41416  0.80907  Biso   1.000  H
  C121     1.0000 0.93505  0.60847  0.79969  Biso   1.000  C
  C122     1.0000 0.94734  0.54534  0.80659  Biso   1.000  C
  C123     1.0000 0.96231  0.66325  0.82576  Biso   1.000  C
  H105     1.0000 0.95996  0.63088  0.78026  Biso   1.000  H
  H106     1.0000 0.92233  0.52345  0.82607  Biso   1.000  H
  C124     1.0000 0.02752  0.57419  0.81346  Biso   1.000  C
  H107     1.0000 0.95544  0.70128  0.81946  Biso   1.000  H
  H108     1.0000 0.93574  0.64318  0.84486  Biso   1.000  H
  C125     1.0000 0.04233  0.69266  0.83306  Biso   1.000  C
  H109     1.0000 0.05351  0.59265  0.79407  Biso   1.000  H
  H110     1.0000 0.03384  0.53596  0.82026  Biso   1.000  H
  C126     1.0000 0.05722  0.63187  0.83927  Biso   1.000  C
  H111     1.0000 0.05561  0.72254  0.85148  Biso   1.000  H
  H112     1.0000 0.06992  0.72016  0.81528  Biso   1.000  H
  H113     1.0000 0.03765  0.61107  0.85946  Biso   1.000  H
  H114     1.0000 0.10701  0.65085  0.84057  Biso   1.000  H
  C127     1.0000 0.36083  0.24080  0.48014  Biso   1.000  C
  C128     1.0000 0.28069  0.21206  0.47325  Biso   1.000  C
  C129     1.0000 0.28067  0.21201  0.47325  Biso   1.000  C
  H115     1.0000 0.38685  0.25931  0.46073  Biso   1.000  H
  H116     1.0000 0.36717  0.20262  0.48694  Biso   1.000  H
  C130     1.0000 0.39055  0.29853  0.50593  Biso   1.000  C
  N13      1.0000 0.25337  0.15832  0.44871  Biso   1.000  N
  H117     1.0000 0.25566  0.19012  0.49273  Biso   1.000  H
  C131     1.0000 0.36086  0.24085  0.48014  Biso   1.000  C
  C132     1.0000 0.26839  0.27514  0.46635  Biso   1.000  C
  H118     1.0000 0.37099  0.27773  0.52614  Biso   1.000  H
  H119     1.0000 0.44034  0.31752  0.50723  Biso   1.000  H
  C133     1.0000 0.37567  0.35933  0.49974  Biso   1.000  C
  C134     1.0000 0.21037  0.09244  0.45455  Biso   1.000  C
  N14      1.0000 0.19019  0.24526  0.46002  Biso   1.000  N
  C135     1.0000 0.29564  0.32991  0.49244  Biso   1.000  C
  H120     1.0000 0.29329  0.29755  0.44694  Biso   1.000  H
  N15      1.0000 0.19017  0.24521  0.46002  Biso   1.000  N
  H121     1.0000 0.29327  0.29749  0.44694  Biso   1.000  H
  H122     1.0000 0.38897  0.38926  0.51813  Biso   1.000  H
  H123     1.0000 0.40325  0.38682  0.48194  Biso   1.000  H
  H124     1.0000 0.38894  0.38921  0.51813  Biso   1.000  H
  C136     1.0000 0.17537  0.03403  0.43211  Biso   1.000  C
  H125     1.0000 0.20056  0.08082  0.47573  Biso   1.000  H
  C137     1.0000 0.17066  0.23774  0.43074  Biso   1.000  C
  H126     1.0000 0.28878  0.36794  0.48614  Biso   1.000  H
  H127     1.0000 0.26907  0.30984  0.51152  Biso   1.000  H
  C138     1.0000 0.17776  0.04653  0.39908  Biso   1.000  C
  C139     1.0000 0.13858  0.96333  0.44175  Biso   1.000  C
  H128     1.0000 0.20425  0.25522  0.41504  Biso   1.000  H
  C140     1.0000 0.09548  0.20174  0.42139  Biso   1.000  C
  C141     1.0000 0.14697  0.99025  0.37884  Biso   1.000  C
  C142     1.0000 0.14694  0.99020  0.37884  Biso   1.000  C
  H129     1.0000 0.19953  0.09161  0.39124  Biso   1.000  H
  C143     1.0000 0.10627  0.90455  0.42139  Biso   1.000  C
  C144     1.0000 0.10625  0.90450  0.42139  Biso   1.000  C
  H130     1.0000 0.13526  0.95461  0.46333  Biso   1.000  H
  C145     1.0000 0.03667  0.17523  0.44175  Biso   1.000  C
  C146     1.0000 0.08048  0.19115  0.38890  Biso   1.000  C
  C147     1.0000 0.08046  0.19110  0.38890  Biso   1.000  C
  C148     1.0000 0.14736  0.00244  0.34456  Biso   1.000  C
  C149     1.0000 0.11067  0.91954  0.38890  Biso   1.000  C
  C150     1.0000 0.06705  0.82934  0.43074  Biso   1.000  C
  H131     1.0000 0.04534  0.18062  0.46333  Biso   1.000  H
  C151     1.0000 0.96596  0.14135  0.43211  Biso   1.000  C
  C152     1.0000 0.96593  0.14130  0.43211  Biso   1.000  C
  H132     1.0000 0.11616  0.20635  0.37424  Biso   1.000  H
  C153     1.0000 0.00976  0.15671  0.37884  Biso   1.000  C
  H133     1.0000 0.11613  0.20630  0.37424  Biso   1.000  H
  C154     1.0000 0.14477  0.00436  0.31667  Biso   1.000  C
  C155     1.0000 0.14474  0.00431  0.31667  Biso   1.000  C
  H134     1.0000 0.09018  0.88386  0.37424  Biso   1.000  H
  H135     1.0000 0.09015  0.88380  0.37424  Biso   1.000  H
  N16      1.0000 0.05505  0.80983  0.46002  Biso   1.000  N
  H136     1.0000 0.05096  0.79572  0.41504  Biso   1.000  H
  C156     1.0000 0.90756  0.11791  0.45455  Biso   1.000  C
  C157     1.0000 0.95349  0.13124  0.39908  Biso   1.000  C
  C158     1.0000 0.99758  0.14493  0.34456  Biso   1.000  C
  C159     1.0000 0.14184  0.00192  0.28274  Biso   1.000  C
  C160     1.0000 0.00680  0.73166  0.46635  Biso   1.000  C
  C161     1.0000 0.00677  0.73161  0.46635  Biso   1.000  C
  N17      1.0000 0.84168  0.09503  0.44871  Biso   1.000  N
  H137     1.0000 0.91916  0.11972  0.47573  Biso   1.000  H
  H138     1.0000 0.90838  0.10795  0.39124  Biso   1.000  H
  H139     1.0000 0.90835  0.10790  0.39124  Biso   1.000  H
  C162     1.0000 0.99568  0.14042  0.31667  Biso   1.000  C
  C163     1.0000 0.14226  0.05514  0.26564  Biso   1.000  C
  C164     1.0000 0.19767  0.05815  0.26704  Biso   1.000  C
  C165     1.0000 0.19765  0.05810  0.26704  Biso   1.000  C
  C166     1.0000 0.14056  0.94465  0.26774  Biso   1.000  C
  C167     1.0000 0.14054  0.94460  0.26774  Biso   1.000  C
  C168     1.0000 0.08878  0.94745  0.26614  Biso   1.000  C
  C169     1.0000 0.93135  0.71931  0.47325  Biso   1.000  C
  C170     1.0000 0.03428  0.70432  0.49244  Biso   1.000  C
  H140     1.0000 0.00425  0.70671  0.44694  Biso   1.000  H
  C171     1.0000 0.78795  0.06863  0.47325  Biso   1.000  C
  C172     1.0000 0.99810  0.13995  0.28274  Biso   1.000  C
  C173     1.0000 0.99807  0.13990  0.28274  Biso   1.000  C
  C174     1.0000 0.14132  0.05255  0.23386  Biso   1.000  C
  H141     1.0000 0.14316  0.09233  0.27603  Biso   1.000  H
  C175     1.0000 0.19591  0.05535  0.23226  Biso   1.000  C
  H142     1.0000 0.23334  0.09472  0.27792  Biso   1.000  H
  C176     1.0000 0.13952  0.94185  0.23296  Biso   1.000  C
  H143     1.0000 0.14028  0.90922  0.27962  Biso   1.000  H
  C177     1.0000 0.08712  0.94486  0.23436  Biso   1.000  C
  H144     1.0000 0.05299  0.91145  0.27743  Biso   1.000  H
  N18      1.0000 0.90500  0.74665  0.44871  Biso   1.000  N
  H145     1.0000 0.93447  0.74432  0.49273  Biso   1.000  H
  C178     1.0000 0.87998  0.63912  0.48014  Biso   1.000  C
  N19      1.0000 0.90497  0.74660  0.44871  Biso   1.000  N
  C179     1.0000 0.98369  0.62433  0.49974  Biso   1.000  C
  H146     1.0000 0.07915  0.71122  0.48614  Biso   1.000  H
  H147     1.0000 0.04076  0.73093  0.51152  Biso   1.000  H
  C180     1.0000 0.72489  0.99326  0.46635  Biso   1.000  C
  C181     1.0000 0.72486  0.99320  0.46635  Biso   1.000  C
  H148     1.0000 0.80985  0.06552  0.49273  Biso   1.000  H
  C182     1.0000 0.75916  0.12003  0.48014  Biso   1.000  C
  C183     1.0000 0.05538  0.19593  0.26774  Biso   1.000  C
  C184     1.0000 0.05257  0.14135  0.26614  Biso   1.000  C
  C185     1.0000 0.94187  0.13954  0.26704  Biso   1.000  C
  C186     1.0000 0.94488  0.08715  0.26564  Biso   1.000  C
  H149     1.0000 0.14153  0.08855  0.22257  Biso   1.000  H
  C187     1.0000 0.13992  0.99808  0.21726  Biso   1.000  C
  C188     1.0000 0.13989  0.99803  0.21726  Biso   1.000  C
  H150     1.0000 0.23106  0.09078  0.22038  Biso   1.000  H
  H151     1.0000 0.13862  0.90528  0.22208  Biso   1.000  H
  H152     1.0000 0.13860  0.90523  0.22208  Biso   1.000  H
  H153     1.0000 0.05082  0.90767  0.22397  Biso   1.000  H
  C189     1.0000 0.88207  0.78965  0.45455  Biso   1.000  C
  C190     1.0000 0.88204  0.78960  0.45455  Biso   1.000  C
  H154     1.0000 0.87247  0.61313  0.46073  Biso   1.000  H
  H155     1.0000 0.83547  0.63284  0.48694  Biso   1.000  H
  C191     1.0000 0.90796  0.60945  0.50593  Biso   1.000  C
  C192     1.0000 0.90793  0.60939  0.50593  Biso   1.000  C
  H156     1.0000 0.98359  0.59674  0.48194  Biso   1.000  H
  H157     1.0000 0.00027  0.61105  0.51813  Biso   1.000  H
  H158     1.0000 0.00024  0.61100  0.51813  Biso   1.000  H
  N20      1.0000 0.75476  0.94491  0.46002  Biso   1.000  N
  C193     1.0000 0.67005  0.96571  0.49244  Biso   1.000  C
  H159     1.0000 0.70246  0.99575  0.44694  Biso   1.000  H
  H160     1.0000 0.70243  0.99569  0.44694  Biso   1.000  H
  H161     1.0000 0.74069  0.12756  0.46073  Biso   1.000  H
  H162     1.0000 0.79737  0.16454  0.48694  Biso   1.000  H
  C194     1.0000 0.70145  0.09202  0.50593  Biso   1.000  C
  H163     1.0000 0.74066  0.12750  0.46073  Biso   1.000  H
  C195     1.0000 0.05814  0.19769  0.23296  Biso   1.000  C
  H164     1.0000 0.09077  0.23104  0.27962  Biso   1.000  H
  C196     1.0000 0.05812  0.19764  0.23296  Biso   1.000  C
  C197     1.0000 0.05515  0.14229  0.23436  Biso   1.000  C
  H165     1.0000 0.08854  0.14151  0.27743  Biso   1.000  H
  C198     1.0000 0.94464  0.14058  0.23226  Biso   1.000  C
  H166     1.0000 0.90527  0.13866  0.27792  Biso   1.000  H
  H167     1.0000 0.90524  0.13861  0.27792  Biso   1.000  H
  C199     1.0000 0.94743  0.08876  0.23386  Biso   1.000  C
  H168     1.0000 0.90767  0.05084  0.27603  Biso   1.000  H
  C200     1.0000 0.14041  0.99564  0.18333  Biso   1.000  C
  H169     1.0000 0.88028  0.79946  0.47573  Biso   1.000  H
  C201     1.0000 0.85867  0.82462  0.43211  Biso   1.000  C
  H170     1.0000 0.88025  0.79941  0.47573  Biso   1.000  H
  H171     1.0000 0.90676  0.62905  0.52614  Biso   1.000  H
  H172     1.0000 0.87717  0.55965  0.50723  Biso   1.000  H
  H173     1.0000 0.90673  0.62900  0.52614  Biso   1.000  H
  H174     1.0000 0.87715  0.55960  0.50723  Biso   1.000  H
  C202     1.0000 0.76229  0.93293  0.43074  Biso   1.000  C
  H175     1.0000 0.63207  0.92084  0.48614  Biso   1.000  H
  H176     1.0000 0.69017  0.95923  0.51152  Biso   1.000  H
  C203     1.0000 0.64065  0.01634  0.49974  Biso   1.000  C
  H177     1.0000 0.72226  0.09322  0.52614  Biso   1.000  H
  H178     1.0000 0.68249  0.12284  0.50723  Biso   1.000  H
  C204     1.0000 0.00193  0.14187  0.21726  Biso   1.000  C
  H179     1.0000 0.09472  0.23338  0.22208  Biso   1.000  H
  H180     1.0000 0.09234  0.14317  0.22397  Biso   1.000  H
  H181     1.0000 0.90922  0.14027  0.22038  Biso   1.000  H
  H182     1.0000 0.91143  0.05296  0.22257  Biso   1.000  H
  C205     1.0000 0.14492  0.99756  0.15544  Biso   1.000  C
  C206     1.0000 0.82479  0.86145  0.44175  Biso   1.000  C
  C207     1.0000 0.86875  0.82223  0.39908  Biso   1.000  C
  C208     1.0000 0.82477  0.86139  0.44175  Biso   1.000  C
  C209     1.0000 0.79825  0.89371  0.42139  Biso   1.000  C
  H183     1.0000 0.74476  0.94901  0.41504  Biso   1.000  H
  H184     1.0000 0.61079  0.99974  0.51813  Biso   1.000  H
  H185     1.0000 0.61316  0.01644  0.48194  Biso   1.000  H
  C210     1.0000 0.00433  0.14478  0.18333  Biso   1.000  C
  C211     1.0000 0.00430  0.14473  0.18333  Biso   1.000  C
  C212     1.0000 0.15672  0.00975  0.12116  Biso   1.000  C
  H186     1.0000 0.81937  0.86471  0.46333  Biso   1.000  H
  C213     1.0000 0.84328  0.85304  0.37884  Biso   1.000  C
  H187     1.0000 0.89209  0.80044  0.39124  Biso   1.000  H
  C214     1.0000 0.80887  0.88935  0.38890  Biso   1.000  C
  C215     1.0000 0.80885  0.88930  0.38890  Biso   1.000  C
  C216     1.0000 0.00244  0.14737  0.15544  Biso   1.000  C
  C217     1.0000 0.19113  0.08046  0.11110  Biso   1.000  C
  C218     1.0000 0.13123  0.95347  0.10092  Biso   1.000  C
  C219     1.0000 0.85507  0.85263  0.34456  Biso   1.000  C
  H188     1.0000 0.79369  0.90984  0.37424  Biso   1.000  H
  C220     1.0000 0.99024  0.14696  0.12116  Biso   1.000  C
  C221     1.0000 0.20172  0.09545  0.07861  Biso   1.000  C
  H189     1.0000 0.20632  0.11614  0.12576  Biso   1.000  H
  C222     1.0000 0.14134  0.96597  0.06789  Biso   1.000  C
  H190     1.0000 0.10792  0.90839  0.10876  Biso   1.000  H
  H191     1.0000 0.10790  0.90834  0.10876  Biso   1.000  H
  C223     1.0000 0.85955  0.85522  0.31667  Biso   1.000  C
  C224     1.0000 0.04652  0.17777  0.10092  Biso   1.000  C
  C225     1.0000 0.91952  0.11065  0.11110  Biso   1.000  C
  C226     1.0000 0.17526  0.03667  0.05825  Biso   1.000  C
  C227     1.0000 0.23771  0.17066  0.06926  Biso   1.000  C
  C228     1.0000 0.11793  0.90756  0.04545  Biso   1.000  C
  C229     1.0000 0.86006  0.85813  0.28274  Biso   1.000  C
  C230     1.0000 0.03405  0.17538  0.06789  Biso   1.000  C
  C231     1.0000 0.03403  0.17533  0.06789  Biso   1.000  C
  H192     1.0000 0.09165  0.19956  0.10876  Biso   1.000  H
  C232     1.0000 0.90454  0.10629  0.07861  Biso   1.000  C
  C233     1.0000 0.90451  0.10624  0.07861  Biso   1.000  C
  H193     1.0000 0.88385  0.09016  0.12576  Biso   1.000  H
  H194     1.0000 0.18065  0.04539  0.03667  Biso   1.000  H
  H195     1.0000 0.18062  0.04534  0.03667  Biso   1.000  H
  N21      1.0000 0.24522  0.19017  0.03998  Biso   1.000  N
  H196     1.0000 0.25524  0.20428  0.08496  Biso   1.000  H
  N22      1.0000 0.09506  0.84168  0.05129  Biso   1.000  N
  H197     1.0000 0.11974  0.91918  0.02427  Biso   1.000  H
  N23      1.0000 0.09503  0.84163  0.05129  Biso   1.000  N
  H198     1.0000 0.11972  0.91913  0.02427  Biso   1.000  H
  C234     1.0000 0.80406  0.85942  0.26774  Biso   1.000  C
  C235     1.0000 0.86045  0.80231  0.26704  Biso   1.000  C
  C236     1.0000 0.91286  0.85771  0.26564  Biso   1.000  C
  C237     1.0000 0.85868  0.91124  0.26614  Biso   1.000  C
  C238     1.0000 0.09241  0.21035  0.04545  Biso   1.000  C
  C239     1.0000 0.96335  0.13855  0.05825  Biso   1.000  C
  C240     1.0000 0.82936  0.06707  0.06926  Biso   1.000  C
  C241     1.0000 0.27514  0.26834  0.03365  Biso   1.000  C
  C242     1.0000 0.06863  0.78794  0.02675  Biso   1.000  C
  C243     1.0000 0.80233  0.86046  0.23296  Biso   1.000  C
  H199     1.0000 0.76895  0.85973  0.27962  Biso   1.000  H
  C244     1.0000 0.85945  0.80407  0.23226  Biso   1.000  C
  H200     1.0000 0.86134  0.76662  0.27792  Biso   1.000  H
  C245     1.0000 0.91122  0.85865  0.23386  Biso   1.000  C
  H201     1.0000 0.94917  0.85683  0.27603  Biso   1.000  H
  C246     1.0000 0.85773  0.91285  0.23436  Biso   1.000  C
  H202     1.0000 0.85847  0.94704  0.27743  Biso   1.000  H
  N24      1.0000 0.15835  0.25335  0.05129  Biso   1.000  N
  H203     1.0000 0.08082  0.20054  0.02427  Biso   1.000  H
  H204     1.0000 0.95466  0.13529  0.03667  Biso   1.000  H
  H205     1.0000 0.95463  0.13523  0.03667  Biso   1.000  H
  N25      1.0000 0.80984  0.05509  0.03998  Biso   1.000  N
  H206     1.0000 0.79576  0.05099  0.08496  Biso   1.000  H
  N26      1.0000 0.80982  0.05504  0.03998  Biso   1.000  N
  H207     1.0000 0.79573  0.05094  0.08496  Biso   1.000  H
  C247     1.0000 0.21204  0.28069  0.02675  Biso   1.000  C
  C248     1.0000 0.32996  0.29568  0.00756  Biso   1.000  C
  H208     1.0000 0.29754  0.29329  0.05306  Biso   1.000  H
  C249     1.0000 0.21202  0.28063  0.02675  Biso   1.000  C
  H209     1.0000 0.29752  0.29324  0.05306  Biso   1.000  H
  C250     1.0000 0.99325  0.72486  0.03365  Biso   1.000  C
  H210     1.0000 0.06554  0.80988  0.00727  Biso   1.000  H
  C251     1.0000 0.12001  0.75915  0.01986  Biso   1.000  C
  H211     1.0000 0.06552  0.80983  0.00727  Biso   1.000  H
  C252     1.0000 0.85815  0.86005  0.21726  Biso   1.000  C
  H212     1.0000 0.76661  0.86134  0.22208  Biso   1.000  H
  H213     1.0000 0.85973  0.76896  0.22038  Biso   1.000  H
  H214     1.0000 0.94701  0.85844  0.22257  Biso   1.000  H
  H215     1.0000 0.85684  0.94916  0.22397  Biso   1.000  H
  C253     1.0000 0.73163  0.00674  0.03365  Biso   1.000  C
  H216     1.0000 0.19015  0.25568  0.00727  Biso   1.000  H
  C254     1.0000 0.24086  0.36088  0.01986  Biso   1.000  C
  H217     1.0000 0.19012  0.25563  0.00727  Biso   1.000  H
  C255     1.0000 0.24084  0.36083  0.01986  Biso   1.000  C
  C256     1.0000 0.35935  0.37567  0.00026  Biso   1.000  C
  H218     1.0000 0.36793  0.28878  0.01386  Biso   1.000  H
  H219     1.0000 0.36790  0.28873  0.01386  Biso   1.000  H
  H220     1.0000 0.30983  0.26907  0.98848  Biso   1.000  H
  N27      1.0000 0.94494  0.75474  0.03998  Biso   1.000  N
  C257     1.0000 0.96573  0.67009  0.00756  Biso   1.000  C
  H221     1.0000 0.99575  0.70245  0.05306  Biso   1.000  H
  C258     1.0000 0.96570  0.67003  0.00756  Biso   1.000  C
  C259     1.0000 0.09202  0.70147  0.99407  Biso   1.000  C
  H222     1.0000 0.12753  0.74069  0.03927  Biso   1.000  H
  H223     1.0000 0.16455  0.79738  0.01306  Biso   1.000  H
  H224     1.0000 0.12750  0.74063  0.03927  Biso   1.000  H
  H225     1.0000 0.16452  0.79733  0.01306  Biso   1.000  H
  C260     1.0000 0.85526  0.85958  0.18333  Biso   1.000  C
  C261     1.0000 0.85524  0.85953  0.18333  Biso   1.000  C
  C262     1.0000 0.71932  0.93137  0.02675  Biso   1.000  C
  C263     1.0000 0.70434  0.03429  0.00756  Biso   1.000  C
  H226     1.0000 0.70671  0.00425  0.05306  Biso   1.000  H
  C264     1.0000 0.70431  0.03424  0.00756  Biso   1.000  C
  H227     1.0000 0.25934  0.38687  0.03927  Biso   1.000  H
  H228     1.0000 0.20263  0.36716  0.01306  Biso   1.000  H
  C265     1.0000 0.29851  0.39055  0.99407  Biso   1.000  C
  H229     1.0000 0.38685  0.40326  0.01806  Biso   1.000  H
  H230     1.0000 0.38922  0.38895  0.98187  Biso   1.000  H
  C266     1.0000 0.93293  0.76226  0.06926  Biso   1.000  C
  H231     1.0000 0.95923  0.69016  0.98848  Biso   1.000  H
  H232     1.0000 0.92084  0.63206  0.01386  Biso   1.000  H
  C267     1.0000 0.01634  0.64067  0.00026  Biso   1.000  C
  H233     1.0000 0.09326  0.72227  0.97386  Biso   1.000  H
  H234     1.0000 0.12282  0.68248  0.99277  Biso   1.000  H
  H235     1.0000 0.12280  0.68243  0.99277  Biso   1.000  H
  C268     1.0000 0.85265  0.85507  0.15544  Biso   1.000  C
  N28      1.0000 0.74664  0.90497  0.05129  Biso   1.000  N
  H236     1.0000 0.74433  0.93448  0.00727  Biso   1.000  H
  C269     1.0000 0.63913  0.87997  0.01986  Biso   1.000  C
  H237     1.0000 0.74430  0.93443  0.00727  Biso   1.000  H
  C270     1.0000 0.62431  0.98366  0.00026  Biso   1.000  C
  H238     1.0000 0.73094  0.04077  0.98848  Biso   1.000  H
  H239     1.0000 0.71123  0.07916  0.01386  Biso   1.000  H
  H240     1.0000 0.27770  0.37095  0.97386  Biso   1.000  H
  H241     1.0000 0.31753  0.44035  0.99277  Biso   1.000  H
  H242     1.0000 0.94903  0.74478  0.08496  Biso   1.000  H
  C271     1.0000 0.89374  0.79826  0.07861  Biso   1.000  C
  H243     1.0000 0.94901  0.74473  0.08496  Biso   1.000  H
  H244     1.0000 0.99971  0.61074  0.98187  Biso   1.000  H
  H245     1.0000 0.01643  0.61318  0.01806  Biso   1.000  H
  H246     1.0000 0.01640  0.61313  0.01806  Biso   1.000  H
  C272     1.0000 0.85305  0.84329  0.12116  Biso   1.000  C
  C273     1.0000 0.85302  0.84324  0.12116  Biso   1.000  C
  C274     1.0000 0.78965  0.88209  0.04545  Biso   1.000  C
  C275     1.0000 0.78963  0.88204  0.04545  Biso   1.000  C
  C276     1.0000 0.60942  0.90798  0.99407  Biso   1.000  C
  H247     1.0000 0.61313  0.87244  0.03927  Biso   1.000  H
  H248     1.0000 0.63282  0.83546  0.01306  Biso   1.000  H
  H249     1.0000 0.59672  0.98356  0.01806  Biso   1.000  H
  H250     1.0000 0.61105  0.00026  0.98187  Biso   1.000  H
  C277     1.0000 0.86144  0.82477  0.05825  Biso   1.000  C
  C278     1.0000 0.88933  0.80885  0.11110  Biso   1.000  C
  C279     1.0000 0.82225  0.86876  0.10092  Biso   1.000  C
  C280     1.0000 0.82461  0.85865  0.06789  Biso   1.000  C
  H251     1.0000 0.79944  0.88028  0.02427  Biso   1.000  H
  H252     1.0000 0.62904  0.90678  0.97386  Biso   1.000  H
  H253     1.0000 0.55965  0.87716  0.99277  Biso   1.000  H
  H254     1.0000 0.62902  0.90673  0.97386  Biso   1.000  H
  H255     1.0000 0.86472  0.81938  0.03667  Biso   1.000  H
  H256     1.0000 0.90981  0.79365  0.12576  Biso   1.000  H
  H257     1.0000 0.80043  0.89205  0.10876  Biso   1.000  H
  C281     1.0000 0.36083  0.24080  0.48014  Biso   1.000  C
  C282     1.0000 0.28069  0.21206  0.47325  Biso   1.000  C
  C283     1.0000 0.28067  0.21201  0.47325  Biso   1.000  C
  H258     1.0000 0.38685  0.25931  0.46073  Biso   1.000  H
  H259     1.0000 0.36717  0.20262  0.48694  Biso   1.000  H
  C284     1.0000 0.39055  0.29853  0.50593  Biso   1.000  C
  N29      1.0000 0.25337  0.15832  0.44871  Biso   1.000  N
  H260     1.0000 0.25566  0.19012  0.49273  Biso   1.000  H
  C285     1.0000 0.26839  0.27514  0.46635  Biso   1.000  C
  C286     1.0000 0.36086  0.24085  0.48014  Biso   1.000  C
  C287     1.0000 0.37567  0.35933  0.49974  Biso   1.000  C
  H261     1.0000 0.37099  0.27773  0.52614  Biso   1.000  H
  H262     1.0000 0.44034  0.31752  0.50723  Biso   1.000  H
  C288     1.0000 0.21037  0.09244  0.45455  Biso   1.000  C
  C289     1.0000 0.29564  0.32991  0.49244  Biso   1.000  C
  N30      1.0000 0.19019  0.24526  0.46002  Biso   1.000  N
  H263     1.0000 0.29329  0.29755  0.44694  Biso   1.000  H
  N31      1.0000 0.19017  0.24521  0.46002  Biso   1.000  N
  H264     1.0000 0.29327  0.29749  0.44694  Biso   1.000  H
  H265     1.0000 0.40325  0.38682  0.48194  Biso   1.000  H
  H266     1.0000 0.38897  0.38926  0.51813  Biso   1.000  H
  H267     1.0000 0.38894  0.38921  0.51813  Biso   1.000  H
  C290     1.0000 0.17537  0.03403  0.43211  Biso   1.000  C
  H268     1.0000 0.20056  0.08082  0.47573  Biso   1.000  H
  H269     1.0000 0.28878  0.36794  0.48614  Biso   1.000  H
  H270     1.0000 0.26907  0.30984  0.51152  Biso   1.000  H
  C291     1.0000 0.17066  0.23774  0.43074  Biso   1.000  C
  C292     1.0000 0.17776  0.04653  0.39908  Biso   1.000  C
  C293     1.0000 0.13858  0.96333  0.44175  Biso   1.000  C
  H271     1.0000 0.20425  0.25522  0.41504  Biso   1.000  H
  C294     1.0000 0.09548  0.20174  0.42139  Biso   1.000  C
  C295     1.0000 0.14697  0.99025  0.37884  Biso   1.000  C
  C296     1.0000 0.14694  0.99020  0.37884  Biso   1.000  C
  H272     1.0000 0.19953  0.09161  0.39124  Biso   1.000  H
  C297     1.0000 0.10627  0.90455  0.42139  Biso   1.000  C
  C298     1.0000 0.10625  0.90450  0.42139  Biso   1.000  C
  H273     1.0000 0.13526  0.95461  0.46333  Biso   1.000  H
  C299     1.0000 0.03667  0.17523  0.44175  Biso   1.000  C
  C300     1.0000 0.08048  0.19115  0.38890  Biso   1.000  C
  C301     1.0000 0.08046  0.19110  0.38890  Biso   1.000  C
  C302     1.0000 0.14736  0.00244  0.34456  Biso   1.000  C
  C303     1.0000 0.11067  0.91954  0.38890  Biso   1.000  C
  C304     1.0000 0.06705  0.82934  0.43074  Biso   1.000  C
  H274     1.0000 0.04534  0.18062  0.46333  Biso   1.000  H
  C305     1.0000 0.96596  0.14135  0.43211  Biso   1.000  C
  C306     1.0000 0.96593  0.14130  0.43211  Biso   1.000  C
  C307     1.0000 0.00976  0.15671  0.37884  Biso   1.000  C
  H275     1.0000 0.11616  0.20635  0.37424  Biso   1.000  H
  H276     1.0000 0.11613  0.20630  0.37424  Biso   1.000  H
  C308     1.0000 0.14477  0.00436  0.31667  Biso   1.000  C
  C309     1.0000 0.14474  0.00431  0.31667  Biso   1.000  C
  H277     1.0000 0.09018  0.88386  0.37424  Biso   1.000  H
  H278     1.0000 0.09015  0.88380  0.37424  Biso   1.000  H
  N32      1.0000 0.05505  0.80983  0.46002  Biso   1.000  N
  H279     1.0000 0.05096  0.79572  0.41504  Biso   1.000  H
  C310     1.0000 0.90756  0.11791  0.45455  Biso   1.000  C
  C311     1.0000 0.95349  0.13124  0.39908  Biso   1.000  C
  C312     1.0000 0.99758  0.14493  0.34456  Biso   1.000  C
  C313     1.0000 0.14184  0.00192  0.28274  Biso   1.000  C
  C314     1.0000 0.00680  0.73166  0.46635  Biso   1.000  C
  C315     1.0000 0.00677  0.73161  0.46635  Biso   1.000  C
  N33      1.0000 0.84168  0.09503  0.44871  Biso   1.000  N
  H280     1.0000 0.91916  0.11972  0.47573  Biso   1.000  H
  H281     1.0000 0.90838  0.10795  0.39124  Biso   1.000  H
  H282     1.0000 0.90835  0.10790  0.39124  Biso   1.000  H
  C316     1.0000 0.99568  0.14042  0.31667  Biso   1.000  C
  C317     1.0000 0.19767  0.05815  0.26704  Biso   1.000  C
  C318     1.0000 0.14226  0.05514  0.26564  Biso   1.000  C
  C319     1.0000 0.19765  0.05810  0.26704  Biso   1.000  C
  C320     1.0000 0.14056  0.94465  0.26774  Biso   1.000  C
  C321     1.0000 0.14054  0.94460  0.26774  Biso   1.000  C
  C322     1.0000 0.08878  0.94745  0.26614  Biso   1.000  C
  C323     1.0000 0.93135  0.71931  0.47325  Biso   1.000  C
  C324     1.0000 0.03428  0.70432  0.49244  Biso   1.000  C
  H283     1.0000 0.00425  0.70671  0.44694  Biso   1.000  H
  C325     1.0000 0.78795  0.06863  0.47325  Biso   1.000  C
  C326     1.0000 0.99810  0.13995  0.28274  Biso   1.000  C
  C327     1.0000 0.99807  0.13990  0.28274  Biso   1.000  C
  C328     1.0000 0.19591  0.05535  0.23226  Biso   1.000  C
  H284     1.0000 0.23334  0.09472  0.27792  Biso   1.000  H
  C329     1.0000 0.14132  0.05255  0.23386  Biso   1.000  C
  H285     1.0000 0.14316  0.09233  0.27603  Biso   1.000  H
  C330     1.0000 0.13952  0.94185  0.23296  Biso   1.000  C
  H286     1.0000 0.14028  0.90922  0.27962  Biso   1.000  H
  C331     1.0000 0.08712  0.94486  0.23436  Biso   1.000  C
  H287     1.0000 0.05299  0.91145  0.27743  Biso   1.000  H
  N34      1.0000 0.90500  0.74665  0.44871  Biso   1.000  N
  H288     1.0000 0.93447  0.74432  0.49273  Biso   1.000  H
  C332     1.0000 0.87998  0.63912  0.48014  Biso   1.000  C
  N35      1.0000 0.90497  0.74660  0.44871  Biso   1.000  N
  C333     1.0000 0.98369  0.62433  0.49974  Biso   1.000  C
  H289     1.0000 0.07915  0.71122  0.48614  Biso   1.000  H
  H290     1.0000 0.04076  0.73093  0.51152  Biso   1.000  H
  C334     1.0000 0.72489  0.99326  0.46635  Biso   1.000  C
  C335     1.0000 0.72486  0.99320  0.46635  Biso   1.000  C
  H291     1.0000 0.80985  0.06552  0.49273  Biso   1.000  H
  C336     1.0000 0.75916  0.12003  0.48014  Biso   1.000  C
  C337     1.0000 0.05538  0.19593  0.26774  Biso   1.000  C
  C338     1.0000 0.94187  0.13954  0.26704  Biso   1.000  C
  C339     1.0000 0.94488  0.08715  0.26564  Biso   1.000  C
  C340     1.0000 0.05257  0.14135  0.26614  Biso   1.000  C
  H292     1.0000 0.23106  0.09078  0.22038  Biso   1.000  H
  C341     1.0000 0.13992  0.99808  0.21726  Biso   1.000  C
  C342     1.0000 0.13989  0.99803  0.21726  Biso   1.000  C
  H293     1.0000 0.14153  0.08855  0.22257  Biso   1.000  H
  H294     1.0000 0.13862  0.90528  0.22208  Biso   1.000  H
  H295     1.0000 0.13860  0.90523  0.22208  Biso   1.000  H
  H296     1.0000 0.05082  0.90767  0.22397  Biso   1.000  H
  C343     1.0000 0.88207  0.78965  0.45455  Biso   1.000  C
  C344     1.0000 0.88204  0.78960  0.45455  Biso   1.000  C
  H297     1.0000 0.87247  0.61313  0.46073  Biso   1.000  H
  H298     1.0000 0.83547  0.63284  0.48694  Biso   1.000  H
  C345     1.0000 0.90796  0.60945  0.50593  Biso   1.000  C
  C346     1.0000 0.90793  0.60939  0.50593  Biso   1.000  C
  H299     1.0000 0.98359  0.59674  0.48194  Biso   1.000  H
  H300     1.0000 0.00027  0.61105  0.51813  Biso   1.000  H
  H301     1.0000 0.00024  0.61100  0.51813  Biso   1.000  H
  N36      1.0000 0.75476  0.94491  0.46002  Biso   1.000  N
  C347     1.0000 0.67005  0.96571  0.49244  Biso   1.000  C
  H302     1.0000 0.70246  0.99575  0.44694  Biso   1.000  H
  H303     1.0000 0.70243  0.99569  0.44694  Biso   1.000  H
  H304     1.0000 0.74069  0.12756  0.46073  Biso   1.000  H
  H305     1.0000 0.79737  0.16454  0.48694  Biso   1.000  H
  C348     1.0000 0.70145  0.09202  0.50593  Biso   1.000  C
  H306     1.0000 0.74066  0.12750  0.46073  Biso   1.000  H
  C349     1.0000 0.05814  0.19769  0.23296  Biso   1.000  C
  C350     1.0000 0.05812  0.19764  0.23296  Biso   1.000  C
  H307     1.0000 0.09077  0.23104  0.27962  Biso   1.000  H
  C351     1.0000 0.94464  0.14058  0.23226  Biso   1.000  C
  H308     1.0000 0.90527  0.13866  0.27792  Biso   1.000  H
  H309     1.0000 0.90524  0.13861  0.27792  Biso   1.000  H
  C352     1.0000 0.94743  0.08876  0.23386  Biso   1.000  C
  H310     1.0000 0.90767  0.05084  0.27603  Biso   1.000  H
  C353     1.0000 0.05515  0.14229  0.23436  Biso   1.000  C
  H311     1.0000 0.08854  0.14151  0.27743  Biso   1.000  H
  C354     1.0000 0.14041  0.99564  0.18333  Biso   1.000  C
  H312     1.0000 0.88028  0.79946  0.47573  Biso   1.000  H
  C355     1.0000 0.85867  0.82462  0.43211  Biso   1.000  C
  H313     1.0000 0.88025  0.79941  0.47573  Biso   1.000  H
  H314     1.0000 0.90676  0.62905  0.52614  Biso   1.000  H
  H315     1.0000 0.87717  0.55965  0.50723  Biso   1.000  H
  H316     1.0000 0.90673  0.62900  0.52614  Biso   1.000  H
  H317     1.0000 0.87715  0.55960  0.50723  Biso   1.000  H
  C356     1.0000 0.76229  0.93293  0.43074  Biso   1.000  C
  H318     1.0000 0.63207  0.92084  0.48614  Biso   1.000  H
  H319     1.0000 0.69017  0.95923  0.51152  Biso   1.000  H
  C357     1.0000 0.64065  0.01634  0.49974  Biso   1.000  C
  H320     1.0000 0.72226  0.09322  0.52614  Biso   1.000  H
  H321     1.0000 0.68249  0.12284  0.50723  Biso   1.000  H
  C358     1.0000 0.00193  0.14187  0.21726  Biso   1.000  C
  H322     1.0000 0.09472  0.23338  0.22208  Biso   1.000  H
  H323     1.0000 0.90922  0.14027  0.22038  Biso   1.000  H
  H324     1.0000 0.91143  0.05296  0.22257  Biso   1.000  H
  H325     1.0000 0.09234  0.14317  0.22397  Biso   1.000  H
  C359     1.0000 0.14492  0.99756  0.15544  Biso   1.000  C
  C360     1.0000 0.82479  0.86145  0.44175  Biso   1.000  C
  C361     1.0000 0.86875  0.82223  0.39908  Biso   1.000  C
  C362     1.0000 0.82477  0.86139  0.44175  Biso   1.000  C
  C363     1.0000 0.79825  0.89371  0.42139  Biso   1.000  C
  H326     1.0000 0.74476  0.94901  0.41504  Biso   1.000  H
  H327     1.0000 0.61079  0.99974  0.51813  Biso   1.000  H
  H328     1.0000 0.61316  0.01644  0.48194  Biso   1.000  H
  C364     1.0000 0.00433  0.14478  0.18333  Biso   1.000  C
  C365     1.0000 0.00430  0.14473  0.18333  Biso   1.000  C
  C366     1.0000 0.15672  0.00975  0.12116  Biso   1.000  C
  H329     1.0000 0.81937  0.86471  0.46333  Biso   1.000  H
  C367     1.0000 0.84328  0.85304  0.37884  Biso   1.000  C
  H330     1.0000 0.89209  0.80044  0.39124  Biso   1.000  H
  C368     1.0000 0.80887  0.88935  0.38890  Biso   1.000  C
  C369     1.0000 0.80885  0.88930  0.38890  Biso   1.000  C
  C370     1.0000 0.00244  0.14737  0.15544  Biso   1.000  C
  C371     1.0000 0.19113  0.08046  0.11110  Biso   1.000  C
  C372     1.0000 0.13123  0.95347  0.10092  Biso   1.000  C
  C373     1.0000 0.85507  0.85263  0.34456  Biso   1.000  C
  H331     1.0000 0.79369  0.90984  0.37424  Biso   1.000  H
  C374     1.0000 0.99024  0.14696  0.12116  Biso   1.000  C
  C375     1.0000 0.20172  0.09545  0.07861  Biso   1.000  C
  H332     1.0000 0.20632  0.11614  0.12576  Biso   1.000  H
  C376     1.0000 0.14134  0.96597  0.06789  Biso   1.000  C
  H333     1.0000 0.10792  0.90839  0.10876  Biso   1.000  H
  H334     1.0000 0.10790  0.90834  0.10876  Biso   1.000  H
  C377     1.0000 0.85955  0.85522  0.31667  Biso   1.000  C
  C378     1.0000 0.04652  0.17777  0.10092  Biso   1.000  C
  C379     1.0000 0.91952  0.11065  0.11110  Biso   1.000  C
  C380     1.0000 0.17526  0.03667  0.05825  Biso   1.000  C
  C381     1.0000 0.23771  0.17066  0.06926  Biso   1.000  C
  C382     1.0000 0.11793  0.90756  0.04545  Biso   1.000  C
  C383     1.0000 0.86006  0.85813  0.28274  Biso   1.000  C
  C384     1.0000 0.03405  0.17538  0.06789  Biso   1.000  C
  C385     1.0000 0.03403  0.17533  0.06789  Biso   1.000  C
  H335     1.0000 0.09165  0.19956  0.10876  Biso   1.000  H
  C386     1.0000 0.90454  0.10629  0.07861  Biso   1.000  C
  C387     1.0000 0.90451  0.10624  0.07861  Biso   1.000  C
  H336     1.0000 0.88385  0.09016  0.12576  Biso   1.000  H
  H337     1.0000 0.18065  0.04539  0.03667  Biso   1.000  H
  H338     1.0000 0.18062  0.04534  0.03667  Biso   1.000  H
  N37      1.0000 0.24522  0.19017  0.03998  Biso   1.000  N
  H339     1.0000 0.25524  0.20428  0.08496  Biso   1.000  H
  N38      1.0000 0.09506  0.84168  0.05129  Biso   1.000  N
  H340     1.0000 0.11974  0.91918  0.02427  Biso   1.000  H
  N39      1.0000 0.09503  0.84163  0.05129  Biso   1.000  N
  H341     1.0000 0.11972  0.91913  0.02427  Biso   1.000  H
  C388     1.0000 0.80406  0.85942  0.26774  Biso   1.000  C
  C389     1.0000 0.86045  0.80231  0.26704  Biso   1.000  C
  C390     1.0000 0.91286  0.85771  0.26564  Biso   1.000  C
  C391     1.0000 0.85868  0.91124  0.26614  Biso   1.000  C
  C392     1.0000 0.09241  0.21035  0.04545  Biso   1.000  C
  C393     1.0000 0.96335  0.13855  0.05825  Biso   1.000  C
  C394     1.0000 0.82936  0.06707  0.06926  Biso   1.000  C
  C395     1.0000 0.27514  0.26834  0.03365  Biso   1.000  C
  C396     1.0000 0.06863  0.78794  0.02675  Biso   1.000  C
  C397     1.0000 0.80233  0.86046  0.23296  Biso   1.000  C
  H342     1.0000 0.76895  0.85973  0.27962  Biso   1.000  H
  C398     1.0000 0.85945  0.80407  0.23226  Biso   1.000  C
  H343     1.0000 0.86134  0.76662  0.27792  Biso   1.000  H
  C399     1.0000 0.91122  0.85865  0.23386  Biso   1.000  C
  H344     1.0000 0.94917  0.85683  0.27603  Biso   1.000  H
  C400     1.0000 0.85773  0.91285  0.23436  Biso   1.000  C
  H345     1.0000 0.85847  0.94704  0.27743  Biso   1.000  H
  N40      1.0000 0.15835  0.25335  0.05129  Biso   1.000  N
  H346     1.0000 0.08082  0.20054  0.02427  Biso   1.000  H
  H347     1.0000 0.95466  0.13529  0.03667  Biso   1.000  H
  H348     1.0000 0.95463  0.13523  0.03667  Biso   1.000  H
  N41      1.0000 0.80984  0.05509  0.03998  Biso   1.000  N
  H349     1.0000 0.79576  0.05099  0.08496  Biso   1.000  H
  N42      1.0000 0.80982  0.05504  0.03998  Biso   1.000  N
  H350     1.0000 0.79573  0.05094  0.08496  Biso   1.000  H
  C401     1.0000 0.32996  0.29568  0.00756  Biso   1.000  C
  C402     1.0000 0.21204  0.28069  0.02675  Biso   1.000  C
  H351     1.0000 0.29754  0.29329  0.05306  Biso   1.000  H
  C403     1.0000 0.21202  0.28063  0.02675  Biso   1.000  C
  H352     1.0000 0.29752  0.29324  0.05306  Biso   1.000  H
  C404     1.0000 0.99325  0.72486  0.03365  Biso   1.000  C
  H353     1.0000 0.06554  0.80988  0.00727  Biso   1.000  H
  C405     1.0000 0.12001  0.75915  0.01986  Biso   1.000  C
  H354     1.0000 0.06552  0.80983  0.00727  Biso   1.000  H
  C406     1.0000 0.85815  0.86005  0.21726  Biso   1.000  C
  H355     1.0000 0.76661  0.86134  0.22208  Biso   1.000  H
  H356     1.0000 0.85973  0.76896  0.22038  Biso   1.000  H
  H357     1.0000 0.94701  0.85844  0.22257  Biso   1.000  H
  H358     1.0000 0.85684  0.94916  0.22397  Biso   1.000  H
  C407     1.0000 0.73163  0.00674  0.03365  Biso   1.000  C
  C408     1.0000 0.35935  0.37567  0.00026  Biso   1.000  C
  H359     1.0000 0.36793  0.28878  0.01386  Biso   1.000  H
  H360     1.0000 0.36790  0.28873  0.01386  Biso   1.000  H
  H361     1.0000 0.30983  0.26907  0.98848  Biso   1.000  H
  H362     1.0000 0.19015  0.25568  0.00727  Biso   1.000  H
  C409     1.0000 0.24086  0.36088  0.01986  Biso   1.000  C
  H363     1.0000 0.19012  0.25563  0.00727  Biso   1.000  H
  C410     1.0000 0.24084  0.36083  0.01986  Biso   1.000  C
  N43      1.0000 0.94494  0.75474  0.03998  Biso   1.000  N
  C411     1.0000 0.96573  0.67009  0.00756  Biso   1.000  C
  H364     1.0000 0.99575  0.70245  0.05306  Biso   1.000  H
  C412     1.0000 0.96570  0.67003  0.00756  Biso   1.000  C
  C413     1.0000 0.09202  0.70147  0.99407  Biso   1.000  C
  H365     1.0000 0.12753  0.74069  0.03927  Biso   1.000  H
  H366     1.0000 0.16455  0.79738  0.01306  Biso   1.000  H
  H367     1.0000 0.12750  0.74063  0.03927  Biso   1.000  H
  H368     1.0000 0.16452  0.79733  0.01306  Biso   1.000  H
  C414     1.0000 0.85526  0.85958  0.18333  Biso   1.000  C
  C415     1.0000 0.85524  0.85953  0.18333  Biso   1.000  C
  C416     1.0000 0.71932  0.93137  0.02675  Biso   1.000  C
  C417     1.0000 0.70434  0.03429  0.00756  Biso   1.000  C
  H369     1.0000 0.70671  0.00425  0.05306  Biso   1.000  H
  C418     1.0000 0.70431  0.03424  0.00756  Biso   1.000  C
  H370     1.0000 0.38685  0.40326  0.01806  Biso   1.000  H
  C419     1.0000 0.29851  0.39055  0.99407  Biso   1.000  C
  H371     1.0000 0.38922  0.38895  0.98187  Biso   1.000  H
  H372     1.0000 0.25934  0.38687  0.03927  Biso   1.000  H
  H373     1.0000 0.20263  0.36716  0.01306  Biso   1.000  H
  C420     1.0000 0.93293  0.76226  0.06926  Biso   1.000  C
  H374     1.0000 0.95923  0.69016  0.98848  Biso   1.000  H
  H375     1.0000 0.92084  0.63206  0.01386  Biso   1.000  H
  C421     1.0000 0.01634  0.64067  0.00026  Biso   1.000  C
  H376     1.0000 0.09326  0.72227  0.97386  Biso   1.000  H
  H377     1.0000 0.12282  0.68248  0.99277  Biso   1.000  H
  H378     1.0000 0.12280  0.68243  0.99277  Biso   1.000  H
  C422     1.0000 0.85265  0.85507  0.15544  Biso   1.000  C
  N44      1.0000 0.74664  0.90497  0.05129  Biso   1.000  N
  H379     1.0000 0.74433  0.93448  0.00727  Biso   1.000  H
  C423     1.0000 0.63913  0.87997  0.01986  Biso   1.000  C
  H380     1.0000 0.74430  0.93443  0.00727  Biso   1.000  H
  C424     1.0000 0.62431  0.98366  0.00026  Biso   1.000  C
  H381     1.0000 0.73094  0.04077  0.98848  Biso   1.000  H
  H382     1.0000 0.71123  0.07916  0.01386  Biso   1.000  H
  H383     1.0000 0.27770  0.37095  0.97386  Biso   1.000  H
  H384     1.0000 0.31753  0.44035  0.99277  Biso   1.000  H
  H385     1.0000 0.94903  0.74478  0.08496  Biso   1.000  H
  C425     1.0000 0.89374  0.79826  0.07861  Biso   1.000  C
  H386     1.0000 0.94901  0.74473  0.08496  Biso   1.000  H
  H387     1.0000 0.99971  0.61074  0.98187  Biso   1.000  H
  H388     1.0000 0.01643  0.61318  0.01806  Biso   1.000  H
  H389     1.0000 0.01640  0.61313  0.01806  Biso   1.000  H
  C426     1.0000 0.85305  0.84329  0.12116  Biso   1.000  C
  C427     1.0000 0.85302  0.84324  0.12116  Biso   1.000  C
  C428     1.0000 0.78965  0.88209  0.04545  Biso   1.000  C
  C429     1.0000 0.78963  0.88204  0.04545  Biso   1.000  C
  C430     1.0000 0.60942  0.90798  0.99407  Biso   1.000  C
  H390     1.0000 0.61313  0.87244  0.03927  Biso   1.000  H
  H391     1.0000 0.63282  0.83546  0.01306  Biso   1.000  H
  H392     1.0000 0.59672  0.98356  0.01806  Biso   1.000  H
  H393     1.0000 0.61105  0.00026  0.98187  Biso   1.000  H
  C431     1.0000 0.86144  0.82477  0.05825  Biso   1.000  C
  C432     1.0000 0.88933  0.80885  0.11110  Biso   1.000  C
  C433     1.0000 0.82225  0.86876  0.10092  Biso   1.000  C
  C434     1.0000 0.82461  0.85865  0.06789  Biso   1.000  C
  H394     1.0000 0.79944  0.88028  0.02427  Biso   1.000  H
  H395     1.0000 0.62904  0.90678  0.97386  Biso   1.000  H
  H396     1.0000 0.55965  0.87716  0.99277  Biso   1.000  H
  H397     1.0000 0.62902  0.90673  0.97386  Biso   1.000  H
  H398     1.0000 0.86472  0.81938  0.03667  Biso   1.000  H
  H399     1.0000 0.90981  0.79365  0.12576  Biso   1.000  H
  H400     1.0000 0.80043  0.89205  0.10876  Biso   1.000  H
  C435     1.0000 0.36083  0.24080  0.48014  Biso   1.000  C
  C436     1.0000 0.28069  0.21206  0.47325  Biso   1.000  C
  C437     1.0000 0.28067  0.21201  0.47325  Biso   1.000  C
  H401     1.0000 0.38685  0.25931  0.46073  Biso   1.000  H
  H402     1.0000 0.36717  0.20262  0.48694  Biso   1.000  H
  C438     1.0000 0.39055  0.29853  0.50593  Biso   1.000  C
  N45      1.0000 0.25337  0.15832  0.44871  Biso   1.000  N
  H403     1.0000 0.25566  0.19012  0.49273  Biso   1.000  H
  C439     1.0000 0.26839  0.27514  0.46635  Biso   1.000  C
  C440     1.0000 0.36086  0.24085  0.48014  Biso   1.000  C
  C441     1.0000 0.37567  0.35933  0.49974  Biso   1.000  C
  H404     1.0000 0.37099  0.27773  0.52614  Biso   1.000  H
  H405     1.0000 0.44034  0.31752  0.50723  Biso   1.000  H
  C442     1.0000 0.21037  0.09244  0.45455  Biso   1.000  C
  C443     1.0000 0.29564  0.32991  0.49244  Biso   1.000  C
  N46      1.0000 0.19019  0.24526  0.46002  Biso   1.000  N
  H406     1.0000 0.29329  0.29755  0.44694  Biso   1.000  H
  N47      1.0000 0.19017  0.24521  0.46002  Biso   1.000  N
  H407     1.0000 0.29327  0.29749  0.44694  Biso   1.000  H
  H408     1.0000 0.40325  0.38682  0.48194  Biso   1.000  H
  H409     1.0000 0.38897  0.38926  0.51813  Biso   1.000  H
  H410     1.0000 0.38894  0.38921  0.51813  Biso   1.000  H
  C444     1.0000 0.17537  0.03403  0.43211  Biso   1.000  C
  H411     1.0000 0.20056  0.08082  0.47573  Biso   1.000  H
  H412     1.0000 0.28878  0.36794  0.48614  Biso   1.000  H
  H413     1.0000 0.26907  0.30984  0.51152  Biso   1.000  H
  C445     1.0000 0.17066  0.23774  0.43074  Biso   1.000  C
  C446     1.0000 0.17776  0.04653  0.39908  Biso   1.000  C
  C447     1.0000 0.13858  0.96333  0.44175  Biso   1.000  C
  H414     1.0000 0.20425  0.25522  0.41504  Biso   1.000  H
  C448     1.0000 0.09548  0.20174  0.42139  Biso   1.000  C
  C449     1.0000 0.14697  0.99025  0.37884  Biso   1.000  C
  C450     1.0000 0.14694  0.99020  0.37884  Biso   1.000  C
  H415     1.0000 0.19953  0.09161  0.39124  Biso   1.000  H
  C451     1.0000 0.10627  0.90455  0.42139  Biso   1.000  C
  C452     1.0000 0.10625  0.90450  0.42139  Biso   1.000  C
  H416     1.0000 0.13526  0.95461  0.46333  Biso   1.000  H
  C453     1.0000 0.03667  0.17523  0.44175  Biso   1.000  C
  C454     1.0000 0.08048  0.19115  0.38890  Biso   1.000  C
  C455     1.0000 0.08046  0.19110  0.38890  Biso   1.000  C
  C456     1.0000 0.14736  0.00244  0.34456  Biso   1.000  C
  C457     1.0000 0.11067  0.91954  0.38890  Biso   1.000  C
  C458     1.0000 0.06705  0.82934  0.43074  Biso   1.000  C
  H417     1.0000 0.04534  0.18062  0.46333  Biso   1.000  H
  C459     1.0000 0.96596  0.14135  0.43211  Biso   1.000  C
  C460     1.0000 0.96593  0.14130  0.43211  Biso   1.000  C
  C461     1.0000 0.00976  0.15671  0.37884  Biso   1.000  C
  H418     1.0000 0.11616  0.20635  0.37424  Biso   1.000  H
  H419     1.0000 0.11613  0.20630  0.37424  Biso   1.000  H
  C462     1.0000 0.14477  0.00436  0.31667  Biso   1.000  C
  C463     1.0000 0.14474  0.00431  0.31667  Biso   1.000  C
  H420     1.0000 0.09018  0.88386  0.37424  Biso   1.000  H
  H421     1.0000 0.09015  0.88380  0.37424  Biso   1.000  H
  N48      1.0000 0.05505  0.80983  0.46002  Biso   1.000  N
  H422     1.0000 0.05096  0.79572  0.41504  Biso   1.000  H
  C464     1.0000 0.90756  0.11791  0.45455  Biso   1.000  C
  C465     1.0000 0.95349  0.13124  0.39908  Biso   1.000  C
  C466     1.0000 0.99758  0.14493  0.34456  Biso   1.000  C
  C467     1.0000 0.14184  0.00192  0.28274  Biso   1.000  C
  C468     1.0000 0.00680  0.73166  0.46635  Biso   1.000  C
  C469     1.0000 0.00677  0.73161  0.46635  Biso   1.000  C
  N49      1.0000 0.84168  0.09503  0.44871  Biso   1.000  N
  H423     1.0000 0.91916  0.11972  0.47573  Biso   1.000  H
  H424     1.0000 0.90838  0.10795  0.39124  Biso   1.000  H
  H425     1.0000 0.90835  0.10790  0.39124  Biso   1.000  H
  C470     1.0000 0.99568  0.14042  0.31667  Biso   1.000  C
  C471     1.0000 0.19767  0.05815  0.26704  Biso   1.000  C
  C472     1.0000 0.19765  0.05810  0.26704  Biso   1.000  C
  C473     1.0000 0.14226  0.05514  0.26564  Biso   1.000  C
  C474     1.0000 0.14056  0.94465  0.26774  Biso   1.000  C
  C475     1.0000 0.14054  0.94460  0.26774  Biso   1.000  C
  C476     1.0000 0.08878  0.94745  0.26614  Biso   1.000  C
  C477     1.0000 0.93135  0.71931  0.47325  Biso   1.000  C
  C478     1.0000 0.03428  0.70432  0.49244  Biso   1.000  C
  H426     1.0000 0.00425  0.70671  0.44694  Biso   1.000  H
  C479     1.0000 0.78795  0.06863  0.47325  Biso   1.000  C
  C480     1.0000 0.99810  0.13995  0.28274  Biso   1.000  C
  C481     1.0000 0.99807  0.13990  0.28274  Biso   1.000  C
  C482     1.0000 0.19591  0.05535  0.23226  Biso   1.000  C
  H427     1.0000 0.23334  0.09472  0.27792  Biso   1.000  H
  C483     1.0000 0.14132  0.05255  0.23386  Biso   1.000  C
  H428     1.0000 0.14316  0.09233  0.27603  Biso   1.000  H
  C484     1.0000 0.13952  0.94185  0.23296  Biso   1.000  C
  H429     1.0000 0.14028  0.90922  0.27962  Biso   1.000  H
  C485     1.0000 0.08712  0.94486  0.23436  Biso   1.000  C
  H430     1.0000 0.05299  0.91145  0.27743  Biso   1.000  H
  N50      1.0000 0.90500  0.74665  0.44871  Biso   1.000  N
  H431     1.0000 0.93447  0.74432  0.49273  Biso   1.000  H
  C486     1.0000 0.87998  0.63912  0.48014  Biso   1.000  C
  N51      1.0000 0.90497  0.74660  0.44871  Biso   1.000  N
  C487     1.0000 0.98369  0.62433  0.49974  Biso   1.000  C
  H432     1.0000 0.07915  0.71122  0.48614  Biso   1.000  H
  H433     1.0000 0.04076  0.73093  0.51152  Biso   1.000  H
  C488     1.0000 0.72489  0.99326  0.46635  Biso   1.000  C
  C489     1.0000 0.72486  0.99320  0.46635  Biso   1.000  C
  H434     1.0000 0.80985  0.06552  0.49273  Biso   1.000  H
  C490     1.0000 0.75916  0.12003  0.48014  Biso   1.000  C
  C491     1.0000 0.94187  0.13954  0.26704  Biso   1.000  C
  C492     1.0000 0.94488  0.08715  0.26564  Biso   1.000  C
  C493     1.0000 0.05538  0.19593  0.26774  Biso   1.000  C
  C494     1.0000 0.05257  0.14135  0.26614  Biso   1.000  C
  H435     1.0000 0.23106  0.09078  0.22038  Biso   1.000  H
  C495     1.0000 0.13992  0.99808  0.21726  Biso   1.000  C
  C496     1.0000 0.13989  0.99803  0.21726  Biso   1.000  C
  H436     1.0000 0.14153  0.08855  0.22257  Biso   1.000  H
  H437     1.0000 0.13862  0.90528  0.22208  Biso   1.000  H
  H438     1.0000 0.13860  0.90523  0.22208  Biso   1.000  H
  H439     1.0000 0.05082  0.90767  0.22397  Biso   1.000  H
  C497     1.0000 0.88207  0.78965  0.45455  Biso   1.000  C
  C498     1.0000 0.88204  0.78960  0.45455  Biso   1.000  C
  H440     1.0000 0.87247  0.61313  0.46073  Biso   1.000  H
  H441     1.0000 0.83547  0.63284  0.48694  Biso   1.000  H
  C499     1.0000 0.90796  0.60945  0.50593  Biso   1.000  C
  C500     1.0000 0.90793  0.60939  0.50593  Biso   1.000  C
  H442     1.0000 0.98359  0.59674  0.48194  Biso   1.000  H
  H443     1.0000 0.00027  0.61105  0.51813  Biso   1.000  H
  H444     1.0000 0.00024  0.61100  0.51813  Biso   1.000  H
  N52      1.0000 0.75476  0.94491  0.46002  Biso   1.000  N
  C501     1.0000 0.67005  0.96571  0.49244  Biso   1.000  C
  H445     1.0000 0.70246  0.99575  0.44694  Biso   1.000  H
  H446     1.0000 0.70243  0.99569  0.44694  Biso   1.000  H
  H447     1.0000 0.74069  0.12756  0.46073  Biso   1.000  H
  H448     1.0000 0.79737  0.16454  0.48694  Biso   1.000  H
  C502     1.0000 0.70145  0.09202  0.50593  Biso   1.000  C
  H449     1.0000 0.74066  0.12750  0.46073  Biso   1.000  H
  C503     1.0000 0.94464  0.14058  0.23226  Biso   1.000  C
  H450     1.0000 0.90527  0.13866  0.27792  Biso   1.000  H
  H451     1.0000 0.90524  0.13861  0.27792  Biso   1.000  H
  C504     1.0000 0.94743  0.08876  0.23386  Biso   1.000  C
  H452     1.0000 0.90767  0.05084  0.27603  Biso   1.000  H
  C505     1.0000 0.05814  0.19769  0.23296  Biso   1.000  C
  C506     1.0000 0.05812  0.19764  0.23296  Biso   1.000  C
  H453     1.0000 0.09077  0.23104  0.27962  Biso   1.000  H
  C507     1.0000 0.05515  0.14229  0.23436  Biso   1.000  C
  H454     1.0000 0.08854  0.14151  0.27743  Biso   1.000  H
  C508     1.0000 0.14041  0.99564  0.18333  Biso   1.000  C
  H455     1.0000 0.88028  0.79946  0.47573  Biso   1.000  H
  C509     1.0000 0.85867  0.82462  0.43211  Biso   1.000  C
  H456     1.0000 0.88025  0.79941  0.47573  Biso   1.000  H
  H457     1.0000 0.90676  0.62905  0.52614  Biso   1.000  H
  H458     1.0000 0.87717  0.55965  0.50723  Biso   1.000  H
  H459     1.0000 0.90673  0.62900  0.52614  Biso   1.000  H
  H460     1.0000 0.87715  0.55960  0.50723  Biso   1.000  H
  C510     1.0000 0.76229  0.93293  0.43074  Biso   1.000  C
  H461     1.0000 0.63207  0.92084  0.48614  Biso   1.000  H
  H462     1.0000 0.69017  0.95923  0.51152  Biso   1.000  H
  C511     1.0000 0.64065  0.01634  0.49974  Biso   1.000  C
  H463     1.0000 0.72226  0.09322  0.52614  Biso   1.000  H
  H464     1.0000 0.68249  0.12284  0.50723  Biso   1.000  H
  C512     1.0000 0.00193  0.14187  0.21726  Biso   1.000  C
  H465     1.0000 0.90922  0.14027  0.22038  Biso   1.000  H
  H466     1.0000 0.91143  0.05296  0.22257  Biso   1.000  H
  H467     1.0000 0.09472  0.23338  0.22208  Biso   1.000  H
  H468     1.0000 0.09234  0.14317  0.22397  Biso   1.000  H
  C513     1.0000 0.14492  0.99756  0.15544  Biso   1.000  C
  C514     1.0000 0.82479  0.86145  0.44175  Biso   1.000  C
  C515     1.0000 0.86875  0.82223  0.39908  Biso   1.000  C
  C516     1.0000 0.82477  0.86139  0.44175  Biso   1.000  C
  C517     1.0000 0.79825  0.89371  0.42139  Biso   1.000  C
  H469     1.0000 0.74476  0.94901  0.41504  Biso   1.000  H
  H470     1.0000 0.61079  0.99974  0.51813  Biso   1.000  H
  H471     1.0000 0.61316  0.01644  0.48194  Biso   1.000  H
  C518     1.0000 0.00433  0.14478  0.18333  Biso   1.000  C
  C519     1.0000 0.00430  0.14473  0.18333  Biso   1.000  C
  C520     1.0000 0.15672  0.00975  0.12116  Biso   1.000  C
  H472     1.0000 0.81937  0.86471  0.46333  Biso   1.000  H
  C521     1.0000 0.84328  0.85304  0.37884  Biso   1.000  C
  H473     1.0000 0.89209  0.80044  0.39124  Biso   1.000  H
  C522     1.0000 0.80887  0.88935  0.38890  Biso   1.000  C
  C523     1.0000 0.80885  0.88930  0.38890  Biso   1.000  C
  C524     1.0000 0.00244  0.14737  0.15544  Biso   1.000  C
  C525     1.0000 0.19113  0.08046  0.11110  Biso   1.000  C
  C526     1.0000 0.13123  0.95347  0.10092  Biso   1.000  C
  C527     1.0000 0.85507  0.85263  0.34456  Biso   1.000  C
  H474     1.0000 0.79369  0.90984  0.37424  Biso   1.000  H
  C528     1.0000 0.99024  0.14696  0.12116  Biso   1.000  C
  C529     1.0000 0.20172  0.09545  0.07861  Biso   1.000  C
  H475     1.0000 0.20632  0.11614  0.12576  Biso   1.000  H
  C530     1.0000 0.14134  0.96597  0.06789  Biso   1.000  C
  H476     1.0000 0.10792  0.90839  0.10876  Biso   1.000  H
  H477     1.0000 0.10790  0.90834  0.10876  Biso   1.000  H
  C531     1.0000 0.85955  0.85522  0.31667  Biso   1.000  C
  C532     1.0000 0.04652  0.17777  0.10092  Biso   1.000  C
  C533     1.0000 0.91952  0.11065  0.11110  Biso   1.000  C
  C534     1.0000 0.17526  0.03667  0.05825  Biso   1.000  C
  C535     1.0000 0.23771  0.17066  0.06926  Biso   1.000  C
  C536     1.0000 0.11793  0.90756  0.04545  Biso   1.000  C
  C537     1.0000 0.86006  0.85813  0.28274  Biso   1.000  C
  C538     1.0000 0.03405  0.17538  0.06789  Biso   1.000  C
  C539     1.0000 0.03403  0.17533  0.06789  Biso   1.000  C
  H478     1.0000 0.09165  0.19956  0.10876  Biso   1.000  H
  C540     1.0000 0.90454  0.10629  0.07861  Biso   1.000  C
  C541     1.0000 0.90451  0.10624  0.07861  Biso   1.000  C
  H479     1.0000 0.88385  0.09016  0.12576  Biso   1.000  H
  H480     1.0000 0.18065  0.04539  0.03667  Biso   1.000  H
  H481     1.0000 0.18062  0.04534  0.03667  Biso   1.000  H
  N53      1.0000 0.24522  0.19017  0.03998  Biso   1.000  N
  H482     1.0000 0.25524  0.20428  0.08496  Biso   1.000  H
  N54      1.0000 0.09506  0.84168  0.05129  Biso   1.000  N
  H483     1.0000 0.11974  0.91918  0.02427  Biso   1.000  H
  N55      1.0000 0.09503  0.84163  0.05129  Biso   1.000  N
  H484     1.0000 0.11972  0.91913  0.02427  Biso   1.000  H
  C542     1.0000 0.86045  0.80231  0.26704  Biso   1.000  C
  C543     1.0000 0.80406  0.85942  0.26774  Biso   1.000  C
  C544     1.0000 0.85868  0.91124  0.26614  Biso   1.000  C
  C545     1.0000 0.91286  0.85771  0.26564  Biso   1.000  C
  C546     1.0000 0.09241  0.21035  0.04545  Biso   1.000  C
  C547     1.0000 0.96335  0.13855  0.05825  Biso   1.000  C
  C548     1.0000 0.82936  0.06707  0.06926  Biso   1.000  C
  C549     1.0000 0.27514  0.26834  0.03365  Biso   1.000  C
  C550     1.0000 0.06863  0.78794  0.02675  Biso   1.000  C
  C551     1.0000 0.85945  0.80407  0.23226  Biso   1.000  C
  H485     1.0000 0.86134  0.76662  0.27792  Biso   1.000  H
  C552     1.0000 0.80233  0.86046  0.23296  Biso   1.000  C
  H486     1.0000 0.76895  0.85973  0.27962  Biso   1.000  H
  C553     1.0000 0.85773  0.91285  0.23436  Biso   1.000  C
  H487     1.0000 0.85847  0.94704  0.27743  Biso   1.000  H
  C554     1.0000 0.91122  0.85865  0.23386  Biso   1.000  C
  H488     1.0000 0.94917  0.85683  0.27603  Biso   1.000  H
  N56      1.0000 0.15835  0.25335  0.05129  Biso   1.000  N
  H489     1.0000 0.08082  0.20054  0.02427  Biso   1.000  H
  H490     1.0000 0.95466  0.13529  0.03667  Biso   1.000  H
  H491     1.0000 0.95463  0.13523  0.03667  Biso   1.000  H
  N57      1.0000 0.80984  0.05509  0.03998  Biso   1.000  N
  H492     1.0000 0.79576  0.05099  0.08496  Biso   1.000  H
  N58      1.0000 0.80982  0.05504  0.03998  Biso   1.000  N
  H493     1.0000 0.79573  0.05094  0.08496  Biso   1.000  H
  C555     1.0000 0.32996  0.29568  0.00756  Biso   1.000  C
  C556     1.0000 0.21204  0.28069  0.02675  Biso   1.000  C
  H494     1.0000 0.29754  0.29329  0.05306  Biso   1.000  H
  C557     1.0000 0.21202  0.28063  0.02675  Biso   1.000  C
  H495     1.0000 0.29752  0.29324  0.05306  Biso   1.000  H
  C558     1.0000 0.99325  0.72486  0.03365  Biso   1.000  C
  H496     1.0000 0.06554  0.80988  0.00727  Biso   1.000  H
  C559     1.0000 0.12001  0.75915  0.01986  Biso   1.000  C
  H497     1.0000 0.06552  0.80983  0.00727  Biso   1.000  H
  C560     1.0000 0.85815  0.86005  0.21726  Biso   1.000  C
  H498     1.0000 0.85973  0.76896  0.22038  Biso   1.000  H
  H499     1.0000 0.76661  0.86134  0.22208  Biso   1.000  H
  H500     1.0000 0.85684  0.94916  0.22397  Biso   1.000  H
  H501     1.0000 0.94701  0.85844  0.22257  Biso   1.000  H
  C561     1.0000 0.73163  0.00674  0.03365  Biso   1.000  C
  C562     1.0000 0.35935  0.37567  0.00026  Biso   1.000  C
  H502     1.0000 0.30983  0.26907  0.98848  Biso   1.000  H
  H503     1.0000 0.36793  0.28878  0.01386  Biso   1.000  H
  H504     1.0000 0.36790  0.28873  0.01386  Biso   1.000  H
  H505     1.0000 0.19015  0.25568  0.00727  Biso   1.000  H
  C563     1.0000 0.24086  0.36088  0.01986  Biso   1.000  C
  H506     1.0000 0.19012  0.25563  0.00727  Biso   1.000  H
  C564     1.0000 0.24084  0.36083  0.01986  Biso   1.000  C
  N59      1.0000 0.94494  0.75474  0.03998  Biso   1.000  N
  C565     1.0000 0.96573  0.67009  0.00756  Biso   1.000  C
  H507     1.0000 0.99575  0.70245  0.05306  Biso   1.000  H
  C566     1.0000 0.96570  0.67003  0.00756  Biso   1.000  C
  C567     1.0000 0.09202  0.70147  0.99407  Biso   1.000  C
  H508     1.0000 0.12753  0.74069  0.03927  Biso   1.000  H
  H509     1.0000 0.16455  0.79738  0.01306  Biso   1.000  H
  H510     1.0000 0.12750  0.74063  0.03927  Biso   1.000  H
  H511     1.0000 0.16452  0.79733  0.01306  Biso   1.000  H
  C568     1.0000 0.85526  0.85958  0.18333  Biso   1.000  C
  C569     1.0000 0.85524  0.85953  0.18333  Biso   1.000  C
  C570     1.0000 0.71932  0.93137  0.02675  Biso   1.000  C
  C571     1.0000 0.70434  0.03429  0.00756  Biso   1.000  C
  H512     1.0000 0.70671  0.00425  0.05306  Biso   1.000  H
  C572     1.0000 0.70431  0.03424  0.00756  Biso   1.000  C
  H513     1.0000 0.38685  0.40326  0.01806  Biso   1.000  H
  C573     1.0000 0.29851  0.39055  0.99407  Biso   1.000  C
  H514     1.0000 0.38922  0.38895  0.98187  Biso   1.000  H
  H515     1.0000 0.25934  0.38687  0.03927  Biso   1.000  H
  H516     1.0000 0.20263  0.36716  0.01306  Biso   1.000  H
  C574     1.0000 0.93293  0.76226  0.06926  Biso   1.000  C
  H517     1.0000 0.95923  0.69016  0.98848  Biso   1.000  H
  H518     1.0000 0.92084  0.63206  0.01386  Biso   1.000  H
  C575     1.0000 0.01634  0.64067  0.00026  Biso   1.000  C
  H519     1.0000 0.09326  0.72227  0.97386  Biso   1.000  H
  H520     1.0000 0.12282  0.68248  0.99277  Biso   1.000  H
  H521     1.0000 0.12280  0.68243  0.99277  Biso   1.000  H
  C576     1.0000 0.85265  0.85507  0.15544  Biso   1.000  C
  N60      1.0000 0.74664  0.90497  0.05129  Biso   1.000  N
  H522     1.0000 0.74433  0.93448  0.00727  Biso   1.000  H
  C577     1.0000 0.63913  0.87997  0.01986  Biso   1.000  C
  H523     1.0000 0.74430  0.93443  0.00727  Biso   1.000  H
  C578     1.0000 0.62431  0.98366  0.00026  Biso   1.000  C
  H524     1.0000 0.73094  0.04077  0.98848  Biso   1.000  H
  H525     1.0000 0.71123  0.07916  0.01386  Biso   1.000  H
  H526     1.0000 0.27770  0.37095  0.97386  Biso   1.000  H
  H527     1.0000 0.31753  0.44035  0.99277  Biso   1.000  H
  H528     1.0000 0.94903  0.74478  0.08496  Biso   1.000  H
  C579     1.0000 0.89374  0.79826  0.07861  Biso   1.000  C
  H529     1.0000 0.94901  0.74473  0.08496  Biso   1.000  H
  H530     1.0000 0.99971  0.61074  0.98187  Biso   1.000  H
  H531     1.0000 0.01643  0.61318  0.01806  Biso   1.000  H
  H532     1.0000 0.01640  0.61313  0.01806  Biso   1.000  H
  C580     1.0000 0.85305  0.84329  0.12116  Biso   1.000  C
  C581     1.0000 0.85302  0.84324  0.12116  Biso   1.000  C
  C582     1.0000 0.78965  0.88209  0.04545  Biso   1.000  C
  C583     1.0000 0.78963  0.88204  0.04545  Biso   1.000  C
  C584     1.0000 0.60942  0.90798  0.99407  Biso   1.000  C
  H533     1.0000 0.61313  0.87244  0.03927  Biso   1.000  H
  H534     1.0000 0.63282  0.83546  0.01306  Biso   1.000  H
  H535     1.0000 0.59672  0.98356  0.01806  Biso   1.000  H
  H536     1.0000 0.61105  0.00026  0.98187  Biso   1.000  H
  C585     1.0000 0.86144  0.82477  0.05825  Biso   1.000  C
  C586     1.0000 0.88933  0.80885  0.11110  Biso   1.000  C
  C587     1.0000 0.82225  0.86876  0.10092  Biso   1.000  C
  C588     1.0000 0.82461  0.85865  0.06789  Biso   1.000  C
  H537     1.0000 0.79944  0.88028  0.02427  Biso   1.000  H
  H538     1.0000 0.62904  0.90678  0.97386  Biso   1.000  H
  H539     1.0000 0.55965  0.87716  0.99277  Biso   1.000  H
  H540     1.0000 0.62902  0.90673  0.97386  Biso   1.000  H
  H541     1.0000 0.86472  0.81938  0.03667  Biso   1.000  H
  H542     1.0000 0.90981  0.79365  0.12576  Biso   1.000  H
  H543     1.0000 0.80043  0.89205  0.10876  Biso   1.000  H
  C589     1.0000 0.36083  0.24080  0.48014  Biso   1.000  C
  C590     1.0000 0.28069  0.21206  0.47325  Biso   1.000  C
  C591     1.0000 0.28067  0.21201  0.47325  Biso   1.000  C
  H544     1.0000 0.38685  0.25931  0.46073  Biso   1.000  H
  H545     1.0000 0.36717  0.20262  0.48694  Biso   1.000  H
  C592     1.0000 0.39055  0.29853  0.50593  Biso   1.000  C
  N61      1.0000 0.25337  0.15832  0.44871  Biso   1.000  N
  H546     1.0000 0.25566  0.19012  0.49273  Biso   1.000  H
  C593     1.0000 0.26839  0.27514  0.46635  Biso   1.000  C
  C594     1.0000 0.36086  0.24085  0.48014  Biso   1.000  C
  C595     1.0000 0.37567  0.35933  0.49974  Biso   1.000  C
  H547     1.0000 0.37099  0.27773  0.52614  Biso   1.000  H
  H548     1.0000 0.44034  0.31752  0.50723  Biso   1.000  H
  C596     1.0000 0.21037  0.09244  0.45455  Biso   1.000  C
  C597     1.0000 0.29564  0.32991  0.49244  Biso   1.000  C
  N62      1.0000 0.19019  0.24526  0.46002  Biso   1.000  N
  H549     1.0000 0.29329  0.29755  0.44694  Biso   1.000  H
  N63      1.0000 0.19017  0.24521  0.46002  Biso   1.000  N
  H550     1.0000 0.29327  0.29749  0.44694  Biso   1.000  H
  H551     1.0000 0.40325  0.38682  0.48194  Biso   1.000  H
  H552     1.0000 0.38897  0.38926  0.51813  Biso   1.000  H
  H553     1.0000 0.38894  0.38921  0.51813  Biso   1.000  H
  C598     1.0000 0.17537  0.03403  0.43211  Biso   1.000  C
  H554     1.0000 0.20056  0.08082  0.47573  Biso   1.000  H
  H555     1.0000 0.28878  0.36794  0.48614  Biso   1.000  H
  H556     1.0000 0.26907  0.30984  0.51152  Biso   1.000  H
  C599     1.0000 0.17066  0.23774  0.43074  Biso   1.000  C
  C600     1.0000 0.17776  0.04653  0.39908  Biso   1.000  C
  C601     1.0000 0.13858  0.96333  0.44175  Biso   1.000  C
  H557     1.0000 0.20425  0.25522  0.41504  Biso   1.000  H
  C602     1.0000 0.09548  0.20174  0.42139  Biso   1.000  C
  C603     1.0000 0.14697  0.99025  0.37884  Biso   1.000  C
  C604     1.0000 0.14694  0.99020  0.37884  Biso   1.000  C
  H558     1.0000 0.19953  0.09161  0.39124  Biso   1.000  H
  C605     1.0000 0.10627  0.90455  0.42139  Biso   1.000  C
  C606     1.0000 0.10625  0.90450  0.42139  Biso   1.000  C
  H559     1.0000 0.13526  0.95461  0.46333  Biso   1.000  H
  C607     1.0000 0.03667  0.17523  0.44175  Biso   1.000  C
  C608     1.0000 0.08048  0.19115  0.38890  Biso   1.000  C
  C609     1.0000 0.08046  0.19110  0.38890  Biso   1.000  C
  C610     1.0000 0.14736  0.00244  0.34456  Biso   1.000  C
  C611     1.0000 0.11067  0.91954  0.38890  Biso   1.000  C
  C612     1.0000 0.06705  0.82934  0.43074  Biso   1.000  C
  H560     1.0000 0.04534  0.18062  0.46333  Biso   1.000  H
  C613     1.0000 0.96596  0.14135  0.43211  Biso   1.000  C
  C614     1.0000 0.96593  0.14130  0.43211  Biso   1.000  C
  C615     1.0000 0.00976  0.15671  0.37884  Biso   1.000  C
  H561     1.0000 0.11616  0.20635  0.37424  Biso   1.000  H
  H562     1.0000 0.11613  0.20630  0.37424  Biso   1.000  H
  C616     1.0000 0.14477  0.00436  0.31667  Biso   1.000  C
  C617     1.0000 0.14474  0.00431  0.31667  Biso   1.000  C
  H563     1.0000 0.09018  0.88386  0.37424  Biso   1.000  H
  H564     1.0000 0.09015  0.88380  0.37424  Biso   1.000  H
  N64      1.0000 0.05505  0.80983  0.46002  Biso   1.000  N
  H565     1.0000 0.05096  0.79572  0.41504  Biso   1.000  H
  C618     1.0000 0.90756  0.11791  0.45455  Biso   1.000  C
  C619     1.0000 0.95349  0.13124  0.39908  Biso   1.000  C
  C620     1.0000 0.99758  0.14493  0.34456  Biso   1.000  C
  C621     1.0000 0.14184  0.00192  0.28274  Biso   1.000  C
  C622     1.0000 0.00680  0.73166  0.46635  Biso   1.000  C
  C623     1.0000 0.00677  0.73161  0.46635  Biso   1.000  C
  N65      1.0000 0.84168  0.09503  0.44871  Biso   1.000  N
  H566     1.0000 0.91916  0.11972  0.47573  Biso   1.000  H
  H567     1.0000 0.90838  0.10795  0.39124  Biso   1.000  H
  H568     1.0000 0.90835  0.10790  0.39124  Biso   1.000  H
  C624     1.0000 0.99568  0.14042  0.31667  Biso   1.000  C
  C625     1.0000 0.19767  0.05815  0.26704  Biso   1.000  C
  C626     1.0000 0.19765  0.05810  0.26704  Biso   1.000  C
  C627     1.0000 0.14226  0.05514  0.26564  Biso   1.000  C
  C628     1.0000 0.14056  0.94465  0.26774  Biso   1.000  C
  C629     1.0000 0.14054  0.94460  0.26774  Biso   1.000  C
  C630     1.0000 0.08878  0.94745  0.26614  Biso   1.000  C
  C631     1.0000 0.93135  0.71931  0.47325  Biso   1.000  C
  C632     1.0000 0.03428  0.70432  0.49244  Biso   1.000  C
  H569     1.0000 0.00425  0.70671  0.44694  Biso   1.000  H
  C633     1.0000 0.78795  0.06863  0.47325  Biso   1.000  C
  C634     1.0000 0.99810  0.13995  0.28274  Biso   1.000  C
  C635     1.0000 0.99807  0.13990  0.28274  Biso   1.000  C
  C636     1.0000 0.19591  0.05535  0.23226  Biso   1.000  C
  H570     1.0000 0.23334  0.09472  0.27792  Biso   1.000  H
  C637     1.0000 0.14132  0.05255  0.23386  Biso   1.000  C
  H571     1.0000 0.14316  0.09233  0.27603  Biso   1.000  H
  C638     1.0000 0.13952  0.94185  0.23296  Biso   1.000  C
  H572     1.0000 0.14028  0.90922  0.27962  Biso   1.000  H
  C639     1.0000 0.08712  0.94486  0.23436  Biso   1.000  C
  H573     1.0000 0.05299  0.91145  0.27743  Biso   1.000  H
  N66      1.0000 0.90500  0.74665  0.44871  Biso   1.000  N
  H574     1.0000 0.93447  0.74432  0.49273  Biso   1.000  H
  C640     1.0000 0.87998  0.63912  0.48014  Biso   1.000  C
  N67      1.0000 0.90497  0.74660  0.44871  Biso   1.000  N
  C641     1.0000 0.98369  0.62433  0.49974  Biso   1.000  C
  H575     1.0000 0.07915  0.71122  0.48614  Biso   1.000  H
  H576     1.0000 0.04076  0.73093  0.51152  Biso   1.000  H
  C642     1.0000 0.72489  0.99326  0.46635  Biso   1.000  C
  C643     1.0000 0.72486  0.99320  0.46635  Biso   1.000  C
  H577     1.0000 0.80985  0.06552  0.49273  Biso   1.000  H
  C644     1.0000 0.75916  0.12003  0.48014  Biso   1.000  C
  C645     1.0000 0.94187  0.13954  0.26704  Biso   1.000  C
  C646     1.0000 0.94488  0.08715  0.26564  Biso   1.000  C
  C647     1.0000 0.05538  0.19593  0.26774  Biso   1.000  C
  C648     1.0000 0.05257  0.14135  0.26614  Biso   1.000  C
  H578     1.0000 0.23106  0.09078  0.22038  Biso   1.000  H
  C649     1.0000 0.13992  0.99808  0.21726  Biso   1.000  C
  C650     1.0000 0.13989  0.99803  0.21726  Biso   1.000  C
  H579     1.0000 0.14153  0.08855  0.22257  Biso   1.000  H
  H580     1.0000 0.13862  0.90528  0.22208  Biso   1.000  H
  H581     1.0000 0.13860  0.90523  0.22208  Biso   1.000  H
  H582     1.0000 0.05082  0.90767  0.22397  Biso   1.000  H
  C651     1.0000 0.88207  0.78965  0.45455  Biso   1.000  C
  C652     1.0000 0.88204  0.78960  0.45455  Biso   1.000  C
  H583     1.0000 0.87247  0.61313  0.46073  Biso   1.000  H
  H584     1.0000 0.83547  0.63284  0.48694  Biso   1.000  H
  C653     1.0000 0.90796  0.60945  0.50593  Biso   1.000  C
  C654     1.0000 0.90793  0.60939  0.50593  Biso   1.000  C
  H585     1.0000 0.98359  0.59674  0.48194  Biso   1.000  H
  H586     1.0000 0.00027  0.61105  0.51813  Biso   1.000  H
  H587     1.0000 0.00024  0.61100  0.51813  Biso   1.000  H
  N68      1.0000 0.75476  0.94491  0.46002  Biso   1.000  N
  C655     1.0000 0.67005  0.96571  0.49244  Biso   1.000  C
  H588     1.0000 0.70246  0.99575  0.44694  Biso   1.000  H
  H589     1.0000 0.70243  0.99569  0.44694  Biso   1.000  H
  H590     1.0000 0.74069  0.12756  0.46073  Biso   1.000  H
  H591     1.0000 0.79737  0.16454  0.48694  Biso   1.000  H
  C656     1.0000 0.70145  0.09202  0.50593  Biso   1.000  C
  H592     1.0000 0.74066  0.12750  0.46073  Biso   1.000  H
  C657     1.0000 0.94464  0.14058  0.23226  Biso   1.000  C
  H593     1.0000 0.90527  0.13866  0.27792  Biso   1.000  H
  H594     1.0000 0.90524  0.13861  0.27792  Biso   1.000  H
  C658     1.0000 0.94743  0.08876  0.23386  Biso   1.000  C
  H595     1.0000 0.90767  0.05084  0.27603  Biso   1.000  H
  C659     1.0000 0.05814  0.19769  0.23296  Biso   1.000  C
  C660     1.0000 0.05812  0.19764  0.23296  Biso   1.000  C
  H596     1.0000 0.09077  0.23104  0.27962  Biso   1.000  H
  C661     1.0000 0.05515  0.14229  0.23436  Biso   1.000  C
  H597     1.0000 0.08854  0.14151  0.27743  Biso   1.000  H
  C662     1.0000 0.14041  0.99564  0.18333  Biso   1.000  C
  H598     1.0000 0.88028  0.79946  0.47573  Biso   1.000  H
  C663     1.0000 0.85867  0.82462  0.43211  Biso   1.000  C
  H599     1.0000 0.88025  0.79941  0.47573  Biso   1.000  H
  H600     1.0000 0.90676  0.62905  0.52614  Biso   1.000  H
  H601     1.0000 0.87717  0.55965  0.50723  Biso   1.000  H
  H602     1.0000 0.90673  0.62900  0.52614  Biso   1.000  H
  H603     1.0000 0.87715  0.55960  0.50723  Biso   1.000  H
  C664     1.0000 0.76229  0.93293  0.43074  Biso   1.000  C
  H604     1.0000 0.63207  0.92084  0.48614  Biso   1.000  H
  H605     1.0000 0.69017  0.95923  0.51152  Biso   1.000  H
  C665     1.0000 0.64065  0.01634  0.49974  Biso   1.000  C
  H606     1.0000 0.72226  0.09322  0.52614  Biso   1.000  H
  H607     1.0000 0.68249  0.12284  0.50723  Biso   1.000  H
  C666     1.0000 0.00193  0.14187  0.21726  Biso   1.000  C
  H608     1.0000 0.90922  0.14027  0.22038  Biso   1.000  H
  H609     1.0000 0.91143  0.05296  0.22257  Biso   1.000  H
  H610     1.0000 0.09472  0.23338  0.22208  Biso   1.000  H
  H611     1.0000 0.09234  0.14317  0.22397  Biso   1.000  H
  C667     1.0000 0.14492  0.99756  0.15544  Biso   1.000  C
  C668     1.0000 0.82479  0.86145  0.44175  Biso   1.000  C
  C669     1.0000 0.86875  0.82223  0.39908  Biso   1.000  C
  C670     1.0000 0.82477  0.86139  0.44175  Biso   1.000  C
  C671     1.0000 0.79825  0.89371  0.42139  Biso   1.000  C
  H612     1.0000 0.74476  0.94901  0.41504  Biso   1.000  H
  H613     1.0000 0.61079  0.99974  0.51813  Biso   1.000  H
  H614     1.0000 0.61316  0.01644  0.48194  Biso   1.000  H
  C672     1.0000 0.00433  0.14478  0.18333  Biso   1.000  C
  C673     1.0000 0.00430  0.14473  0.18333  Biso   1.000  C
  C674     1.0000 0.15672  0.00975  0.12116  Biso   1.000  C
  H615     1.0000 0.81937  0.86471  0.46333  Biso   1.000  H
  C675     1.0000 0.84328  0.85304  0.37884  Biso   1.000  C
  H616     1.0000 0.89209  0.80044  0.39124  Biso   1.000  H
  C676     1.0000 0.80887  0.88935  0.38890  Biso   1.000  C
  C677     1.0000 0.80885  0.88930  0.38890  Biso   1.000  C
  C678     1.0000 0.00244  0.14737  0.15544  Biso   1.000  C
  C679     1.0000 0.19113  0.08046  0.11110  Biso   1.000  C
  C680     1.0000 0.13123  0.95347  0.10092  Biso   1.000  C
  C681     1.0000 0.85507  0.85263  0.34456  Biso   1.000  C
  H617     1.0000 0.79369  0.90984  0.37424  Biso   1.000  H
  C682     1.0000 0.99024  0.14696  0.12116  Biso   1.000  C
  C683     1.0000 0.20172  0.09545  0.07861  Biso   1.000  C
  H618     1.0000 0.20632  0.11614  0.12576  Biso   1.000  H
  C684     1.0000 0.14134  0.96597  0.06789  Biso   1.000  C
  H619     1.0000 0.10792  0.90839  0.10876  Biso   1.000  H
  H620     1.0000 0.10790  0.90834  0.10876  Biso   1.000  H
  C685     1.0000 0.85955  0.85522  0.31667  Biso   1.000  C
  C686     1.0000 0.04652  0.17777  0.10092  Biso   1.000  C
  C687     1.0000 0.91952  0.11065  0.11110  Biso   1.000  C
  C688     1.0000 0.17526  0.03667  0.05825  Biso   1.000  C
  C689     1.0000 0.23771  0.17066  0.06926  Biso   1.000  C
  C690     1.0000 0.11793  0.90756  0.04545  Biso   1.000  C
  C691     1.0000 0.86006  0.85813  0.28274  Biso   1.000  C
  C692     1.0000 0.03405  0.17538  0.06789  Biso   1.000  C
  C693     1.0000 0.03403  0.17533  0.06789  Biso   1.000  C
  H621     1.0000 0.09165  0.19956  0.10876  Biso   1.000  H
  C694     1.0000 0.90454  0.10629  0.07861  Biso   1.000  C
  C695     1.0000 0.90451  0.10624  0.07861  Biso   1.000  C
  H622     1.0000 0.88385  0.09016  0.12576  Biso   1.000  H
  H623     1.0000 0.18065  0.04539  0.03667  Biso   1.000  H
  H624     1.0000 0.18062  0.04534  0.03667  Biso   1.000  H
  N69      1.0000 0.24522  0.19017  0.03998  Biso   1.000  N
  H625     1.0000 0.25524  0.20428  0.08496  Biso   1.000  H
  N70      1.0000 0.09506  0.84168  0.05129  Biso   1.000  N
  H626     1.0000 0.11974  0.91918  0.02427  Biso   1.000  H
  N71      1.0000 0.09503  0.84163  0.05129  Biso   1.000  N
  H627     1.0000 0.11972  0.91913  0.02427  Biso   1.000  H
  C696     1.0000 0.86045  0.80231  0.26704  Biso   1.000  C
  C697     1.0000 0.80406  0.85942  0.26774  Biso   1.000  C
  C698     1.0000 0.85868  0.91124  0.26614  Biso   1.000  C
  C699     1.0000 0.91286  0.85771  0.26564  Biso   1.000  C
  C700     1.0000 0.09241  0.21035  0.04545  Biso   1.000  C
  C701     1.0000 0.96335  0.13855  0.05825  Biso   1.000  C
  C702     1.0000 0.82936  0.06707  0.06926  Biso   1.000  C
  C703     1.0000 0.27514  0.26834  0.03365  Biso   1.000  C
  C704     1.0000 0.06863  0.78794  0.02675  Biso   1.000  C
  C705     1.0000 0.85945  0.80407  0.23226  Biso   1.000  C
  H628     1.0000 0.86134  0.76662  0.27792  Biso   1.000  H
  C706     1.0000 0.80233  0.86046  0.23296  Biso   1.000  C
  H629     1.0000 0.76895  0.85973  0.27962  Biso   1.000  H
  C707     1.0000 0.85773  0.91285  0.23436  Biso   1.000  C
  H630     1.0000 0.85847  0.94704  0.27743  Biso   1.000  H
  C708     1.0000 0.91122  0.85865  0.23386  Biso   1.000  C
  H631     1.0000 0.94917  0.85683  0.27603  Biso   1.000  H
  N72      1.0000 0.15835  0.25335  0.05129  Biso   1.000  N
  H632     1.0000 0.08082  0.20054  0.02427  Biso   1.000  H
  H633     1.0000 0.95466  0.13529  0.03667  Biso   1.000  H
  H634     1.0000 0.95463  0.13523  0.03667  Biso   1.000  H
  N73      1.0000 0.80984  0.05509  0.03998  Biso   1.000  N
  H635     1.0000 0.79576  0.05099  0.08496  Biso   1.000  H
  N74      1.0000 0.80982  0.05504  0.03998  Biso   1.000  N
  H636     1.0000 0.79573  0.05094  0.08496  Biso   1.000  H
  C709     1.0000 0.32996  0.29568  0.00756  Biso   1.000  C
  C710     1.0000 0.21204  0.28069  0.02675  Biso   1.000  C
  H637     1.0000 0.29754  0.29329  0.05306  Biso   1.000  H
  C711     1.0000 0.21202  0.28063  0.02675  Biso   1.000  C
  H638     1.0000 0.29752  0.29324  0.05306  Biso   1.000  H
  C712     1.0000 0.99325  0.72486  0.03365  Biso   1.000  C
  H639     1.0000 0.06554  0.80988  0.00727  Biso   1.000  H
  C713     1.0000 0.12001  0.75915  0.01986  Biso   1.000  C
  H640     1.0000 0.06552  0.80983  0.00727  Biso   1.000  H
  C714     1.0000 0.85815  0.86005  0.21726  Biso   1.000  C
  H641     1.0000 0.85973  0.76896  0.22038  Biso   1.000  H
  H642     1.0000 0.76661  0.86134  0.22208  Biso   1.000  H
  H643     1.0000 0.85684  0.94916  0.22397  Biso   1.000  H
  H644     1.0000 0.94701  0.85844  0.22257  Biso   1.000  H
  C715     1.0000 0.73163  0.00674  0.03365  Biso   1.000  C
  C716     1.0000 0.35935  0.37567  0.00026  Biso   1.000  C
  H645     1.0000 0.30983  0.26907  0.98848  Biso   1.000  H
  H646     1.0000 0.36793  0.28878  0.01386  Biso   1.000  H
  H647     1.0000 0.36790  0.28873  0.01386  Biso   1.000  H
  H648     1.0000 0.19015  0.25568  0.00727  Biso   1.000  H
  C717     1.0000 0.24086  0.36088  0.01986  Biso   1.000  C
  H649     1.0000 0.19012  0.25563  0.00727  Biso   1.000  H
  C718     1.0000 0.24084  0.36083  0.01986  Biso   1.000  C
  N75      1.0000 0.94494  0.75474  0.03998  Biso   1.000  N
  C719     1.0000 0.96573  0.67009  0.00756  Biso   1.000  C
  H650     1.0000 0.99575  0.70245  0.05306  Biso   1.000  H
  C720     1.0000 0.96570  0.67003  0.00756  Biso   1.000  C
  C721     1.0000 0.09202  0.70147  0.99407  Biso   1.000  C
  H651     1.0000 0.12753  0.74069  0.03927  Biso   1.000  H
  H652     1.0000 0.16455  0.79738  0.01306  Biso   1.000  H
  H653     1.0000 0.12750  0.74063  0.03927  Biso   1.000  H
  H654     1.0000 0.16452  0.79733  0.01306  Biso   1.000  H
  C722     1.0000 0.85526  0.85958  0.18333  Biso   1.000  C
  C723     1.0000 0.85524  0.85953  0.18333  Biso   1.000  C
  C724     1.0000 0.71932  0.93137  0.02675  Biso   1.000  C
  C725     1.0000 0.70434  0.03429  0.00756  Biso   1.000  C
  H655     1.0000 0.70671  0.00425  0.05306  Biso   1.000  H
  C726     1.0000 0.70431  0.03424  0.00756  Biso   1.000  C
  H656     1.0000 0.38685  0.40326  0.01806  Biso   1.000  H
  C727     1.0000 0.29851  0.39055  0.99407  Biso   1.000  C
  H657     1.0000 0.38922  0.38895  0.98187  Biso   1.000  H
  H658     1.0000 0.25934  0.38687  0.03927  Biso   1.000  H
  H659     1.0000 0.20263  0.36716  0.01306  Biso   1.000  H
  C728     1.0000 0.93293  0.76226  0.06926  Biso   1.000  C
  H660     1.0000 0.95923  0.69016  0.98848  Biso   1.000  H
  H661     1.0000 0.92084  0.63206  0.01386  Biso   1.000  H
  C729     1.0000 0.01634  0.64067  0.00026  Biso   1.000  C
  H662     1.0000 0.09326  0.72227  0.97386  Biso   1.000  H
  H663     1.0000 0.12282  0.68248  0.99277  Biso   1.000  H
  H664     1.0000 0.12280  0.68243  0.99277  Biso   1.000  H
  C730     1.0000 0.85265  0.85507  0.15544  Biso   1.000  C
  N76      1.0000 0.74664  0.90497  0.05129  Biso   1.000  N
  H665     1.0000 0.74433  0.93448  0.00727  Biso   1.000  H
  C731     1.0000 0.63913  0.87997  0.01986  Biso   1.000  C
  H666     1.0000 0.74430  0.93443  0.00727  Biso   1.000  H
  C732     1.0000 0.62431  0.98366  0.00026  Biso   1.000  C
  H667     1.0000 0.73094  0.04077  0.98848  Biso   1.000  H
  H668     1.0000 0.71123  0.07916  0.01386  Biso   1.000  H
  H669     1.0000 0.27770  0.37095  0.97386  Biso   1.000  H
  H670     1.0000 0.31753  0.44035  0.99277  Biso   1.000  H
  H671     1.0000 0.94903  0.74478  0.08496  Biso   1.000  H
  C733     1.0000 0.89374  0.79826  0.07861  Biso   1.000  C
  H672     1.0000 0.94901  0.74473  0.08496  Biso   1.000  H
  H673     1.0000 0.99971  0.61074  0.98187  Biso   1.000  H
  H674     1.0000 0.01643  0.61318  0.01806  Biso   1.000  H
  H675     1.0000 0.01640  0.61313  0.01806  Biso   1.000  H
  C734     1.0000 0.85305  0.84329  0.12116  Biso   1.000  C
  C735     1.0000 0.85302  0.84324  0.12116  Biso   1.000  C
  C736     1.0000 0.78965  0.88209  0.04545  Biso   1.000  C
  C737     1.0000 0.78963  0.88204  0.04545  Biso   1.000  C
  C738     1.0000 0.60942  0.90798  0.99407  Biso   1.000  C
  H676     1.0000 0.61313  0.87244  0.03927  Biso   1.000  H
  H677     1.0000 0.63282  0.83546  0.01306  Biso   1.000  H
  H678     1.0000 0.59672  0.98356  0.01806  Biso   1.000  H
  H679     1.0000 0.61105  0.00026  0.98187  Biso   1.000  H
  C739     1.0000 0.86144  0.82477  0.05825  Biso   1.000  C
  C740     1.0000 0.88933  0.80885  0.11110  Biso   1.000  C
  C741     1.0000 0.82225  0.86876  0.10092  Biso   1.000  C
  C742     1.0000 0.82461  0.85865  0.06789  Biso   1.000  C
  H680     1.0000 0.79944  0.88028  0.02427  Biso   1.000  H
  H681     1.0000 0.62904  0.90678  0.97386  Biso   1.000  H
  H682     1.0000 0.55965  0.87716  0.99277  Biso   1.000  H
  H683     1.0000 0.62902  0.90673  0.97386  Biso   1.000  H
  H684     1.0000 0.86472  0.81938  0.03667  Biso   1.000  H
  H685     1.0000 0.90981  0.79365  0.12576  Biso   1.000  H
  H686     1.0000 0.80043  0.89205  0.10876  Biso   1.000  H
  C743     1.0000 0.36816  0.94278  0.33927  Biso   1.000  C
  C744     1.0000 0.42581  0.97246  0.31346  Biso   1.000  C
  C745     1.0000 0.30732  0.95767  0.33306  Biso   1.000  C
  H687     1.0000 0.38897  0.96239  0.35946  Biso   1.000  H
  H688     1.0000 0.34914  0.89299  0.34057  Biso   1.000  H
  C746     1.0000 0.45463  0.05265  0.30659  Biso   1.000  C
  H689     1.0000 0.40733  0.94647  0.29407  Biso   1.000  H
  H690     1.0000 0.46404  0.96618  0.32026  Biso   1.000  H
  C747     1.0000 0.33671  0.03766  0.32576  Biso   1.000  C
  H691     1.0000 0.27745  0.94439  0.35148  Biso   1.000  H
  H692     1.0000 0.27982  0.93007  0.31528  Biso   1.000  H
  C748     1.0000 0.39150  0.06495  0.29969  Biso   1.000  C
  N77      1.0000 0.50832  0.07999  0.28203  Biso   1.000  N
  H693     1.0000 0.47652  0.07765  0.32607  Biso   1.000  H
  H694     1.0000 0.29874  0.04456  0.31946  Biso   1.000  H
  H695     1.0000 0.35684  0.06427  0.34486  Biso   1.000  H
  N78      1.0000 0.42145  0.14317  0.29334  Biso   1.000  N
  H696     1.0000 0.36912  0.04005  0.28026  Biso   1.000  H
  C749     1.0000 0.57425  0.12299  0.28789  Biso   1.000  C
  C750     1.0000 0.42896  0.16267  0.26406  Biso   1.000  C
  H697     1.0000 0.58582  0.13274  0.30907  Biso   1.000  H
  C751     1.0000 0.63262  0.15795  0.26545  Biso   1.000  C
  C752     1.0000 0.46495  0.23789  0.25473  Biso   1.000  C
  H698     1.0000 0.41143  0.12906  0.24836  Biso   1.000  H
  C753     1.0000 0.70332  0.19478  0.27509  Biso   1.000  C
  C754     1.0000 0.62015  0.15557  0.23242  Biso   1.000  C
  C755     1.0000 0.49141  0.29666  0.27509  Biso   1.000  C
  C756     1.0000 0.47554  0.25288  0.22224  Biso   1.000  C
  C757     1.0000 0.76213  0.22705  0.25473  Biso   1.000  C
  H699     1.0000 0.71201  0.19805  0.29667  Biso   1.000  H
  C758     1.0000 0.67643  0.18638  0.21216  Biso   1.000  C
  H700     1.0000 0.57502  0.13378  0.22456  Biso   1.000  H
  C759     1.0000 0.52533  0.36737  0.26545  Biso   1.000  C
  H701     1.0000 0.48602  0.28795  0.29667  Biso   1.000  H
  H702     1.0000 0.46032  0.21714  0.20756  Biso   1.000  H
  C760     1.0000 0.50995  0.32359  0.21216  Biso   1.000  C
  C761     1.0000 0.83731  0.26627  0.26406  Biso   1.000  C
  C762     1.0000 0.74715  0.22269  0.22224  Biso   1.000  C
  C763     1.0000 0.66423  0.18597  0.17790  Biso   1.000  C
  C764     1.0000 0.54874  0.42578  0.28789  Biso   1.000  C
  C765     1.0000 0.53544  0.37987  0.23242  Biso   1.000  C
  C766     1.0000 0.52175  0.33578  0.17790  Biso   1.000  C
  N79      1.0000 0.85682  0.27825  0.29334  Biso   1.000  N
  H703     1.0000 0.87091  0.28235  0.24836  Biso   1.000  H
  H704     1.0000 0.78282  0.24318  0.20756  Biso   1.000  H
  C767     1.0000 0.66234  0.18856  0.14999  Biso   1.000  C
  N80      1.0000 0.57161  0.49166  0.28203  Biso   1.000  N
  H705     1.0000 0.54693  0.41416  0.30907  Biso   1.000  H
  H706     1.0000 0.55874  0.42495  0.22456  Biso   1.000  H
  C768     1.0000 0.52623  0.33764  0.14999  Biso   1.000  C
  C769     1.0000 0.93501  0.32654  0.29969  Biso   1.000  C
  C770     1.0000 0.66473  0.19146  0.11606  Biso   1.000  C
  C771     1.0000 0.59801  0.54534  0.30659  Biso   1.000  C
  C772     1.0000 0.52675  0.33526  0.11606  Biso   1.000  C
  C773     1.0000 0.94734  0.40197  0.30659  Biso   1.000  C
  C774     1.0000 0.96233  0.29905  0.32576  Biso   1.000  C
  H707     1.0000 0.95996  0.32908  0.28026  Biso   1.000  H
  C775     1.0000 0.72203  0.19276  0.10106  Biso   1.000  C
  C776     1.0000 0.60853  0.13565  0.10038  Biso   1.000  C
  C777     1.0000 0.61152  0.19105  0.09896  Biso   1.000  C
  C778     1.0000 0.71924  0.24458  0.09946  Biso   1.000  C
  H708     1.0000 0.60112  0.52345  0.32607  Biso   1.000  H
  C779     1.0000 0.54666  0.57419  0.31346  Biso   1.000  C
  C780     1.0000 0.67342  0.60847  0.29969  Biso   1.000  C
  C781     1.0000 0.47076  0.27799  0.10106  Biso   1.000  C
  C782     1.0000 0.52715  0.39149  0.10038  Biso   1.000  C
  C783     1.0000 0.57955  0.38848  0.09896  Biso   1.000  C
  C784     1.0000 0.52535  0.28079  0.09946  Biso   1.000  C
  N81      1.0000 0.92003  0.42837  0.28203  Biso   1.000  N
  H709     1.0000 0.92234  0.39885  0.32607  Biso   1.000  H
  C785     1.0000 0.02754  0.45337  0.31346  Biso   1.000  C
  H710     1.0000 0.95544  0.25418  0.31946  Biso   1.000  H
  H711     1.0000 0.93573  0.29257  0.34486  Biso   1.000  H
  C786     1.0000 0.04236  0.34968  0.33306  Biso   1.000  C
  C787     1.0000 0.72480  0.19380  0.06630  Biso   1.000  C
  H712     1.0000 0.75745  0.19307  0.11296  Biso   1.000  H
  C788     1.0000 0.61129  0.13741  0.06560  Biso   1.000  C
  H713     1.0000 0.57195  0.09996  0.11126  Biso   1.000  H
  C789     1.0000 0.61410  0.19198  0.06720  Biso   1.000  C
  H714     1.0000 0.57433  0.19017  0.10937  Biso   1.000  H
  C790     1.0000 0.72179  0.24619  0.06770  Biso   1.000  C
  H715     1.0000 0.75524  0.28038  0.11077  Biso   1.000  H
  H716     1.0000 0.53914  0.59265  0.29407  Biso   1.000  H
  H717     1.0000 0.50212  0.53596  0.32026  Biso   1.000  H
  C791     1.0000 0.57465  0.63187  0.33927  Biso   1.000  C
  N82      1.0000 0.72171  0.57854  0.29334  Biso   1.000  N
  C792     1.0000 0.70094  0.66325  0.32576  Biso   1.000  C
  H718     1.0000 0.67092  0.63088  0.28026  Biso   1.000  H
  C793     1.0000 0.46900  0.27519  0.06630  Biso   1.000  C
  H719     1.0000 0.43561  0.24256  0.11296  Biso   1.000  H
  C794     1.0000 0.52610  0.38869  0.06560  Biso   1.000  C
  H720     1.0000 0.52805  0.42806  0.11126  Biso   1.000  H
  C795     1.0000 0.57789  0.38589  0.06720  Biso   1.000  C
  H721     1.0000 0.61585  0.42567  0.10937  Biso   1.000  H
  C796     1.0000 0.52441  0.27820  0.06770  Biso   1.000  C
  H722     1.0000 0.52514  0.24479  0.11077  Biso   1.000  H
  C797     1.0000 0.87702  0.45125  0.28789  Biso   1.000  C
  H723     1.0000 0.05351  0.46084  0.29407  Biso   1.000  H
  H724     1.0000 0.03385  0.49788  0.32026  Biso   1.000  H
  C798     1.0000 0.05724  0.42536  0.33927  Biso   1.000  C
  H725     1.0000 0.05562  0.33308  0.35148  Biso   1.000  H
  H726     1.0000 0.06995  0.34978  0.31528  Biso   1.000  H
  C799     1.0000 0.66857  0.19338  0.05060  Biso   1.000  C
  H727     1.0000 0.76140  0.19468  0.05540  Biso   1.000  H
  H728     1.0000 0.57590  0.10229  0.05370  Biso   1.000  H
  H729     1.0000 0.57810  0.19178  0.05589  Biso   1.000  H
  H730     1.0000 0.75900  0.28250  0.05731  Biso   1.000  H
  H731     1.0000 0.57341  0.61107  0.35946  Biso   1.000  H
  H732     1.0000 0.54385  0.65085  0.34057  Biso   1.000  H
  C800     1.0000 0.65033  0.69266  0.33306  Biso   1.000  C
  C801     1.0000 0.73374  0.57107  0.26406  Biso   1.000  C
  H733     1.0000 0.74583  0.70128  0.31946  Biso   1.000  H
  H734     1.0000 0.70744  0.64318  0.34486  Biso   1.000  H
  C802     1.0000 0.52483  0.33142  0.05060  Biso   1.000  C
  H735     1.0000 0.43332  0.23862  0.05540  Biso   1.000  H
  H736     1.0000 0.52639  0.42412  0.05370  Biso   1.000  H
  H737     1.0000 0.61368  0.42189  0.05589  Biso   1.000  H
  H738     1.0000 0.52351  0.24100  0.05731  Biso   1.000  H
  C803     1.0000 0.84204  0.47464  0.26545  Biso   1.000  C
  H739     1.0000 0.86723  0.45306  0.30907  Biso   1.000  H
  H740     1.0000 0.03763  0.42655  0.35946  Biso   1.000  H
  H741     1.0000 0.10702  0.45617  0.34057  Biso   1.000  H
  C804     1.0000 0.67099  0.19292  0.01667  Biso   1.000  C
  H742     1.0000 0.66693  0.72254  0.35148  Biso   1.000  H
  H743     1.0000 0.65024  0.72016  0.31528  Biso   1.000  H
  H744     1.0000 0.71764  0.58855  0.24836  Biso   1.000  H
  C805     1.0000 0.77293  0.53507  0.25473  Biso   1.000  C
  C806     1.0000 0.52190  0.32898  0.01667  Biso   1.000  C
  C807     1.0000 0.80523  0.50857  0.27509  Biso   1.000  C
  C808     1.0000 0.84442  0.46458  0.23242  Biso   1.000  C
  C809     1.0000 0.66909  0.18840  0.98878  Biso   1.000  C
  C810     1.0000 0.77734  0.52449  0.22224  Biso   1.000  C
  C811     1.0000 0.51931  0.33090  0.98878  Biso   1.000  C
  H745     1.0000 0.80195  0.51396  0.29667  Biso   1.000  H
  C812     1.0000 0.81362  0.49005  0.21216  Biso   1.000  C
  H746     1.0000 0.86624  0.44129  0.22456  Biso   1.000  H
  C813     1.0000 0.65689  0.17658  0.95450  Biso   1.000  C
  H747     1.0000 0.75686  0.53969  0.20756  Biso   1.000  H
  C814     1.0000 0.51970  0.34309  0.95450  Biso   1.000  C
  C815     1.0000 0.81402  0.47827  0.17790  Biso   1.000  C
  C816     1.0000 0.71318  0.20210  0.93424  Biso   1.000  C
  C817     1.0000 0.58619  0.14218  0.94444  Biso   1.000  C
  C818     1.0000 0.48891  0.28681  0.93424  Biso   1.000  C
  C819     1.0000 0.55600  0.41379  0.94444  Biso   1.000  C
  C820     1.0000 0.81141  0.47376  0.14999  Biso   1.000  C
  C821     1.0000 0.70071  0.19198  0.90123  Biso   1.000  C
  H748     1.0000 0.75829  0.22539  0.94210  Biso   1.000  H
  C822     1.0000 0.57119  0.13160  0.91192  Biso   1.000  C
  H749     1.0000 0.55051  0.12699  0.95910  Biso   1.000  H
  C823     1.0000 0.49130  0.29931  0.90123  Biso   1.000  C
  H750     1.0000 0.46711  0.24168  0.94210  Biso   1.000  H
  C824     1.0000 0.56039  0.42879  0.91192  Biso   1.000  C
  H751     1.0000 0.57649  0.44948  0.95910  Biso   1.000  H
  C825     1.0000 0.80852  0.47329  0.11606  Biso   1.000  C
  C826     1.0000 0.75908  0.21538  0.87877  Biso   1.000  C
  C827     1.0000 0.63000  0.15811  0.89157  Biso   1.000  C
  C828     1.0000 0.49600  0.09560  0.90260  Biso   1.000  C
  C829     1.0000 0.45630  0.24090  0.87877  Biso   1.000  C
  C830     1.0000 0.52809  0.37001  0.89157  Biso   1.000  C
  C831     1.0000 0.59962  0.50400  0.90260  Biso   1.000  C
  C832     1.0000 0.80722  0.52926  0.10106  Biso   1.000  C
  C833     1.0000 0.86434  0.47288  0.10038  Biso   1.000  C
  C834     1.0000 0.80894  0.42049  0.09896  Biso   1.000  C
  C835     1.0000 0.75542  0.47464  0.09946  Biso   1.000  C
  N83      1.0000 0.82499  0.23831  0.88463  Biso   1.000  N
  H752     1.0000 0.74751  0.21361  0.85759  Biso   1.000  H
  H753     1.0000 0.62133  0.15272  0.86999  Biso   1.000  H
  N84      1.0000 0.47648  0.08808  0.87332  Biso   1.000  N
  H754     1.0000 0.46242  0.07812  0.91830  Biso   1.000  H
  N85      1.0000 0.41330  0.17502  0.88463  Biso   1.000  N
  H755     1.0000 0.46611  0.25252  0.85759  Biso   1.000  H
  H756     1.0000 0.53139  0.37868  0.86999  Biso   1.000  H
  N86      1.0000 0.61162  0.52351  0.87332  Biso   1.000  N
  H757     1.0000 0.61571  0.53762  0.91830  Biso   1.000  H
  C836     1.0000 0.80619  0.53098  0.06630  Biso   1.000  C
  H758     1.0000 0.80694  0.56438  0.11296  Biso   1.000  H
  C837     1.0000 0.86261  0.47391  0.06560  Biso   1.000  C
  H759     1.0000 0.90003  0.47194  0.11126  Biso   1.000  H
  C838     1.0000 0.80799  0.42209  0.06720  Biso   1.000  C
  H760     1.0000 0.80983  0.38417  0.10937  Biso   1.000  H
  C839     1.0000 0.75378  0.47557  0.06770  Biso   1.000  C
  H761     1.0000 0.71963  0.47485  0.11077  Biso   1.000  H
  C840     1.0000 0.87872  0.26471  0.86007  Biso   1.000  C
  C841     1.0000 0.39828  0.05820  0.86697  Biso   1.000  C
  C842     1.0000 0.38598  0.12128  0.86007  Biso   1.000  C
  C843     1.0000 0.65987  0.60168  0.86697  Biso   1.000  C
  C844     1.0000 0.80661  0.47521  0.05060  Biso   1.000  C
  H762     1.0000 0.80533  0.56672  0.05540  Biso   1.000  H
  H763     1.0000 0.89772  0.47360  0.05370  Biso   1.000  H
  H764     1.0000 0.80820  0.38630  0.05589  Biso   1.000  H
  H765     1.0000 0.71750  0.47651  0.05731  Biso   1.000  H
  H766     1.0000 0.85682  0.26782  0.84059  Biso   1.000  H
  C845     1.0000 0.90751  0.21330  0.85320  Biso   1.000  C
  C846     1.0000 0.94178  0.34008  0.86697  Biso   1.000  C
  C847     1.0000 0.37103  0.00342  0.84090  Biso   1.000  C
  H767     1.0000 0.37338  0.03579  0.88640  Biso   1.000  H
  H768     1.0000 0.41101  0.14322  0.84059  Biso   1.000  H
  C848     1.0000 0.30581  0.09249  0.85320  Biso   1.000  C
  C849     1.0000 0.73531  0.61402  0.86007  Biso   1.000  C
  C850     1.0000 0.63239  0.62902  0.84090  Biso   1.000  C
  H769     1.0000 0.66239  0.62658  0.88640  Biso   1.000  H
  C851     1.0000 0.80712  0.47812  0.01667  Biso   1.000  C
  H770     1.0000 0.92598  0.20578  0.87261  Biso   1.000  H
  H771     1.0000 0.86930  0.16880  0.84640  Biso   1.000  H
  C852     1.0000 0.96522  0.24131  0.82739  Biso   1.000  C
  N87      1.0000 0.91189  0.38838  0.87332  Biso   1.000  N
  C853     1.0000 0.99659  0.36757  0.84090  Biso   1.000  C
  H772     1.0000 0.96421  0.33759  0.88640  Biso   1.000  H
  C854     1.0000 0.29100  0.97401  0.83360  Biso   1.000  C
  H773     1.0000 0.37789  0.96540  0.84720  Biso   1.000  H
  H774     1.0000 0.39760  0.02350  0.82179  Biso   1.000  H
  H775     1.0000 0.27982  0.07402  0.87261  Biso   1.000  H
  H776     1.0000 0.29950  0.13072  0.84640  Biso   1.000  H
  C855     1.0000 0.27612  0.03481  0.82739  Biso   1.000  C
  N88      1.0000 0.76167  0.58669  0.88463  Biso   1.000  N
  H777     1.0000 0.73220  0.58902  0.84059  Biso   1.000  H
  C856     1.0000 0.78669  0.69422  0.85320  Biso   1.000  C
  C857     1.0000 0.68298  0.70900  0.83360  Biso   1.000  C
  H778     1.0000 0.58752  0.62212  0.84720  Biso   1.000  H
  H779     1.0000 0.62591  0.60241  0.82179  Biso   1.000  H
  C858     1.0000 0.81160  0.48071  0.98878  Biso   1.000  C
  H780     1.0000 0.94441  0.24012  0.80720  Biso   1.000  H
  H781     1.0000 0.98418  0.21050  0.82609  Biso   1.000  H
  C859     1.0000 0.02602  0.31700  0.83360  Biso   1.000  C
  C860     1.0000 0.90438  0.40041  0.90260  Biso   1.000  C
  H782     1.0000 0.97650  0.37411  0.82179  Biso   1.000  H
  H783     1.0000 0.03460  0.41250  0.84720  Biso   1.000  H
  H784     1.0000 0.27770  0.94408  0.81521  Biso   1.000  H
  H785     1.0000 0.26342  0.94652  0.85140  Biso   1.000  H
  H786     1.0000 0.29568  0.05561  0.80720  Biso   1.000  H
  H787     1.0000 0.22633  0.01582  0.82609  Biso   1.000  H
  C861     1.0000 0.78460  0.54368  0.87877  Biso   1.000  C
  H788     1.0000 0.79420  0.72021  0.87261  Biso   1.000  H
  H789     1.0000 0.83120  0.70050  0.84640  Biso   1.000  H
  C862     1.0000 0.75871  0.72389  0.82739  Biso   1.000  C
  H790     1.0000 0.66640  0.72228  0.81521  Biso   1.000  H
  H791     1.0000 0.68308  0.73660  0.85140  Biso   1.000  H
  C863     1.0000 0.82339  0.48030  0.95450  Biso   1.000  C
  H792     1.0000 0.05588  0.33360  0.81521  Biso   1.000  H
  H793     1.0000 0.05351  0.31689  0.85140  Biso   1.000  H
  C864     1.0000 0.86839  0.43957  0.91192  Biso   1.000  C
  H794     1.0000 0.92188  0.38428  0.91830  Biso   1.000  H
  H795     1.0000 0.78639  0.53388  0.85759  Biso   1.000  H
  C865     1.0000 0.80800  0.50872  0.90123  Biso   1.000  C
  H796     1.0000 0.75991  0.70428  0.80720  Biso   1.000  H
  H797     1.0000 0.78950  0.77369  0.82609  Biso   1.000  H
  C866     1.0000 0.85780  0.44398  0.94444  Biso   1.000  C
  C867     1.0000 0.79792  0.51111  0.93424  Biso   1.000  C
  C868     1.0000 0.84188  0.47189  0.89157  Biso   1.000  C
  H798     1.0000 0.87298  0.42349  0.95910  Biso   1.000  H
  H799     1.0000 0.77458  0.53289  0.94210  Biso   1.000  H
  H800     1.0000 0.84729  0.46862  0.86999  Biso   1.000  H
  C869     1.0000 0.42536  0.36815  0.66073  Biso   1.000  C
  C870     1.0000 0.45335  0.42583  0.68654  Biso   1.000  C
  H801     1.0000 0.42659  0.38895  0.64054  Biso   1.000  H
  H802     1.0000 0.45614  0.34911  0.65943  Biso   1.000  H
  C871     1.0000 0.34968  0.30735  0.66694  Biso   1.000  C
  C872     1.0000 0.40197  0.45462  0.69341  Biso   1.000  C
  H803     1.0000 0.46084  0.40731  0.70593  Biso   1.000  H
  H804     1.0000 0.49789  0.46406  0.67974  Biso   1.000  H
  H805     1.0000 0.33305  0.27742  0.64852  Biso   1.000  H
  H806     1.0000 0.34977  0.27986  0.68472  Biso   1.000  H
  C873     1.0000 0.29904  0.33671  0.67424  Biso   1.000  C
  N89      1.0000 0.42839  0.50836  0.71797  Biso   1.000  N
  H807     1.0000 0.39886  0.47651  0.67393  Biso   1.000  H
  C874     1.0000 0.32659  0.39154  0.70031  Biso   1.000  C
  H808     1.0000 0.25418  0.29874  0.68054  Biso   1.000  H
  H809     1.0000 0.29257  0.35684  0.65514  Biso   1.000  H
  C875     1.0000 0.45127  0.57424  0.71211  Biso   1.000  C
  N90      1.0000 0.27827  0.42142  0.70666  Biso   1.000  N
  H810     1.0000 0.32908  0.36913  0.71974  Biso   1.000  H
  H811     1.0000 0.45308  0.58586  0.69093  Biso   1.000  H
  C876     1.0000 0.47468  0.63265  0.73455  Biso   1.000  C
  C877     1.0000 0.26627  0.42894  0.73594  Biso   1.000  C
  C878     1.0000 0.50859  0.70335  0.72491  Biso   1.000  C
  C879     1.0000 0.46457  0.62015  0.76758  Biso   1.000  C
  H812     1.0000 0.28234  0.41141  0.75164  Biso   1.000  H
  C880     1.0000 0.22708  0.46494  0.74527  Biso   1.000  C
  H813     1.0000 0.51396  0.71201  0.70333  Biso   1.000  H
  C881     1.0000 0.53506  0.76212  0.74527  Biso   1.000  C
  H814     1.0000 0.44124  0.57502  0.77544  Biso   1.000  H
  C882     1.0000 0.49006  0.67643  0.78784  Biso   1.000  C
  C883     1.0000 0.19478  0.49145  0.72491  Biso   1.000  C
  C884     1.0000 0.22267  0.47552  0.77776  Biso   1.000  C
  C885     1.0000 0.57105  0.83734  0.73594  Biso   1.000  C
  C886     1.0000 0.52446  0.74713  0.77776  Biso   1.000  C
  C887     1.0000 0.47826  0.66424  0.82210  Biso   1.000  C
  C888     1.0000 0.15794  0.52532  0.73455  Biso   1.000  C
  H815     1.0000 0.19806  0.48605  0.70333  Biso   1.000  H
  H816     1.0000 0.24314  0.46032  0.79244  Biso   1.000  H
  C889     1.0000 0.18636  0.50991  0.78784  Biso   1.000  C
  N91      1.0000 0.57856  0.85684  0.70666  Biso   1.000  N
  H817     1.0000 0.58858  0.87095  0.75164  Biso   1.000  H
  H818     1.0000 0.53966  0.78282  0.79244  Biso   1.000  H
  C890     1.0000 0.47375  0.66232  0.85001  Biso   1.000  C
  C891     1.0000 0.12297  0.54872  0.71211  Biso   1.000  C
  C892     1.0000 0.15559  0.53544  0.76758  Biso   1.000  C
  C893     1.0000 0.18598  0.52174  0.82210  Biso   1.000  C
  C894     1.0000 0.60848  0.93502  0.70031  Biso   1.000  C
  C895     1.0000 0.47326  0.66476  0.88394  Biso   1.000  C
  N92      1.0000 0.07998  0.57164  0.71797  Biso   1.000  N
  H819     1.0000 0.13278  0.54695  0.69093  Biso   1.000  H
  H820     1.0000 0.13377  0.55873  0.77544  Biso   1.000  H
  C896     1.0000 0.18860  0.52626  0.85001  Biso   1.000  C
  C897     1.0000 0.54535  0.94731  0.69341  Biso   1.000  C
  C898     1.0000 0.66330  0.96235  0.67424  Biso   1.000  C
  H821     1.0000 0.63086  0.95992  0.71974  Biso   1.000  H
  C899     1.0000 0.52925  0.72203  0.89894  Biso   1.000  C
  C900     1.0000 0.47286  0.60853  0.89962  Biso   1.000  C
  C901     1.0000 0.42046  0.61153  0.90104  Biso   1.000  C
  C902     1.0000 0.47466  0.71922  0.90054  Biso   1.000  C
  C903     1.0000 0.05266  0.59805  0.69341  Biso   1.000  C
  C904     1.0000 0.19148  0.52672  0.88394  Biso   1.000  C
  N93      1.0000 0.49168  0.92003  0.71797  Biso   1.000  N
  H822     1.0000 0.52346  0.92231  0.67393  Biso   1.000  H
  C905     1.0000 0.57420  0.02756  0.68654  Biso   1.000  C
  H823     1.0000 0.70127  0.95546  0.68054  Biso   1.000  H
  H824     1.0000 0.64316  0.93574  0.65514  Biso   1.000  H
  C906     1.0000 0.69269  0.04234  0.66694  Biso   1.000  C
  C907     1.0000 0.53099  0.72477  0.93370  Biso   1.000  C
  H825     1.0000 0.56440  0.75745  0.88704  Biso   1.000  H
  C908     1.0000 0.47388  0.61128  0.93440  Biso   1.000  C
  H826     1.0000 0.47196  0.57196  0.88874  Biso   1.000  H
  C909     1.0000 0.42209  0.61408  0.93280  Biso   1.000  C
  H827     1.0000 0.38416  0.57434  0.89063  Biso   1.000  H
  C910     1.0000 0.47560  0.72182  0.93230  Biso   1.000  C
  H828     1.0000 0.47487  0.75522  0.88923  Biso   1.000  H
  H829     1.0000 0.07764  0.60111  0.67393  Biso   1.000  H
  C911     1.0000 0.06497  0.67342  0.70031  Biso   1.000  C
  C912     1.0000 0.97247  0.54664  0.68654  Biso   1.000  C
  C913     1.0000 0.19279  0.47075  0.89894  Biso   1.000  C
  C914     1.0000 0.13567  0.52714  0.89962  Biso   1.000  C
  C915     1.0000 0.19107  0.57953  0.90104  Biso   1.000  C
  C916     1.0000 0.24456  0.52532  0.90054  Biso   1.000  C
  C917     1.0000 0.42575  0.87702  0.71211  Biso   1.000  C
  H830     1.0000 0.59268  0.05355  0.70593  Biso   1.000  H
  H831     1.0000 0.53597  0.03384  0.67974  Biso   1.000  H
  C918     1.0000 0.63185  0.05723  0.66073  Biso   1.000  C
  H832     1.0000 0.72256  0.05562  0.64852  Biso   1.000  H
  H833     1.0000 0.72019  0.06994  0.68472  Biso   1.000  H
  C919     1.0000 0.47518  0.66860  0.94940  Biso   1.000  C
  H834     1.0000 0.56668  0.76140  0.94460  Biso   1.000  H
  H835     1.0000 0.47362  0.57590  0.94630  Biso   1.000  H
  H836     1.0000 0.38630  0.57808  0.94411  Biso   1.000  H
  H837     1.0000 0.47650  0.75901  0.94269  Biso   1.000  H
  N94      1.0000 0.14316  0.72171  0.70666  Biso   1.000  N
  C920     1.0000 0.03765  0.70091  0.67424  Biso   1.000  C
  H838     1.0000 0.04005  0.67093  0.71974  Biso   1.000  H
  H839     1.0000 0.94647  0.53912  0.70593  Biso   1.000  H
  H840     1.0000 0.96616  0.50213  0.67974  Biso   1.000  H
  C921     1.0000 0.94276  0.57465  0.66073  Biso   1.000  C
  C922     1.0000 0.19379  0.46899  0.93370  Biso   1.000  C
  H841     1.0000 0.19306  0.43563  0.88704  Biso   1.000  H
  C923     1.0000 0.13740  0.52610  0.93440  Biso   1.000  C
  H842     1.0000 0.09995  0.52802  0.88874  Biso   1.000  H
  C924     1.0000 0.19202  0.57792  0.93280  Biso   1.000  C
  H843     1.0000 0.19018  0.61584  0.89063  Biso   1.000  H
  C925     1.0000 0.24620  0.52439  0.93230  Biso   1.000  C
  H844     1.0000 0.28035  0.52511  0.88923  Biso   1.000  H
  H845     1.0000 0.41416  0.86722  0.69093  Biso   1.000  H
  C926     1.0000 0.36737  0.84201  0.73455  Biso   1.000  C
  H846     1.0000 0.61104  0.03762  0.64054  Biso   1.000  H
  H847     1.0000 0.65086  0.10703  0.65943  Biso   1.000  H
  C927     1.0000 0.47808  0.67098  0.98333  Biso   1.000  C
  C928     1.0000 0.16270  0.73375  0.73594  Biso   1.000  C
  H848     1.0000 0.04457  0.74583  0.68054  Biso   1.000  H
  H849     1.0000 0.06428  0.70745  0.65514  Biso   1.000  H
  C929     1.0000 0.95765  0.65034  0.66694  Biso   1.000  C
  H850     1.0000 0.96236  0.57341  0.64054  Biso   1.000  H
  H851     1.0000 0.89299  0.54384  0.65943  Biso   1.000  H
  C930     1.0000 0.19340  0.52480  0.94940  Biso   1.000  C
  H852     1.0000 0.19468  0.43330  0.94460  Biso   1.000  H
  H853     1.0000 0.10229  0.52641  0.94630  Biso   1.000  H
  H854     1.0000 0.19181  0.61371  0.94411  Biso   1.000  H
  H855     1.0000 0.28251  0.52351  0.94269  Biso   1.000  H
  C931     1.0000 0.29669  0.80523  0.72491  Biso   1.000  C
  C932     1.0000 0.37986  0.84445  0.76758  Biso   1.000  C
  C933     1.0000 0.48069  0.66911  0.01122  Biso   1.000  C
  H856     1.0000 0.12907  0.71762  0.75164  Biso   1.000  H
  C934     1.0000 0.23785  0.77291  0.74527  Biso   1.000  C
  H857     1.0000 0.94438  0.66694  0.64852  Biso   1.000  H
  H858     1.0000 0.93006  0.65023  0.68472  Biso   1.000  H
  C935     1.0000 0.19289  0.52190  0.98333  Biso   1.000  C
  H859     1.0000 0.28797  0.80191  0.70333  Biso   1.000  H
  C936     1.0000 0.32357  0.81363  0.78784  Biso   1.000  C
  H860     1.0000 0.42499  0.86623  0.77544  Biso   1.000  H
  C937     1.0000 0.48030  0.65692  0.04550  Biso   1.000  C
  C938     1.0000 0.25286  0.77732  0.77776  Biso   1.000  C
  C939     1.0000 0.18840  0.51930  0.01122  Biso   1.000  C
  C940     1.0000 0.33578  0.81405  0.82210  Biso   1.000  C
  C941     1.0000 0.51110  0.71321  0.06576  Biso   1.000  C
  C942     1.0000 0.44401  0.58622  0.05556  Biso   1.000  C
  H861     1.0000 0.21719  0.75683  0.79244  Biso   1.000  H
  C943     1.0000 0.17662  0.51972  0.04550  Biso   1.000  C
  C944     1.0000 0.33767  0.81145  0.85001  Biso   1.000  C
  C945     1.0000 0.50871  0.70071  0.09877  Biso   1.000  C
  H862     1.0000 0.53287  0.75828  0.05790  Biso   1.000  H
  C946     1.0000 0.43959  0.57118  0.08808  Biso   1.000  C
  H863     1.0000 0.42349  0.55048  0.04090  Biso   1.000  H
  C947     1.0000 0.14219  0.55598  0.05556  Biso   1.000  C
  C948     1.0000 0.20209  0.48891  0.06576  Biso   1.000  C
  C949     1.0000 0.33527  0.80855  0.88394  Biso   1.000  C
  C950     1.0000 0.54371  0.75911  0.12123  Biso   1.000  C
  C951     1.0000 0.47192  0.63000  0.10843  Biso   1.000  C
  C952     1.0000 0.40039  0.49601  0.09740  Biso   1.000  C
  C953     1.0000 0.13159  0.56039  0.08808  Biso   1.000  C
  H864     1.0000 0.12703  0.57652  0.04090  Biso   1.000  H
  C954     1.0000 0.19201  0.49129  0.09877  Biso   1.000  C
  H865     1.0000 0.22543  0.46712  0.05790  Biso   1.000  H
  C955     1.0000 0.27798  0.80725  0.89894  Biso   1.000  C
  C956     1.0000 0.39146  0.86431  0.89962  Biso   1.000  C
  C957     1.0000 0.38846  0.80891  0.90104  Biso   1.000  C
  C958     1.0000 0.28077  0.75543  0.90054  Biso   1.000  C
  N95      1.0000 0.58671  0.82499  0.11537  Biso   1.000  N
  H866     1.0000 0.53390  0.74749  0.14241  Biso   1.000  H
  H867     1.0000 0.46859  0.62129  0.13001  Biso   1.000  H
  N96      1.0000 0.38839  0.47651  0.12668  Biso   1.000  N
  H868     1.0000 0.38430  0.46240  0.08170  Biso   1.000  H
  C959     1.0000 0.09562  0.59960  0.09740  Biso   1.000  C
  C960     1.0000 0.15813  0.52812  0.10843  Biso   1.000  C
  C961     1.0000 0.21538  0.45628  0.12123  Biso   1.000  C
  C962     1.0000 0.27521  0.80622  0.93370  Biso   1.000  C
  H869     1.0000 0.24255  0.80694  0.88704  Biso   1.000  H
  C963     1.0000 0.38871  0.86260  0.93440  Biso   1.000  C
  H870     1.0000 0.42806  0.90005  0.88874  Biso   1.000  H
  C964     1.0000 0.38589  0.80798  0.93280  Biso   1.000  C
  H871     1.0000 0.42568  0.80985  0.89063  Biso   1.000  H
  C965     1.0000 0.27821  0.75382  0.93230  Biso   1.000  C
  H872     1.0000 0.24477  0.71964  0.88923  Biso   1.000  H
  C966     1.0000 0.61400  0.87868  0.13993  Biso   1.000  C
  C967     1.0000 0.34011  0.39828  0.13303  Biso   1.000  C
  N97      1.0000 0.08809  0.61159  0.12668  Biso   1.000  N
  H873     1.0000 0.07810  0.61568  0.08170  Biso   1.000  H
  H874     1.0000 0.15271  0.53139  0.13001  Biso   1.000  H
  N98      1.0000 0.23831  0.41327  0.11537  Biso   1.000  N
  H875     1.0000 0.21359  0.46608  0.14241  Biso   1.000  H
  C968     1.0000 0.33141  0.80658  0.94940  Biso   1.000  C
  H876     1.0000 0.23858  0.80528  0.94460  Biso   1.000  H
  H877     1.0000 0.42411  0.89772  0.94630  Biso   1.000  H
  H878     1.0000 0.42188  0.80819  0.94411  Biso   1.000  H
  H879     1.0000 0.24101  0.71751  0.94269  Biso   1.000  H
  H880     1.0000 0.58900  0.85679  0.15941  Biso   1.000  H
  C969     1.0000 0.69419  0.90752  0.14680  Biso   1.000  C
  C970     1.0000 0.60172  0.94181  0.13303  Biso   1.000  C
  C971     1.0000 0.26469  0.38599  0.13993  Biso   1.000  C
  C972     1.0000 0.36762  0.37100  0.15910  Biso   1.000  C
  H881     1.0000 0.33759  0.37338  0.11360  Biso   1.000  H
  C973     1.0000 0.05820  0.65988  0.13303  Biso   1.000  C
  C974     1.0000 0.32902  0.80710  0.98333  Biso   1.000  C
  H882     1.0000 0.72018  0.92599  0.12739  Biso   1.000  H
  H883     1.0000 0.70050  0.86929  0.15360  Biso   1.000  H
  C975     1.0000 0.72389  0.96521  0.17261  Biso   1.000  C
  N99      1.0000 0.52351  0.91188  0.12668  Biso   1.000  N
  C976     1.0000 0.62898  0.99659  0.15910  Biso   1.000  C
  H884     1.0000 0.62663  0.96422  0.11360  Biso   1.000  H
  H885     1.0000 0.26781  0.41099  0.15941  Biso   1.000  H
  C977     1.0000 0.21332  0.30579  0.14680  Biso   1.000  C
  C978     1.0000 0.31702  0.29101  0.16640  Biso   1.000  C
  H886     1.0000 0.41249  0.37790  0.15280  Biso   1.000  H
  H887     1.0000 0.37410  0.39761  0.17821  Biso   1.000  H
  C979     1.0000 0.12129  0.73530  0.13993  Biso   1.000  C
  C980     1.0000 0.00339  0.63239  0.15910  Biso   1.000  C
  H888     1.0000 0.03579  0.66242  0.11360  Biso   1.000  H
  C981     1.0000 0.33092  0.81161  0.01122  Biso   1.000  C
  H889     1.0000 0.70432  0.94441  0.19280  Biso   1.000  H
  H890     1.0000 0.77368  0.98419  0.17391  Biso   1.000  H
  C982     1.0000 0.70900  0.02600  0.16640  Biso   1.000  C
  C983     1.0000 0.50400  0.90441  0.09740  Biso   1.000  C
  H891     1.0000 0.60241  0.97652  0.17821  Biso   1.000  H
  H892     1.0000 0.62211  0.03461  0.15280  Biso   1.000  H
  H893     1.0000 0.20581  0.27980  0.12739  Biso   1.000  H
  H894     1.0000 0.16881  0.29952  0.15360  Biso   1.000  H
  C984     1.0000 0.24130  0.27612  0.17261  Biso   1.000  C
  H895     1.0000 0.33358  0.27768  0.18479  Biso   1.000  H
  H896     1.0000 0.31693  0.26341  0.14860  Biso   1.000  H
  N100     1.0000 0.17501  0.76171  0.11537  Biso   1.000  N
  H897     1.0000 0.14319  0.73219  0.15941  Biso   1.000  H
  C985     1.0000 0.09250  0.78671  0.14680  Biso   1.000  C
  C986     1.0000 0.97399  0.68302  0.16640  Biso   1.000  C
  H898     1.0000 0.96541  0.58752  0.15280  Biso   1.000  H
  H899     1.0000 0.02351  0.62590  0.17821  Biso   1.000  H
  C987     1.0000 0.34309  0.82339  0.04550  Biso   1.000  C
  H900     1.0000 0.72228  0.05588  0.18479  Biso   1.000  H
  H901     1.0000 0.73659  0.05350  0.14860  Biso   1.000  H
  H902     1.0000 0.53759  0.92189  0.08170  Biso   1.000  H
  C988     1.0000 0.42881  0.86841  0.08808  Biso   1.000  C
  H903     1.0000 0.24007  0.29568  0.19280  Biso   1.000  H
  H904     1.0000 0.21051  0.22632  0.17391  Biso   1.000  H
  C989     1.0000 0.24090  0.78458  0.12123  Biso   1.000  C
  H905     1.0000 0.07400  0.79418  0.12739  Biso   1.000  H
  H906     1.0000 0.13070  0.83122  0.15360  Biso   1.000  H
  C990     1.0000 0.03479  0.75870  0.17261  Biso   1.000  C
  H907     1.0000 0.94412  0.66642  0.18479  Biso   1.000  H
  H908     1.0000 0.94650  0.68312  0.14860  Biso   1.000  H
  C991     1.0000 0.28683  0.79792  0.06576  Biso   1.000  C
  C992     1.0000 0.41379  0.85778  0.05556  Biso   1.000  C
  C993     1.0000 0.37001  0.84190  0.10843  Biso   1.000  C
  H909     1.0000 0.25250  0.78640  0.14241  Biso   1.000  H
  C994     1.0000 0.29927  0.80798  0.09877  Biso   1.000  C
  H910     1.0000 0.05560  0.75989  0.19280  Biso   1.000  H
  H911     1.0000 0.01583  0.78951  0.17391  Biso   1.000  H
  H912     1.0000 0.24171  0.77462  0.05790  Biso   1.000  H
  H913     1.0000 0.44947  0.87298  0.04090  Biso   1.000  H
  H914     1.0000 0.37868  0.84730  0.13001  Biso   1.000  H
  C995     1.0000 0.96572  0.29568  0.50756  Biso   1.000  C
  H915     1.0000 0.92085  0.28878  0.51386  Biso   1.000  H
  H916     1.0000 0.95924  0.26907  0.48848  Biso   1.000  H
  C996     1.0000 0.99320  0.26834  0.53365  Biso   1.000  C
  H917     1.0000 0.92082  0.28873  0.51386  Biso   1.000  H
  C997     1.0000 0.01631  0.37567  0.50026  Biso   1.000  C
  N101     1.0000 0.94495  0.19017  0.53998  Biso   1.000  N
  H918     1.0000 0.99575  0.29329  0.55306  Biso   1.000  H
  H919     1.0000 0.99572  0.29324  0.55306  Biso   1.000  H
  C998     1.0000 0.06865  0.28069  0.52675  Biso   1.000  C
  C999     1.0000 0.06862  0.28063  0.52675  Biso   1.000  C
  H920     1.0000 0.99973  0.38895  0.48187  Biso   1.000  H
  C1000    1.0000 0.09204  0.39055  0.49407  Biso   1.000  C
  H921     1.0000 0.01641  0.40326  0.51806  Biso   1.000  H
  C1001    1.0000 0.93295  0.17066  0.56926  Biso   1.000  C
  N102     1.0000 0.09500  0.25335  0.55129  Biso   1.000  N
  H922     1.0000 0.06553  0.25568  0.50727  Biso   1.000  H
  C1002    1.0000 0.12002  0.36088  0.51986  Biso   1.000  C
  H923     1.0000 0.06551  0.25563  0.50727  Biso   1.000  H
  C1003    1.0000 0.11999  0.36083  0.51986  Biso   1.000  C
  H924     1.0000 0.09324  0.37095  0.47386  Biso   1.000  H
  H925     1.0000 0.12283  0.44035  0.49277  Biso   1.000  H
  H926     1.0000 0.94904  0.20428  0.58496  Biso   1.000  H
  C1004    1.0000 0.89373  0.09545  0.57861  Biso   1.000  C
  C1005    1.0000 0.11793  0.21035  0.54545  Biso   1.000  C
  H927     1.0000 0.12753  0.38687  0.53927  Biso   1.000  H
  H928     1.0000 0.16453  0.36716  0.51306  Biso   1.000  H
  C1006    1.0000 0.86142  0.03667  0.55825  Biso   1.000  C
  C1007    1.0000 0.88933  0.08046  0.61110  Biso   1.000  C
  H929     1.0000 0.11972  0.20054  0.52427  Biso   1.000  H
  C1008    1.0000 0.14133  0.17538  0.56789  Biso   1.000  C
  C1009    1.0000 0.14130  0.17533  0.56789  Biso   1.000  C
  H930     1.0000 0.86474  0.04539  0.53667  Biso   1.000  H
  H931     1.0000 0.86472  0.04534  0.53667  Biso   1.000  H
  C1010    1.0000 0.82463  0.96597  0.56789  Biso   1.000  C
  H932     1.0000 0.90982  0.11614  0.62576  Biso   1.000  H
  C1011    1.0000 0.85303  0.00975  0.62116  Biso   1.000  C
  C1012    1.0000 0.17521  0.13855  0.55825  Biso   1.000  C
  C1013    1.0000 0.13125  0.17777  0.60092  Biso   1.000  C
  C1014    1.0000 0.78963  0.90756  0.54545  Biso   1.000  C
  C1015    1.0000 0.82224  0.95347  0.60092  Biso   1.000  C
  C1016    1.0000 0.85264  0.99756  0.65544  Biso   1.000  C
  C1017    1.0000 0.20175  0.10629  0.57861  Biso   1.000  C
  H933     1.0000 0.18063  0.13529  0.53667  Biso   1.000  H
  C1018    1.0000 0.20173  0.10624  0.57861  Biso   1.000  C
  H934     1.0000 0.18060  0.13523  0.53667  Biso   1.000  H
  C1019    1.0000 0.15672  0.14696  0.62116  Biso   1.000  C
  H935     1.0000 0.10791  0.19956  0.60876  Biso   1.000  H
  N103     1.0000 0.74663  0.84168  0.55129  Biso   1.000  N
  H936     1.0000 0.79944  0.91918  0.52427  Biso   1.000  H
  N104     1.0000 0.74660  0.84163  0.55129  Biso   1.000  N
  H937     1.0000 0.79941  0.91913  0.52427  Biso   1.000  H
  H938     1.0000 0.80047  0.90839  0.60876  Biso   1.000  H
  H939     1.0000 0.80044  0.90834  0.60876  Biso   1.000  H
  C1020    1.0000 0.85523  0.99564  0.68333  Biso   1.000  C
  C1021    1.0000 0.23771  0.06707  0.56926  Biso   1.000  C
  C1022    1.0000 0.19113  0.11065  0.61110  Biso   1.000  C
  C1023    1.0000 0.14493  0.14737  0.65544  Biso   1.000  C
  C1024    1.0000 0.71931  0.78794  0.52675  Biso   1.000  C
  C1025    1.0000 0.85816  0.99808  0.71726  Biso   1.000  C
  C1026    1.0000 0.85813  0.99803  0.71726  Biso   1.000  C
  N105     1.0000 0.24524  0.05509  0.53998  Biso   1.000  N
  H940     1.0000 0.25524  0.05099  0.58496  Biso   1.000  H
  N106     1.0000 0.24522  0.05504  0.53998  Biso   1.000  N
  H941     1.0000 0.25521  0.05094  0.58496  Biso   1.000  H
  H942     1.0000 0.20631  0.09016  0.62576  Biso   1.000  H
  C1027    1.0000 0.14045  0.14478  0.68333  Biso   1.000  C
  C1028    1.0000 0.14042  0.14473  0.68333  Biso   1.000  C
  H943     1.0000 0.74434  0.80988  0.50727  Biso   1.000  H
  C1029    1.0000 0.63914  0.75915  0.51986  Biso   1.000  C
  C1030    1.0000 0.73161  0.72486  0.53365  Biso   1.000  C
  H944     1.0000 0.74431  0.80983  0.50727  Biso   1.000  H
  C1031    1.0000 0.85944  0.05535  0.73226  Biso   1.000  C
  C1032    1.0000 0.91122  0.05255  0.73386  Biso   1.000  C
  C1033    1.0000 0.80233  0.94185  0.73296  Biso   1.000  C
  C1034    1.0000 0.85774  0.94486  0.73436  Biso   1.000  C
  C1035    1.0000 0.27511  0.00674  0.53365  Biso   1.000  C
  C1036    1.0000 0.13994  0.14187  0.71726  Biso   1.000  C
  H945     1.0000 0.61315  0.74069  0.53927  Biso   1.000  H
  H946     1.0000 0.63283  0.79738  0.51306  Biso   1.000  H
  C1037    1.0000 0.60945  0.70147  0.49407  Biso   1.000  C
  H947     1.0000 0.61313  0.74063  0.53927  Biso   1.000  H
  H948     1.0000 0.63281  0.79733  0.51306  Biso   1.000  H
  N107     1.0000 0.80981  0.75474  0.53998  Biso   1.000  N
  C1038    1.0000 0.70436  0.67009  0.50756  Biso   1.000  C
  H949     1.0000 0.70671  0.70245  0.55306  Biso   1.000  H
  C1039    1.0000 0.70433  0.67003  0.50756  Biso   1.000  C
  C1040    1.0000 0.86048  0.05815  0.76704  Biso   1.000  C
  H950     1.0000 0.85972  0.09078  0.72038  Biso   1.000  H
  C1041    1.0000 0.86045  0.05810  0.76704  Biso   1.000  C
  C1042    1.0000 0.91288  0.05514  0.76564  Biso   1.000  C
  H951     1.0000 0.94701  0.08855  0.72257  Biso   1.000  H
  C1043    1.0000 0.80409  0.94465  0.76774  Biso   1.000  C
  H952     1.0000 0.76666  0.90528  0.72208  Biso   1.000  H
  C1044    1.0000 0.80406  0.94460  0.76774  Biso   1.000  C
  H953     1.0000 0.76663  0.90523  0.72208  Biso   1.000  H
  C1045    1.0000 0.85868  0.94745  0.76614  Biso   1.000  C
  H954     1.0000 0.85684  0.90767  0.72397  Biso   1.000  H
  C1046    1.0000 0.21205  0.93137  0.52675  Biso   1.000  C
  C1047    1.0000 0.32995  0.03429  0.50756  Biso   1.000  C
  H955     1.0000 0.29754  0.00425  0.55306  Biso   1.000  H
  C1048    1.0000 0.32992  0.03424  0.50756  Biso   1.000  C
  C1049    1.0000 0.19594  0.14058  0.73226  Biso   1.000  C
  C1050    1.0000 0.13955  0.19769  0.73296  Biso   1.000  C
  C1051    1.0000 0.13952  0.19764  0.73296  Biso   1.000  C
  C1052    1.0000 0.08714  0.14229  0.73436  Biso   1.000  C
  C1053    1.0000 0.14132  0.08876  0.73386  Biso   1.000  C
  H956     1.0000 0.62901  0.72227  0.47386  Biso   1.000  H
  H957     1.0000 0.55966  0.68248  0.49277  Biso   1.000  H
  C1054    1.0000 0.62433  0.64067  0.50026  Biso   1.000  C
  H958     1.0000 0.55963  0.68243  0.49277  Biso   1.000  H
  C1055    1.0000 0.82934  0.76226  0.56926  Biso   1.000  C
  H959     1.0000 0.71122  0.63206  0.51386  Biso   1.000  H
  H960     1.0000 0.73093  0.69016  0.48848  Biso   1.000  H
  C1056    1.0000 0.86008  0.00192  0.78274  Biso   1.000  C
  H961     1.0000 0.86138  0.09472  0.77792  Biso   1.000  H
  H962     1.0000 0.94918  0.09233  0.77603  Biso   1.000  H
  H963     1.0000 0.76894  0.90922  0.77962  Biso   1.000  H
  H964     1.0000 0.85847  0.91145  0.77743  Biso   1.000  H
  N108     1.0000 0.15832  0.90497  0.55129  Biso   1.000  N
  H965     1.0000 0.19015  0.93448  0.50727  Biso   1.000  H
  C1057    1.0000 0.24084  0.87997  0.51986  Biso   1.000  C
  H966     1.0000 0.19013  0.93443  0.50727  Biso   1.000  H
  C1058    1.0000 0.35935  0.98366  0.50026  Biso   1.000  C
  H967     1.0000 0.36793  0.07916  0.51386  Biso   1.000  H
  H968     1.0000 0.30983  0.04077  0.48848  Biso   1.000  H
  C1059    1.0000 0.19767  0.13954  0.76704  Biso   1.000  C
  H969     1.0000 0.23105  0.14027  0.72038  Biso   1.000  H
  C1060    1.0000 0.14055  0.19593  0.76774  Biso   1.000  C
  H970     1.0000 0.13866  0.23338  0.72208  Biso   1.000  H
  C1061    1.0000 0.08878  0.14135  0.76614  Biso   1.000  C
  H971     1.0000 0.05083  0.14317  0.72397  Biso   1.000  H
  C1062    1.0000 0.14227  0.08715  0.76564  Biso   1.000  C
  H972     1.0000 0.14153  0.05296  0.72257  Biso   1.000  H
  H973     1.0000 0.61103  0.61074  0.48187  Biso   1.000  H
  H974     1.0000 0.59675  0.61318  0.51806  Biso   1.000  H
  H975     1.0000 0.59673  0.61313  0.51806  Biso   1.000  H
  H976     1.0000 0.79575  0.74478  0.58496  Biso   1.000  H
  C1063    1.0000 0.90452  0.79826  0.57861  Biso   1.000  C
  H977     1.0000 0.79573  0.74473  0.58496  Biso   1.000  H
  C1064    1.0000 0.85959  0.00436  0.81667  Biso   1.000  C
  C1065    1.0000 0.85957  0.00431  0.81667  Biso   1.000  C
  C1066    1.0000 0.09244  0.88209  0.54545  Biso   1.000  C
  C1067    1.0000 0.09241  0.88204  0.54545  Biso   1.000  C
  H978     1.0000 0.25931  0.87244  0.53927  Biso   1.000  H
  H979     1.0000 0.20263  0.83546  0.51306  Biso   1.000  H
  C1068    1.0000 0.29855  0.90798  0.49407  Biso   1.000  C
  H980     1.0000 0.38684  0.98356  0.51806  Biso   1.000  H
  H981     1.0000 0.38921  0.00026  0.48187  Biso   1.000  H
  C1069    1.0000 0.14185  0.13995  0.78274  Biso   1.000  C
  H982     1.0000 0.23339  0.13866  0.77792  Biso   1.000  H
  C1070    1.0000 0.14183  0.13990  0.78274  Biso   1.000  C
  H983     1.0000 0.23336  0.13861  0.77792  Biso   1.000  H
  H984     1.0000 0.14027  0.23104  0.77962  Biso   1.000  H
  H985     1.0000 0.05297  0.14151  0.77743  Biso   1.000  H
  H986     1.0000 0.14316  0.05084  0.77603  Biso   1.000  H
  C1071    1.0000 0.96333  0.82477  0.55825  Biso   1.000  C
  C1072    1.0000 0.91952  0.80885  0.61110  Biso   1.000  C
  C1073    1.0000 0.85508  0.00244  0.84456  Biso   1.000  C
  H987     1.0000 0.08084  0.88028  0.52427  Biso   1.000  H
  C1074    1.0000 0.03404  0.85865  0.56789  Biso   1.000  C
  H988     1.0000 0.27774  0.90678  0.47386  Biso   1.000  H
  H989     1.0000 0.31751  0.87716  0.49277  Biso   1.000  H
  H990     1.0000 0.27771  0.90673  0.47386  Biso   1.000  H
  C1075    1.0000 0.14474  0.14042  0.81667  Biso   1.000  C
  H991     1.0000 0.95466  0.81938  0.53667  Biso   1.000  H
  H992     1.0000 0.88384  0.79365  0.62576  Biso   1.000  H
  C1076    1.0000 0.99024  0.84329  0.62116  Biso   1.000  C
  C1077    1.0000 0.99022  0.84324  0.62116  Biso   1.000  C
  C1078    1.0000 0.84328  0.99025  0.87884  Biso   1.000  C
  C1079    1.0000 0.84326  0.99020  0.87884  Biso   1.000  C
  C1080    1.0000 0.04651  0.86876  0.60092  Biso   1.000  C
  C1081    1.0000 0.14735  0.14493  0.84456  Biso   1.000  C
  C1082    1.0000 0.00242  0.85507  0.65544  Biso   1.000  C
  C1083    1.0000 0.86877  0.04653  0.89908  Biso   1.000  C
  C1084    1.0000 0.80887  0.91954  0.88890  Biso   1.000  C
  H993     1.0000 0.09162  0.89205  0.60876  Biso   1.000  H
  C1085    1.0000 0.14695  0.15671  0.87884  Biso   1.000  C
  C1086    1.0000 0.00432  0.85958  0.68333  Biso   1.000  C
  C1087    1.0000 0.00429  0.85953  0.68333  Biso   1.000  C
  C1088    1.0000 0.85866  0.03403  0.93211  Biso   1.000  C
  H994     1.0000 0.89208  0.09161  0.89124  Biso   1.000  H
  C1089    1.0000 0.79828  0.90455  0.92139  Biso   1.000  C
  H995     1.0000 0.79368  0.88386  0.87424  Biso   1.000  H
  C1090    1.0000 0.79825  0.90450  0.92139  Biso   1.000  C
  H996     1.0000 0.79365  0.88380  0.87424  Biso   1.000  H
  C1091    1.0000 0.17775  0.13124  0.89908  Biso   1.000  C
  C1092    1.0000 0.11067  0.19115  0.88890  Biso   1.000  C
  C1093    1.0000 0.11065  0.19110  0.88890  Biso   1.000  C
  C1094    1.0000 0.00190  0.86005  0.71726  Biso   1.000  C
  C1095    1.0000 0.88207  0.09244  0.95455  Biso   1.000  C
  C1096    1.0000 0.82474  0.96333  0.94175  Biso   1.000  C
  C1097    1.0000 0.76229  0.82934  0.93074  Biso   1.000  C
  C1098    1.0000 0.17539  0.14135  0.93211  Biso   1.000  C
  H997     1.0000 0.19957  0.10795  0.89124  Biso   1.000  H
  C1099    1.0000 0.17537  0.14130  0.93211  Biso   1.000  C
  H998     1.0000 0.19955  0.10790  0.89124  Biso   1.000  H
  C1100    1.0000 0.10626  0.20174  0.92139  Biso   1.000  C
  H999     1.0000 0.09019  0.20635  0.87424  Biso   1.000  H
  H1000    1.0000 0.09017  0.20630  0.87424  Biso   1.000  H
  C1101    1.0000 0.94462  0.80407  0.73226  Biso   1.000  C
  C1102    1.0000 0.94743  0.85865  0.73386  Biso   1.000  C
  C1103    1.0000 0.05813  0.86046  0.73296  Biso   1.000  C
  C1104    1.0000 0.05512  0.91285  0.73436  Biso   1.000  C
  N109     1.0000 0.90494  0.15832  0.94871  Biso   1.000  N
  H1001    1.0000 0.88026  0.08082  0.97573  Biso   1.000  H
  H1002    1.0000 0.81935  0.95461  0.96333  Biso   1.000  H
  N110     1.0000 0.75478  0.80983  0.96002  Biso   1.000  N
  H1003    1.0000 0.74476  0.79572  0.91504  Biso   1.000  H
  C1105    1.0000 0.21035  0.11791  0.95455  Biso   1.000  C
  C1106    1.0000 0.13856  0.17523  0.94175  Biso   1.000  C
  C1107    1.0000 0.06707  0.23774  0.93074  Biso   1.000  C
  C1108    1.0000 0.94186  0.80231  0.76704  Biso   1.000  C
  H1004    1.0000 0.90923  0.76896  0.72038  Biso   1.000  H
  C1109    1.0000 0.94485  0.85771  0.76564  Biso   1.000  C
  H1005    1.0000 0.91143  0.85844  0.72257  Biso   1.000  H
  C1110    1.0000 0.05536  0.85942  0.76774  Biso   1.000  C
  H1006    1.0000 0.09473  0.86134  0.72208  Biso   1.000  H
  C1111    1.0000 0.05257  0.91124  0.76614  Biso   1.000  C
  H1007    1.0000 0.09233  0.94916  0.72397  Biso   1.000  H
  C1112    1.0000 0.93137  0.21206  0.97325  Biso   1.000  C
  C1113    1.0000 0.93134  0.21201  0.97325  Biso   1.000  C
  C1114    1.0000 0.72486  0.73166  0.96635  Biso   1.000  C
  C1115    1.0000 0.72483  0.73161  0.96635  Biso   1.000  C
  N111     1.0000 0.25336  0.09503  0.94871  Biso   1.000  N
  H1008    1.0000 0.20056  0.11972  0.97573  Biso   1.000  H
  H1009    1.0000 0.13528  0.18062  0.96333  Biso   1.000  H
  N112     1.0000 0.05506  0.24526  0.96002  Biso   1.000  N
  H1010    1.0000 0.05097  0.25522  0.91504  Biso   1.000  H
  N113     1.0000 0.05504  0.24521  0.96002  Biso   1.000  N
  C1116    1.0000 0.99807  0.85813  0.78274  Biso   1.000  C
  H1011    1.0000 0.90528  0.76662  0.77792  Biso   1.000  H
  H1012    1.0000 0.90766  0.85683  0.77603  Biso   1.000  H
  H1013    1.0000 0.09078  0.85973  0.77962  Biso   1.000  H
  H1014    1.0000 0.08857  0.94704  0.77743  Biso   1.000  H
  H1015    1.0000 0.93446  0.19012  0.99273  Biso   1.000  H
  C1117    1.0000 0.87999  0.24085  0.98014  Biso   1.000  C
  C1118    1.0000 0.87997  0.24080  0.98014  Biso   1.000  C
  C1119    1.0000 0.00675  0.27514  0.96635  Biso   1.000  C
  C1120    1.0000 0.78796  0.71931  0.97325  Biso   1.000  C
  C1121    1.0000 0.67004  0.70432  0.99244  Biso   1.000  C
  H1016    1.0000 0.70246  0.70671  0.94694  Biso   1.000  H
  C1122    1.0000 0.28068  0.06863  0.97325  Biso   1.000  C
  C1123    1.0000 0.99567  0.85522  0.81667  Biso   1.000  C
  H1017    1.0000 0.87247  0.25931  0.96073  Biso   1.000  H
  H1018    1.0000 0.83545  0.20262  0.98694  Biso   1.000  H
  C1124    1.0000 0.90798  0.29853  0.00593  Biso   1.000  C
  C1125    1.0000 0.03427  0.32991  0.99244  Biso   1.000  C
  H1019    1.0000 0.00425  0.29755  0.94694  Biso   1.000  H
  H1020    1.0000 0.00423  0.29749  0.94694  Biso   1.000  H
  N114     1.0000 0.84165  0.74665  0.94871  Biso   1.000  N
  H1021    1.0000 0.80985  0.74432  0.99273  Biso   1.000  H
  C1126    1.0000 0.75914  0.63912  0.98014  Biso   1.000  C
  N115     1.0000 0.84163  0.74660  0.94871  Biso   1.000  N
  C1127    1.0000 0.64065  0.62433  0.99974  Biso   1.000  C
  H1022    1.0000 0.63207  0.71122  0.98614  Biso   1.000  H
  H1023    1.0000 0.69017  0.73093  0.01152  Biso   1.000  H
  C1128    1.0000 0.26837  0.99326  0.96635  Biso   1.000  C
  C1129    1.0000 0.26835  0.99320  0.96635  Biso   1.000  C
  H1024    1.0000 0.25567  0.06552  0.99273  Biso   1.000  H
  C1130    1.0000 0.36087  0.12003  0.98014  Biso   1.000  C
  C1131    1.0000 0.99756  0.85263  0.84456  Biso   1.000  C
  C1132    1.0000 0.98366  0.35933  0.99974  Biso   1.000  C
  H1025    1.0000 0.90674  0.27773  0.02614  Biso   1.000  H
  H1026    1.0000 0.87718  0.31752  0.00723  Biso   1.000  H
  H1027    1.0000 0.07916  0.36794  0.98614  Biso   1.000  H
  H1028    1.0000 0.04077  0.30984  0.01152  Biso   1.000  H
  C1133    1.0000 0.90759  0.78965  0.95455  Biso   1.000  C
  C1134    1.0000 0.90756  0.78960  0.95455  Biso   1.000  C
  H1029    1.0000 0.74066  0.61313  0.96073  Biso   1.000  H
  H1030    1.0000 0.79737  0.63284  0.98694  Biso   1.000  H
  C1135    1.0000 0.70149  0.60945  0.00593  Biso   1.000  C
  C1136    1.0000 0.70146  0.60939  0.00593  Biso   1.000  C
  H1031    1.0000 0.61315  0.59674  0.98194  Biso   1.000  H
  H1032    1.0000 0.61078  0.61105  0.01813  Biso   1.000  H
  H1033    1.0000 0.61076  0.61100  0.01813  Biso   1.000  H
  N116     1.0000 0.19016  0.94491  0.96002  Biso   1.000  N
  C1137    1.0000 0.29566  0.96571  0.99244  Biso   1.000  C
  H1034    1.0000 0.29329  0.99575  0.94694  Biso   1.000  H
  H1035    1.0000 0.29327  0.99569  0.94694  Biso   1.000  H
  H1036    1.0000 0.38687  0.12756  0.96073  Biso   1.000  H
  H1037    1.0000 0.36718  0.16454  0.98694  Biso   1.000  H
  H1038    1.0000 0.38684  0.12750  0.96073  Biso   1.000  H
  C1138    1.0000 0.39058  0.09202  0.00593  Biso   1.000  C
  C1139    1.0000 0.00976  0.85304  0.87884  Biso   1.000  C
  H1039    1.0000 0.98357  0.38682  0.98194  Biso   1.000  H
  H1040    1.0000 0.00029  0.38926  0.01813  Biso   1.000  H
  H1041    1.0000 0.00026  0.38921  0.01813  Biso   1.000  H
  H1042    1.0000 0.91918  0.79946  0.97573  Biso   1.000  H
  C1140    1.0000 0.96595  0.82462  0.93211  Biso   1.000  C
  H1043    1.0000 0.91915  0.79941  0.97573  Biso   1.000  H
  H1044    1.0000 0.72230  0.62905  0.02614  Biso   1.000  H
  H1045    1.0000 0.68247  0.55965  0.00723  Biso   1.000  H
  H1046    1.0000 0.72227  0.62900  0.02614  Biso   1.000  H
  H1047    1.0000 0.68245  0.55960  0.00723  Biso   1.000  H
  C1141    1.0000 0.17064  0.93293  0.93074  Biso   1.000  C
  H1048    1.0000 0.28877  0.92084  0.98614  Biso   1.000  H
  H1049    1.0000 0.26906  0.95923  0.01152  Biso   1.000  H
  C1142    1.0000 0.37569  0.01634  0.99974  Biso   1.000  C
  H1050    1.0000 0.37096  0.09322  0.02614  Biso   1.000  H
  H1051    1.0000 0.44035  0.12284  0.00723  Biso   1.000  H
  C1143    1.0000 0.95348  0.82223  0.89908  Biso   1.000  C
  C1144    1.0000 0.08048  0.88935  0.88890  Biso   1.000  C
  C1145    1.0000 0.08046  0.88930  0.88890  Biso   1.000  C
  C1146    1.0000 0.03665  0.86145  0.94175  Biso   1.000  C
  C1147    1.0000 0.03663  0.86139  0.94175  Biso   1.000  C
  H1052    1.0000 0.20424  0.94901  0.91504  Biso   1.000  H
  C1148    1.0000 0.09546  0.89371  0.92139  Biso   1.000  C
  H1053    1.0000 0.38895  0.99974  0.01813  Biso   1.000  H
  H1054    1.0000 0.40328  0.01644  0.98194  Biso   1.000  H
  H1055    1.0000 0.90835  0.80044  0.89124  Biso   1.000  H
  H1056    1.0000 0.11615  0.90984  0.87424  Biso   1.000  H
  H1057    1.0000 0.04534  0.86471  0.96333  Biso   1.000  H
  C1149    1.0000 0.96572  0.29568  0.50756  Biso   1.000  C
  H1058    1.0000 0.95924  0.26907  0.48848  Biso   1.000  H
  C1150    1.0000 0.99320  0.26834  0.53365  Biso   1.000  C
  H1059    1.0000 0.92085  0.28878  0.51386  Biso   1.000  H
  H1060    1.0000 0.92082  0.28873  0.51386  Biso   1.000  H
  C1151    1.0000 0.01631  0.37567  0.50026  Biso   1.000  C
  N117     1.0000 0.94495  0.19017  0.53998  Biso   1.000  N
  H1061    1.0000 0.99575  0.29329  0.55306  Biso   1.000  H
  H1062    1.0000 0.99572  0.29324  0.55306  Biso   1.000  H
  C1152    1.0000 0.06865  0.28069  0.52675  Biso   1.000  C
  C1153    1.0000 0.06862  0.28063  0.52675  Biso   1.000  C
  H1063    1.0000 0.99973  0.38895  0.48187  Biso   1.000  H
  C1154    1.0000 0.09204  0.39055  0.49407  Biso   1.000  C
  H1064    1.0000 0.01641  0.40326  0.51806  Biso   1.000  H
  C1155    1.0000 0.93295  0.17066  0.56926  Biso   1.000  C
  N118     1.0000 0.09500  0.25335  0.55129  Biso   1.000  N
  H1065    1.0000 0.06553  0.25568  0.50727  Biso   1.000  H
  C1156    1.0000 0.12002  0.36088  0.51986  Biso   1.000  C
  H1066    1.0000 0.06551  0.25563  0.50727  Biso   1.000  H
  C1157    1.0000 0.11999  0.36083  0.51986  Biso   1.000  C
  H1067    1.0000 0.09324  0.37095  0.47386  Biso   1.000  H
  H1068    1.0000 0.12283  0.44035  0.49277  Biso   1.000  H
  H1069    1.0000 0.94904  0.20428  0.58496  Biso   1.000  H
  C1158    1.0000 0.89373  0.09545  0.57861  Biso   1.000  C
  C1159    1.0000 0.11793  0.21035  0.54545  Biso   1.000  C
  H1070    1.0000 0.12753  0.38687  0.53927  Biso   1.000  H
  H1071    1.0000 0.16453  0.36716  0.51306  Biso   1.000  H
  C1160    1.0000 0.86142  0.03667  0.55825  Biso   1.000  C
  C1161    1.0000 0.88933  0.08046  0.61110  Biso   1.000  C
  H1072    1.0000 0.11972  0.20054  0.52427  Biso   1.000  H
  C1162    1.0000 0.14133  0.17538  0.56789  Biso   1.000  C
  C1163    1.0000 0.14130  0.17533  0.56789  Biso   1.000  C
  H1073    1.0000 0.86474  0.04539  0.53667  Biso   1.000  H
  H1074    1.0000 0.86472  0.04534  0.53667  Biso   1.000  H
  C1164    1.0000 0.82463  0.96597  0.56789  Biso   1.000  C
  H1075    1.0000 0.90982  0.11614  0.62576  Biso   1.000  H
  C1165    1.0000 0.85303  0.00975  0.62116  Biso   1.000  C
  C1166    1.0000 0.17521  0.13855  0.55825  Biso   1.000  C
  C1167    1.0000 0.13125  0.17777  0.60092  Biso   1.000  C
  C1168    1.0000 0.78963  0.90756  0.54545  Biso   1.000  C
  C1169    1.0000 0.82224  0.95347  0.60092  Biso   1.000  C
  C1170    1.0000 0.85264  0.99756  0.65544  Biso   1.000  C
  C1171    1.0000 0.20175  0.10629  0.57861  Biso   1.000  C
  H1076    1.0000 0.18063  0.13529  0.53667  Biso   1.000  H
  C1172    1.0000 0.20173  0.10624  0.57861  Biso   1.000  C
  H1077    1.0000 0.18060  0.13523  0.53667  Biso   1.000  H
  C1173    1.0000 0.15672  0.14696  0.62116  Biso   1.000  C
  H1078    1.0000 0.10791  0.19956  0.60876  Biso   1.000  H
  N119     1.0000 0.74663  0.84168  0.55129  Biso   1.000  N
  H1079    1.0000 0.79944  0.91918  0.52427  Biso   1.000  H
  N120     1.0000 0.74660  0.84163  0.55129  Biso   1.000  N
  H1080    1.0000 0.79941  0.91913  0.52427  Biso   1.000  H
  H1081    1.0000 0.80047  0.90839  0.60876  Biso   1.000  H
  H1082    1.0000 0.80044  0.90834  0.60876  Biso   1.000  H
  C1174    1.0000 0.85523  0.99564  0.68333  Biso   1.000  C
  C1175    1.0000 0.23771  0.06707  0.56926  Biso   1.000  C
  C1176    1.0000 0.19113  0.11065  0.61110  Biso   1.000  C
  C1177    1.0000 0.14493  0.14737  0.65544  Biso   1.000  C
  C1178    1.0000 0.71931  0.78794  0.52675  Biso   1.000  C
  C1179    1.0000 0.85816  0.99808  0.71726  Biso   1.000  C
  C1180    1.0000 0.85813  0.99803  0.71726  Biso   1.000  C
  N121     1.0000 0.24524  0.05509  0.53998  Biso   1.000  N
  H1083    1.0000 0.25524  0.05099  0.58496  Biso   1.000  H
  N122     1.0000 0.24522  0.05504  0.53998  Biso   1.000  N
  H1084    1.0000 0.25521  0.05094  0.58496  Biso   1.000  H
  H1085    1.0000 0.20631  0.09016  0.62576  Biso   1.000  H
  C1181    1.0000 0.14045  0.14478  0.68333  Biso   1.000  C
  C1182    1.0000 0.14042  0.14473  0.68333  Biso   1.000  C
  H1086    1.0000 0.74434  0.80988  0.50727  Biso   1.000  H
  C1183    1.0000 0.63914  0.75915  0.51986  Biso   1.000  C
  C1184    1.0000 0.73161  0.72486  0.53365  Biso   1.000  C
  H1087    1.0000 0.74431  0.80983  0.50727  Biso   1.000  H
  C1185    1.0000 0.85944  0.05535  0.73226  Biso   1.000  C
  C1186    1.0000 0.80233  0.94185  0.73296  Biso   1.000  C
  C1187    1.0000 0.85774  0.94486  0.73436  Biso   1.000  C
  C1188    1.0000 0.91122  0.05255  0.73386  Biso   1.000  C
  C1189    1.0000 0.27511  0.00674  0.53365  Biso   1.000  C
  C1190    1.0000 0.13994  0.14187  0.71726  Biso   1.000  C
  H1088    1.0000 0.61315  0.74069  0.53927  Biso   1.000  H
  H1089    1.0000 0.63283  0.79738  0.51306  Biso   1.000  H
  C1191    1.0000 0.60945  0.70147  0.49407  Biso   1.000  C
  H1090    1.0000 0.61313  0.74063  0.53927  Biso   1.000  H
  H1091    1.0000 0.63281  0.79733  0.51306  Biso   1.000  H
  N123     1.0000 0.80981  0.75474  0.53998  Biso   1.000  N
  C1192    1.0000 0.70436  0.67009  0.50756  Biso   1.000  C
  H1092    1.0000 0.70671  0.70245  0.55306  Biso   1.000  H
  C1193    1.0000 0.70433  0.67003  0.50756  Biso   1.000  C
  H1093    1.0000 0.85972  0.09078  0.72038  Biso   1.000  H
  C1194    1.0000 0.86048  0.05815  0.76704  Biso   1.000  C
  C1195    1.0000 0.86045  0.05810  0.76704  Biso   1.000  C
  C1196    1.0000 0.80409  0.94465  0.76774  Biso   1.000  C
  H1094    1.0000 0.76666  0.90528  0.72208  Biso   1.000  H
  C1197    1.0000 0.80406  0.94460  0.76774  Biso   1.000  C
  H1095    1.0000 0.76663  0.90523  0.72208  Biso   1.000  H
  C1198    1.0000 0.85868  0.94745  0.76614  Biso   1.000  C
  H1096    1.0000 0.85684  0.90767  0.72397  Biso   1.000  H
  C1199    1.0000 0.91288  0.05514  0.76564  Biso   1.000  C
  H1097    1.0000 0.94701  0.08855  0.72257  Biso   1.000  H
  C1200    1.0000 0.21205  0.93137  0.52675  Biso   1.000  C
  C1201    1.0000 0.32995  0.03429  0.50756  Biso   1.000  C
  H1098    1.0000 0.29754  0.00425  0.55306  Biso   1.000  H
  C1202    1.0000 0.32992  0.03424  0.50756  Biso   1.000  C
  C1203    1.0000 0.19594  0.14058  0.73226  Biso   1.000  C
  C1204    1.0000 0.13955  0.19769  0.73296  Biso   1.000  C
  C1205    1.0000 0.13952  0.19764  0.73296  Biso   1.000  C
  C1206    1.0000 0.08714  0.14229  0.73436  Biso   1.000  C
  C1207    1.0000 0.14132  0.08876  0.73386  Biso   1.000  C
  H1099    1.0000 0.62901  0.72227  0.47386  Biso   1.000  H
  H1100    1.0000 0.55966  0.68248  0.49277  Biso   1.000  H
  C1208    1.0000 0.62433  0.64067  0.50026  Biso   1.000  C
  H1101    1.0000 0.55963  0.68243  0.49277  Biso   1.000  H
  C1209    1.0000 0.82934  0.76226  0.56926  Biso   1.000  C
  H1102    1.0000 0.71122  0.63206  0.51386  Biso   1.000  H
  H1103    1.0000 0.73093  0.69016  0.48848  Biso   1.000  H
  C1210    1.0000 0.86008  0.00192  0.78274  Biso   1.000  C
  H1104    1.0000 0.86138  0.09472  0.77792  Biso   1.000  H
  H1105    1.0000 0.76894  0.90922  0.77962  Biso   1.000  H
  H1106    1.0000 0.85847  0.91145  0.77743  Biso   1.000  H
  H1107    1.0000 0.94918  0.09233  0.77603  Biso   1.000  H
  N124     1.0000 0.15832  0.90497  0.55129  Biso   1.000  N
  H1108    1.0000 0.19015  0.93448  0.50727  Biso   1.000  H
  C1211    1.0000 0.24084  0.87997  0.51986  Biso   1.000  C
  H1109    1.0000 0.19013  0.93443  0.50727  Biso   1.000  H
  C1212    1.0000 0.35935  0.98366  0.50026  Biso   1.000  C
  H1110    1.0000 0.36793  0.07916  0.51386  Biso   1.000  H
  H1111    1.0000 0.30983  0.04077  0.48848  Biso   1.000  H
  C1213    1.0000 0.19767  0.13954  0.76704  Biso   1.000  C
  H1112    1.0000 0.23105  0.14027  0.72038  Biso   1.000  H
  C1214    1.0000 0.14055  0.19593  0.76774  Biso   1.000  C
  H1113    1.0000 0.13866  0.23338  0.72208  Biso   1.000  H
  C1215    1.0000 0.08878  0.14135  0.76614  Biso   1.000  C
  H1114    1.0000 0.05083  0.14317  0.72397  Biso   1.000  H
  C1216    1.0000 0.14227  0.08715  0.76564  Biso   1.000  C
  H1115    1.0000 0.14153  0.05296  0.72257  Biso   1.000  H
  H1116    1.0000 0.61103  0.61074  0.48187  Biso   1.000  H
  H1117    1.0000 0.59675  0.61318  0.51806  Biso   1.000  H
  H1118    1.0000 0.59673  0.61313  0.51806  Biso   1.000  H
  H1119    1.0000 0.79575  0.74478  0.58496  Biso   1.000  H
  C1217    1.0000 0.90452  0.79826  0.57861  Biso   1.000  C
  H1120    1.0000 0.79573  0.74473  0.58496  Biso   1.000  H
  C1218    1.0000 0.85959  0.00436  0.81667  Biso   1.000  C
  C1219    1.0000 0.85957  0.00431  0.81667  Biso   1.000  C
  C1220    1.0000 0.09244  0.88209  0.54545  Biso   1.000  C
  C1221    1.0000 0.09241  0.88204  0.54545  Biso   1.000  C
  H1121    1.0000 0.25931  0.87244  0.53927  Biso   1.000  H
  H1122    1.0000 0.20263  0.83546  0.51306  Biso   1.000  H
  C1222    1.0000 0.29855  0.90798  0.49407  Biso   1.000  C
  H1123    1.0000 0.38684  0.98356  0.51806  Biso   1.000  H
  H1124    1.0000 0.38921  0.00026  0.48187  Biso   1.000  H
  C1223    1.0000 0.14185  0.13995  0.78274  Biso   1.000  C
  H1125    1.0000 0.23339  0.13866  0.77792  Biso   1.000  H
  C1224    1.0000 0.14183  0.13990  0.78274  Biso   1.000  C
  H1126    1.0000 0.23336  0.13861  0.77792  Biso   1.000  H
  H1127    1.0000 0.14027  0.23104  0.77962  Biso   1.000  H
  H1128    1.0000 0.05297  0.14151  0.77743  Biso   1.000  H
  H1129    1.0000 0.14316  0.05084  0.77603  Biso   1.000  H
  C1225    1.0000 0.96333  0.82477  0.55825  Biso   1.000  C
  C1226    1.0000 0.91952  0.80885  0.61110  Biso   1.000  C
  C1227    1.0000 0.85508  0.00244  0.84456  Biso   1.000  C
  H1130    1.0000 0.08084  0.88028  0.52427  Biso   1.000  H
  C1228    1.0000 0.03404  0.85865  0.56789  Biso   1.000  C
  H1131    1.0000 0.27774  0.90678  0.47386  Biso   1.000  H
  H1132    1.0000 0.31751  0.87716  0.49277  Biso   1.000  H
  H1133    1.0000 0.27771  0.90673  0.47386  Biso   1.000  H
  C1229    1.0000 0.14474  0.14042  0.81667  Biso   1.000  C
  H1134    1.0000 0.95466  0.81938  0.53667  Biso   1.000  H
  H1135    1.0000 0.88384  0.79365  0.62576  Biso   1.000  H
  C1230    1.0000 0.99024  0.84329  0.62116  Biso   1.000  C
  C1231    1.0000 0.99022  0.84324  0.62116  Biso   1.000  C
  C1232    1.0000 0.84328  0.99025  0.87884  Biso   1.000  C
  C1233    1.0000 0.84326  0.99020  0.87884  Biso   1.000  C
  C1234    1.0000 0.04651  0.86876  0.60092  Biso   1.000  C
  C1235    1.0000 0.14735  0.14493  0.84456  Biso   1.000  C
  C1236    1.0000 0.00242  0.85507  0.65544  Biso   1.000  C
  C1237    1.0000 0.86877  0.04653  0.89908  Biso   1.000  C
  C1238    1.0000 0.80887  0.91954  0.88890  Biso   1.000  C
  H1136    1.0000 0.09162  0.89205  0.60876  Biso   1.000  H
  C1239    1.0000 0.14695  0.15671  0.87884  Biso   1.000  C
  C1240    1.0000 0.00432  0.85958  0.68333  Biso   1.000  C
  C1241    1.0000 0.00429  0.85953  0.68333  Biso   1.000  C
  C1242    1.0000 0.85866  0.03403  0.93211  Biso   1.000  C
  H1137    1.0000 0.89208  0.09161  0.89124  Biso   1.000  H
  C1243    1.0000 0.79828  0.90455  0.92139  Biso   1.000  C
  H1138    1.0000 0.79368  0.88386  0.87424  Biso   1.000  H
  C1244    1.0000 0.79825  0.90450  0.92139  Biso   1.000  C
  H1139    1.0000 0.79365  0.88380  0.87424  Biso   1.000  H
  C1245    1.0000 0.17775  0.13124  0.89908  Biso   1.000  C
  C1246    1.0000 0.11067  0.19115  0.88890  Biso   1.000  C
  C1247    1.0000 0.11065  0.19110  0.88890  Biso   1.000  C
  C1248    1.0000 0.00190  0.86005  0.71726  Biso   1.000  C
  C1249    1.0000 0.88207  0.09244  0.95455  Biso   1.000  C
  C1250    1.0000 0.82474  0.96333  0.94175  Biso   1.000  C
  C1251    1.0000 0.76229  0.82934  0.93074  Biso   1.000  C
  C1252    1.0000 0.17539  0.14135  0.93211  Biso   1.000  C
  H1140    1.0000 0.19957  0.10795  0.89124  Biso   1.000  H
  C1253    1.0000 0.17537  0.14130  0.93211  Biso   1.000  C
  H1141    1.0000 0.19955  0.10790  0.89124  Biso   1.000  H
  C1254    1.0000 0.10626  0.20174  0.92139  Biso   1.000  C
  H1142    1.0000 0.09019  0.20635  0.87424  Biso   1.000  H
  H1143    1.0000 0.09017  0.20630  0.87424  Biso   1.000  H
  C1255    1.0000 0.94462  0.80407  0.73226  Biso   1.000  C
  C1256    1.0000 0.94743  0.85865  0.73386  Biso   1.000  C
  C1257    1.0000 0.05813  0.86046  0.73296  Biso   1.000  C
  C1258    1.0000 0.05512  0.91285  0.73436  Biso   1.000  C
  N125     1.0000 0.90494  0.15832  0.94871  Biso   1.000  N
  H1144    1.0000 0.88026  0.08082  0.97573  Biso   1.000  H
  H1145    1.0000 0.81935  0.95461  0.96333  Biso   1.000  H
  N126     1.0000 0.75478  0.80983  0.96002  Biso   1.000  N
  H1146    1.0000 0.74476  0.79572  0.91504  Biso   1.000  H
  C1259    1.0000 0.21035  0.11791  0.95455  Biso   1.000  C
  C1260    1.0000 0.13856  0.17523  0.94175  Biso   1.000  C
  C1261    1.0000 0.06707  0.23774  0.93074  Biso   1.000  C
  C1262    1.0000 0.94186  0.80231  0.76704  Biso   1.000  C
  H1147    1.0000 0.90923  0.76896  0.72038  Biso   1.000  H
  C1263    1.0000 0.94485  0.85771  0.76564  Biso   1.000  C
  H1148    1.0000 0.91143  0.85844  0.72257  Biso   1.000  H
  C1264    1.0000 0.05536  0.85942  0.76774  Biso   1.000  C
  H1149    1.0000 0.09473  0.86134  0.72208  Biso   1.000  H
  C1265    1.0000 0.05257  0.91124  0.76614  Biso   1.000  C
  H1150    1.0000 0.09233  0.94916  0.72397  Biso   1.000  H
  C1266    1.0000 0.93137  0.21206  0.97325  Biso   1.000  C
  C1267    1.0000 0.93134  0.21201  0.97325  Biso   1.000  C
  C1268    1.0000 0.72486  0.73166  0.96635  Biso   1.000  C
  C1269    1.0000 0.72483  0.73161  0.96635  Biso   1.000  C
  N127     1.0000 0.25336  0.09503  0.94871  Biso   1.000  N
  H1151    1.0000 0.20056  0.11972  0.97573  Biso   1.000  H
  H1152    1.0000 0.13528  0.18062  0.96333  Biso   1.000  H
  N128     1.0000 0.05506  0.24526  0.96002  Biso   1.000  N
  H1153    1.0000 0.05097  0.25522  0.91504  Biso   1.000  H
  N129     1.0000 0.05504  0.24521  0.96002  Biso   1.000  N
  C1270    1.0000 0.99807  0.85813  0.78274  Biso   1.000  C
  H1154    1.0000 0.90528  0.76662  0.77792  Biso   1.000  H
  H1155    1.0000 0.90766  0.85683  0.77603  Biso   1.000  H
  H1156    1.0000 0.09078  0.85973  0.77962  Biso   1.000  H
  H1157    1.0000 0.08857  0.94704  0.77743  Biso   1.000  H
  H1158    1.0000 0.93446  0.19012  0.99273  Biso   1.000  H
  C1271    1.0000 0.87999  0.24085  0.98014  Biso   1.000  C
  C1272    1.0000 0.87997  0.24080  0.98014  Biso   1.000  C
  C1273    1.0000 0.00675  0.27514  0.96635  Biso   1.000  C
  C1274    1.0000 0.78796  0.71931  0.97325  Biso   1.000  C
  C1275    1.0000 0.67004  0.70432  0.99244  Biso   1.000  C
  H1159    1.0000 0.70246  0.70671  0.94694  Biso   1.000  H
  C1276    1.0000 0.28068  0.06863  0.97325  Biso   1.000  C
  C1277    1.0000 0.99567  0.85522  0.81667  Biso   1.000  C
  H1160    1.0000 0.87247  0.25931  0.96073  Biso   1.000  H
  H1161    1.0000 0.83545  0.20262  0.98694  Biso   1.000  H
  C1278    1.0000 0.90798  0.29853  0.00593  Biso   1.000  C
  C1279    1.0000 0.03427  0.32991  0.99244  Biso   1.000  C
  H1162    1.0000 0.00425  0.29755  0.94694  Biso   1.000  H
  H1163    1.0000 0.00423  0.29749  0.94694  Biso   1.000  H
  N130     1.0000 0.84165  0.74665  0.94871  Biso   1.000  N
  H1164    1.0000 0.80985  0.74432  0.99273  Biso   1.000  H
  C1280    1.0000 0.75914  0.63912  0.98014  Biso   1.000  C
  N131     1.0000 0.84163  0.74660  0.94871  Biso   1.000  N
  C1281    1.0000 0.64065  0.62433  0.99974  Biso   1.000  C
  H1165    1.0000 0.63207  0.71122  0.98614  Biso   1.000  H
  H1166    1.0000 0.69017  0.73093  0.01152  Biso   1.000  H
  C1282    1.0000 0.26837  0.99326  0.96635  Biso   1.000  C
  C1283    1.0000 0.26835  0.99320  0.96635  Biso   1.000  C
  H1167    1.0000 0.25567  0.06552  0.99273  Biso   1.000  H
  C1284    1.0000 0.36087  0.12003  0.98014  Biso   1.000  C
  C1285    1.0000 0.99756  0.85263  0.84456  Biso   1.000  C
  C1286    1.0000 0.98366  0.35933  0.99974  Biso   1.000  C
  H1168    1.0000 0.90674  0.27773  0.02614  Biso   1.000  H
  H1169    1.0000 0.87718  0.31752  0.00723  Biso   1.000  H
  H1170    1.0000 0.07916  0.36794  0.98614  Biso   1.000  H
  H1171    1.0000 0.04077  0.30984  0.01152  Biso   1.000  H
  C1287    1.0000 0.90759  0.78965  0.95455  Biso   1.000  C
  C1288    1.0000 0.90756  0.78960  0.95455  Biso   1.000  C
  H1172    1.0000 0.74066  0.61313  0.96073  Biso   1.000  H
  H1173    1.0000 0.79737  0.63284  0.98694  Biso   1.000  H
  C1289    1.0000 0.70149  0.60945  0.00593  Biso   1.000  C
  C1290    1.0000 0.70146  0.60939  0.00593  Biso   1.000  C
  H1174    1.0000 0.61315  0.59674  0.98194  Biso   1.000  H
  H1175    1.0000 0.61078  0.61105  0.01813  Biso   1.000  H
  H1176    1.0000 0.61076  0.61100  0.01813  Biso   1.000  H
  N132     1.0000 0.19016  0.94491  0.96002  Biso   1.000  N
  C1291    1.0000 0.29566  0.96571  0.99244  Biso   1.000  C
  H1177    1.0000 0.29329  0.99575  0.94694  Biso   1.000  H
  H1178    1.0000 0.29327  0.99569  0.94694  Biso   1.000  H
  H1179    1.0000 0.38687  0.12756  0.96073  Biso   1.000  H
  H1180    1.0000 0.36718  0.16454  0.98694  Biso   1.000  H
  H1181    1.0000 0.38684  0.12750  0.96073  Biso   1.000  H
  C1292    1.0000 0.39058  0.09202  0.00593  Biso   1.000  C
  C1293    1.0000 0.00976  0.85304  0.87884  Biso   1.000  C
  H1182    1.0000 0.98357  0.38682  0.98194  Biso   1.000  H
  H1183    1.0000 0.00029  0.38926  0.01813  Biso   1.000  H
  H1184    1.0000 0.00026  0.38921  0.01813  Biso   1.000  H
  H1185    1.0000 0.91918  0.79946  0.97573  Biso   1.000  H
  C1294    1.0000 0.96595  0.82462  0.93211  Biso   1.000  C
  H1186    1.0000 0.91915  0.79941  0.97573  Biso   1.000  H
  H1187    1.0000 0.72230  0.62905  0.02614  Biso   1.000  H
  H1188    1.0000 0.68247  0.55965  0.00723  Biso   1.000  H
  H1189    1.0000 0.72227  0.62900  0.02614  Biso   1.000  H
  H1190    1.0000 0.68245  0.55960  0.00723  Biso   1.000  H
  C1295    1.0000 0.17064  0.93293  0.93074  Biso   1.000  C
  H1191    1.0000 0.28877  0.92084  0.98614  Biso   1.000  H
  H1192    1.0000 0.26906  0.95923  0.01152  Biso   1.000  H
  C1296    1.0000 0.37569  0.01634  0.99974  Biso   1.000  C
  H1193    1.0000 0.37096  0.09322  0.02614  Biso   1.000  H
  H1194    1.0000 0.44035  0.12284  0.00723  Biso   1.000  H
  C1297    1.0000 0.95348  0.82223  0.89908  Biso   1.000  C
  C1298    1.0000 0.08048  0.88935  0.88890  Biso   1.000  C
  C1299    1.0000 0.08046  0.88930  0.88890  Biso   1.000  C
  C1300    1.0000 0.03665  0.86145  0.94175  Biso   1.000  C
  C1301    1.0000 0.03663  0.86139  0.94175  Biso   1.000  C
  H1195    1.0000 0.20424  0.94901  0.91504  Biso   1.000  H
  C1302    1.0000 0.09546  0.89371  0.92139  Biso   1.000  C
  H1196    1.0000 0.38895  0.99974  0.01813  Biso   1.000  H
  H1197    1.0000 0.40328  0.01644  0.98194  Biso   1.000  H
  H1198    1.0000 0.90835  0.80044  0.89124  Biso   1.000  H
  H1199    1.0000 0.11615  0.90984  0.87424  Biso   1.000  H
  H1200    1.0000 0.04534  0.86471  0.96333  Biso   1.000  H
  C1303    1.0000 0.96572  0.29568  0.50756  Biso   1.000  C
  H1201    1.0000 0.95924  0.26907  0.48848  Biso   1.000  H
  C1304    1.0000 0.99320  0.26834  0.53365  Biso   1.000  C
  H1202    1.0000 0.92085  0.28878  0.51386  Biso   1.000  H
  H1203    1.0000 0.92082  0.28873  0.51386  Biso   1.000  H
  C1305    1.0000 0.01631  0.37567  0.50026  Biso   1.000  C
  N133     1.0000 0.94495  0.19017  0.53998  Biso   1.000  N
  H1204    1.0000 0.99575  0.29329  0.55306  Biso   1.000  H
  H1205    1.0000 0.99572  0.29324  0.55306  Biso   1.000  H
  C1306    1.0000 0.06865  0.28069  0.52675  Biso   1.000  C
  C1307    1.0000 0.06862  0.28063  0.52675  Biso   1.000  C
  H1206    1.0000 0.99973  0.38895  0.48187  Biso   1.000  H
  C1308    1.0000 0.09204  0.39055  0.49407  Biso   1.000  C
  H1207    1.0000 0.01641  0.40326  0.51806  Biso   1.000  H
  C1309    1.0000 0.93295  0.17066  0.56926  Biso   1.000  C
  N134     1.0000 0.09500  0.25335  0.55129  Biso   1.000  N
  H1208    1.0000 0.06553  0.25568  0.50727  Biso   1.000  H
  C1310    1.0000 0.12002  0.36088  0.51986  Biso   1.000  C
  H1209    1.0000 0.06551  0.25563  0.50727  Biso   1.000  H
  C1311    1.0000 0.11999  0.36083  0.51986  Biso   1.000  C
  H1210    1.0000 0.09324  0.37095  0.47386  Biso   1.000  H
  H1211    1.0000 0.12283  0.44035  0.49277  Biso   1.000  H
  H1212    1.0000 0.94904  0.20428  0.58496  Biso   1.000  H
  C1312    1.0000 0.89373  0.09545  0.57861  Biso   1.000  C
  C1313    1.0000 0.11793  0.21035  0.54545  Biso   1.000  C
  H1213    1.0000 0.12753  0.38687  0.53927  Biso   1.000  H
  H1214    1.0000 0.16453  0.36716  0.51306  Biso   1.000  H
  C1314    1.0000 0.86142  0.03667  0.55825  Biso   1.000  C
  C1315    1.0000 0.88933  0.08046  0.61110  Biso   1.000  C
  H1215    1.0000 0.11972  0.20054  0.52427  Biso   1.000  H
  C1316    1.0000 0.14133  0.17538  0.56789  Biso   1.000  C
  C1317    1.0000 0.14130  0.17533  0.56789  Biso   1.000  C
  C1318    1.0000 0.82463  0.96597  0.56789  Biso   1.000  C
  H1216    1.0000 0.86474  0.04539  0.53667  Biso   1.000  H
  H1217    1.0000 0.86472  0.04534  0.53667  Biso   1.000  H
  H1218    1.0000 0.90982  0.11614  0.62576  Biso   1.000  H
  C1319    1.0000 0.85303  0.00975  0.62116  Biso   1.000  C
  C1320    1.0000 0.17521  0.13855  0.55825  Biso   1.000  C
  C1321    1.0000 0.13125  0.17777  0.60092  Biso   1.000  C
  C1322    1.0000 0.78963  0.90756  0.54545  Biso   1.000  C
  C1323    1.0000 0.82224  0.95347  0.60092  Biso   1.000  C
  C1324    1.0000 0.85264  0.99756  0.65544  Biso   1.000  C
  C1325    1.0000 0.20175  0.10629  0.57861  Biso   1.000  C
  H1219    1.0000 0.18063  0.13529  0.53667  Biso   1.000  H
  C1326    1.0000 0.20173  0.10624  0.57861  Biso   1.000  C
  H1220    1.0000 0.18060  0.13523  0.53667  Biso   1.000  H
  C1327    1.0000 0.15672  0.14696  0.62116  Biso   1.000  C
  H1221    1.0000 0.10791  0.19956  0.60876  Biso   1.000  H
  N135     1.0000 0.74663  0.84168  0.55129  Biso   1.000  N
  H1222    1.0000 0.79944  0.91918  0.52427  Biso   1.000  H
  N136     1.0000 0.74660  0.84163  0.55129  Biso   1.000  N
  H1223    1.0000 0.79941  0.91913  0.52427  Biso   1.000  H
  H1224    1.0000 0.80047  0.90839  0.60876  Biso   1.000  H
  H1225    1.0000 0.80044  0.90834  0.60876  Biso   1.000  H
  C1328    1.0000 0.85523  0.99564  0.68333  Biso   1.000  C
  C1329    1.0000 0.23771  0.06707  0.56926  Biso   1.000  C
  C1330    1.0000 0.19113  0.11065  0.61110  Biso   1.000  C
  C1331    1.0000 0.14493  0.14737  0.65544  Biso   1.000  C
  C1332    1.0000 0.71931  0.78794  0.52675  Biso   1.000  C
  C1333    1.0000 0.85816  0.99808  0.71726  Biso   1.000  C
  C1334    1.0000 0.85813  0.99803  0.71726  Biso   1.000  C
  N137     1.0000 0.24524  0.05509  0.53998  Biso   1.000  N
  H1226    1.0000 0.25524  0.05099  0.58496  Biso   1.000  H
  N138     1.0000 0.24522  0.05504  0.53998  Biso   1.000  N
  H1227    1.0000 0.25521  0.05094  0.58496  Biso   1.000  H
  H1228    1.0000 0.20631  0.09016  0.62576  Biso   1.000  H
  C1335    1.0000 0.14045  0.14478  0.68333  Biso   1.000  C
  C1336    1.0000 0.14042  0.14473  0.68333  Biso   1.000  C
  H1229    1.0000 0.74434  0.80988  0.50727  Biso   1.000  H
  C1337    1.0000 0.63914  0.75915  0.51986  Biso   1.000  C
  C1338    1.0000 0.73161  0.72486  0.53365  Biso   1.000  C
  H1230    1.0000 0.74431  0.80983  0.50727  Biso   1.000  H
  C1339    1.0000 0.85944  0.05535  0.73226  Biso   1.000  C
  C1340    1.0000 0.80233  0.94185  0.73296  Biso   1.000  C
  C1341    1.0000 0.85774  0.94486  0.73436  Biso   1.000  C
  C1342    1.0000 0.91122  0.05255  0.73386  Biso   1.000  C
  C1343    1.0000 0.27511  0.00674  0.53365  Biso   1.000  C
  C1344    1.0000 0.13994  0.14187  0.71726  Biso   1.000  C
  H1231    1.0000 0.61315  0.74069  0.53927  Biso   1.000  H
  H1232    1.0000 0.63283  0.79738  0.51306  Biso   1.000  H
  C1345    1.0000 0.60945  0.70147  0.49407  Biso   1.000  C
  H1233    1.0000 0.61313  0.74063  0.53927  Biso   1.000  H
  H1234    1.0000 0.63281  0.79733  0.51306  Biso   1.000  H
  N139     1.0000 0.80981  0.75474  0.53998  Biso   1.000  N
  C1346    1.0000 0.70436  0.67009  0.50756  Biso   1.000  C
  H1235    1.0000 0.70671  0.70245  0.55306  Biso   1.000  H
  C1347    1.0000 0.70433  0.67003  0.50756  Biso   1.000  C
  H1236    1.0000 0.85972  0.09078  0.72038  Biso   1.000  H
  C1348    1.0000 0.86048  0.05815  0.76704  Biso   1.000  C
  C1349    1.0000 0.86045  0.05810  0.76704  Biso   1.000  C
  C1350    1.0000 0.80409  0.94465  0.76774  Biso   1.000  C
  H1237    1.0000 0.76666  0.90528  0.72208  Biso   1.000  H
  C1351    1.0000 0.80406  0.94460  0.76774  Biso   1.000  C
  H1238    1.0000 0.76663  0.90523  0.72208  Biso   1.000  H
  C1352    1.0000 0.85868  0.94745  0.76614  Biso   1.000  C
  H1239    1.0000 0.85684  0.90767  0.72397  Biso   1.000  H
  C1353    1.0000 0.91288  0.05514  0.76564  Biso   1.000  C
  H1240    1.0000 0.94701  0.08855  0.72257  Biso   1.000  H
  C1354    1.0000 0.21205  0.93137  0.52675  Biso   1.000  C
  C1355    1.0000 0.32995  0.03429  0.50756  Biso   1.000  C
  H1241    1.0000 0.29754  0.00425  0.55306  Biso   1.000  H
  C1356    1.0000 0.32992  0.03424  0.50756  Biso   1.000  C
  C1357    1.0000 0.19594  0.14058  0.73226  Biso   1.000  C
  C1358    1.0000 0.13955  0.19769  0.73296  Biso   1.000  C
  C1359    1.0000 0.13952  0.19764  0.73296  Biso   1.000  C
  C1360    1.0000 0.08714  0.14229  0.73436  Biso   1.000  C
  C1361    1.0000 0.14132  0.08876  0.73386  Biso   1.000  C
  H1242    1.0000 0.62901  0.72227  0.47386  Biso   1.000  H
  H1243    1.0000 0.55966  0.68248  0.49277  Biso   1.000  H
  C1362    1.0000 0.62433  0.64067  0.50026  Biso   1.000  C
  H1244    1.0000 0.55963  0.68243  0.49277  Biso   1.000  H
  C1363    1.0000 0.82934  0.76226  0.56926  Biso   1.000  C
  H1245    1.0000 0.71122  0.63206  0.51386  Biso   1.000  H
  H1246    1.0000 0.73093  0.69016  0.48848  Biso   1.000  H
  C1364    1.0000 0.86008  0.00192  0.78274  Biso   1.000  C
  H1247    1.0000 0.86138  0.09472  0.77792  Biso   1.000  H
  H1248    1.0000 0.76894  0.90922  0.77962  Biso   1.000  H
  H1249    1.0000 0.85847  0.91145  0.77743  Biso   1.000  H
  H1250    1.0000 0.94918  0.09233  0.77603  Biso   1.000  H
  N140     1.0000 0.15832  0.90497  0.55129  Biso   1.000  N
  H1251    1.0000 0.19015  0.93448  0.50727  Biso   1.000  H
  C1365    1.0000 0.24084  0.87997  0.51986  Biso   1.000  C
  H1252    1.0000 0.19013  0.93443  0.50727  Biso   1.000  H
  C1366    1.0000 0.35935  0.98366  0.50026  Biso   1.000  C
  H1253    1.0000 0.36793  0.07916  0.51386  Biso   1.000  H
  H1254    1.0000 0.30983  0.04077  0.48848  Biso   1.000  H
  C1367    1.0000 0.19767  0.13954  0.76704  Biso   1.000  C
  H1255    1.0000 0.23105  0.14027  0.72038  Biso   1.000  H
  C1368    1.0000 0.14055  0.19593  0.76774  Biso   1.000  C
  H1256    1.0000 0.13866  0.23338  0.72208  Biso   1.000  H
  C1369    1.0000 0.08878  0.14135  0.76614  Biso   1.000  C
  H1257    1.0000 0.05083  0.14317  0.72397  Biso   1.000  H
  C1370    1.0000 0.14227  0.08715  0.76564  Biso   1.000  C
  H1258    1.0000 0.14153  0.05296  0.72257  Biso   1.000  H
  H1259    1.0000 0.61103  0.61074  0.48187  Biso   1.000  H
  H1260    1.0000 0.59675  0.61318  0.51806  Biso   1.000  H
  H1261    1.0000 0.59673  0.61313  0.51806  Biso   1.000  H
  H1262    1.0000 0.79575  0.74478  0.58496  Biso   1.000  H
  C1371    1.0000 0.90452  0.79826  0.57861  Biso   1.000  C
  H1263    1.0000 0.79573  0.74473  0.58496  Biso   1.000  H
  C1372    1.0000 0.85959  0.00436  0.81667  Biso   1.000  C
  C1373    1.0000 0.85957  0.00431  0.81667  Biso   1.000  C
  C1374    1.0000 0.09244  0.88209  0.54545  Biso   1.000  C
  C1375    1.0000 0.09241  0.88204  0.54545  Biso   1.000  C
  H1264    1.0000 0.25931  0.87244  0.53927  Biso   1.000  H
  H1265    1.0000 0.20263  0.83546  0.51306  Biso   1.000  H
  C1376    1.0000 0.29855  0.90798  0.49407  Biso   1.000  C
  H1266    1.0000 0.38684  0.98356  0.51806  Biso   1.000  H
  H1267    1.0000 0.38921  0.00026  0.48187  Biso   1.000  H
  C1377    1.0000 0.14185  0.13995  0.78274  Biso   1.000  C
  H1268    1.0000 0.23339  0.13866  0.77792  Biso   1.000  H
  C1378    1.0000 0.14183  0.13990  0.78274  Biso   1.000  C
  H1269    1.0000 0.23336  0.13861  0.77792  Biso   1.000  H
  H1270    1.0000 0.14027  0.23104  0.77962  Biso   1.000  H
  H1271    1.0000 0.05297  0.14151  0.77743  Biso   1.000  H
  H1272    1.0000 0.14316  0.05084  0.77603  Biso   1.000  H
  C1379    1.0000 0.96333  0.82477  0.55825  Biso   1.000  C
  C1380    1.0000 0.91952  0.80885  0.61110  Biso   1.000  C
  C1381    1.0000 0.85508  0.00244  0.84456  Biso   1.000  C
  H1273    1.0000 0.08084  0.88028  0.52427  Biso   1.000  H
  C1382    1.0000 0.03404  0.85865  0.56789  Biso   1.000  C
  H1274    1.0000 0.27774  0.90678  0.47386  Biso   1.000  H
  H1275    1.0000 0.31751  0.87716  0.49277  Biso   1.000  H
  H1276    1.0000 0.27771  0.90673  0.47386  Biso   1.000  H
  C1383    1.0000 0.14474  0.14042  0.81667  Biso   1.000  C
  H1277    1.0000 0.95466  0.81938  0.53667  Biso   1.000  H
  H1278    1.0000 0.88384  0.79365  0.62576  Biso   1.000  H
  C1384    1.0000 0.99024  0.84329  0.62116  Biso   1.000  C
  C1385    1.0000 0.99022  0.84324  0.62116  Biso   1.000  C
  C1386    1.0000 0.84328  0.99025  0.87884  Biso   1.000  C
  C1387    1.0000 0.84326  0.99020  0.87884  Biso   1.000  C
  C1388    1.0000 0.04651  0.86876  0.60092  Biso   1.000  C
  C1389    1.0000 0.14735  0.14493  0.84456  Biso   1.000  C
  C1390    1.0000 0.00242  0.85507  0.65544  Biso   1.000  C
  C1391    1.0000 0.86877  0.04653  0.89908  Biso   1.000  C
  C1392    1.0000 0.80887  0.91954  0.88890  Biso   1.000  C
  H1279    1.0000 0.09162  0.89205  0.60876  Biso   1.000  H
  C1393    1.0000 0.14695  0.15671  0.87884  Biso   1.000  C
  C1394    1.0000 0.00432  0.85958  0.68333  Biso   1.000  C
  C1395    1.0000 0.00429  0.85953  0.68333  Biso   1.000  C
  C1396    1.0000 0.85866  0.03403  0.93211  Biso   1.000  C
  H1280    1.0000 0.89208  0.09161  0.89124  Biso   1.000  H
  C1397    1.0000 0.79828  0.90455  0.92139  Biso   1.000  C
  H1281    1.0000 0.79368  0.88386  0.87424  Biso   1.000  H
  C1398    1.0000 0.79825  0.90450  0.92139  Biso   1.000  C
  H1282    1.0000 0.79365  0.88380  0.87424  Biso   1.000  H
  C1399    1.0000 0.17775  0.13124  0.89908  Biso   1.000  C
  C1400    1.0000 0.11067  0.19115  0.88890  Biso   1.000  C
  C1401    1.0000 0.11065  0.19110  0.88890  Biso   1.000  C
  C1402    1.0000 0.00190  0.86005  0.71726  Biso   1.000  C
  C1403    1.0000 0.88207  0.09244  0.95455  Biso   1.000  C
  C1404    1.0000 0.82474  0.96333  0.94175  Biso   1.000  C
  C1405    1.0000 0.76229  0.82934  0.93074  Biso   1.000  C
  C1406    1.0000 0.17539  0.14135  0.93211  Biso   1.000  C
  H1283    1.0000 0.19957  0.10795  0.89124  Biso   1.000  H
  C1407    1.0000 0.17537  0.14130  0.93211  Biso   1.000  C
  H1284    1.0000 0.19955  0.10790  0.89124  Biso   1.000  H
  C1408    1.0000 0.10626  0.20174  0.92139  Biso   1.000  C
  H1285    1.0000 0.09019  0.20635  0.87424  Biso   1.000  H
  H1286    1.0000 0.09017  0.20630  0.87424  Biso   1.000  H
  C1409    1.0000 0.94462  0.80407  0.73226  Biso   1.000  C
  C1410    1.0000 0.94743  0.85865  0.73386  Biso   1.000  C
  C1411    1.0000 0.05813  0.86046  0.73296  Biso   1.000  C
  C1412    1.0000 0.05512  0.91285  0.73436  Biso   1.000  C
  N141     1.0000 0.90494  0.15832  0.94871  Biso   1.000  N
  H1287    1.0000 0.88026  0.08082  0.97573  Biso   1.000  H
  H1288    1.0000 0.81935  0.95461  0.96333  Biso   1.000  H
  N142     1.0000 0.75478  0.80983  0.96002  Biso   1.000  N
  H1289    1.0000 0.74476  0.79572  0.91504  Biso   1.000  H
  C1413    1.0000 0.21035  0.11791  0.95455  Biso   1.000  C
  C1414    1.0000 0.13856  0.17523  0.94175  Biso   1.000  C
  C1415    1.0000 0.06707  0.23774  0.93074  Biso   1.000  C
  C1416    1.0000 0.94186  0.80231  0.76704  Biso   1.000  C
  H1290    1.0000 0.90923  0.76896  0.72038  Biso   1.000  H
  C1417    1.0000 0.94485  0.85771  0.76564  Biso   1.000  C
  H1291    1.0000 0.91143  0.85844  0.72257  Biso   1.000  H
  C1418    1.0000 0.05536  0.85942  0.76774  Biso   1.000  C
  H1292    1.0000 0.09473  0.86134  0.72208  Biso   1.000  H
  C1419    1.0000 0.05257  0.91124  0.76614  Biso   1.000  C
  H1293    1.0000 0.09233  0.94916  0.72397  Biso   1.000  H
  C1420    1.0000 0.93137  0.21206  0.97325  Biso   1.000  C
  C1421    1.0000 0.93134  0.21201  0.97325  Biso   1.000  C
  C1422    1.0000 0.72486  0.73166  0.96635  Biso   1.000  C
  C1423    1.0000 0.72483  0.73161  0.96635  Biso   1.000  C
  N143     1.0000 0.25336  0.09503  0.94871  Biso   1.000  N
  H1294    1.0000 0.20056  0.11972  0.97573  Biso   1.000  H
  H1295    1.0000 0.13528  0.18062  0.96333  Biso   1.000  H
  N144     1.0000 0.05506  0.24526  0.96002  Biso   1.000  N
  H1296    1.0000 0.05097  0.25522  0.91504  Biso   1.000  H
  N145     1.0000 0.05504  0.24521  0.96002  Biso   1.000  N
  C1424    1.0000 0.99807  0.85813  0.78274  Biso   1.000  C
  H1297    1.0000 0.90528  0.76662  0.77792  Biso   1.000  H
  H1298    1.0000 0.90766  0.85683  0.77603  Biso   1.000  H
  H1299    1.0000 0.09078  0.85973  0.77962  Biso   1.000  H
  H1300    1.0000 0.08857  0.94704  0.77743  Biso   1.000  H
  H1301    1.0000 0.93446  0.19012  0.99273  Biso   1.000  H
  C1425    1.0000 0.87999  0.24085  0.98014  Biso   1.000  C
  C1426    1.0000 0.87997  0.24080  0.98014  Biso   1.000  C
  C1427    1.0000 0.00675  0.27514  0.96635  Biso   1.000  C
  C1428    1.0000 0.78796  0.71931  0.97325  Biso   1.000  C
  C1429    1.0000 0.67004  0.70432  0.99244  Biso   1.000  C
  H1302    1.0000 0.70246  0.70671  0.94694  Biso   1.000  H
  C1430    1.0000 0.28068  0.06863  0.97325  Biso   1.000  C
  C1431    1.0000 0.99567  0.85522  0.81667  Biso   1.000  C
  H1303    1.0000 0.87247  0.25931  0.96073  Biso   1.000  H
  H1304    1.0000 0.83545  0.20262  0.98694  Biso   1.000  H
  C1432    1.0000 0.90798  0.29853  0.00593  Biso   1.000  C
  C1433    1.0000 0.03427  0.32991  0.99244  Biso   1.000  C
  H1305    1.0000 0.00425  0.29755  0.94694  Biso   1.000  H
  H1306    1.0000 0.00423  0.29749  0.94694  Biso   1.000  H
  N146     1.0000 0.84165  0.74665  0.94871  Biso   1.000  N
  H1307    1.0000 0.80985  0.74432  0.99273  Biso   1.000  H
  C1434    1.0000 0.75914  0.63912  0.98014  Biso   1.000  C
  N147     1.0000 0.84163  0.74660  0.94871  Biso   1.000  N
  C1435    1.0000 0.64065  0.62433  0.99974  Biso   1.000  C
  H1308    1.0000 0.63207  0.71122  0.98614  Biso   1.000  H
  H1309    1.0000 0.69017  0.73093  0.01152  Biso   1.000  H
  C1436    1.0000 0.26837  0.99326  0.96635  Biso   1.000  C
  C1437    1.0000 0.26835  0.99320  0.96635  Biso   1.000  C
  H1310    1.0000 0.25567  0.06552  0.99273  Biso   1.000  H
  C1438    1.0000 0.36087  0.12003  0.98014  Biso   1.000  C
  C1439    1.0000 0.99756  0.85263  0.84456  Biso   1.000  C
  C1440    1.0000 0.98366  0.35933  0.99974  Biso   1.000  C
  H1311    1.0000 0.90674  0.27773  0.02614  Biso   1.000  H
  H1312    1.0000 0.87718  0.31752  0.00723  Biso   1.000  H
  H1313    1.0000 0.07916  0.36794  0.98614  Biso   1.000  H
  H1314    1.0000 0.04077  0.30984  0.01152  Biso   1.000  H
  C1441    1.0000 0.90759  0.78965  0.95455  Biso   1.000  C
  C1442    1.0000 0.90756  0.78960  0.95455  Biso   1.000  C
  H1315    1.0000 0.74066  0.61313  0.96073  Biso   1.000  H
  H1316    1.0000 0.79737  0.63284  0.98694  Biso   1.000  H
  C1443    1.0000 0.70149  0.60945  0.00593  Biso   1.000  C
  C1444    1.0000 0.70146  0.60939  0.00593  Biso   1.000  C
  H1317    1.0000 0.61315  0.59674  0.98194  Biso   1.000  H
  H1318    1.0000 0.61078  0.61105  0.01813  Biso   1.000  H
  H1319    1.0000 0.61076  0.61100  0.01813  Biso   1.000  H
  N148     1.0000 0.19016  0.94491  0.96002  Biso   1.000  N
  C1445    1.0000 0.29566  0.96571  0.99244  Biso   1.000  C
  H1320    1.0000 0.29329  0.99575  0.94694  Biso   1.000  H
  H1321    1.0000 0.29327  0.99569  0.94694  Biso   1.000  H
  H1322    1.0000 0.38687  0.12756  0.96073  Biso   1.000  H
  H1323    1.0000 0.36718  0.16454  0.98694  Biso   1.000  H
  H1324    1.0000 0.38684  0.12750  0.96073  Biso   1.000  H
  C1446    1.0000 0.39058  0.09202  0.00593  Biso   1.000  C
  C1447    1.0000 0.00976  0.85304  0.87884  Biso   1.000  C
  H1325    1.0000 0.98357  0.38682  0.98194  Biso   1.000  H
  H1326    1.0000 0.00029  0.38926  0.01813  Biso   1.000  H
  H1327    1.0000 0.00026  0.38921  0.01813  Biso   1.000  H
  H1328    1.0000 0.91918  0.79946  0.97573  Biso   1.000  H
  C1448    1.0000 0.96595  0.82462  0.93211  Biso   1.000  C
  H1329    1.0000 0.91915  0.79941  0.97573  Biso   1.000  H
  H1330    1.0000 0.72230  0.62905  0.02614  Biso   1.000  H
  H1331    1.0000 0.68247  0.55965  0.00723  Biso   1.000  H
  H1332    1.0000 0.72227  0.62900  0.02614  Biso   1.000  H
  H1333    1.0000 0.68245  0.55960  0.00723  Biso   1.000  H
  C1449    1.0000 0.17064  0.93293  0.93074  Biso   1.000  C
  H1334    1.0000 0.28877  0.92084  0.98614  Biso   1.000  H
  H1335    1.0000 0.26906  0.95923  0.01152  Biso   1.000  H
  C1450    1.0000 0.37569  0.01634  0.99974  Biso   1.000  C
  H1336    1.0000 0.37096  0.09322  0.02614  Biso   1.000  H
  H1337    1.0000 0.44035  0.12284  0.00723  Biso   1.000  H
  C1451    1.0000 0.95348  0.82223  0.89908  Biso   1.000  C
  C1452    1.0000 0.08048  0.88935  0.88890  Biso   1.000  C
  C1453    1.0000 0.08046  0.88930  0.88890  Biso   1.000  C
  C1454    1.0000 0.03665  0.86145  0.94175  Biso   1.000  C
  C1455    1.0000 0.03663  0.86139  0.94175  Biso   1.000  C
  H1338    1.0000 0.20424  0.94901  0.91504  Biso   1.000  H
  C1456    1.0000 0.09546  0.89371  0.92139  Biso   1.000  C
  H1339    1.0000 0.38895  0.99974  0.01813  Biso   1.000  H
  H1340    1.0000 0.40328  0.01644  0.98194  Biso   1.000  H
  H1341    1.0000 0.90835  0.80044  0.89124  Biso   1.000  H
  H1342    1.0000 0.11615  0.90984  0.87424  Biso   1.000  H
  H1343    1.0000 0.04534  0.86471  0.96333  Biso   1.000  H
  C1457    1.0000 0.96572  0.29568  0.50756  Biso   1.000  C
  H1344    1.0000 0.95924  0.26907  0.48848  Biso   1.000  H
  C1458    1.0000 0.99320  0.26834  0.53365  Biso   1.000  C
  H1345    1.0000 0.92085  0.28878  0.51386  Biso   1.000  H
  H1346    1.0000 0.92082  0.28873  0.51386  Biso   1.000  H
  C1459    1.0000 0.01631  0.37567  0.50026  Biso   1.000  C
  N149     1.0000 0.94495  0.19017  0.53998  Biso   1.000  N
  H1347    1.0000 0.99575  0.29329  0.55306  Biso   1.000  H
  H1348    1.0000 0.99572  0.29324  0.55306  Biso   1.000  H
  C1460    1.0000 0.06865  0.28069  0.52675  Biso   1.000  C
  C1461    1.0000 0.06862  0.28063  0.52675  Biso   1.000  C
  H1349    1.0000 0.99973  0.38895  0.48187  Biso   1.000  H
  C1462    1.0000 0.09204  0.39055  0.49407  Biso   1.000  C
  H1350    1.0000 0.01641  0.40326  0.51806  Biso   1.000  H
  C1463    1.0000 0.93295  0.17066  0.56926  Biso   1.000  C
  N150     1.0000 0.09500  0.25335  0.55129  Biso   1.000  N
  H1351    1.0000 0.06553  0.25568  0.50727  Biso   1.000  H
  C1464    1.0000 0.12002  0.36088  0.51986  Biso   1.000  C
  H1352    1.0000 0.06551  0.25563  0.50727  Biso   1.000  H
  C1465    1.0000 0.11999  0.36083  0.51986  Biso   1.000  C
  H1353    1.0000 0.09324  0.37095  0.47386  Biso   1.000  H
  H1354    1.0000 0.12283  0.44035  0.49277  Biso   1.000  H
  H1355    1.0000 0.94904  0.20428  0.58496  Biso   1.000  H
  C1466    1.0000 0.89373  0.09545  0.57861  Biso   1.000  C
  C1467    1.0000 0.11793  0.21035  0.54545  Biso   1.000  C
  H1356    1.0000 0.12753  0.38687  0.53927  Biso   1.000  H
  H1357    1.0000 0.16453  0.36716  0.51306  Biso   1.000  H
  C1468    1.0000 0.86142  0.03667  0.55825  Biso   1.000  C
  C1469    1.0000 0.88933  0.08046  0.61110  Biso   1.000  C
  H1358    1.0000 0.11972  0.20054  0.52427  Biso   1.000  H
  C1470    1.0000 0.14133  0.17538  0.56789  Biso   1.000  C
  C1471    1.0000 0.14130  0.17533  0.56789  Biso   1.000  C
  C1472    1.0000 0.82463  0.96597  0.56789  Biso   1.000  C
  H1359    1.0000 0.86474  0.04539  0.53667  Biso   1.000  H
  H1360    1.0000 0.86472  0.04534  0.53667  Biso   1.000  H
  H1361    1.0000 0.90982  0.11614  0.62576  Biso   1.000  H
  C1473    1.0000 0.85303  0.00975  0.62116  Biso   1.000  C
  C1474    1.0000 0.17521  0.13855  0.55825  Biso   1.000  C
  C1475    1.0000 0.13125  0.17777  0.60092  Biso   1.000  C
  C1476    1.0000 0.78963  0.90756  0.54545  Biso   1.000  C
  C1477    1.0000 0.82224  0.95347  0.60092  Biso   1.000  C
  C1478    1.0000 0.85264  0.99756  0.65544  Biso   1.000  C
  C1479    1.0000 0.20175  0.10629  0.57861  Biso   1.000  C
  H1362    1.0000 0.18063  0.13529  0.53667  Biso   1.000  H
  C1480    1.0000 0.20173  0.10624  0.57861  Biso   1.000  C
  H1363    1.0000 0.18060  0.13523  0.53667  Biso   1.000  H
  C1481    1.0000 0.15672  0.14696  0.62116  Biso   1.000  C
  H1364    1.0000 0.10791  0.19956  0.60876  Biso   1.000  H
  N151     1.0000 0.74663  0.84168  0.55129  Biso   1.000  N
  H1365    1.0000 0.79944  0.91918  0.52427  Biso   1.000  H
  N152     1.0000 0.74660  0.84163  0.55129  Biso   1.000  N
  H1366    1.0000 0.79941  0.91913  0.52427  Biso   1.000  H
  H1367    1.0000 0.80047  0.90839  0.60876  Biso   1.000  H
  H1368    1.0000 0.80044  0.90834  0.60876  Biso   1.000  H
  C1482    1.0000 0.85523  0.99564  0.68333  Biso   1.000  C
  C1483    1.0000 0.23771  0.06707  0.56926  Biso   1.000  C
  C1484    1.0000 0.19113  0.11065  0.61110  Biso   1.000  C
  C1485    1.0000 0.14493  0.14737  0.65544  Biso   1.000  C
  C1486    1.0000 0.71931  0.78794  0.52675  Biso   1.000  C
  C1487    1.0000 0.85816  0.99808  0.71726  Biso   1.000  C
  C1488    1.0000 0.85813  0.99803  0.71726  Biso   1.000  C
  N153     1.0000 0.24524  0.05509  0.53998  Biso   1.000  N
  H1369    1.0000 0.25524  0.05099  0.58496  Biso   1.000  H
  N154     1.0000 0.24522  0.05504  0.53998  Biso   1.000  N
  H1370    1.0000 0.25521  0.05094  0.58496  Biso   1.000  H
  H1371    1.0000 0.20631  0.09016  0.62576  Biso   1.000  H
  C1489    1.0000 0.14045  0.14478  0.68333  Biso   1.000  C
  C1490    1.0000 0.14042  0.14473  0.68333  Biso   1.000  C
  H1372    1.0000 0.74434  0.80988  0.50727  Biso   1.000  H
  C1491    1.0000 0.63914  0.75915  0.51986  Biso   1.000  C
  C1492    1.0000 0.73161  0.72486  0.53365  Biso   1.000  C
  H1373    1.0000 0.74431  0.80983  0.50727  Biso   1.000  H
  C1493    1.0000 0.85944  0.05535  0.73226  Biso   1.000  C
  C1494    1.0000 0.80233  0.94185  0.73296  Biso   1.000  C
  C1495    1.0000 0.85774  0.94486  0.73436  Biso   1.000  C
  C1496    1.0000 0.91122  0.05255  0.73386  Biso   1.000  C
  C1497    1.0000 0.27511  0.00674  0.53365  Biso   1.000  C
  C1498    1.0000 0.13994  0.14187  0.71726  Biso   1.000  C
  H1374    1.0000 0.61315  0.74069  0.53927  Biso   1.000  H
  H1375    1.0000 0.63283  0.79738  0.51306  Biso   1.000  H
  C1499    1.0000 0.60945  0.70147  0.49407  Biso   1.000  C
  H1376    1.0000 0.61313  0.74063  0.53927  Biso   1.000  H
  H1377    1.0000 0.63281  0.79733  0.51306  Biso   1.000  H
  N155     1.0000 0.80981  0.75474  0.53998  Biso   1.000  N
  C1500    1.0000 0.70436  0.67009  0.50756  Biso   1.000  C
  H1378    1.0000 0.70671  0.70245  0.55306  Biso   1.000  H
  C1501    1.0000 0.70433  0.67003  0.50756  Biso   1.000  C
  H1379    1.0000 0.85972  0.09078  0.72038  Biso   1.000  H
  C1502    1.0000 0.86048  0.05815  0.76704  Biso   1.000  C
  C1503    1.0000 0.86045  0.05810  0.76704  Biso   1.000  C
  C1504    1.0000 0.80409  0.94465  0.76774  Biso   1.000  C
  H1380    1.0000 0.76666  0.90528  0.72208  Biso   1.000  H
  C1505    1.0000 0.80406  0.94460  0.76774  Biso   1.000  C
  H1381    1.0000 0.76663  0.90523  0.72208  Biso   1.000  H
  C1506    1.0000 0.85868  0.94745  0.76614  Biso   1.000  C
  H1382    1.0000 0.85684  0.90767  0.72397  Biso   1.000  H
  C1507    1.0000 0.91288  0.05514  0.76564  Biso   1.000  C
  H1383    1.0000 0.94701  0.08855  0.72257  Biso   1.000  H
  C1508    1.0000 0.21205  0.93137  0.52675  Biso   1.000  C
  C1509    1.0000 0.32995  0.03429  0.50756  Biso   1.000  C
  H1384    1.0000 0.29754  0.00425  0.55306  Biso   1.000  H
  C1510    1.0000 0.32992  0.03424  0.50756  Biso   1.000  C
  C1511    1.0000 0.19594  0.14058  0.73226  Biso   1.000  C
  C1512    1.0000 0.13955  0.19769  0.73296  Biso   1.000  C
  C1513    1.0000 0.13952  0.19764  0.73296  Biso   1.000  C
  C1514    1.0000 0.08714  0.14229  0.73436  Biso   1.000  C
  C1515    1.0000 0.14132  0.08876  0.73386  Biso   1.000  C
  H1385    1.0000 0.62901  0.72227  0.47386  Biso   1.000  H
  H1386    1.0000 0.55966  0.68248  0.49277  Biso   1.000  H
  C1516    1.0000 0.62433  0.64067  0.50026  Biso   1.000  C
  H1387    1.0000 0.55963  0.68243  0.49277  Biso   1.000  H
  C1517    1.0000 0.82934  0.76226  0.56926  Biso   1.000  C
  H1388    1.0000 0.71122  0.63206  0.51386  Biso   1.000  H
  H1389    1.0000 0.73093  0.69016  0.48848  Biso   1.000  H
  C1518    1.0000 0.86008  0.00192  0.78274  Biso   1.000  C
  H1390    1.0000 0.86138  0.09472  0.77792  Biso   1.000  H
  H1391    1.0000 0.76894  0.90922  0.77962  Biso   1.000  H
  H1392    1.0000 0.85847  0.91145  0.77743  Biso   1.000  H
  H1393    1.0000 0.94918  0.09233  0.77603  Biso   1.000  H
  N156     1.0000 0.15832  0.90497  0.55129  Biso   1.000  N
  H1394    1.0000 0.19015  0.93448  0.50727  Biso   1.000  H
  C1519    1.0000 0.24084  0.87997  0.51986  Biso   1.000  C
  H1395    1.0000 0.19013  0.93443  0.50727  Biso   1.000  H
  C1520    1.0000 0.35935  0.98366  0.50026  Biso   1.000  C
  H1396    1.0000 0.36793  0.07916  0.51386  Biso   1.000  H
  H1397    1.0000 0.30983  0.04077  0.48848  Biso   1.000  H
  C1521    1.0000 0.19767  0.13954  0.76704  Biso   1.000  C
  H1398    1.0000 0.23105  0.14027  0.72038  Biso   1.000  H
  C1522    1.0000 0.14055  0.19593  0.76774  Biso   1.000  C
  H1399    1.0000 0.13866  0.23338  0.72208  Biso   1.000  H
  C1523    1.0000 0.08878  0.14135  0.76614  Biso   1.000  C
  H1400    1.0000 0.05083  0.14317  0.72397  Biso   1.000  H
  C1524    1.0000 0.14227  0.08715  0.76564  Biso   1.000  C
  H1401    1.0000 0.14153  0.05296  0.72257  Biso   1.000  H
  H1402    1.0000 0.61103  0.61074  0.48187  Biso   1.000  H
  H1403    1.0000 0.59675  0.61318  0.51806  Biso   1.000  H
  H1404    1.0000 0.59673  0.61313  0.51806  Biso   1.000  H
  H1405    1.0000 0.79575  0.74478  0.58496  Biso   1.000  H
  C1525    1.0000 0.90452  0.79826  0.57861  Biso   1.000  C
  H1406    1.0000 0.79573  0.74473  0.58496  Biso   1.000  H
  C1526    1.0000 0.85959  0.00436  0.81667  Biso   1.000  C
  C1527    1.0000 0.85957  0.00431  0.81667  Biso   1.000  C
  C1528    1.0000 0.09244  0.88209  0.54545  Biso   1.000  C
  C1529    1.0000 0.09241  0.88204  0.54545  Biso   1.000  C
  H1407    1.0000 0.25931  0.87244  0.53927  Biso   1.000  H
  H1408    1.0000 0.20263  0.83546  0.51306  Biso   1.000  H
  C1530    1.0000 0.29855  0.90798  0.49407  Biso   1.000  C
  H1409    1.0000 0.38684  0.98356  0.51806  Biso   1.000  H
  H1410    1.0000 0.38921  0.00026  0.48187  Biso   1.000  H
  C1531    1.0000 0.14185  0.13995  0.78274  Biso   1.000  C
  H1411    1.0000 0.23339  0.13866  0.77792  Biso   1.000  H
  C1532    1.0000 0.14183  0.13990  0.78274  Biso   1.000  C
  H1412    1.0000 0.23336  0.13861  0.77792  Biso   1.000  H
  H1413    1.0000 0.14027  0.23104  0.77962  Biso   1.000  H
  H1414    1.0000 0.05297  0.14151  0.77743  Biso   1.000  H
  H1415    1.0000 0.14316  0.05084  0.77603  Biso   1.000  H
  C1533    1.0000 0.96333  0.82477  0.55825  Biso   1.000  C
  C1534    1.0000 0.91952  0.80885  0.61110  Biso   1.000  C
  C1535    1.0000 0.85508  0.00244  0.84456  Biso   1.000  C
  H1416    1.0000 0.08084  0.88028  0.52427  Biso   1.000  H
  C1536    1.0000 0.03404  0.85865  0.56789  Biso   1.000  C
  H1417    1.0000 0.27774  0.90678  0.47386  Biso   1.000  H
  H1418    1.0000 0.31751  0.87716  0.49277  Biso   1.000  H
  H1419    1.0000 0.27771  0.90673  0.47386  Biso   1.000  H
  C1537    1.0000 0.14474  0.14042  0.81667  Biso   1.000  C
  H1420    1.0000 0.95466  0.81938  0.53667  Biso   1.000  H
  H1421    1.0000 0.88384  0.79365  0.62576  Biso   1.000  H
  C1538    1.0000 0.99024  0.84329  0.62116  Biso   1.000  C
  C1539    1.0000 0.99022  0.84324  0.62116  Biso   1.000  C
  C1540    1.0000 0.84328  0.99025  0.87884  Biso   1.000  C
  C1541    1.0000 0.84326  0.99020  0.87884  Biso   1.000  C
  C1542    1.0000 0.04651  0.86876  0.60092  Biso   1.000  C
  C1543    1.0000 0.14735  0.14493  0.84456  Biso   1.000  C
  C1544    1.0000 0.00242  0.85507  0.65544  Biso   1.000  C
  C1545    1.0000 0.86877  0.04653  0.89908  Biso   1.000  C
  C1546    1.0000 0.80887  0.91954  0.88890  Biso   1.000  C
  H1422    1.0000 0.09162  0.89205  0.60876  Biso   1.000  H
  C1547    1.0000 0.14695  0.15671  0.87884  Biso   1.000  C
  C1548    1.0000 0.00432  0.85958  0.68333  Biso   1.000  C
  C1549    1.0000 0.00429  0.85953  0.68333  Biso   1.000  C
  C1550    1.0000 0.85866  0.03403  0.93211  Biso   1.000  C
  H1423    1.0000 0.89208  0.09161  0.89124  Biso   1.000  H
  C1551    1.0000 0.79828  0.90455  0.92139  Biso   1.000  C
  H1424    1.0000 0.79368  0.88386  0.87424  Biso   1.000  H
  C1552    1.0000 0.79825  0.90450  0.92139  Biso   1.000  C
  H1425    1.0000 0.79365  0.88380  0.87424  Biso   1.000  H
  C1553    1.0000 0.17775  0.13124  0.89908  Biso   1.000  C
  C1554    1.0000 0.11067  0.19115  0.88890  Biso   1.000  C
  C1555    1.0000 0.11065  0.19110  0.88890  Biso   1.000  C
  C1556    1.0000 0.00190  0.86005  0.71726  Biso   1.000  C
  C1557    1.0000 0.88207  0.09244  0.95455  Biso   1.000  C
  C1558    1.0000 0.82474  0.96333  0.94175  Biso   1.000  C
  C1559    1.0000 0.76229  0.82934  0.93074  Biso   1.000  C
  C1560    1.0000 0.17539  0.14135  0.93211  Biso   1.000  C
  H1426    1.0000 0.19957  0.10795  0.89124  Biso   1.000  H
  C1561    1.0000 0.17537  0.14130  0.93211  Biso   1.000  C
  H1427    1.0000 0.19955  0.10790  0.89124  Biso   1.000  H
  C1562    1.0000 0.10626  0.20174  0.92139  Biso   1.000  C
  H1428    1.0000 0.09019  0.20635  0.87424  Biso   1.000  H
  H1429    1.0000 0.09017  0.20630  0.87424  Biso   1.000  H
  C1563    1.0000 0.94462  0.80407  0.73226  Biso   1.000  C
  C1564    1.0000 0.94743  0.85865  0.73386  Biso   1.000  C
  C1565    1.0000 0.05813  0.86046  0.73296  Biso   1.000  C
  C1566    1.0000 0.05512  0.91285  0.73436  Biso   1.000  C
  N157     1.0000 0.90494  0.15832  0.94871  Biso   1.000  N
  H1430    1.0000 0.88026  0.08082  0.97573  Biso   1.000  H
  H1431    1.0000 0.81935  0.95461  0.96333  Biso   1.000  H
  N158     1.0000 0.75478  0.80983  0.96002  Biso   1.000  N
  H1432    1.0000 0.74476  0.79572  0.91504  Biso   1.000  H
  C1567    1.0000 0.21035  0.11791  0.95455  Biso   1.000  C
  C1568    1.0000 0.13856  0.17523  0.94175  Biso   1.000  C
  C1569    1.0000 0.06707  0.23774  0.93074  Biso   1.000  C
  C1570    1.0000 0.94186  0.80231  0.76704  Biso   1.000  C
  H1433    1.0000 0.90923  0.76896  0.72038  Biso   1.000  H
  C1571    1.0000 0.94485  0.85771  0.76564  Biso   1.000  C
  H1434    1.0000 0.91143  0.85844  0.72257  Biso   1.000  H
  C1572    1.0000 0.05536  0.85942  0.76774  Biso   1.000  C
  H1435    1.0000 0.09473  0.86134  0.72208  Biso   1.000  H
  C1573    1.0000 0.05257  0.91124  0.76614  Biso   1.000  C
  H1436    1.0000 0.09233  0.94916  0.72397  Biso   1.000  H
  C1574    1.0000 0.93137  0.21206  0.97325  Biso   1.000  C
  C1575    1.0000 0.93134  0.21201  0.97325  Biso   1.000  C
  C1576    1.0000 0.72486  0.73166  0.96635  Biso   1.000  C
  C1577    1.0000 0.72483  0.73161  0.96635  Biso   1.000  C
  N159     1.0000 0.25336  0.09503  0.94871  Biso   1.000  N
  H1437    1.0000 0.20056  0.11972  0.97573  Biso   1.000  H
  H1438    1.0000 0.13528  0.18062  0.96333  Biso   1.000  H
  N160     1.0000 0.05506  0.24526  0.96002  Biso   1.000  N
  H1439    1.0000 0.05097  0.25522  0.91504  Biso   1.000  H
  N161     1.0000 0.05504  0.24521  0.96002  Biso   1.000  N
  C1578    1.0000 0.99807  0.85813  0.78274  Biso   1.000  C
  H1440    1.0000 0.90528  0.76662  0.77792  Biso   1.000  H
  H1441    1.0000 0.90766  0.85683  0.77603  Biso   1.000  H
  H1442    1.0000 0.09078  0.85973  0.77962  Biso   1.000  H
  H1443    1.0000 0.08857  0.94704  0.77743  Biso   1.000  H
  H1444    1.0000 0.93446  0.19012  0.99273  Biso   1.000  H
  C1579    1.0000 0.87999  0.24085  0.98014  Biso   1.000  C
  C1580    1.0000 0.87997  0.24080  0.98014  Biso   1.000  C
  C1581    1.0000 0.00675  0.27514  0.96635  Biso   1.000  C
  C1582    1.0000 0.78796  0.71931  0.97325  Biso   1.000  C
  C1583    1.0000 0.67004  0.70432  0.99244  Biso   1.000  C
  H1445    1.0000 0.70246  0.70671  0.94694  Biso   1.000  H
  C1584    1.0000 0.28068  0.06863  0.97325  Biso   1.000  C
  C1585    1.0000 0.99567  0.85522  0.81667  Biso   1.000  C
  H1446    1.0000 0.87247  0.25931  0.96073  Biso   1.000  H
  H1447    1.0000 0.83545  0.20262  0.98694  Biso   1.000  H
  C1586    1.0000 0.90798  0.29853  0.00593  Biso   1.000  C
  C1587    1.0000 0.03427  0.32991  0.99244  Biso   1.000  C
  H1448    1.0000 0.00425  0.29755  0.94694  Biso   1.000  H
  H1449    1.0000 0.00423  0.29749  0.94694  Biso   1.000  H
  N162     1.0000 0.84165  0.74665  0.94871  Biso   1.000  N
  H1450    1.0000 0.80985  0.74432  0.99273  Biso   1.000  H
  C1588    1.0000 0.75914  0.63912  0.98014  Biso   1.000  C
  N163     1.0000 0.84163  0.74660  0.94871  Biso   1.000  N
  C1589    1.0000 0.64065  0.62433  0.99974  Biso   1.000  C
  H1451    1.0000 0.63207  0.71122  0.98614  Biso   1.000  H
  H1452    1.0000 0.69017  0.73093  0.01152  Biso   1.000  H
  C1590    1.0000 0.26837  0.99326  0.96635  Biso   1.000  C
  C1591    1.0000 0.26835  0.99320  0.96635  Biso   1.000  C
  H1453    1.0000 0.25567  0.06552  0.99273  Biso   1.000  H
  C1592    1.0000 0.36087  0.12003  0.98014  Biso   1.000  C
  C1593    1.0000 0.99756  0.85263  0.84456  Biso   1.000  C
  C1594    1.0000 0.98366  0.35933  0.99974  Biso   1.000  C
  H1454    1.0000 0.90674  0.27773  0.02614  Biso   1.000  H
  H1455    1.0000 0.87718  0.31752  0.00723  Biso   1.000  H
  H1456    1.0000 0.07916  0.36794  0.98614  Biso   1.000  H
  H1457    1.0000 0.04077  0.30984  0.01152  Biso   1.000  H
  C1595    1.0000 0.90759  0.78965  0.95455  Biso   1.000  C
  C1596    1.0000 0.90756  0.78960  0.95455  Biso   1.000  C
  H1458    1.0000 0.74066  0.61313  0.96073  Biso   1.000  H
  H1459    1.0000 0.79737  0.63284  0.98694  Biso   1.000  H
  C1597    1.0000 0.70149  0.60945  0.00593  Biso   1.000  C
  C1598    1.0000 0.70146  0.60939  0.00593  Biso   1.000  C
  H1460    1.0000 0.61315  0.59674  0.98194  Biso   1.000  H
  H1461    1.0000 0.61078  0.61105  0.01813  Biso   1.000  H
  H1462    1.0000 0.61076  0.61100  0.01813  Biso   1.000  H
  N164     1.0000 0.19016  0.94491  0.96002  Biso   1.000  N
  C1599    1.0000 0.29566  0.96571  0.99244  Biso   1.000  C
  H1463    1.0000 0.29329  0.99575  0.94694  Biso   1.000  H
  H1464    1.0000 0.29327  0.99569  0.94694  Biso   1.000  H
  H1465    1.0000 0.38687  0.12756  0.96073  Biso   1.000  H
  H1466    1.0000 0.36718  0.16454  0.98694  Biso   1.000  H
  H1467    1.0000 0.38684  0.12750  0.96073  Biso   1.000  H
  C1600    1.0000 0.39058  0.09202  0.00593  Biso   1.000  C
  C1601    1.0000 0.00976  0.85304  0.87884  Biso   1.000  C
  H1468    1.0000 0.98357  0.38682  0.98194  Biso   1.000  H
  H1469    1.0000 0.00029  0.38926  0.01813  Biso   1.000  H
  H1470    1.0000 0.00026  0.38921  0.01813  Biso   1.000  H
  H1471    1.0000 0.91918  0.79946  0.97573  Biso   1.000  H
  C1602    1.0000 0.96595  0.82462  0.93211  Biso   1.000  C
  H1472    1.0000 0.91915  0.79941  0.97573  Biso   1.000  H
  H1473    1.0000 0.72230  0.62905  0.02614  Biso   1.000  H
  H1474    1.0000 0.68247  0.55965  0.00723  Biso   1.000  H
  H1475    1.0000 0.72227  0.62900  0.02614  Biso   1.000  H
  H1476    1.0000 0.68245  0.55960  0.00723  Biso   1.000  H
  C1603    1.0000 0.17064  0.93293  0.93074  Biso   1.000  C
  H1477    1.0000 0.28877  0.92084  0.98614  Biso   1.000  H
  H1478    1.0000 0.26906  0.95923  0.01152  Biso   1.000  H
  C1604    1.0000 0.37569  0.01634  0.99974  Biso   1.000  C
  H1479    1.0000 0.37096  0.09322  0.02614  Biso   1.000  H
  H1480    1.0000 0.44035  0.12284  0.00723  Biso   1.000  H
  C1605    1.0000 0.95348  0.82223  0.89908  Biso   1.000  C
  C1606    1.0000 0.08048  0.88935  0.88890  Biso   1.000  C
  C1607    1.0000 0.08046  0.88930  0.88890  Biso   1.000  C
  C1608    1.0000 0.03665  0.86145  0.94175  Biso   1.000  C
  C1609    1.0000 0.03663  0.86139  0.94175  Biso   1.000  C
  H1481    1.0000 0.20424  0.94901  0.91504  Biso   1.000  H
  C1610    1.0000 0.09546  0.89371  0.92139  Biso   1.000  C
  H1482    1.0000 0.38895  0.99974  0.01813  Biso   1.000  H
  H1483    1.0000 0.40328  0.01644  0.98194  Biso   1.000  H
  H1484    1.0000 0.90835  0.80044  0.89124  Biso   1.000  H
  H1485    1.0000 0.11615  0.90984  0.87424  Biso   1.000  H
  H1486    1.0000 0.04534  0.86471  0.96333  Biso   1.000  H
  C1611    1.0000 0.38870  0.52610  0.43440  Biso   1.000  C
  C1612    1.0000 0.39147  0.52714  0.39962  Biso   1.000  C
  C1613    1.0000 0.38591  0.57792  0.43280  Biso   1.000  C
  C1614    1.0000 0.33140  0.52480  0.44940  Biso   1.000  C
  H1487    1.0000 0.42412  0.52641  0.44630  Biso   1.000  H
  C1615    1.0000 0.33524  0.52672  0.38394  Biso   1.000  C
  C1616    1.0000 0.38846  0.57953  0.40104  Biso   1.000  C
  H1488    1.0000 0.42807  0.52802  0.38874  Biso   1.000  H
  H1489    1.0000 0.42191  0.61371  0.44411  Biso   1.000  H
  C1617    1.0000 0.27519  0.46899  0.43370  Biso   1.000  C
  C1618    1.0000 0.27819  0.52439  0.43230  Biso   1.000  C
  C1619    1.0000 0.32901  0.52190  0.48333  Biso   1.000  C
  C1620    1.0000 0.33766  0.52626  0.35001  Biso   1.000  C
  C1621    1.0000 0.27796  0.47075  0.39894  Biso   1.000  C
  C1622    1.0000 0.28076  0.52532  0.40054  Biso   1.000  C
  H1490    1.0000 0.42566  0.61584  0.39063  Biso   1.000  H
  H1491    1.0000 0.23862  0.43330  0.44460  Biso   1.000  H
  H1492    1.0000 0.24100  0.52351  0.44269  Biso   1.000  H
  C1623    1.0000 0.33090  0.51930  0.51122  Biso   1.000  C
  C1624    1.0000 0.33576  0.52174  0.32210  Biso   1.000  C
  H1493    1.0000 0.24257  0.43563  0.38704  Biso   1.000  H
  H1494    1.0000 0.24477  0.52511  0.38923  Biso   1.000  H
  C1625    1.0000 0.34310  0.51972  0.54550  Biso   1.000  C
  C1626    1.0000 0.32356  0.50991  0.28784  Biso   1.000  C
  C1627    1.0000 0.41379  0.55598  0.55556  Biso   1.000  C
  C1628    1.0000 0.28682  0.48891  0.56576  Biso   1.000  C
  C1629    1.0000 0.25286  0.47552  0.27776  Biso   1.000  C
  C1630    1.0000 0.37985  0.53544  0.26758  Biso   1.000  C
  C1631    1.0000 0.42880  0.56039  0.58808  Biso   1.000  C
  H1495    1.0000 0.44949  0.57652  0.54090  Biso   1.000  H
  C1632    1.0000 0.29929  0.49129  0.59877  Biso   1.000  C
  H1496    1.0000 0.24169  0.46712  0.55790  Biso   1.000  H
  C1633    1.0000 0.23786  0.46494  0.24527  Biso   1.000  C
  H1497    1.0000 0.21718  0.46032  0.29244  Biso   1.000  H
  C1634    1.0000 0.36738  0.52532  0.23455  Biso   1.000  C
  H1498    1.0000 0.42496  0.55873  0.27544  Biso   1.000  H
  C1635    1.0000 0.50398  0.59960  0.59740  Biso   1.000  C
  C1636    1.0000 0.36999  0.52812  0.60843  Biso   1.000  C
  C1637    1.0000 0.24090  0.45628  0.62123  Biso   1.000  C
  C1638    1.0000 0.29667  0.49145  0.22491  Biso   1.000  C
  C1639    1.0000 0.16267  0.42894  0.23594  Biso   1.000  C
  C1640    1.0000 0.42575  0.54872  0.21211  Biso   1.000  C
  N165     1.0000 0.52349  0.61159  0.62668  Biso   1.000  N
  H1499    1.0000 0.53758  0.61568  0.58170  Biso   1.000  H
  H1500    1.0000 0.37868  0.53139  0.63001  Biso   1.000  H
  N166     1.0000 0.17497  0.41327  0.61537  Biso   1.000  N
  H1501    1.0000 0.25249  0.46608  0.64241  Biso   1.000  H
  H1502    1.0000 0.28800  0.48605  0.20333  Biso   1.000  H
  N167     1.0000 0.14314  0.42142  0.20666  Biso   1.000  N
  H1503    1.0000 0.12906  0.41141  0.25164  Biso   1.000  H
  N168     1.0000 0.49166  0.57164  0.21797  Biso   1.000  N
  H1504    1.0000 0.41418  0.54695  0.19093  Biso   1.000  H
  C1641    1.0000 0.60168  0.65988  0.63303  Biso   1.000  C
  C1642    1.0000 0.12130  0.38599  0.63993  Biso   1.000  C
  C1643    1.0000 0.06495  0.39154  0.20031  Biso   1.000  C
  C1644    1.0000 0.54539  0.59805  0.19341  Biso   1.000  C
  C1645    1.0000 0.61401  0.73530  0.63993  Biso   1.000  C
  C1646    1.0000 0.62900  0.63239  0.65910  Biso   1.000  C
  H1505    1.0000 0.62663  0.66242  0.61360  Biso   1.000  H
  H1506    1.0000 0.14319  0.41099  0.65941  Biso   1.000  H
  C1647    1.0000 0.09247  0.30579  0.64680  Biso   1.000  C
  C1648    1.0000 0.05817  0.39828  0.63303  Biso   1.000  C
  C1649    1.0000 0.05265  0.45462  0.19341  Biso   1.000  C
  C1650    1.0000 0.03767  0.33671  0.17424  Biso   1.000  C
  H1507    1.0000 0.04005  0.36913  0.21974  Biso   1.000  H
  H1508    1.0000 0.52347  0.60111  0.17393  Biso   1.000  H
  C1651    1.0000 0.57417  0.54664  0.18654  Biso   1.000  C
  C1652    1.0000 0.60845  0.67342  0.20031  Biso   1.000  C
  N169     1.0000 0.58669  0.76171  0.61537  Biso   1.000  N
  H1509    1.0000 0.58901  0.73219  0.65941  Biso   1.000  H
  C1653    1.0000 0.69421  0.78671  0.64680  Biso   1.000  C
  C1654    1.0000 0.70903  0.68302  0.66640  Biso   1.000  C
  H1510    1.0000 0.62211  0.58752  0.65280  Biso   1.000  H
  H1511    1.0000 0.60239  0.62590  0.67821  Biso   1.000  H
  H1512    1.0000 0.07400  0.27980  0.62739  Biso   1.000  H
  H1513    1.0000 0.13071  0.29952  0.65360  Biso   1.000  H
  C1655    1.0000 0.03483  0.27612  0.67261  Biso   1.000  C
  N170     1.0000 0.08812  0.47651  0.62668  Biso   1.000  N
  C1656    1.0000 0.00338  0.37100  0.65910  Biso   1.000  C
  H1514    1.0000 0.03579  0.37338  0.61360  Biso   1.000  H
  N171     1.0000 0.07997  0.50836  0.21797  Biso   1.000  N
  H1515    1.0000 0.07765  0.47651  0.17393  Biso   1.000  H
  C1657    1.0000 0.97248  0.42583  0.18654  Biso   1.000  C
  H1516    1.0000 0.04456  0.29874  0.18054  Biso   1.000  H
  H1517    1.0000 0.06427  0.35684  0.15514  Biso   1.000  H
  C1658    1.0000 0.95767  0.30735  0.16694  Biso   1.000  C
  H1518    1.0000 0.59265  0.53912  0.20593  Biso   1.000  H
  H1519    1.0000 0.53597  0.50213  0.17974  Biso   1.000  H
  C1659    1.0000 0.63189  0.57465  0.16073  Biso   1.000  C
  N172     1.0000 0.57856  0.72171  0.20666  Biso   1.000  N
  C1660    1.0000 0.66326  0.70091  0.17424  Biso   1.000  C
  H1520    1.0000 0.63088  0.67093  0.21974  Biso   1.000  H
  C1661    1.0000 0.54368  0.78458  0.62123  Biso   1.000  C
  H1521    1.0000 0.72018  0.79418  0.62739  Biso   1.000  H
  H1522    1.0000 0.70051  0.83122  0.65360  Biso   1.000  H
  C1662    1.0000 0.72391  0.75870  0.67261  Biso   1.000  C
  H1523    1.0000 0.72229  0.66642  0.68479  Biso   1.000  H
  H1524    1.0000 0.73662  0.68312  0.64860  Biso   1.000  H
  H1525    1.0000 0.05561  0.29568  0.69280  Biso   1.000  H
  H1526    1.0000 0.01581  0.22632  0.67391  Biso   1.000  H
  C1663    1.0000 0.97399  0.29101  0.66640  Biso   1.000  C
  C1664    1.0000 0.09563  0.49601  0.59740  Biso   1.000  C
  H1527    1.0000 0.02351  0.39761  0.67821  Biso   1.000  H
  H1528    1.0000 0.96541  0.37790  0.65280  Biso   1.000  H
  C1665    1.0000 0.12297  0.57424  0.21211  Biso   1.000  C
  H1529    1.0000 0.94647  0.40731  0.20593  Biso   1.000  H
  H1530    1.0000 0.96617  0.46406  0.17974  Biso   1.000  H
  C1666    1.0000 0.94279  0.36815  0.16073  Biso   1.000  C
  H1531    1.0000 0.94437  0.27742  0.14852  Biso   1.000  H
  H1532    1.0000 0.93009  0.27986  0.18472  Biso   1.000  H
  H1533    1.0000 0.61105  0.57341  0.14054  Biso   1.000  H
  H1534    1.0000 0.65085  0.54384  0.15943  Biso   1.000  H
  C1667    1.0000 0.69269  0.65034  0.16694  Biso   1.000  C
  C1668    1.0000 0.57105  0.73375  0.23594  Biso   1.000  C
  H1535    1.0000 0.70126  0.74583  0.18054  Biso   1.000  H
  H1536    1.0000 0.64317  0.70745  0.15514  Biso   1.000  H
  H1537    1.0000 0.53390  0.78640  0.64241  Biso   1.000  H
  C1669    1.0000 0.50871  0.80798  0.59877  Biso   1.000  C
  H1538    1.0000 0.70429  0.75989  0.69280  Biso   1.000  H
  H1539    1.0000 0.77369  0.78951  0.67391  Biso   1.000  H
  H1540    1.0000 0.94410  0.27768  0.68479  Biso   1.000  H
  H1541    1.0000 0.94649  0.26341  0.64860  Biso   1.000  H
  C1670    1.0000 0.13159  0.57118  0.58808  Biso   1.000  C
  H1542    1.0000 0.07810  0.46240  0.58170  Biso   1.000  H
  H1543    1.0000 0.13278  0.58586  0.19093  Biso   1.000  H
  C1671    1.0000 0.15797  0.63265  0.23455  Biso   1.000  C
  H1544    1.0000 0.96235  0.38895  0.14054  Biso   1.000  H
  H1545    1.0000 0.89297  0.34911  0.15943  Biso   1.000  H
  H1546    1.0000 0.72255  0.66694  0.14852  Biso   1.000  H
  H1547    1.0000 0.72017  0.65023  0.18472  Biso   1.000  H
  H1548    1.0000 0.58855  0.71762  0.25164  Biso   1.000  H
  C1672    1.0000 0.53506  0.77291  0.24527  Biso   1.000  C
  C1673    1.0000 0.51109  0.79792  0.56576  Biso   1.000  C
  C1674    1.0000 0.47190  0.84190  0.60843  Biso   1.000  C
  C1675    1.0000 0.14221  0.58622  0.55556  Biso   1.000  C
  C1676    1.0000 0.15808  0.63000  0.60843  Biso   1.000  C
  C1677    1.0000 0.19476  0.70335  0.22491  Biso   1.000  C
  C1678    1.0000 0.15558  0.62015  0.26758  Biso   1.000  C
  C1679    1.0000 0.52447  0.77732  0.27776  Biso   1.000  C
  C1680    1.0000 0.50854  0.80523  0.22491  Biso   1.000  C
  C1681    1.0000 0.48029  0.82339  0.54550  Biso   1.000  C
  H1549    1.0000 0.53291  0.77462  0.55790  Biso   1.000  H
  C1682    1.0000 0.43960  0.86841  0.58808  Biso   1.000  C
  H1550    1.0000 0.46862  0.84730  0.63001  Biso   1.000  H
  C1683    1.0000 0.17662  0.65692  0.54550  Biso   1.000  C
  H1551    1.0000 0.12699  0.55048  0.54090  Biso   1.000  H
  C1684    1.0000 0.19200  0.70071  0.59877  Biso   1.000  C
  H1552    1.0000 0.15269  0.62129  0.63001  Biso   1.000  H
  H1553    1.0000 0.19806  0.71201  0.20333  Biso   1.000  H
  C1685    1.0000 0.22706  0.76212  0.24527  Biso   1.000  C
  H1554    1.0000 0.13378  0.57502  0.27544  Biso   1.000  H
  C1686    1.0000 0.18637  0.67643  0.28784  Biso   1.000  C
  H1555    1.0000 0.53965  0.75683  0.29244  Biso   1.000  H
  C1687    1.0000 0.49006  0.81363  0.28784  Biso   1.000  C
  C1688    1.0000 0.47464  0.84201  0.23455  Biso   1.000  C
  H1556    1.0000 0.51394  0.80191  0.20333  Biso   1.000  H
  C1689    1.0000 0.48069  0.81161  0.51122  Biso   1.000  C
  C1690    1.0000 0.44398  0.85778  0.55556  Biso   1.000  C
  C1691    1.0000 0.40041  0.90441  0.59740  Biso   1.000  C
  C1692    1.0000 0.18842  0.66911  0.51122  Biso   1.000  C
  C1693    1.0000 0.20211  0.71321  0.56576  Biso   1.000  C
  C1694    1.0000 0.21541  0.75911  0.62123  Biso   1.000  C
  C1695    1.0000 0.26629  0.83734  0.23594  Biso   1.000  C
  C1696    1.0000 0.22267  0.74713  0.27776  Biso   1.000  C
  C1697    1.0000 0.18598  0.66424  0.32210  Biso   1.000  C
  C1698    1.0000 0.47827  0.81405  0.32210  Biso   1.000  C
  C1699    1.0000 0.46459  0.84445  0.26758  Biso   1.000  C
  C1700    1.0000 0.45127  0.87702  0.21211  Biso   1.000  C
  C1701    1.0000 0.47808  0.80710  0.48333  Biso   1.000  C
  H1557    1.0000 0.42351  0.87298  0.54090  Biso   1.000  H
  N173     1.0000 0.38838  0.91188  0.62668  Biso   1.000  N
  H1558    1.0000 0.38431  0.92189  0.58170  Biso   1.000  H
  C1702    1.0000 0.19290  0.67098  0.48333  Biso   1.000  C
  H1559    1.0000 0.22541  0.75828  0.55790  Biso   1.000  H
  N174     1.0000 0.23828  0.82499  0.61537  Biso   1.000  N
  H1560    1.0000 0.21359  0.74749  0.64241  Biso   1.000  H
  N175     1.0000 0.27829  0.85684  0.20666  Biso   1.000  N
  H1561    1.0000 0.28238  0.87095  0.25164  Biso   1.000  H
  H1562    1.0000 0.24316  0.78282  0.29244  Biso   1.000  H
  C1703    1.0000 0.18857  0.66232  0.35001  Biso   1.000  C
  C1704    1.0000 0.47379  0.81145  0.35001  Biso   1.000  C
  H1563    1.0000 0.44125  0.86623  0.27544  Biso   1.000  H
  N176     1.0000 0.42834  0.92003  0.21797  Biso   1.000  N
  H1564    1.0000 0.45306  0.86722  0.19093  Biso   1.000  H
  C1705    1.0000 0.47517  0.80658  0.44940  Biso   1.000  C
  C1706    1.0000 0.34009  0.94181  0.63303  Biso   1.000  C
  C1707    1.0000 0.19342  0.66860  0.44940  Biso   1.000  C
  C1708    1.0000 0.26468  0.87868  0.63993  Biso   1.000  C
  C1709    1.0000 0.32654  0.93502  0.20031  Biso   1.000  C
  C1710    1.0000 0.19150  0.66476  0.38394  Biso   1.000  C
  C1711    1.0000 0.47328  0.80855  0.38394  Biso   1.000  C
  C1712    1.0000 0.40196  0.94731  0.19341  Biso   1.000  C
  C1713    1.0000 0.53101  0.80622  0.43370  Biso   1.000  C
  C1714    1.0000 0.47389  0.86260  0.43440  Biso   1.000  C
  C1715    1.0000 0.42209  0.80798  0.43280  Biso   1.000  C
  C1716    1.0000 0.47561  0.75382  0.43230  Biso   1.000  C
  C1717    1.0000 0.36761  0.99659  0.65910  Biso   1.000  C
  H1565    1.0000 0.33759  0.96422  0.61360  Biso   1.000  H
  C1718    1.0000 0.19379  0.72477  0.43370  Biso   1.000  C
  C1719    1.0000 0.13740  0.61128  0.43440  Biso   1.000  C
  C1720    1.0000 0.19199  0.61408  0.43280  Biso   1.000  C
  C1721    1.0000 0.24622  0.72182  0.43230  Biso   1.000  C
  H1566    1.0000 0.26779  0.85679  0.65941  Biso   1.000  H
  C1722    1.0000 0.21333  0.90752  0.64680  Biso   1.000  C
  C1723    1.0000 0.29906  0.96235  0.17424  Biso   1.000  C
  H1567    1.0000 0.32906  0.95992  0.21974  Biso   1.000  H
  C1724    1.0000 0.19277  0.72203  0.39894  Biso   1.000  C
  C1725    1.0000 0.13566  0.60853  0.39962  Biso   1.000  C
  C1726    1.0000 0.19108  0.61153  0.40104  Biso   1.000  C
  C1727    1.0000 0.24456  0.71922  0.40054  Biso   1.000  C
  C1728    1.0000 0.52928  0.80725  0.39894  Biso   1.000  C
  C1729    1.0000 0.47286  0.86431  0.39962  Biso   1.000  C
  C1730    1.0000 0.42045  0.80891  0.40104  Biso   1.000  C
  C1731    1.0000 0.47466  0.75543  0.40054  Biso   1.000  C
  H1568    1.0000 0.39884  0.92231  0.17393  Biso   1.000  H
  C1732    1.0000 0.45336  0.02756  0.18654  Biso   1.000  C
  H1569    1.0000 0.56670  0.80528  0.44460  Biso   1.000  H
  H1570    1.0000 0.47361  0.89772  0.44630  Biso   1.000  H
  H1571    1.0000 0.38630  0.80819  0.44411  Biso   1.000  H
  H1572    1.0000 0.47650  0.71751  0.44269  Biso   1.000  H
  C1733    1.0000 0.31700  0.02600  0.66640  Biso   1.000  C
  H1573    1.0000 0.37411  0.97652  0.67821  Biso   1.000  H
  H1574    1.0000 0.41250  0.03461  0.65280  Biso   1.000  H
  H1575    1.0000 0.19471  0.76140  0.44460  Biso   1.000  H
  H1576    1.0000 0.10228  0.57590  0.44630  Biso   1.000  H
  H1577    1.0000 0.19178  0.57808  0.44411  Biso   1.000  H
  H1578    1.0000 0.28252  0.75901  0.44269  Biso   1.000  H
  H1579    1.0000 0.20581  0.92599  0.62739  Biso   1.000  H
  H1580    1.0000 0.16879  0.86929  0.65360  Biso   1.000  H
  C1734    1.0000 0.24132  0.96521  0.67261  Biso   1.000  C
  H1581    1.0000 0.25419  0.95546  0.18054  Biso   1.000  H
  H1582    1.0000 0.29258  0.93574  0.15514  Biso   1.000  H
  C1735    1.0000 0.34965  0.04234  0.16694  Biso   1.000  C
  H1583    1.0000 0.19306  0.75745  0.38704  Biso   1.000  H
  H1584    1.0000 0.09999  0.57196  0.38874  Biso   1.000  H
  H1585    1.0000 0.19018  0.57434  0.39063  Biso   1.000  H
  H1586    1.0000 0.28035  0.75522  0.38923  Biso   1.000  H
  H1587    1.0000 0.56439  0.80694  0.38704  Biso   1.000  H
  H1588    1.0000 0.47199  0.90005  0.38874  Biso   1.000  H
  H1589    1.0000 0.38417  0.80985  0.39063  Biso   1.000  H
  H1590    1.0000 0.47487  0.71964  0.38923  Biso   1.000  H
  H1591    1.0000 0.46087  0.05355  0.20593  Biso   1.000  H
  H1592    1.0000 0.49787  0.03384  0.17974  Biso   1.000  H
  C1736    1.0000 0.42538  0.05723  0.16073  Biso   1.000  C
  H1593    1.0000 0.33360  0.05588  0.68479  Biso   1.000  H
  H1594    1.0000 0.31691  0.05350  0.64860  Biso   1.000  H
  H1595    1.0000 0.24008  0.94441  0.69280  Biso   1.000  H
  H1596    1.0000 0.21052  0.98419  0.67391  Biso   1.000  H
  H1597    1.0000 0.33307  0.05562  0.14852  Biso   1.000  H
  H1598    1.0000 0.34975  0.06994  0.18472  Biso   1.000  H
  H1599    1.0000 0.42658  0.03762  0.14054  Biso   1.000  H
  H1600    1.0000 0.45616  0.10703  0.15943  Biso   1.000  H
