data_image0
_cell_length_a       22.347
_cell_length_b       22.347
_cell_length_c       42.123
_cell_angle_alpha    90
_cell_angle_beta     90
_cell_angle_gamma    120

_symmetry_space_group_name_H-M    "P 1"
_symmetry_int_tables_number       1

loop_
  _symmetry_equiv_pos_as_xyz
  'x, y, z'

loop_
  _atom_site_label
  _atom_site_occupancy
  _atom_site_fract_x
  _atom_site_fract_y
  _atom_site_fract_z
  _atom_site_thermal_displace_type
  _atom_site_B_iso_or_equiv
  _atom_site_type_symbol
  C1       1.0000 0.88077  0.43063  0.44451  Biso   1.000  C
  C2       1.0000 0.87376  0.44282  0.41284  Biso   1.000  C
  C3       1.0000 0.86205  0.36418  0.45524  Biso   1.000  C
  H1       1.0000 0.89812  0.46711  0.45889  Biso   1.000  H
  C4       1.0000 0.89369  0.51356  0.40263  Biso   1.000  C
  C5       1.0000 0.84700  0.38743  0.39180  Biso   1.000  C
  C6       1.0000 0.83709  0.30998  0.43366  Biso   1.000  C
  C7       1.0000 0.86633  0.35333  0.48859  Biso   1.000  C
  N1       1.0000 0.88865  0.52953  0.37462  Biso   1.000  N
  H2       1.0000 0.91101  0.54829  0.41790  Biso   1.000  H
  C8       1.0000 0.82906  0.32093  0.40168  Biso   1.000  C
  H3       1.0000 0.84090  0.39492  0.37061  Biso   1.000  H
  H4       1.0000 0.82562  0.26600  0.44059  Biso   1.000  H
  C9       1.0000 0.86853  0.34744  0.51651  Biso   1.000  C
  C10      1.0000 0.91018  0.60213  0.36859  Biso   1.000  C
  C11      1.0000 0.80202  0.26409  0.37851  Biso   1.000  C
  C12      1.0000 0.86875  0.34036  0.55039  Biso   1.000  C
  C13      1.0000 0.84779  0.60900  0.35966  Biso   1.000  C
  C14      1.0000 0.96390  0.63018  0.34221  Biso   1.000  C
  H5       1.0000 0.93090  0.62879  0.38801  Biso   1.000  H
  N2       1.0000 0.78636  0.20286  0.38528  Biso   1.000  N
  H6       1.0000 0.79619  0.27381  0.35760  Biso   1.000  H
  C15      1.0000 0.84093  0.27711  0.56454  Biso   1.000  C
  C16      1.0000 0.89978  0.39632  0.56955  Biso   1.000  C
  N3       1.0000 0.79713  0.58347  0.38528  Biso   1.000  N
  H7       1.0000 0.82651  0.58192  0.34041  Biso   1.000  H
  C17      1.0000 0.87148  0.68475  0.35299  Biso   1.000  C
  C18      1.0000 0.98757  0.70552  0.33502  Biso   1.000  C
  H8       1.0000 0.94439  0.60280  0.32320  Biso   1.000  H
  H9       1.0000 0.00338  0.62600  0.34850  Biso   1.000  H
  C19      1.0000 0.76119  0.15217  0.35966  Biso   1.000  C
  H10      1.0000 0.82440  0.23779  0.55191  Biso   1.000  H
  C20      1.0000 0.83679  0.27034  0.59711  Biso   1.000  C
  H11      1.0000 0.92328  0.44019  0.56060  Biso   1.000  H
  C21      1.0000 0.89715  0.38955  0.60214  Biso   1.000  C
  C22      1.0000 0.73593  0.53795  0.37851  Biso   1.000  C
  H12      1.0000 0.83198  0.68888  0.34651  Biso   1.000  H
  H13      1.0000 0.89000  0.71131  0.37229  Biso   1.000  H
  C23      1.0000 0.92631  0.71456  0.32716  Biso   1.000  C
  H14      1.0000 0.01180  0.73368  0.35330  Biso   1.000  H
  H15      1.0000 0.01943  0.72092  0.31719  Biso   1.000  H
  C24      1.0000 0.69197  0.08980  0.36859  Biso   1.000  C
  H16      1.0000 0.75539  0.17351  0.34041  Biso   1.000  H
  C25      1.0000 0.81330  0.12851  0.35299  Biso   1.000  C
  C26      1.0000 0.86172  0.32630  0.61629  Biso   1.000  C
  H17      1.0000 0.81642  0.22648  0.60606  Biso   1.000  H
  H18      1.0000 0.91994  0.42887  0.61477  Biso   1.000  H
  C27      1.0000 0.67902  0.50808  0.40168  Biso   1.000  C
  H19      1.0000 0.72618  0.52240  0.35760  Biso   1.000  H
  H20      1.0000 0.90621  0.69172  0.30720  Biso   1.000  H
  H21      1.0000 0.94200  0.76339  0.32460  Biso   1.000  H
  N4       1.0000 0.64090  0.11135  0.37462  Biso   1.000  N
  C28      1.0000 0.66626  0.03607  0.34221  Biso   1.000  C
  H22      1.0000 0.69790  0.06908  0.38801  Biso   1.000  H
  H23      1.0000 0.85689  0.16798  0.34651  Biso   1.000  H
  H24      1.0000 0.82133  0.11001  0.37229  Biso   1.000  H
  C29      1.0000 0.78826  0.07368  0.32716  Biso   1.000  C
  C30      1.0000 0.85443  0.31923  0.65017  Biso   1.000  C
  C31      1.0000 0.61256  0.45957  0.39180  Biso   1.000  C
  C32      1.0000 0.69001  0.52710  0.43366  Biso   1.000  C
  C33      1.0000 0.61984  0.10629  0.40263  Biso   1.000  C
  C34      1.0000 0.71796  0.01245  0.33502  Biso   1.000  C
  H25      1.0000 0.65840  0.05560  0.32320  Biso   1.000  H
  H26      1.0000 0.62258  0.99659  0.34850  Biso   1.000  H
  H27      1.0000 0.78547  0.09378  0.30720  Biso   1.000  H
  H28      1.0000 0.82140  0.05798  0.32460  Biso   1.000  H
  C35      1.0000 0.84634  0.31334  0.67809  Biso   1.000  C
  C36      1.0000 0.55717  0.43094  0.41284  Biso   1.000  C
  H29      1.0000 0.60510  0.44598  0.37061  Biso   1.000  H
  C37      1.0000 0.63578  0.49785  0.45524  Biso   1.000  C
  H30      1.0000 0.73400  0.55960  0.44059  Biso   1.000  H
  C38      1.0000 0.56905  0.12623  0.41284  Biso   1.000  C
  H31      1.0000 0.63728  0.08898  0.41790  Biso   1.000  H
  H32      1.0000 0.72195  0.98822  0.35330  Biso   1.000  H
  H33      1.0000 0.70150  0.98062  0.31719  Biso   1.000  H
  C39      1.0000 0.83120  0.30248  0.71142  Biso   1.000  C
  C40      1.0000 0.48644  0.38015  0.40263  Biso   1.000  C
  C41      1.0000 0.56938  0.45016  0.44451  Biso   1.000  C
  C42      1.0000 0.64666  0.51299  0.48859  Biso   1.000  C
  C43      1.0000 0.54041  0.15300  0.39180  Biso   1.000  C
  C44      1.0000 0.54987  0.11921  0.44451  Biso   1.000  C
  C45      1.0000 0.78348  0.23603  0.72215  Biso   1.000  C
  C46      1.0000 0.86045  0.35669  0.73300  Biso   1.000  C
  N5       1.0000 0.47047  0.35912  0.37462  Biso   1.000  N
  H34      1.0000 0.45171  0.36268  0.41790  Biso   1.000  H
  H35      1.0000 0.53290  0.43099  0.45889  Biso   1.000  H
  C47      1.0000 0.65253  0.52105  0.51651  Biso   1.000  C
  C48      1.0000 0.49187  0.17093  0.40168  Biso   1.000  C
  H36      1.0000 0.55402  0.15910  0.37061  Biso   1.000  H
  C49      1.0000 0.50215  0.13796  0.45524  Biso   1.000  C
  H37      1.0000 0.56900  0.10190  0.45889  Biso   1.000  H
  C50      1.0000 0.76427  0.22384  0.75382  Biso   1.000  C
  H38      1.0000 0.76434  0.19955  0.70776  Biso   1.000  H
  C51      1.0000 0.84146  0.34573  0.76500  Biso   1.000  C
  H39      1.0000 0.89295  0.40066  0.72606  Biso   1.000  H
  C52      1.0000 0.39784  0.30801  0.36859  Biso   1.000  C
  C53      1.0000 0.65964  0.52839  0.55039  Biso   1.000  C
  C54      1.0000 0.46202  0.19795  0.37851  Biso   1.000  C
  C55      1.0000 0.47292  0.16292  0.43366  Biso   1.000  C
  C56      1.0000 0.48703  0.13367  0.48859  Biso   1.000  C
  C57      1.0000 0.71346  0.15310  0.76405  Biso   1.000  C
  C58      1.0000 0.79290  0.27923  0.77485  Biso   1.000  C
  C59      1.0000 0.87126  0.40257  0.78817  Biso   1.000  C
  C60      1.0000 0.39099  0.23883  0.35966  Biso   1.000  C
  C61      1.0000 0.36981  0.33375  0.34221  Biso   1.000  C
  H40      1.0000 0.37123  0.30212  0.38801  Biso   1.000  H
  C62      1.0000 0.72285  0.56379  0.56454  Biso   1.000  C
  C63      1.0000 0.60367  0.50343  0.56955  Biso   1.000  C
  N6       1.0000 0.41654  0.21366  0.38528  Biso   1.000  N
  H41      1.0000 0.47761  0.20379  0.35760  Biso   1.000  H
  H42      1.0000 0.44040  0.17439  0.44059  Biso   1.000  H
  C64      1.0000 0.47894  0.13145  0.51651  Biso   1.000  C
  N7       1.0000 0.69245  0.13714  0.79204  Biso   1.000  N
  H43      1.0000 0.69605  0.11838  0.74876  Biso   1.000  H
  H44      1.0000 0.77934  0.27179  0.79607  Biso   1.000  H
  N8       1.0000 0.91683  0.46380  0.78140  Biso   1.000  N
  H45      1.0000 0.85571  0.39286  0.80906  Biso   1.000  H
  C65      1.0000 0.31521  0.18669  0.35299  Biso   1.000  C
  H46      1.0000 0.41810  0.24461  0.34041  Biso   1.000  H
  C66      1.0000 0.29448  0.28207  0.33502  Biso   1.000  C
  H47      1.0000 0.37401  0.37741  0.34850  Biso   1.000  H
  H48      1.0000 0.39718  0.34160  0.32320  Biso   1.000  H
  H49      1.0000 0.76223  0.58663  0.55191  Biso   1.000  H
  C67      1.0000 0.72967  0.56642  0.59711  Biso   1.000  C
  H50      1.0000 0.55979  0.48308  0.56060  Biso   1.000  H
  C68      1.0000 0.61046  0.50762  0.60214  Biso   1.000  C
  C69      1.0000 0.47158  0.13125  0.55039  Biso   1.000  C
  C70      1.0000 0.64139  0.06454  0.79809  Biso   1.000  C
  C71      1.0000 0.94235  0.51449  0.80702  Biso   1.000  C
  C72      1.0000 0.28545  0.21175  0.32716  Biso   1.000  C
  H51      1.0000 0.31108  0.14308  0.34651  Biso   1.000  H
  H52      1.0000 0.28870  0.17868  0.37229  Biso   1.000  H
  H53      1.0000 0.26631  0.27810  0.35330  Biso   1.000  H
  H54      1.0000 0.27911  0.29851  0.31719  Biso   1.000  H
  C73      1.0000 0.67367  0.53542  0.61629  Biso   1.000  C
  H55      1.0000 0.77353  0.58998  0.60606  Biso   1.000  H
  H56      1.0000 0.57113  0.49108  0.61477  Biso   1.000  H
  C74      1.0000 0.43617  0.15904  0.56454  Biso   1.000  C
  C75      1.0000 0.49658  0.10024  0.56955  Biso   1.000  C
  C76      1.0000 0.57213  0.05767  0.80702  Biso   1.000  C
  C77      1.0000 0.66705  0.03648  0.82447  Biso   1.000  C
  H57      1.0000 0.63544  0.03788  0.77867  Biso   1.000  H
  C78      1.0000 0.93550  0.57686  0.79809  Biso   1.000  C
  H58      1.0000 0.91521  0.49315  0.82627  Biso   1.000  H
  C79      1.0000 0.01813  0.53816  0.81369  Biso   1.000  C
  H59      1.0000 0.30830  0.21449  0.30720  Biso   1.000  H
  H60      1.0000 0.23660  0.17858  0.32460  Biso   1.000  H
  C80      1.0000 0.68082  0.53521  0.65017  Biso   1.000  C
  H61      1.0000 0.41338  0.17558  0.55191  Biso   1.000  H
  C81      1.0000 0.43356  0.16323  0.59711  Biso   1.000  C
  H62      1.0000 0.51688  0.07668  0.56060  Biso   1.000  H
  C82      1.0000 0.49239  0.10288  0.60214  Biso   1.000  C
  N9       1.0000 0.54699  0.08319  0.78140  Biso   1.000  N
  H63      1.0000 0.57792  0.08474  0.82627  Biso   1.000  H
  C83      1.0000 0.52011  0.98192  0.81369  Biso   1.000  C
  H64      1.0000 0.71072  0.04067  0.81818  Biso   1.000  H
  H65      1.0000 0.67493  0.06387  0.84346  Biso   1.000  H
  C84      1.0000 0.61542  0.96114  0.83164  Biso   1.000  C
  N10      1.0000 0.86288  0.55531  0.79204  Biso   1.000  N
  C85      1.0000 0.96353  0.63060  0.82447  Biso   1.000  C
  H66      1.0000 0.96215  0.59758  0.77867  Biso   1.000  H
  H67      1.0000 0.02224  0.49868  0.82017  Biso   1.000  H
  H68      1.0000 0.04465  0.55666  0.79436  Biso   1.000  H
  C86      1.0000 0.04791  0.59298  0.83952  Biso   1.000  C
  C87      1.0000 0.68669  0.53299  0.67809  Biso   1.000  C
  C88      1.0000 0.46458  0.13827  0.61629  Biso   1.000  C
  H69      1.0000 0.41005  0.18359  0.60606  Biso   1.000  H
  H70      1.0000 0.50897  0.08009  0.61477  Biso   1.000  H
  C89      1.0000 0.53131  0.12871  0.78817  Biso   1.000  C
  H71      1.0000 0.47647  0.97778  0.82017  Biso   1.000  H
  H72      1.0000 0.51202  0.95536  0.79436  Biso   1.000  H
  C90      1.0000 0.54508  0.95210  0.83952  Biso   1.000  C
  H73      1.0000 0.61150  0.93298  0.81336  Biso   1.000  H
  H74      1.0000 0.63184  0.94575  0.84946  Biso   1.000  H
  C91      1.0000 0.84689  0.56038  0.76405  Biso   1.000  C
  H75      1.0000 0.95933  0.67007  0.81818  Biso   1.000  H
  H76      1.0000 0.93613  0.61107  0.84346  Biso   1.000  H
  C92      1.0000 0.03883  0.65421  0.83164  Biso   1.000  C
  H77      1.0000 0.02502  0.57288  0.85946  Biso   1.000  H
  H78      1.0000 0.09676  0.60869  0.84206  Biso   1.000  H
  C93      1.0000 0.69752  0.52870  0.71142  Biso   1.000  C
  C94      1.0000 0.46480  0.14561  0.65017  Biso   1.000  C
  C95      1.0000 0.50427  0.15858  0.76500  Biso   1.000  C
  H79      1.0000 0.53712  0.14427  0.80906  Biso   1.000  H
  H80      1.0000 0.54788  0.97499  0.85946  Biso   1.000  H
  H81      1.0000 0.51193  0.90327  0.84206  Biso   1.000  H
  C96      1.0000 0.77614  0.54043  0.75382  Biso   1.000  C
  H82      1.0000 0.88163  0.57769  0.74876  Biso   1.000  H
  H83      1.0000 0.06702  0.67845  0.81336  Biso   1.000  H
  H84      1.0000 0.05421  0.68604  0.84946  Biso   1.000  H
  C97      1.0000 0.64333  0.50374  0.73300  Biso   1.000  C
  C98      1.0000 0.76400  0.54746  0.72215  Biso   1.000  C
  C99      1.0000 0.46700  0.15367  0.67809  Biso   1.000  C
  C100     1.0000 0.49624  0.13956  0.73300  Biso   1.000  C
  C101     1.0000 0.48633  0.20710  0.77485  Biso   1.000  C
  C102     1.0000 0.72074  0.51367  0.77485  Biso   1.000  C
  C103     1.0000 0.65428  0.49574  0.76500  Biso   1.000  C
  H85      1.0000 0.59934  0.49227  0.72606  Biso   1.000  H
  H86      1.0000 0.80044  0.56477  0.70776  Biso   1.000  H
  C104     1.0000 0.47126  0.16881  0.71142  Biso   1.000  C
  H87      1.0000 0.50773  0.10706  0.72606  Biso   1.000  H
  C105     1.0000 0.45956  0.23572  0.75382  Biso   1.000  C
  H88      1.0000 0.49245  0.22069  0.79607  Biso   1.000  H
  H89      1.0000 0.72825  0.50757  0.79607  Biso   1.000  H
  C106     1.0000 0.59740  0.46871  0.78817  Biso   1.000  C
  C107     1.0000 0.45255  0.21650  0.72215  Biso   1.000  C
  C108     1.0000 0.43963  0.28652  0.76405  Biso   1.000  C
  H90      1.0000 0.60715  0.46287  0.80906  Biso   1.000  H
  N11      1.0000 0.53621  0.45300  0.78140  Biso   1.000  N
  H91      1.0000 0.43524  0.23567  0.70776  Biso   1.000  H
  H92      1.0000 0.42236  0.30398  0.74876  Biso   1.000  H
  N12      1.0000 0.44469  0.30755  0.79204  Biso   1.000  N
  C109     1.0000 0.48553  0.42789  0.80702  Biso   1.000  C
  C110     1.0000 0.42316  0.35865  0.79809  Biso   1.000  C
  H93      1.0000 0.50682  0.42205  0.82627  Biso   1.000  H
  C111     1.0000 0.46185  0.47998  0.81369  Biso   1.000  C
  C112     1.0000 0.36939  0.33292  0.82447  Biso   1.000  C
  H94      1.0000 0.40243  0.36454  0.77867  Biso   1.000  H
  H95      1.0000 0.50133  0.52359  0.82017  Biso   1.000  H
  H96      1.0000 0.44335  0.48798  0.79436  Biso   1.000  H
  C113     1.0000 0.40703  0.45491  0.83952  Biso   1.000  C
  C114     1.0000 0.34574  0.38459  0.83164  Biso   1.000  C
  H97      1.0000 0.32993  0.28926  0.81818  Biso   1.000  H
  H98      1.0000 0.38892  0.32506  0.84346  Biso   1.000  H
  H99      1.0000 0.42714  0.45218  0.85946  Biso   1.000  H
  H100     1.0000 0.39136  0.48809  0.84206  Biso   1.000  H
  H101     1.0000 0.32155  0.38857  0.81336  Biso   1.000  H
  H102     1.0000 0.31394  0.36816  0.84946  Biso   1.000  H
  C115     1.0000 0.70318  0.70273  0.50887  Biso   1.000  C
  C116     1.0000 0.62783  0.67912  0.50170  Biso   1.000  C
  C117     1.0000 0.62787  0.67912  0.50170  Biso   1.000  C
  H103     1.0000 0.70734  0.66325  0.51516  Biso   1.000  H
  H104     1.0000 0.73053  0.72226  0.48987  Biso   1.000  H
  C118     1.0000 0.73121  0.75647  0.53524  Biso   1.000  C
  C119     1.0000 0.73119  0.75652  0.53524  Biso   1.000  C
  C120     1.0000 0.61880  0.74035  0.49382  Biso   1.000  C
  H105     1.0000 0.59965  0.65488  0.51998  Biso   1.000  H
  H106     1.0000 0.61245  0.64729  0.48387  Biso   1.000  H
  C121     1.0000 0.61875  0.74035  0.49382  Biso   1.000  C
  C122     1.0000 0.70314  0.70273  0.50887  Biso   1.000  C
  C123     1.0000 0.72432  0.81884  0.52632  Biso   1.000  C
  H107     1.0000 0.70456  0.73575  0.55466  Biso   1.000  H
  N13      1.0000 0.80383  0.77802  0.54130  Biso   1.000  N
  H108     1.0000 0.70452  0.73575  0.55466  Biso   1.000  H
  N14      1.0000 0.80378  0.77802  0.54130  Biso   1.000  N
  C124     1.0000 0.64858  0.79517  0.51964  Biso   1.000  C
  H109     1.0000 0.64165  0.76045  0.47387  Biso   1.000  H
  H110     1.0000 0.56995  0.72464  0.49128  Biso   1.000  H
  C125     1.0000 0.64854  0.79517  0.51964  Biso   1.000  C
  H111     1.0000 0.56994  0.72469  0.49128  Biso   1.000  H
  H112     1.0000 0.75145  0.84018  0.50706  Biso   1.000  H
  N15      1.0000 0.74984  0.86953  0.55193  Biso   1.000  N
  C126     1.0000 0.81982  0.77295  0.56929  Biso   1.000  C
  C127     1.0000 0.81978  0.77295  0.56929  Biso   1.000  C
  H113     1.0000 0.64447  0.83465  0.51316  Biso   1.000  H
  H114     1.0000 0.62206  0.77667  0.53897  Biso   1.000  H
  H115     1.0000 0.64442  0.83465  0.51316  Biso   1.000  H
  H116     1.0000 0.62201  0.77667  0.53897  Biso   1.000  H
  C128     1.0000 0.79540  0.93076  0.54517  Biso   1.000  C
  C129     1.0000 0.89052  0.79290  0.57952  Biso   1.000  C
  H117     1.0000 0.78503  0.75564  0.58457  Biso   1.000  H
  C130     1.0000 0.82525  0.98760  0.56834  Biso   1.000  C
  H118     1.0000 0.81095  0.94047  0.52427  Biso   1.000  H
  C131     1.0000 0.82521  0.98760  0.56834  Biso   1.000  C
  C132     1.0000 0.90271  0.78587  0.61119  Biso   1.000  C
  C133     1.0000 0.94592  0.81966  0.55848  Biso   1.000  C
  C134     1.0000 0.90269  0.78592  0.61119  Biso   1.000  C
  C135     1.0000 0.80626  0.97664  0.60034  Biso   1.000  C
  C136     1.0000 0.80622  0.97664  0.60034  Biso   1.000  C
  C137     1.0000 0.87376  0.05410  0.55848  Biso   1.000  C
  C138     1.0000 0.87372  0.05410  0.55848  Biso   1.000  C
  C139     1.0000 0.96919  0.80463  0.62192  Biso   1.000  C
  H119     1.0000 0.86627  0.76856  0.62557  Biso   1.000  H
  C140     1.0000 0.96915  0.80463  0.62192  Biso   1.000  C
  H120     1.0000 0.86622  0.76856  0.62557  Biso   1.000  H
  H121     1.0000 0.93845  0.82576  0.53726  Biso   1.000  H
  H122     1.0000 0.93841  0.82576  0.53726  Biso   1.000  H
  C141     1.0000 0.01239  0.83759  0.56834  Biso   1.000  C
  H123     1.0000 0.77376  0.93267  0.60727  Biso   1.000  H
  H124     1.0000 0.77371  0.93267  0.60727  Biso   1.000  H
  C142     1.0000 0.83547  0.03084  0.62192  Biso   1.000  C
  C143     1.0000 0.90240  0.10949  0.57952  Biso   1.000  C
  H125     1.0000 0.88735  0.06159  0.53726  Biso   1.000  H
  C144     1.0000 0.98002  0.80034  0.65525  Biso   1.000  C
  C145     1.0000 0.97998  0.80034  0.65525  Biso   1.000  C
  C146     1.0000 0.02337  0.82958  0.60034  Biso   1.000  C
  C147     1.0000 0.02333  0.82958  0.60034  Biso   1.000  C
  C148     1.0000 0.06926  0.86462  0.54517  Biso   1.000  C
  C149     1.0000 0.88319  0.09729  0.61119  Biso   1.000  C
  C150     1.0000 0.82037  0.01999  0.65525  Biso   1.000  C
  C151     1.0000 0.82028  0.01999  0.65525  Biso   1.000  C
  C152     1.0000 0.95320  0.18023  0.56929  Biso   1.000  C
  C153     1.0000 0.98589  0.79812  0.68317  Biso   1.000  C
  C154     1.0000 0.98585  0.79812  0.68317  Biso   1.000  C
  H126     1.0000 0.06737  0.84106  0.60727  Biso   1.000  H
  H127     1.0000 0.06733  0.84106  0.60727  Biso   1.000  H
  H128     1.0000 0.05956  0.87046  0.52427  Biso   1.000  H
  N16      1.0000 0.13050  0.88033  0.55193  Biso   1.000  N
  H129     1.0000 0.05952  0.87046  0.52427  Biso   1.000  H
  N17      1.0000 0.13046  0.88033  0.55193  Biso   1.000  N
  H130     1.0000 0.90237  0.13377  0.62557  Biso   1.000  H
  H131     1.0000 0.90228  0.13377  0.62557  Biso   1.000  H
  C155     1.0000 0.81228  0.01410  0.68317  Biso   1.000  C
  C156     1.0000 0.81219  0.01410  0.68317  Biso   1.000  C
  H132     1.0000 0.97066  0.21495  0.58457  Biso   1.000  H
  N18      1.0000 0.97421  0.19619  0.54130  Biso   1.000  N
  H133     1.0000 0.97057  0.21495  0.58457  Biso   1.000  H
  C157     1.0000 0.99299  0.79791  0.71704  Biso   1.000  C
  C158     1.0000 0.18114  0.90544  0.52632  Biso   1.000  C
  C159     1.0000 0.18116  0.90549  0.52632  Biso   1.000  C
  C160     1.0000 0.80494  0.00702  0.71704  Biso   1.000  C
  C161     1.0000 0.02532  0.26879  0.53524  Biso   1.000  C
  C162     1.0000 0.02528  0.26879  0.53524  Biso   1.000  C
  C163     1.0000 0.93704  0.76691  0.73622  Biso   1.000  C
  C164     1.0000 0.93700  0.76691  0.73622  Biso   1.000  C
  C165     1.0000 0.05621  0.82571  0.73119  Biso   1.000  C
  C166     1.0000 0.05623  0.82576  0.73119  Biso   1.000  C
  H134     1.0000 0.15985  0.91128  0.50706  Biso   1.000  H
  C167     1.0000 0.20481  0.85335  0.51964  Biso   1.000  C
  C168     1.0000 0.24350  0.97468  0.53524  Biso   1.000  C
  C169     1.0000 0.76956  0.94378  0.73119  Biso   1.000  C
  C170     1.0000 0.76951  0.94378  0.73119  Biso   1.000  C
  C171     1.0000 0.82988  0.06298  0.73622  Biso   1.000  C
  C172     1.0000 0.99961  0.29685  0.50887  Biso   1.000  C
  C173     1.0000 0.09454  0.27566  0.52632  Biso   1.000  C
  H135     1.0000 0.03122  0.29545  0.55466  Biso   1.000  H
  H136     1.0000 0.03118  0.29545  0.55466  Biso   1.000  H
  H137     1.0000 0.89313  0.74334  0.72727  Biso   1.000  H
  C174     1.0000 0.94382  0.76954  0.76880  Biso   1.000  C
  H138     1.0000 0.09553  0.84224  0.71856  Biso   1.000  H
  C175     1.0000 0.06300  0.82989  0.76379  Biso   1.000  C
  H139     1.0000 0.16533  0.80974  0.51316  Biso   1.000  H
  H140     1.0000 0.22336  0.84534  0.53897  Biso   1.000  H
  C176     1.0000 0.25967  0.87841  0.49382  Biso   1.000  C
  H141     1.0000 0.22332  0.84534  0.53897  Biso   1.000  H
  C177     1.0000 0.25963  0.87841  0.49382  Biso   1.000  C
  H142     1.0000 0.26427  0.96879  0.55466  Biso   1.000  H
  H143     1.0000 0.26423  0.96879  0.55466  Biso   1.000  H
  C178     1.0000 0.29722  0.00041  0.50887  Biso   1.000  C
  N19      1.0000 0.22202  0.02578  0.54130  Biso   1.000  N
  N20      1.0000 0.22193  0.02578  0.54130  Biso   1.000  N
  H144     1.0000 0.74676  0.90446  0.71856  Biso   1.000  H
  C179     1.0000 0.76693  0.93701  0.76379  Biso   1.000  C
  H145     1.0000 0.74672  0.90446  0.71856  Biso   1.000  H
  C180     1.0000 0.76689  0.93701  0.76379  Biso   1.000  C
  H146     1.0000 0.85024  0.10685  0.72727  Biso   1.000  H
  C181     1.0000 0.82578  0.05621  0.76880  Biso   1.000  C
  C182     1.0000 0.82573  0.05621  0.76880  Biso   1.000  C
  H147     1.0000 0.95590  0.29266  0.51516  Biso   1.000  H
  H148     1.0000 0.99174  0.26946  0.48987  Biso   1.000  H
  H149     1.0000 0.95599  0.29266  0.51516  Biso   1.000  H
  C183     1.0000 0.05129  0.37219  0.50170  Biso   1.000  C
  H150     1.0000 0.08879  0.24859  0.50706  Biso   1.000  H
  C184     1.0000 0.14664  0.35141  0.51964  Biso   1.000  C
  N21      1.0000 0.11968  0.25014  0.55193  Biso   1.000  N
  H151     1.0000 0.08874  0.24859  0.50706  Biso   1.000  H
  C185     1.0000 0.14660  0.35141  0.51964  Biso   1.000  C
  H152     1.0000 0.90450  0.74675  0.78143  Biso   1.000  H
  H153     1.0000 0.90446  0.74675  0.78143  Biso   1.000  H
  C186     1.0000 0.00702  0.80494  0.78295  Biso   1.000  C
  H154     1.0000 0.10692  0.85025  0.77274  Biso   1.000  H
  H155     1.0000 0.10687  0.85025  0.77274  Biso   1.000  H
  H156     1.0000 0.23956  0.88115  0.47387  Biso   1.000  H
  H157     1.0000 0.27535  0.84524  0.49128  Biso   1.000  H
  C187     1.0000 0.32093  0.94874  0.50170  Biso   1.000  C
  H158     1.0000 0.23952  0.88115  0.47387  Biso   1.000  H
  H159     1.0000 0.27533  0.84529  0.49128  Biso   1.000  H
  H160     1.0000 0.33673  0.04407  0.51516  Biso   1.000  H
  H161     1.0000 0.27775  0.00826  0.48987  Biso   1.000  H
  C188     1.0000 0.22699  0.04681  0.56929  Biso   1.000  C
  C189     1.0000 0.79791  0.99297  0.78295  Biso   1.000  C
  H162     1.0000 0.74339  0.89314  0.77274  Biso   1.000  H
  H163     1.0000 0.84230  0.09554  0.78143  Biso   1.000  H
  H164     1.0000 0.84222  0.09554  0.78143  Biso   1.000  H
  C190     1.0000 0.12163  0.38123  0.49382  Biso   1.000  C
  H165     1.0000 0.05521  0.40035  0.51998  Biso   1.000  H
  H166     1.0000 0.03487  0.38758  0.48387  Biso   1.000  H
  C191     1.0000 0.12154  0.38123  0.49382  Biso   1.000  C
  H167     1.0000 0.03478  0.38758  0.48387  Biso   1.000  H
  H168     1.0000 0.19019  0.35555  0.51316  Biso   1.000  H
  H169     1.0000 0.15460  0.37797  0.53897  Biso   1.000  H
  C192     1.0000 0.13535  0.20462  0.54517  Biso   1.000  C
  C193     1.0000 0.01414  0.81227  0.81682  Biso   1.000  C
  H170     1.0000 0.34516  0.94476  0.51998  Biso   1.000  H
  H171     1.0000 0.35277  0.96517  0.48387  Biso   1.000  H
  H172     1.0000 0.34511  0.94476  0.51998  Biso   1.000  H
  H173     1.0000 0.35272  0.96517  0.48387  Biso   1.000  H
  C194     1.0000 0.20706  0.09760  0.57952  Biso   1.000  C
  H174     1.0000 0.24430  0.02935  0.58457  Biso   1.000  H
  C195     1.0000 0.79818  0.98589  0.81682  Biso   1.000  C
  C196     1.0000 0.79813  0.98589  0.81682  Biso   1.000  C
  H175     1.0000 0.11883  0.35834  0.47387  Biso   1.000  H
  H176     1.0000 0.15469  0.43006  0.49128  Biso   1.000  H
  H177     1.0000 0.11885  0.35839  0.47387  Biso   1.000  H
  C197     1.0000 0.16240  0.17475  0.56834  Biso   1.000  C
  H178     1.0000 0.12955  0.18906  0.52427  Biso   1.000  H
  C198     1.0000 0.02005  0.82033  0.84474  Biso   1.000  C
  C199     1.0000 0.02000  0.82033  0.84474  Biso   1.000  C
  C200     1.0000 0.21407  0.11683  0.61119  Biso   1.000  C
  C201     1.0000 0.18033  0.12623  0.55848  Biso   1.000  C
  C202     1.0000 0.80038  0.98000  0.84474  Biso   1.000  C
  C203     1.0000 0.80033  0.98000  0.84474  Biso   1.000  C
  C204     1.0000 0.17038  0.19376  0.60034  Biso   1.000  C
  C205     1.0000 0.03088  0.83547  0.87810  Biso   1.000  C
  C206     1.0000 0.19536  0.16452  0.62192  Biso   1.000  C
  H179     1.0000 0.23147  0.09766  0.62557  Biso   1.000  H
  H180     1.0000 0.23142  0.09766  0.62557  Biso   1.000  H
  H181     1.0000 0.17426  0.11264  0.53726  Biso   1.000  H
  H182     1.0000 0.17419  0.11269  0.53726  Biso   1.000  H
  C207     1.0000 0.80462  0.96915  0.87810  Biso   1.000  C
  H183     1.0000 0.15893  0.22627  0.60727  Biso   1.000  H
  C208     1.0000 0.97666  0.80623  0.89967  Biso   1.000  C
  C209     1.0000 0.09729  0.88317  0.88883  Biso   1.000  C
  C210     1.0000 0.09731  0.88322  0.88883  Biso   1.000  C
  C211     1.0000 0.19971  0.17966  0.65525  Biso   1.000  C
  C212     1.0000 0.19962  0.17966  0.65525  Biso   1.000  C
  C213     1.0000 0.78594  0.90270  0.88883  Biso   1.000  C
  C214     1.0000 0.78589  0.90270  0.88883  Biso   1.000  C
  C215     1.0000 0.82957  0.02335  0.89967  Biso   1.000  C
  C216     1.0000 0.98764  0.82524  0.93165  Biso   1.000  C
  H184     1.0000 0.93266  0.77373  0.89274  Biso   1.000  H
  H185     1.0000 0.13381  0.90234  0.87444  Biso   1.000  H
  C217     1.0000 0.10949  0.90239  0.92049  Biso   1.000  C
  H186     1.0000 0.13377  0.90234  0.87444  Biso   1.000  H
  C218     1.0000 0.20182  0.18772  0.68317  Biso   1.000  C
  C219     1.0000 0.20184  0.18777  0.68317  Biso   1.000  C
  H187     1.0000 0.76859  0.86622  0.87444  Biso   1.000  H
  C220     1.0000 0.79295  0.89050  0.92049  Biso   1.000  C
  H188     1.0000 0.76855  0.86622  0.87444  Biso   1.000  H
  C221     1.0000 0.79291  0.89050  0.92049  Biso   1.000  C
  C222     1.0000 0.83765  0.01240  0.93165  Biso   1.000  C
  H189     1.0000 0.84109  0.06732  0.89274  Biso   1.000  H
  C223     1.0000 0.83756  0.01240  0.93165  Biso   1.000  C
  H190     1.0000 0.84104  0.06732  0.89274  Biso   1.000  H
  C224     1.0000 0.93078  0.79538  0.95482  Biso   1.000  C
  C225     1.0000 0.93074  0.79538  0.95482  Biso   1.000  C
  C226     1.0000 0.05410  0.87376  0.94153  Biso   1.000  C
  C227     1.0000 0.18022  0.95318  0.93070  Biso   1.000  C
  C228     1.0000 0.20204  0.19506  0.71704  Biso   1.000  C
  C229     1.0000 0.81971  0.94590  0.94153  Biso   1.000  C
  C230     1.0000 0.77297  0.81977  0.93070  Biso   1.000  C
  C231     1.0000 0.81966  0.94590  0.94153  Biso   1.000  C
  C232     1.0000 0.77300  0.81982  0.93070  Biso   1.000  C
  C233     1.0000 0.86464  0.06924  0.95482  Biso   1.000  C
  H191     1.0000 0.94048  0.81093  0.97574  Biso   1.000  H
  N22      1.0000 0.86958  0.74986  0.94806  Biso   1.000  N
  N23      1.0000 0.86954  0.74986  0.94806  Biso   1.000  N
  H192     1.0000 0.06161  0.88735  0.96273  Biso   1.000  H
  H193     1.0000 0.06157  0.88735  0.96273  Biso   1.000  H
  H194     1.0000 0.21500  0.97065  0.91544  Biso   1.000  H
  N24      1.0000 0.19624  0.97421  0.95872  Biso   1.000  N
  H195     1.0000 0.21495  0.97065  0.91544  Biso   1.000  H
  N25      1.0000 0.19619  0.97421  0.95872  Biso   1.000  N
  C234     1.0000 0.17423  0.23045  0.73119  Biso   1.000  C
  C235     1.0000 0.23310  0.17010  0.73622  Biso   1.000  C
  H196     1.0000 0.82576  0.93840  0.96273  Biso   1.000  H
  H197     1.0000 0.82579  0.93846  0.96273  Biso   1.000  H
  H198     1.0000 0.75570  0.78504  0.91544  Biso   1.000  H
  N26      1.0000 0.77806  0.80380  0.95872  Biso   1.000  N
  H199     1.0000 0.75566  0.78504  0.91544  Biso   1.000  H
  N27      1.0000 0.77801  0.80380  0.95872  Biso   1.000  N
  H200     1.0000 0.87048  0.05952  0.97574  Biso   1.000  H
  N28      1.0000 0.88026  0.13047  0.94806  Biso   1.000  N
  C236     1.0000 0.81887  0.72433  0.97367  Biso   1.000  C
  C237     1.0000 0.26882  0.02532  0.96475  Biso   1.000  C
  H201     1.0000 0.15770  0.25324  0.71856  Biso   1.000  H
  C238     1.0000 0.17008  0.23309  0.76379  Biso   1.000  C
  H202     1.0000 0.15768  0.25329  0.71856  Biso   1.000  H
  H203     1.0000 0.25666  0.14974  0.72727  Biso   1.000  H
  C239     1.0000 0.23049  0.17428  0.76880  Biso   1.000  C
  H204     1.0000 0.25664  0.14979  0.72727  Biso   1.000  H
  C240     1.0000 0.75653  0.73120  0.96475  Biso   1.000  C
  C241     1.0000 0.75648  0.73120  0.96475  Biso   1.000  C
  C242     1.0000 0.90547  0.18116  0.97367  Biso   1.000  C
  H205     1.0000 0.84019  0.75141  0.99293  Biso   1.000  H
  C243     1.0000 0.79523  0.64858  0.98034  Biso   1.000  C
  H206     1.0000 0.84018  0.75146  0.99293  Biso   1.000  H
  C244     1.0000 0.79518  0.64858  0.98034  Biso   1.000  C
  C245     1.0000 0.29686  0.99958  0.99112  Biso   1.000  C
  C246     1.0000 0.27565  0.09456  0.97367  Biso   1.000  C
  H207     1.0000 0.29544  0.03121  0.94533  Biso   1.000  H
  H208     1.0000 0.29547  0.03126  0.94533  Biso   1.000  H
  C247     1.0000 0.19504  0.20208  0.78295  Biso   1.000  C
  H209     1.0000 0.14974  0.25665  0.77274  Biso   1.000  H
  H210     1.0000 0.25324  0.15775  0.78143  Biso   1.000  H
  C248     1.0000 0.70276  0.70314  0.99112  Biso   1.000  C
  H211     1.0000 0.73581  0.70454  0.94533  Biso   1.000  H
  H212     1.0000 0.73577  0.70454  0.94533  Biso   1.000  H
  H213     1.0000 0.91123  0.15982  0.99293  Biso   1.000  H
  C249     1.0000 0.85341  0.20482  0.98034  Biso   1.000  C
  C250     1.0000 0.97474  0.24352  0.96475  Biso   1.000  C
  C251     1.0000 0.85332  0.20482  0.98034  Biso   1.000  C
  C252     1.0000 0.97465  0.24352  0.96475  Biso   1.000  C
  H214     1.0000 0.83469  0.64445  0.98682  Biso   1.000  H
  H215     1.0000 0.77667  0.62202  0.96104  Biso   1.000  H
  C253     1.0000 0.74040  0.61876  0.00617  Biso   1.000  C
  C254     1.0000 0.74036  0.61876  0.00617  Biso   1.000  C
  H216     1.0000 0.29270  0.95592  0.98483  Biso   1.000  H
  H217     1.0000 0.29266  0.95592  0.98483  Biso   1.000  H
  H218     1.0000 0.26948  0.99173  0.01014  Biso   1.000  H
  H219     1.0000 0.26944  0.99173  0.01014  Biso   1.000  H
  C255     1.0000 0.37218  0.05125  0.99831  Biso   1.000  C
  H220     1.0000 0.24852  0.08872  0.99293  Biso   1.000  H
  C256     1.0000 0.35146  0.14664  0.98034  Biso   1.000  C
  N29      1.0000 0.25017  0.11967  0.94806  Biso   1.000  N
  N30      1.0000 0.25011  0.11972  0.94806  Biso   1.000  N
  C257     1.0000 0.18777  0.20188  0.81682  Biso   1.000  C
  C258     1.0000 0.18773  0.20188  0.81682  Biso   1.000  C
  C259     1.0000 0.67910  0.62781  0.99831  Biso   1.000  C
  H221     1.0000 0.66328  0.70733  0.98483  Biso   1.000  H
  H222     1.0000 0.72227  0.73053  0.01014  Biso   1.000  H
  H223     1.0000 0.80977  0.16534  0.98682  Biso   1.000  H
  H224     1.0000 0.84538  0.22332  0.96104  Biso   1.000  H
  H225     1.0000 0.80973  0.16534  0.98682  Biso   1.000  H
  H226     1.0000 0.84529  0.22332  0.96104  Biso   1.000  H
  C260     1.0000 0.87845  0.25965  0.00617  Biso   1.000  C
  C261     1.0000 0.87836  0.25965  0.00617  Biso   1.000  C
  H227     1.0000 0.96881  0.26424  0.94533  Biso   1.000  H
  H228     1.0000 0.96872  0.26424  0.94533  Biso   1.000  H
  C262     1.0000 0.00045  0.29726  0.99112  Biso   1.000  C
  N31      1.0000 0.02581  0.22198  0.95872  Biso   1.000  N
  C263     1.0000 0.00040  0.29726  0.99112  Biso   1.000  C
  N32      1.0000 0.02572  0.22198  0.95872  Biso   1.000  N
  H229     1.0000 0.76048  0.64166  0.02614  Biso   1.000  H
  H230     1.0000 0.72467  0.56994  0.00874  Biso   1.000  H
  H231     1.0000 0.72462  0.56994  0.00874  Biso   1.000  H
  H232     1.0000 0.40035  0.05523  0.98003  Biso   1.000  H
  C264     1.0000 0.38121  0.12158  0.00617  Biso   1.000  C
  H233     1.0000 0.38755  0.03482  0.01614  Biso   1.000  H
  H234     1.0000 0.35559  0.19025  0.98682  Biso   1.000  H
  H235     1.0000 0.37797  0.15465  0.96104  Biso   1.000  H
  C265     1.0000 0.20460  0.13538  0.95482  Biso   1.000  C
  C266     1.0000 0.17964  0.19965  0.84474  Biso   1.000  C
  H236     1.0000 0.65490  0.59965  0.98003  Biso   1.000  H
  H237     1.0000 0.65486  0.59965  0.98003  Biso   1.000  H
  H238     1.0000 0.64728  0.61241  0.01614  Biso   1.000  H
  H239     1.0000 0.64723  0.61241  0.01614  Biso   1.000  H
  C267     1.0000 0.94871  0.32088  0.99831  Biso   1.000  C
  C268     1.0000 0.94869  0.32093  0.99831  Biso   1.000  C
  H240     1.0000 0.88115  0.23954  0.02614  Biso   1.000  H
  H241     1.0000 0.84527  0.27535  0.00874  Biso   1.000  H
  H242     1.0000 0.84522  0.27535  0.00874  Biso   1.000  H
  H243     1.0000 0.04408  0.33674  0.98483  Biso   1.000  H
  H244     1.0000 0.00827  0.27773  0.01014  Biso   1.000  H
  C269     1.0000 0.04687  0.22704  0.93070  Biso   1.000  C
  C270     1.0000 0.04678  0.22704  0.93070  Biso   1.000  C
  H245     1.0000 0.35841  0.11884  0.02614  Biso   1.000  H
  H246     1.0000 0.43006  0.15475  0.00874  Biso   1.000  H
  H247     1.0000 0.35836  0.11884  0.02614  Biso   1.000  H
  C271     1.0000 0.17475  0.16240  0.93165  Biso   1.000  C
  H248     1.0000 0.18906  0.12954  0.97574  Biso   1.000  H
  H249     1.0000 0.18901  0.12954  0.97574  Biso   1.000  H
  C272     1.0000 0.16456  0.19537  0.87810  Biso   1.000  C
  C273     1.0000 0.16450  0.19542  0.87810  Biso   1.000  C
  H250     1.0000 0.94472  0.34511  0.98003  Biso   1.000  H
  H251     1.0000 0.96516  0.35271  0.01614  Biso   1.000  H
  H252     1.0000 0.96519  0.35276  0.01614  Biso   1.000  H
  C274     1.0000 0.09757  0.20710  0.92049  Biso   1.000  C
  H253     1.0000 0.02939  0.24435  0.91544  Biso   1.000  H
  C275     1.0000 0.19379  0.17041  0.89967  Biso   1.000  C
  C276     1.0000 0.12621  0.18033  0.94153  Biso   1.000  C
  C277     1.0000 0.19370  0.17041  0.89967  Biso   1.000  C
  C278     1.0000 0.11684  0.21412  0.88883  Biso   1.000  C
  C279     1.0000 0.11675  0.21412  0.88883  Biso   1.000  C
  H254     1.0000 0.22627  0.15894  0.89274  Biso   1.000  H
  H255     1.0000 0.11269  0.17423  0.96273  Biso   1.000  H
  H256     1.0000 0.11260  0.17423  0.96273  Biso   1.000  H
  H257     1.0000 0.09770  0.23143  0.87444  Biso   1.000  H
  H258     1.0000 0.09766  0.23143  0.87444  Biso   1.000  H
  C280     1.0000 0.70318  0.70273  0.50887  Biso   1.000  C
  C281     1.0000 0.62783  0.67912  0.50170  Biso   1.000  C
  C282     1.0000 0.62787  0.67912  0.50170  Biso   1.000  C
  H259     1.0000 0.70734  0.66325  0.51516  Biso   1.000  H
  H260     1.0000 0.73053  0.72226  0.48987  Biso   1.000  H
  C283     1.0000 0.73121  0.75647  0.53524  Biso   1.000  C
  C284     1.0000 0.73119  0.75652  0.53524  Biso   1.000  C
  H261     1.0000 0.59965  0.65488  0.51998  Biso   1.000  H
  H262     1.0000 0.61245  0.64729  0.48387  Biso   1.000  H
  C285     1.0000 0.61880  0.74035  0.49382  Biso   1.000  C
  C286     1.0000 0.61875  0.74035  0.49382  Biso   1.000  C
  C287     1.0000 0.70314  0.70273  0.50887  Biso   1.000  C
  C288     1.0000 0.72432  0.81884  0.52632  Biso   1.000  C
  H263     1.0000 0.70456  0.73575  0.55466  Biso   1.000  H
  N33      1.0000 0.80383  0.77802  0.54130  Biso   1.000  N
  H264     1.0000 0.70452  0.73575  0.55466  Biso   1.000  H
  N34      1.0000 0.80378  0.77802  0.54130  Biso   1.000  N
  H265     1.0000 0.64165  0.76045  0.47387  Biso   1.000  H
  C289     1.0000 0.64858  0.79517  0.51964  Biso   1.000  C
  H266     1.0000 0.56995  0.72464  0.49128  Biso   1.000  H
  C290     1.0000 0.64854  0.79517  0.51964  Biso   1.000  C
  H267     1.0000 0.56994  0.72469  0.49128  Biso   1.000  H
  H268     1.0000 0.75145  0.84018  0.50706  Biso   1.000  H
  N35      1.0000 0.74984  0.86953  0.55193  Biso   1.000  N
  C291     1.0000 0.81982  0.77295  0.56929  Biso   1.000  C
  C292     1.0000 0.81978  0.77295  0.56929  Biso   1.000  C
  H269     1.0000 0.64447  0.83465  0.51316  Biso   1.000  H
  H270     1.0000 0.62206  0.77667  0.53897  Biso   1.000  H
  H271     1.0000 0.64442  0.83465  0.51316  Biso   1.000  H
  H272     1.0000 0.62201  0.77667  0.53897  Biso   1.000  H
  C293     1.0000 0.79540  0.93076  0.54517  Biso   1.000  C
  C294     1.0000 0.89052  0.79290  0.57952  Biso   1.000  C
  H273     1.0000 0.78503  0.75564  0.58457  Biso   1.000  H
  H274     1.0000 0.81095  0.94047  0.52427  Biso   1.000  H
  C295     1.0000 0.82525  0.98760  0.56834  Biso   1.000  C
  C296     1.0000 0.82521  0.98760  0.56834  Biso   1.000  C
  C297     1.0000 0.94592  0.81966  0.55848  Biso   1.000  C
  C298     1.0000 0.90271  0.78587  0.61119  Biso   1.000  C
  C299     1.0000 0.90269  0.78592  0.61119  Biso   1.000  C
  C300     1.0000 0.80626  0.97664  0.60034  Biso   1.000  C
  C301     1.0000 0.80622  0.97664  0.60034  Biso   1.000  C
  C302     1.0000 0.87376  0.05410  0.55848  Biso   1.000  C
  C303     1.0000 0.87372  0.05410  0.55848  Biso   1.000  C
  H275     1.0000 0.93845  0.82576  0.53726  Biso   1.000  H
  H276     1.0000 0.93841  0.82576  0.53726  Biso   1.000  H
  C304     1.0000 0.01239  0.83759  0.56834  Biso   1.000  C
  C305     1.0000 0.96919  0.80463  0.62192  Biso   1.000  C
  H277     1.0000 0.86627  0.76856  0.62557  Biso   1.000  H
  C306     1.0000 0.96915  0.80463  0.62192  Biso   1.000  C
  H278     1.0000 0.86622  0.76856  0.62557  Biso   1.000  H
  H279     1.0000 0.77376  0.93267  0.60727  Biso   1.000  H
  H280     1.0000 0.77371  0.93267  0.60727  Biso   1.000  H
  C307     1.0000 0.83547  0.03084  0.62192  Biso   1.000  C
  C308     1.0000 0.90240  0.10949  0.57952  Biso   1.000  C
  H281     1.0000 0.88735  0.06159  0.53726  Biso   1.000  H
  C309     1.0000 0.02337  0.82958  0.60034  Biso   1.000  C
  C310     1.0000 0.06926  0.86462  0.54517  Biso   1.000  C
  C311     1.0000 0.02333  0.82958  0.60034  Biso   1.000  C
  C312     1.0000 0.98002  0.80034  0.65525  Biso   1.000  C
  C313     1.0000 0.97998  0.80034  0.65525  Biso   1.000  C
  C314     1.0000 0.88319  0.09729  0.61119  Biso   1.000  C
  C315     1.0000 0.82037  0.01999  0.65525  Biso   1.000  C
  C316     1.0000 0.82028  0.01999  0.65525  Biso   1.000  C
  C317     1.0000 0.95320  0.18023  0.56929  Biso   1.000  C
  H282     1.0000 0.06737  0.84106  0.60727  Biso   1.000  H
  H283     1.0000 0.06733  0.84106  0.60727  Biso   1.000  H
  H284     1.0000 0.05956  0.87046  0.52427  Biso   1.000  H
  N36      1.0000 0.13050  0.88033  0.55193  Biso   1.000  N
  H285     1.0000 0.05952  0.87046  0.52427  Biso   1.000  H
  N37      1.0000 0.13046  0.88033  0.55193  Biso   1.000  N
  C318     1.0000 0.98589  0.79812  0.68317  Biso   1.000  C
  C319     1.0000 0.98585  0.79812  0.68317  Biso   1.000  C
  H286     1.0000 0.90237  0.13377  0.62557  Biso   1.000  H
  H287     1.0000 0.90228  0.13377  0.62557  Biso   1.000  H
  C320     1.0000 0.81228  0.01410  0.68317  Biso   1.000  C
  C321     1.0000 0.81219  0.01410  0.68317  Biso   1.000  C
  N38      1.0000 0.97421  0.19619  0.54130  Biso   1.000  N
  H288     1.0000 0.97066  0.21495  0.58457  Biso   1.000  H
  H289     1.0000 0.97057  0.21495  0.58457  Biso   1.000  H
  C322     1.0000 0.18114  0.90544  0.52632  Biso   1.000  C
  C323     1.0000 0.18116  0.90549  0.52632  Biso   1.000  C
  C324     1.0000 0.99299  0.79791  0.71704  Biso   1.000  C
  C325     1.0000 0.80494  0.00702  0.71704  Biso   1.000  C
  C326     1.0000 0.02532  0.26879  0.53524  Biso   1.000  C
  C327     1.0000 0.02528  0.26879  0.53524  Biso   1.000  C
  H290     1.0000 0.15985  0.91128  0.50706  Biso   1.000  H
  C328     1.0000 0.20481  0.85335  0.51964  Biso   1.000  C
  C329     1.0000 0.24350  0.97468  0.53524  Biso   1.000  C
  C330     1.0000 0.93704  0.76691  0.73622  Biso   1.000  C
  C331     1.0000 0.93700  0.76691  0.73622  Biso   1.000  C
  C332     1.0000 0.05621  0.82571  0.73119  Biso   1.000  C
  C333     1.0000 0.05623  0.82576  0.73119  Biso   1.000  C
  C334     1.0000 0.82988  0.06298  0.73622  Biso   1.000  C
  C335     1.0000 0.76956  0.94378  0.73119  Biso   1.000  C
  C336     1.0000 0.76951  0.94378  0.73119  Biso   1.000  C
  C337     1.0000 0.99961  0.29685  0.50887  Biso   1.000  C
  C338     1.0000 0.09454  0.27566  0.52632  Biso   1.000  C
  H291     1.0000 0.03122  0.29545  0.55466  Biso   1.000  H
  H292     1.0000 0.03118  0.29545  0.55466  Biso   1.000  H
  H293     1.0000 0.16533  0.80974  0.51316  Biso   1.000  H
  H294     1.0000 0.22336  0.84534  0.53897  Biso   1.000  H
  C339     1.0000 0.25967  0.87841  0.49382  Biso   1.000  C
  H295     1.0000 0.22332  0.84534  0.53897  Biso   1.000  H
  C340     1.0000 0.25963  0.87841  0.49382  Biso   1.000  C
  H296     1.0000 0.26427  0.96879  0.55466  Biso   1.000  H
  H297     1.0000 0.26423  0.96879  0.55466  Biso   1.000  H
  C341     1.0000 0.29722  0.00041  0.50887  Biso   1.000  C
  N39      1.0000 0.22202  0.02578  0.54130  Biso   1.000  N
  N40      1.0000 0.22193  0.02578  0.54130  Biso   1.000  N
  H298     1.0000 0.89313  0.74334  0.72727  Biso   1.000  H
  C342     1.0000 0.94382  0.76954  0.76880  Biso   1.000  C
  H299     1.0000 0.09553  0.84224  0.71856  Biso   1.000  H
  C343     1.0000 0.06300  0.82989  0.76379  Biso   1.000  C
  H300     1.0000 0.85024  0.10685  0.72727  Biso   1.000  H
  C344     1.0000 0.82578  0.05621  0.76880  Biso   1.000  C
  C345     1.0000 0.82573  0.05621  0.76880  Biso   1.000  C
  H301     1.0000 0.74676  0.90446  0.71856  Biso   1.000  H
  C346     1.0000 0.76693  0.93701  0.76379  Biso   1.000  C
  H302     1.0000 0.74672  0.90446  0.71856  Biso   1.000  H
  C347     1.0000 0.76689  0.93701  0.76379  Biso   1.000  C
  H303     1.0000 0.95590  0.29266  0.51516  Biso   1.000  H
  H304     1.0000 0.99174  0.26946  0.48987  Biso   1.000  H
  H305     1.0000 0.95599  0.29266  0.51516  Biso   1.000  H
  C348     1.0000 0.05129  0.37219  0.50170  Biso   1.000  C
  N41      1.0000 0.11968  0.25014  0.55193  Biso   1.000  N
  H306     1.0000 0.08879  0.24859  0.50706  Biso   1.000  H
  C349     1.0000 0.14664  0.35141  0.51964  Biso   1.000  C
  H307     1.0000 0.08874  0.24859  0.50706  Biso   1.000  H
  C350     1.0000 0.14660  0.35141  0.51964  Biso   1.000  C
  H308     1.0000 0.23956  0.88115  0.47387  Biso   1.000  H
  H309     1.0000 0.27535  0.84524  0.49128  Biso   1.000  H
  C351     1.0000 0.32093  0.94874  0.50170  Biso   1.000  C
  H310     1.0000 0.23952  0.88115  0.47387  Biso   1.000  H
  H311     1.0000 0.27533  0.84529  0.49128  Biso   1.000  H
  H312     1.0000 0.33673  0.04407  0.51516  Biso   1.000  H
  H313     1.0000 0.27775  0.00826  0.48987  Biso   1.000  H
  C352     1.0000 0.22699  0.04681  0.56929  Biso   1.000  C
  H314     1.0000 0.90450  0.74675  0.78143  Biso   1.000  H
  H315     1.0000 0.90446  0.74675  0.78143  Biso   1.000  H
  C353     1.0000 0.00702  0.80494  0.78295  Biso   1.000  C
  H316     1.0000 0.10692  0.85025  0.77274  Biso   1.000  H
  H317     1.0000 0.10687  0.85025  0.77274  Biso   1.000  H
  C354     1.0000 0.79791  0.99297  0.78295  Biso   1.000  C
  H318     1.0000 0.84230  0.09554  0.78143  Biso   1.000  H
  H319     1.0000 0.84222  0.09554  0.78143  Biso   1.000  H
  H320     1.0000 0.74339  0.89314  0.77274  Biso   1.000  H
  H321     1.0000 0.05521  0.40035  0.51998  Biso   1.000  H
  C355     1.0000 0.12163  0.38123  0.49382  Biso   1.000  C
  H322     1.0000 0.03487  0.38758  0.48387  Biso   1.000  H
  C356     1.0000 0.12154  0.38123  0.49382  Biso   1.000  C
  H323     1.0000 0.03478  0.38758  0.48387  Biso   1.000  H
  C357     1.0000 0.13535  0.20462  0.54517  Biso   1.000  C
  H324     1.0000 0.19019  0.35555  0.51316  Biso   1.000  H
  H325     1.0000 0.15460  0.37797  0.53897  Biso   1.000  H
  H326     1.0000 0.34516  0.94476  0.51998  Biso   1.000  H
  H327     1.0000 0.35277  0.96517  0.48387  Biso   1.000  H
  H328     1.0000 0.34511  0.94476  0.51998  Biso   1.000  H
  H329     1.0000 0.35272  0.96517  0.48387  Biso   1.000  H
  H330     1.0000 0.24430  0.02935  0.58457  Biso   1.000  H
  C358     1.0000 0.20706  0.09760  0.57952  Biso   1.000  C
  C359     1.0000 0.01414  0.81227  0.81682  Biso   1.000  C
  C360     1.0000 0.79818  0.98589  0.81682  Biso   1.000  C
  C361     1.0000 0.79813  0.98589  0.81682  Biso   1.000  C
  H331     1.0000 0.11883  0.35834  0.47387  Biso   1.000  H
  H332     1.0000 0.15469  0.43006  0.49128  Biso   1.000  H
  H333     1.0000 0.11885  0.35839  0.47387  Biso   1.000  H
  C362     1.0000 0.16240  0.17475  0.56834  Biso   1.000  C
  H334     1.0000 0.12955  0.18906  0.52427  Biso   1.000  H
  C363     1.0000 0.21407  0.11683  0.61119  Biso   1.000  C
  C364     1.0000 0.18033  0.12623  0.55848  Biso   1.000  C
  C365     1.0000 0.02005  0.82033  0.84474  Biso   1.000  C
  C366     1.0000 0.02000  0.82033  0.84474  Biso   1.000  C
  C367     1.0000 0.80038  0.98000  0.84474  Biso   1.000  C
  C368     1.0000 0.80033  0.98000  0.84474  Biso   1.000  C
  C369     1.0000 0.17038  0.19376  0.60034  Biso   1.000  C
  C370     1.0000 0.19536  0.16452  0.62192  Biso   1.000  C
  H335     1.0000 0.23147  0.09766  0.62557  Biso   1.000  H
  H336     1.0000 0.23142  0.09766  0.62557  Biso   1.000  H
  H337     1.0000 0.17426  0.11264  0.53726  Biso   1.000  H
  H338     1.0000 0.17419  0.11269  0.53726  Biso   1.000  H
  C371     1.0000 0.03088  0.83547  0.87810  Biso   1.000  C
  C372     1.0000 0.80462  0.96915  0.87810  Biso   1.000  C
  H339     1.0000 0.15893  0.22627  0.60727  Biso   1.000  H
  C373     1.0000 0.19971  0.17966  0.65525  Biso   1.000  C
  C374     1.0000 0.19962  0.17966  0.65525  Biso   1.000  C
  C375     1.0000 0.97666  0.80623  0.89967  Biso   1.000  C
  C376     1.0000 0.09729  0.88317  0.88883  Biso   1.000  C
  C377     1.0000 0.09731  0.88322  0.88883  Biso   1.000  C
  C378     1.0000 0.82957  0.02335  0.89967  Biso   1.000  C
  C379     1.0000 0.78594  0.90270  0.88883  Biso   1.000  C
  C380     1.0000 0.78589  0.90270  0.88883  Biso   1.000  C
  C381     1.0000 0.20182  0.18772  0.68317  Biso   1.000  C
  C382     1.0000 0.20184  0.18777  0.68317  Biso   1.000  C
  C383     1.0000 0.98764  0.82524  0.93165  Biso   1.000  C
  H340     1.0000 0.93266  0.77373  0.89274  Biso   1.000  H
  H341     1.0000 0.13381  0.90234  0.87444  Biso   1.000  H
  C384     1.0000 0.10949  0.90239  0.92049  Biso   1.000  C
  H342     1.0000 0.13377  0.90234  0.87444  Biso   1.000  H
  C385     1.0000 0.83765  0.01240  0.93165  Biso   1.000  C
  H343     1.0000 0.84109  0.06732  0.89274  Biso   1.000  H
  C386     1.0000 0.83756  0.01240  0.93165  Biso   1.000  C
  H344     1.0000 0.84104  0.06732  0.89274  Biso   1.000  H
  H345     1.0000 0.76859  0.86622  0.87444  Biso   1.000  H
  C387     1.0000 0.79295  0.89050  0.92049  Biso   1.000  C
  H346     1.0000 0.76855  0.86622  0.87444  Biso   1.000  H
  C388     1.0000 0.79291  0.89050  0.92049  Biso   1.000  C
  C389     1.0000 0.20204  0.19506  0.71704  Biso   1.000  C
  C390     1.0000 0.93074  0.79538  0.95482  Biso   1.000  C
  C391     1.0000 0.93078  0.79538  0.95482  Biso   1.000  C
  C392     1.0000 0.05410  0.87376  0.94153  Biso   1.000  C
  C393     1.0000 0.18022  0.95318  0.93070  Biso   1.000  C
  C394     1.0000 0.81971  0.94590  0.94153  Biso   1.000  C
  C395     1.0000 0.81966  0.94590  0.94153  Biso   1.000  C
  C396     1.0000 0.86464  0.06924  0.95482  Biso   1.000  C
  C397     1.0000 0.77297  0.81977  0.93070  Biso   1.000  C
  C398     1.0000 0.77300  0.81982  0.93070  Biso   1.000  C
  C399     1.0000 0.17423  0.23045  0.73119  Biso   1.000  C
  C400     1.0000 0.23310  0.17010  0.73622  Biso   1.000  C
  H347     1.0000 0.94048  0.81093  0.97574  Biso   1.000  H
  N42      1.0000 0.86958  0.74986  0.94806  Biso   1.000  N
  N43      1.0000 0.86954  0.74986  0.94806  Biso   1.000  N
  H348     1.0000 0.06161  0.88735  0.96273  Biso   1.000  H
  H349     1.0000 0.06157  0.88735  0.96273  Biso   1.000  H
  H350     1.0000 0.21500  0.97065  0.91544  Biso   1.000  H
  N44      1.0000 0.19624  0.97421  0.95872  Biso   1.000  N
  H351     1.0000 0.21495  0.97065  0.91544  Biso   1.000  H
  N45      1.0000 0.19619  0.97421  0.95872  Biso   1.000  N
  H352     1.0000 0.82576  0.93840  0.96273  Biso   1.000  H
  H353     1.0000 0.82579  0.93846  0.96273  Biso   1.000  H
  H354     1.0000 0.87048  0.05952  0.97574  Biso   1.000  H
  N46      1.0000 0.88026  0.13047  0.94806  Biso   1.000  N
  H355     1.0000 0.75570  0.78504  0.91544  Biso   1.000  H
  N47      1.0000 0.77806  0.80380  0.95872  Biso   1.000  N
  H356     1.0000 0.75566  0.78504  0.91544  Biso   1.000  H
  N48      1.0000 0.77801  0.80380  0.95872  Biso   1.000  N
  C401     1.0000 0.17008  0.23309  0.76379  Biso   1.000  C
  H357     1.0000 0.15770  0.25324  0.71856  Biso   1.000  H
  H358     1.0000 0.15768  0.25329  0.71856  Biso   1.000  H
  H359     1.0000 0.25666  0.14974  0.72727  Biso   1.000  H
  C402     1.0000 0.23049  0.17428  0.76880  Biso   1.000  C
  H360     1.0000 0.25664  0.14979  0.72727  Biso   1.000  H
  C403     1.0000 0.81887  0.72433  0.97367  Biso   1.000  C
  C404     1.0000 0.26882  0.02532  0.96475  Biso   1.000  C
  C405     1.0000 0.90547  0.18116  0.97367  Biso   1.000  C
  C406     1.0000 0.75653  0.73120  0.96475  Biso   1.000  C
  C407     1.0000 0.75648  0.73120  0.96475  Biso   1.000  C
  C408     1.0000 0.19504  0.20208  0.78295  Biso   1.000  C
  H361     1.0000 0.14974  0.25665  0.77274  Biso   1.000  H
  H362     1.0000 0.25324  0.15775  0.78143  Biso   1.000  H
  H363     1.0000 0.84019  0.75141  0.99293  Biso   1.000  H
  C409     1.0000 0.79523  0.64858  0.98034  Biso   1.000  C
  H364     1.0000 0.84018  0.75146  0.99293  Biso   1.000  H
  C410     1.0000 0.79518  0.64858  0.98034  Biso   1.000  C
  C411     1.0000 0.29686  0.99958  0.99112  Biso   1.000  C
  C412     1.0000 0.27565  0.09456  0.97367  Biso   1.000  C
  H365     1.0000 0.29544  0.03121  0.94533  Biso   1.000  H
  H366     1.0000 0.29547  0.03126  0.94533  Biso   1.000  H
  H367     1.0000 0.91123  0.15982  0.99293  Biso   1.000  H
  C413     1.0000 0.85341  0.20482  0.98034  Biso   1.000  C
  C414     1.0000 0.97474  0.24352  0.96475  Biso   1.000  C
  C415     1.0000 0.85332  0.20482  0.98034  Biso   1.000  C
  C416     1.0000 0.97465  0.24352  0.96475  Biso   1.000  C
  C417     1.0000 0.70276  0.70314  0.99112  Biso   1.000  C
  H368     1.0000 0.73581  0.70454  0.94533  Biso   1.000  H
  H369     1.0000 0.73577  0.70454  0.94533  Biso   1.000  H
  C418     1.0000 0.18777  0.20188  0.81682  Biso   1.000  C
  C419     1.0000 0.18773  0.20188  0.81682  Biso   1.000  C
  H370     1.0000 0.83469  0.64445  0.98682  Biso   1.000  H
  H371     1.0000 0.77667  0.62202  0.96104  Biso   1.000  H
  C420     1.0000 0.74040  0.61876  0.00617  Biso   1.000  C
  C421     1.0000 0.74036  0.61876  0.00617  Biso   1.000  C
  H372     1.0000 0.29270  0.95592  0.98483  Biso   1.000  H
  H373     1.0000 0.29266  0.95592  0.98483  Biso   1.000  H
  H374     1.0000 0.26948  0.99173  0.01014  Biso   1.000  H
  H375     1.0000 0.26944  0.99173  0.01014  Biso   1.000  H
  C422     1.0000 0.37218  0.05125  0.99831  Biso   1.000  C
  H376     1.0000 0.24852  0.08872  0.99293  Biso   1.000  H
  C423     1.0000 0.35146  0.14664  0.98034  Biso   1.000  C
  N49      1.0000 0.25017  0.11967  0.94806  Biso   1.000  N
  N50      1.0000 0.25011  0.11972  0.94806  Biso   1.000  N
  H377     1.0000 0.80977  0.16534  0.98682  Biso   1.000  H
  H378     1.0000 0.84538  0.22332  0.96104  Biso   1.000  H
  H379     1.0000 0.80973  0.16534  0.98682  Biso   1.000  H
  H380     1.0000 0.84529  0.22332  0.96104  Biso   1.000  H
  C424     1.0000 0.87845  0.25965  0.00617  Biso   1.000  C
  C425     1.0000 0.87836  0.25965  0.00617  Biso   1.000  C
  H381     1.0000 0.96881  0.26424  0.94533  Biso   1.000  H
  H382     1.0000 0.96872  0.26424  0.94533  Biso   1.000  H
  C426     1.0000 0.00045  0.29726  0.99112  Biso   1.000  C
  N51      1.0000 0.02581  0.22198  0.95872  Biso   1.000  N
  C427     1.0000 0.00040  0.29726  0.99112  Biso   1.000  C
  N52      1.0000 0.02572  0.22198  0.95872  Biso   1.000  N
  C428     1.0000 0.67910  0.62781  0.99831  Biso   1.000  C
  H383     1.0000 0.66328  0.70733  0.98483  Biso   1.000  H
  H384     1.0000 0.72227  0.73053  0.01014  Biso   1.000  H
  C429     1.0000 0.17964  0.19965  0.84474  Biso   1.000  C
  H385     1.0000 0.76048  0.64166  0.02614  Biso   1.000  H
  H386     1.0000 0.72467  0.56994  0.00874  Biso   1.000  H
  H387     1.0000 0.72462  0.56994  0.00874  Biso   1.000  H
  H388     1.0000 0.40035  0.05523  0.98003  Biso   1.000  H
  C430     1.0000 0.38121  0.12158  0.00617  Biso   1.000  C
  H389     1.0000 0.38755  0.03482  0.01614  Biso   1.000  H
  H390     1.0000 0.37797  0.15465  0.96104  Biso   1.000  H
  H391     1.0000 0.35559  0.19025  0.98682  Biso   1.000  H
  C431     1.0000 0.20460  0.13538  0.95482  Biso   1.000  C
  C432     1.0000 0.94871  0.32088  0.99831  Biso   1.000  C
  C433     1.0000 0.94869  0.32093  0.99831  Biso   1.000  C
  H392     1.0000 0.88115  0.23954  0.02614  Biso   1.000  H
  H393     1.0000 0.84527  0.27535  0.00874  Biso   1.000  H
  H394     1.0000 0.84522  0.27535  0.00874  Biso   1.000  H
  H395     1.0000 0.04408  0.33674  0.98483  Biso   1.000  H
  H396     1.0000 0.00827  0.27773  0.01014  Biso   1.000  H
  C434     1.0000 0.04687  0.22704  0.93070  Biso   1.000  C
  C435     1.0000 0.04678  0.22704  0.93070  Biso   1.000  C
  H397     1.0000 0.65490  0.59965  0.98003  Biso   1.000  H
  H398     1.0000 0.65486  0.59965  0.98003  Biso   1.000  H
  H399     1.0000 0.64728  0.61241  0.01614  Biso   1.000  H
  H400     1.0000 0.64723  0.61241  0.01614  Biso   1.000  H
  C436     1.0000 0.16456  0.19537  0.87810  Biso   1.000  C
  C437     1.0000 0.16450  0.19542  0.87810  Biso   1.000  C
  H401     1.0000 0.43006  0.15475  0.00874  Biso   1.000  H
  H402     1.0000 0.35841  0.11884  0.02614  Biso   1.000  H
  H403     1.0000 0.35836  0.11884  0.02614  Biso   1.000  H
  C438     1.0000 0.17475  0.16240  0.93165  Biso   1.000  C
  H404     1.0000 0.18906  0.12954  0.97574  Biso   1.000  H
  H405     1.0000 0.18901  0.12954  0.97574  Biso   1.000  H
  H406     1.0000 0.94472  0.34511  0.98003  Biso   1.000  H
  H407     1.0000 0.96516  0.35271  0.01614  Biso   1.000  H
  H408     1.0000 0.96519  0.35276  0.01614  Biso   1.000  H
  C439     1.0000 0.09757  0.20710  0.92049  Biso   1.000  C
  H409     1.0000 0.02939  0.24435  0.91544  Biso   1.000  H
  C440     1.0000 0.19379  0.17041  0.89967  Biso   1.000  C
  C441     1.0000 0.11684  0.21412  0.88883  Biso   1.000  C
  C442     1.0000 0.19370  0.17041  0.89967  Biso   1.000  C
  C443     1.0000 0.11675  0.21412  0.88883  Biso   1.000  C
  C444     1.0000 0.12621  0.18033  0.94153  Biso   1.000  C
  H410     1.0000 0.22627  0.15894  0.89274  Biso   1.000  H
  H411     1.0000 0.09770  0.23143  0.87444  Biso   1.000  H
  H412     1.0000 0.09766  0.23143  0.87444  Biso   1.000  H
  H413     1.0000 0.11269  0.17423  0.96273  Biso   1.000  H
  H414     1.0000 0.11260  0.17423  0.96273  Biso   1.000  H
  C445     1.0000 0.70318  0.70273  0.50887  Biso   1.000  C
  C446     1.0000 0.73121  0.75647  0.53524  Biso   1.000  C
  C447     1.0000 0.73119  0.75652  0.53524  Biso   1.000  C
  C448     1.0000 0.62787  0.67912  0.50170  Biso   1.000  C
  C449     1.0000 0.62783  0.67912  0.50170  Biso   1.000  C
  H415     1.0000 0.70734  0.66325  0.51516  Biso   1.000  H
  H416     1.0000 0.73053  0.72226  0.48987  Biso   1.000  H
  C450     1.0000 0.72432  0.81884  0.52632  Biso   1.000  C
  H417     1.0000 0.70456  0.73575  0.55466  Biso   1.000  H
  N53      1.0000 0.80383  0.77802  0.54130  Biso   1.000  N
  C451     1.0000 0.70314  0.70273  0.50887  Biso   1.000  C
  H418     1.0000 0.70452  0.73575  0.55466  Biso   1.000  H
  N54      1.0000 0.80378  0.77802  0.54130  Biso   1.000  N
  C452     1.0000 0.61880  0.74035  0.49382  Biso   1.000  C
  C453     1.0000 0.61875  0.74035  0.49382  Biso   1.000  C
  H419     1.0000 0.59965  0.65488  0.51998  Biso   1.000  H
  H420     1.0000 0.61245  0.64729  0.48387  Biso   1.000  H
  H421     1.0000 0.75145  0.84018  0.50706  Biso   1.000  H
  N55      1.0000 0.74984  0.86953  0.55193  Biso   1.000  N
  C454     1.0000 0.64858  0.79517  0.51964  Biso   1.000  C
  C455     1.0000 0.64854  0.79517  0.51964  Biso   1.000  C
  C456     1.0000 0.81982  0.77295  0.56929  Biso   1.000  C
  C457     1.0000 0.81978  0.77295  0.56929  Biso   1.000  C
  H422     1.0000 0.64165  0.76045  0.47387  Biso   1.000  H
  H423     1.0000 0.56995  0.72464  0.49128  Biso   1.000  H
  H424     1.0000 0.56994  0.72469  0.49128  Biso   1.000  H
  C458     1.0000 0.79540  0.93076  0.54517  Biso   1.000  C
  H425     1.0000 0.64447  0.83465  0.51316  Biso   1.000  H
  H426     1.0000 0.62206  0.77667  0.53897  Biso   1.000  H
  H427     1.0000 0.64442  0.83465  0.51316  Biso   1.000  H
  H428     1.0000 0.62201  0.77667  0.53897  Biso   1.000  H
  C459     1.0000 0.89052  0.79290  0.57952  Biso   1.000  C
  H429     1.0000 0.78503  0.75564  0.58457  Biso   1.000  H
  H430     1.0000 0.81095  0.94047  0.52427  Biso   1.000  H
  C460     1.0000 0.82525  0.98760  0.56834  Biso   1.000  C
  C461     1.0000 0.82521  0.98760  0.56834  Biso   1.000  C
  C462     1.0000 0.94592  0.81966  0.55848  Biso   1.000  C
  C463     1.0000 0.90271  0.78587  0.61119  Biso   1.000  C
  C464     1.0000 0.90269  0.78592  0.61119  Biso   1.000  C
  C465     1.0000 0.80626  0.97664  0.60034  Biso   1.000  C
  C466     1.0000 0.80622  0.97664  0.60034  Biso   1.000  C
  C467     1.0000 0.87376  0.05410  0.55848  Biso   1.000  C
  C468     1.0000 0.87372  0.05410  0.55848  Biso   1.000  C
  H431     1.0000 0.93845  0.82576  0.53726  Biso   1.000  H
  H432     1.0000 0.93841  0.82576  0.53726  Biso   1.000  H
  C469     1.0000 0.01239  0.83759  0.56834  Biso   1.000  C
  C470     1.0000 0.96919  0.80463  0.62192  Biso   1.000  C
  H433     1.0000 0.86627  0.76856  0.62557  Biso   1.000  H
  C471     1.0000 0.96915  0.80463  0.62192  Biso   1.000  C
  H434     1.0000 0.86622  0.76856  0.62557  Biso   1.000  H
  H435     1.0000 0.77376  0.93267  0.60727  Biso   1.000  H
  H436     1.0000 0.77371  0.93267  0.60727  Biso   1.000  H
  C472     1.0000 0.83547  0.03084  0.62192  Biso   1.000  C
  C473     1.0000 0.90240  0.10949  0.57952  Biso   1.000  C
  H437     1.0000 0.88735  0.06159  0.53726  Biso   1.000  H
  C474     1.0000 0.02337  0.82958  0.60034  Biso   1.000  C
  C475     1.0000 0.06926  0.86462  0.54517  Biso   1.000  C
  C476     1.0000 0.02333  0.82958  0.60034  Biso   1.000  C
  C477     1.0000 0.98002  0.80034  0.65525  Biso   1.000  C
  C478     1.0000 0.97998  0.80034  0.65525  Biso   1.000  C
  C479     1.0000 0.88319  0.09729  0.61119  Biso   1.000  C
  C480     1.0000 0.82037  0.01999  0.65525  Biso   1.000  C
  C481     1.0000 0.82028  0.01999  0.65525  Biso   1.000  C
  C482     1.0000 0.95320  0.18023  0.56929  Biso   1.000  C
  H438     1.0000 0.06737  0.84106  0.60727  Biso   1.000  H
  H439     1.0000 0.06733  0.84106  0.60727  Biso   1.000  H
  H440     1.0000 0.05956  0.87046  0.52427  Biso   1.000  H
  N56      1.0000 0.13050  0.88033  0.55193  Biso   1.000  N
  H441     1.0000 0.05952  0.87046  0.52427  Biso   1.000  H
  N57      1.0000 0.13046  0.88033  0.55193  Biso   1.000  N
  C483     1.0000 0.98589  0.79812  0.68317  Biso   1.000  C
  C484     1.0000 0.98585  0.79812  0.68317  Biso   1.000  C
  H442     1.0000 0.90237  0.13377  0.62557  Biso   1.000  H
  H443     1.0000 0.90228  0.13377  0.62557  Biso   1.000  H
  C485     1.0000 0.81228  0.01410  0.68317  Biso   1.000  C
  C486     1.0000 0.81219  0.01410  0.68317  Biso   1.000  C
  N58      1.0000 0.97421  0.19619  0.54130  Biso   1.000  N
  H444     1.0000 0.97066  0.21495  0.58457  Biso   1.000  H
  H445     1.0000 0.97057  0.21495  0.58457  Biso   1.000  H
  C487     1.0000 0.18114  0.90544  0.52632  Biso   1.000  C
  C488     1.0000 0.18116  0.90549  0.52632  Biso   1.000  C
  C489     1.0000 0.99299  0.79791  0.71704  Biso   1.000  C
  C490     1.0000 0.80494  0.00702  0.71704  Biso   1.000  C
  C491     1.0000 0.02532  0.26879  0.53524  Biso   1.000  C
  C492     1.0000 0.02528  0.26879  0.53524  Biso   1.000  C
  H446     1.0000 0.15985  0.91128  0.50706  Biso   1.000  H
  C493     1.0000 0.20481  0.85335  0.51964  Biso   1.000  C
  C494     1.0000 0.24350  0.97468  0.53524  Biso   1.000  C
  C495     1.0000 0.93704  0.76691  0.73622  Biso   1.000  C
  C496     1.0000 0.93700  0.76691  0.73622  Biso   1.000  C
  C497     1.0000 0.05621  0.82571  0.73119  Biso   1.000  C
  C498     1.0000 0.05623  0.82576  0.73119  Biso   1.000  C
  C499     1.0000 0.82988  0.06298  0.73622  Biso   1.000  C
  C500     1.0000 0.76956  0.94378  0.73119  Biso   1.000  C
  C501     1.0000 0.76951  0.94378  0.73119  Biso   1.000  C
  C502     1.0000 0.99961  0.29685  0.50887  Biso   1.000  C
  C503     1.0000 0.09454  0.27566  0.52632  Biso   1.000  C
  H447     1.0000 0.03122  0.29545  0.55466  Biso   1.000  H
  H448     1.0000 0.03118  0.29545  0.55466  Biso   1.000  H
  H449     1.0000 0.16533  0.80974  0.51316  Biso   1.000  H
  H450     1.0000 0.22336  0.84534  0.53897  Biso   1.000  H
  C504     1.0000 0.25967  0.87841  0.49382  Biso   1.000  C
  H451     1.0000 0.22332  0.84534  0.53897  Biso   1.000  H
  C505     1.0000 0.25963  0.87841  0.49382  Biso   1.000  C
  H452     1.0000 0.26427  0.96879  0.55466  Biso   1.000  H
  H453     1.0000 0.26423  0.96879  0.55466  Biso   1.000  H
  C506     1.0000 0.29722  0.00041  0.50887  Biso   1.000  C
  N59      1.0000 0.22202  0.02578  0.54130  Biso   1.000  N
  N60      1.0000 0.22193  0.02578  0.54130  Biso   1.000  N
  H454     1.0000 0.89313  0.74334  0.72727  Biso   1.000  H
  C507     1.0000 0.94382  0.76954  0.76880  Biso   1.000  C
  H455     1.0000 0.09553  0.84224  0.71856  Biso   1.000  H
  C508     1.0000 0.06300  0.82989  0.76379  Biso   1.000  C
  H456     1.0000 0.85024  0.10685  0.72727  Biso   1.000  H
  C509     1.0000 0.82578  0.05621  0.76880  Biso   1.000  C
  C510     1.0000 0.82573  0.05621  0.76880  Biso   1.000  C
  H457     1.0000 0.74676  0.90446  0.71856  Biso   1.000  H
  C511     1.0000 0.76693  0.93701  0.76379  Biso   1.000  C
  H458     1.0000 0.74672  0.90446  0.71856  Biso   1.000  H
  C512     1.0000 0.76689  0.93701  0.76379  Biso   1.000  C
  H459     1.0000 0.95590  0.29266  0.51516  Biso   1.000  H
  H460     1.0000 0.99174  0.26946  0.48987  Biso   1.000  H
  H461     1.0000 0.95599  0.29266  0.51516  Biso   1.000  H
  C513     1.0000 0.05129  0.37219  0.50170  Biso   1.000  C
  N61      1.0000 0.11968  0.25014  0.55193  Biso   1.000  N
  H462     1.0000 0.08879  0.24859  0.50706  Biso   1.000  H
  C514     1.0000 0.14664  0.35141  0.51964  Biso   1.000  C
  H463     1.0000 0.08874  0.24859  0.50706  Biso   1.000  H
  C515     1.0000 0.14660  0.35141  0.51964  Biso   1.000  C
  H464     1.0000 0.23956  0.88115  0.47387  Biso   1.000  H
  H465     1.0000 0.27535  0.84524  0.49128  Biso   1.000  H
  C516     1.0000 0.32093  0.94874  0.50170  Biso   1.000  C
  H466     1.0000 0.23952  0.88115  0.47387  Biso   1.000  H
  H467     1.0000 0.27533  0.84529  0.49128  Biso   1.000  H
  H468     1.0000 0.33673  0.04407  0.51516  Biso   1.000  H
  H469     1.0000 0.27775  0.00826  0.48987  Biso   1.000  H
  C517     1.0000 0.22699  0.04681  0.56929  Biso   1.000  C
  H470     1.0000 0.90450  0.74675  0.78143  Biso   1.000  H
  H471     1.0000 0.90446  0.74675  0.78143  Biso   1.000  H
  C518     1.0000 0.00702  0.80494  0.78295  Biso   1.000  C
  H472     1.0000 0.10692  0.85025  0.77274  Biso   1.000  H
  H473     1.0000 0.10687  0.85025  0.77274  Biso   1.000  H
  C519     1.0000 0.79791  0.99297  0.78295  Biso   1.000  C
  H474     1.0000 0.84230  0.09554  0.78143  Biso   1.000  H
  H475     1.0000 0.84222  0.09554  0.78143  Biso   1.000  H
  H476     1.0000 0.74339  0.89314  0.77274  Biso   1.000  H
  H477     1.0000 0.05521  0.40035  0.51998  Biso   1.000  H
  C520     1.0000 0.12163  0.38123  0.49382  Biso   1.000  C
  H478     1.0000 0.03487  0.38758  0.48387  Biso   1.000  H
  C521     1.0000 0.12154  0.38123  0.49382  Biso   1.000  C
  H479     1.0000 0.03478  0.38758  0.48387  Biso   1.000  H
  C522     1.0000 0.13535  0.20462  0.54517  Biso   1.000  C
  H480     1.0000 0.19019  0.35555  0.51316  Biso   1.000  H
  H481     1.0000 0.15460  0.37797  0.53897  Biso   1.000  H
  H482     1.0000 0.34516  0.94476  0.51998  Biso   1.000  H
  H483     1.0000 0.35277  0.96517  0.48387  Biso   1.000  H
  H484     1.0000 0.34511  0.94476  0.51998  Biso   1.000  H
  H485     1.0000 0.35272  0.96517  0.48387  Biso   1.000  H
  H486     1.0000 0.24430  0.02935  0.58457  Biso   1.000  H
  C523     1.0000 0.20706  0.09760  0.57952  Biso   1.000  C
  C524     1.0000 0.01414  0.81227  0.81682  Biso   1.000  C
  C525     1.0000 0.79818  0.98589  0.81682  Biso   1.000  C
  C526     1.0000 0.79813  0.98589  0.81682  Biso   1.000  C
  H487     1.0000 0.11883  0.35834  0.47387  Biso   1.000  H
  H488     1.0000 0.15469  0.43006  0.49128  Biso   1.000  H
  H489     1.0000 0.11885  0.35839  0.47387  Biso   1.000  H
  C527     1.0000 0.16240  0.17475  0.56834  Biso   1.000  C
  H490     1.0000 0.12955  0.18906  0.52427  Biso   1.000  H
  C528     1.0000 0.18033  0.12623  0.55848  Biso   1.000  C
  C529     1.0000 0.21407  0.11683  0.61119  Biso   1.000  C
  C530     1.0000 0.02005  0.82033  0.84474  Biso   1.000  C
  C531     1.0000 0.02000  0.82033  0.84474  Biso   1.000  C
  C532     1.0000 0.80038  0.98000  0.84474  Biso   1.000  C
  C533     1.0000 0.80033  0.98000  0.84474  Biso   1.000  C
  C534     1.0000 0.17038  0.19376  0.60034  Biso   1.000  C
  H491     1.0000 0.17426  0.11264  0.53726  Biso   1.000  H
  H492     1.0000 0.17419  0.11269  0.53726  Biso   1.000  H
  C535     1.0000 0.19536  0.16452  0.62192  Biso   1.000  C
  H493     1.0000 0.23147  0.09766  0.62557  Biso   1.000  H
  H494     1.0000 0.23142  0.09766  0.62557  Biso   1.000  H
  C536     1.0000 0.03088  0.83547  0.87810  Biso   1.000  C
  C537     1.0000 0.80462  0.96915  0.87810  Biso   1.000  C
  H495     1.0000 0.15893  0.22627  0.60727  Biso   1.000  H
  C538     1.0000 0.19971  0.17966  0.65525  Biso   1.000  C
  C539     1.0000 0.19962  0.17966  0.65525  Biso   1.000  C
  C540     1.0000 0.97666  0.80623  0.89967  Biso   1.000  C
  C541     1.0000 0.09729  0.88317  0.88883  Biso   1.000  C
  C542     1.0000 0.09731  0.88322  0.88883  Biso   1.000  C
  C543     1.0000 0.82957  0.02335  0.89967  Biso   1.000  C
  C544     1.0000 0.78594  0.90270  0.88883  Biso   1.000  C
  C545     1.0000 0.78589  0.90270  0.88883  Biso   1.000  C
  C546     1.0000 0.20182  0.18772  0.68317  Biso   1.000  C
  C547     1.0000 0.20184  0.18777  0.68317  Biso   1.000  C
  C548     1.0000 0.98764  0.82524  0.93165  Biso   1.000  C
  H496     1.0000 0.93266  0.77373  0.89274  Biso   1.000  H
  H497     1.0000 0.13381  0.90234  0.87444  Biso   1.000  H
  C549     1.0000 0.10949  0.90239  0.92049  Biso   1.000  C
  H498     1.0000 0.13377  0.90234  0.87444  Biso   1.000  H
  C550     1.0000 0.83765  0.01240  0.93165  Biso   1.000  C
  H499     1.0000 0.84109  0.06732  0.89274  Biso   1.000  H
  C551     1.0000 0.83756  0.01240  0.93165  Biso   1.000  C
  H500     1.0000 0.84104  0.06732  0.89274  Biso   1.000  H
  H501     1.0000 0.76859  0.86622  0.87444  Biso   1.000  H
  C552     1.0000 0.79295  0.89050  0.92049  Biso   1.000  C
  H502     1.0000 0.76855  0.86622  0.87444  Biso   1.000  H
  C553     1.0000 0.79291  0.89050  0.92049  Biso   1.000  C
  C554     1.0000 0.20204  0.19506  0.71704  Biso   1.000  C
  C555     1.0000 0.93074  0.79538  0.95482  Biso   1.000  C
  C556     1.0000 0.93078  0.79538  0.95482  Biso   1.000  C
  C557     1.0000 0.05410  0.87376  0.94153  Biso   1.000  C
  C558     1.0000 0.18022  0.95318  0.93070  Biso   1.000  C
  C559     1.0000 0.81971  0.94590  0.94153  Biso   1.000  C
  C560     1.0000 0.81966  0.94590  0.94153  Biso   1.000  C
  C561     1.0000 0.86464  0.06924  0.95482  Biso   1.000  C
  C562     1.0000 0.77297  0.81977  0.93070  Biso   1.000  C
  C563     1.0000 0.77300  0.81982  0.93070  Biso   1.000  C
  C564     1.0000 0.17423  0.23045  0.73119  Biso   1.000  C
  C565     1.0000 0.23310  0.17010  0.73622  Biso   1.000  C
  H503     1.0000 0.94048  0.81093  0.97574  Biso   1.000  H
  N62      1.0000 0.86958  0.74986  0.94806  Biso   1.000  N
  N63      1.0000 0.86954  0.74986  0.94806  Biso   1.000  N
  H504     1.0000 0.06161  0.88735  0.96273  Biso   1.000  H
  H505     1.0000 0.06157  0.88735  0.96273  Biso   1.000  H
  H506     1.0000 0.21500  0.97065  0.91544  Biso   1.000  H
  N64      1.0000 0.19624  0.97421  0.95872  Biso   1.000  N
  H507     1.0000 0.21495  0.97065  0.91544  Biso   1.000  H
  N65      1.0000 0.19619  0.97421  0.95872  Biso   1.000  N
  H508     1.0000 0.82576  0.93840  0.96273  Biso   1.000  H
  H509     1.0000 0.82579  0.93846  0.96273  Biso   1.000  H
  H510     1.0000 0.87048  0.05952  0.97574  Biso   1.000  H
  N66      1.0000 0.88026  0.13047  0.94806  Biso   1.000  N
  H511     1.0000 0.75570  0.78504  0.91544  Biso   1.000  H
  N67      1.0000 0.77806  0.80380  0.95872  Biso   1.000  N
  H512     1.0000 0.75566  0.78504  0.91544  Biso   1.000  H
  N68      1.0000 0.77801  0.80380  0.95872  Biso   1.000  N
  C566     1.0000 0.17008  0.23309  0.76379  Biso   1.000  C
  H513     1.0000 0.15770  0.25324  0.71856  Biso   1.000  H
  H514     1.0000 0.15768  0.25329  0.71856  Biso   1.000  H
  H515     1.0000 0.25666  0.14974  0.72727  Biso   1.000  H
  C567     1.0000 0.23049  0.17428  0.76880  Biso   1.000  C
  H516     1.0000 0.25664  0.14979  0.72727  Biso   1.000  H
  C568     1.0000 0.81887  0.72433  0.97367  Biso   1.000  C
  C569     1.0000 0.26882  0.02532  0.96475  Biso   1.000  C
  C570     1.0000 0.90547  0.18116  0.97367  Biso   1.000  C
  C571     1.0000 0.75653  0.73120  0.96475  Biso   1.000  C
  C572     1.0000 0.75648  0.73120  0.96475  Biso   1.000  C
  C573     1.0000 0.19504  0.20208  0.78295  Biso   1.000  C
  H517     1.0000 0.14974  0.25665  0.77274  Biso   1.000  H
  H518     1.0000 0.25324  0.15775  0.78143  Biso   1.000  H
  H519     1.0000 0.84019  0.75141  0.99293  Biso   1.000  H
  C574     1.0000 0.79523  0.64858  0.98034  Biso   1.000  C
  H520     1.0000 0.84018  0.75146  0.99293  Biso   1.000  H
  C575     1.0000 0.79518  0.64858  0.98034  Biso   1.000  C
  C576     1.0000 0.29686  0.99958  0.99112  Biso   1.000  C
  C577     1.0000 0.27565  0.09456  0.97367  Biso   1.000  C
  H521     1.0000 0.29544  0.03121  0.94533  Biso   1.000  H
  H522     1.0000 0.29547  0.03126  0.94533  Biso   1.000  H
  H523     1.0000 0.91123  0.15982  0.99293  Biso   1.000  H
  C578     1.0000 0.85341  0.20482  0.98034  Biso   1.000  C
  C579     1.0000 0.97474  0.24352  0.96475  Biso   1.000  C
  C580     1.0000 0.85332  0.20482  0.98034  Biso   1.000  C
  C581     1.0000 0.97465  0.24352  0.96475  Biso   1.000  C
  C582     1.0000 0.70276  0.70314  0.99112  Biso   1.000  C
  H524     1.0000 0.73581  0.70454  0.94533  Biso   1.000  H
  H525     1.0000 0.73577  0.70454  0.94533  Biso   1.000  H
  C583     1.0000 0.18777  0.20188  0.81682  Biso   1.000  C
  C584     1.0000 0.18773  0.20188  0.81682  Biso   1.000  C
  H526     1.0000 0.83469  0.64445  0.98682  Biso   1.000  H
  H527     1.0000 0.77667  0.62202  0.96104  Biso   1.000  H
  C585     1.0000 0.74040  0.61876  0.00617  Biso   1.000  C
  C586     1.0000 0.74036  0.61876  0.00617  Biso   1.000  C
  H528     1.0000 0.29270  0.95592  0.98483  Biso   1.000  H
  H529     1.0000 0.29266  0.95592  0.98483  Biso   1.000  H
  H530     1.0000 0.26948  0.99173  0.01014  Biso   1.000  H
  H531     1.0000 0.26944  0.99173  0.01014  Biso   1.000  H
  C587     1.0000 0.37218  0.05125  0.99831  Biso   1.000  C
  H532     1.0000 0.24852  0.08872  0.99293  Biso   1.000  H
  C588     1.0000 0.35146  0.14664  0.98034  Biso   1.000  C
  N69      1.0000 0.25017  0.11967  0.94806  Biso   1.000  N
  N70      1.0000 0.25011  0.11972  0.94806  Biso   1.000  N
  H533     1.0000 0.80977  0.16534  0.98682  Biso   1.000  H
  H534     1.0000 0.84538  0.22332  0.96104  Biso   1.000  H
  H535     1.0000 0.80973  0.16534  0.98682  Biso   1.000  H
  H536     1.0000 0.84529  0.22332  0.96104  Biso   1.000  H
  C589     1.0000 0.87845  0.25965  0.00617  Biso   1.000  C
  C590     1.0000 0.87836  0.25965  0.00617  Biso   1.000  C
  H537     1.0000 0.96881  0.26424  0.94533  Biso   1.000  H
  H538     1.0000 0.96872  0.26424  0.94533  Biso   1.000  H
  C591     1.0000 0.00045  0.29726  0.99112  Biso   1.000  C
  N71      1.0000 0.02581  0.22198  0.95872  Biso   1.000  N
  C592     1.0000 0.00040  0.29726  0.99112  Biso   1.000  C
  N72      1.0000 0.02572  0.22198  0.95872  Biso   1.000  N
  C593     1.0000 0.67910  0.62781  0.99831  Biso   1.000  C
  H539     1.0000 0.66328  0.70733  0.98483  Biso   1.000  H
  H540     1.0000 0.72227  0.73053  0.01014  Biso   1.000  H
  C594     1.0000 0.17964  0.19965  0.84474  Biso   1.000  C
  H541     1.0000 0.76048  0.64166  0.02614  Biso   1.000  H
  H542     1.0000 0.72467  0.56994  0.00874  Biso   1.000  H
  H543     1.0000 0.72462  0.56994  0.00874  Biso   1.000  H
  H544     1.0000 0.40035  0.05523  0.98003  Biso   1.000  H
  C595     1.0000 0.38121  0.12158  0.00617  Biso   1.000  C
  H545     1.0000 0.38755  0.03482  0.01614  Biso   1.000  H
  H546     1.0000 0.37797  0.15465  0.96104  Biso   1.000  H
  H547     1.0000 0.35559  0.19025  0.98682  Biso   1.000  H
  C596     1.0000 0.20460  0.13538  0.95482  Biso   1.000  C
  C597     1.0000 0.94871  0.32088  0.99831  Biso   1.000  C
  C598     1.0000 0.94869  0.32093  0.99831  Biso   1.000  C
  H548     1.0000 0.88115  0.23954  0.02614  Biso   1.000  H
  H549     1.0000 0.84527  0.27535  0.00874  Biso   1.000  H
  H550     1.0000 0.84522  0.27535  0.00874  Biso   1.000  H
  H551     1.0000 0.04408  0.33674  0.98483  Biso   1.000  H
  H552     1.0000 0.00827  0.27773  0.01014  Biso   1.000  H
  C599     1.0000 0.04687  0.22704  0.93070  Biso   1.000  C
  C600     1.0000 0.04678  0.22704  0.93070  Biso   1.000  C
  H553     1.0000 0.65490  0.59965  0.98003  Biso   1.000  H
  H554     1.0000 0.65486  0.59965  0.98003  Biso   1.000  H
  H555     1.0000 0.64728  0.61241  0.01614  Biso   1.000  H
  H556     1.0000 0.64723  0.61241  0.01614  Biso   1.000  H
  C601     1.0000 0.16456  0.19537  0.87810  Biso   1.000  C
  C602     1.0000 0.16450  0.19542  0.87810  Biso   1.000  C
  H557     1.0000 0.43006  0.15475  0.00874  Biso   1.000  H
  H558     1.0000 0.35841  0.11884  0.02614  Biso   1.000  H
  H559     1.0000 0.35836  0.11884  0.02614  Biso   1.000  H
  C603     1.0000 0.17475  0.16240  0.93165  Biso   1.000  C
  H560     1.0000 0.18906  0.12954  0.97574  Biso   1.000  H
  H561     1.0000 0.18901  0.12954  0.97574  Biso   1.000  H
  H562     1.0000 0.94472  0.34511  0.98003  Biso   1.000  H
  H563     1.0000 0.96516  0.35271  0.01614  Biso   1.000  H
  H564     1.0000 0.96519  0.35276  0.01614  Biso   1.000  H
  C604     1.0000 0.09757  0.20710  0.92049  Biso   1.000  C
  H565     1.0000 0.02939  0.24435  0.91544  Biso   1.000  H
  C605     1.0000 0.11684  0.21412  0.88883  Biso   1.000  C
  C606     1.0000 0.11675  0.21412  0.88883  Biso   1.000  C
  C607     1.0000 0.19379  0.17041  0.89967  Biso   1.000  C
  C608     1.0000 0.19370  0.17041  0.89967  Biso   1.000  C
  C609     1.0000 0.12621  0.18033  0.94153  Biso   1.000  C
  H566     1.0000 0.09770  0.23143  0.87444  Biso   1.000  H
  H567     1.0000 0.09766  0.23143  0.87444  Biso   1.000  H
  H568     1.0000 0.22627  0.15894  0.89274  Biso   1.000  H
  H569     1.0000 0.11269  0.17423  0.96273  Biso   1.000  H
  H570     1.0000 0.11260  0.17423  0.96273  Biso   1.000  H
  C610     1.0000 0.70318  0.70273  0.50887  Biso   1.000  C
  C611     1.0000 0.73121  0.75647  0.53524  Biso   1.000  C
  C612     1.0000 0.73119  0.75652  0.53524  Biso   1.000  C
  C613     1.0000 0.62787  0.67912  0.50170  Biso   1.000  C
  C614     1.0000 0.62783  0.67912  0.50170  Biso   1.000  C
  H571     1.0000 0.70734  0.66325  0.51516  Biso   1.000  H
  H572     1.0000 0.73053  0.72226  0.48987  Biso   1.000  H
  C615     1.0000 0.72432  0.81884  0.52632  Biso   1.000  C
  H573     1.0000 0.70456  0.73575  0.55466  Biso   1.000  H
  N73      1.0000 0.80383  0.77802  0.54130  Biso   1.000  N
  C616     1.0000 0.70314  0.70273  0.50887  Biso   1.000  C
  H574     1.0000 0.70452  0.73575  0.55466  Biso   1.000  H
  N74      1.0000 0.80378  0.77802  0.54130  Biso   1.000  N
  C617     1.0000 0.61880  0.74035  0.49382  Biso   1.000  C
  C618     1.0000 0.61875  0.74035  0.49382  Biso   1.000  C
  H575     1.0000 0.59965  0.65488  0.51998  Biso   1.000  H
  H576     1.0000 0.61245  0.64729  0.48387  Biso   1.000  H
  H577     1.0000 0.75145  0.84018  0.50706  Biso   1.000  H
  N75      1.0000 0.74984  0.86953  0.55193  Biso   1.000  N
  C619     1.0000 0.64858  0.79517  0.51964  Biso   1.000  C
  C620     1.0000 0.64854  0.79517  0.51964  Biso   1.000  C
  C621     1.0000 0.81982  0.77295  0.56929  Biso   1.000  C
  C622     1.0000 0.81978  0.77295  0.56929  Biso   1.000  C
  H578     1.0000 0.64165  0.76045  0.47387  Biso   1.000  H
  H579     1.0000 0.56995  0.72464  0.49128  Biso   1.000  H
  H580     1.0000 0.56994  0.72469  0.49128  Biso   1.000  H
  C623     1.0000 0.79540  0.93076  0.54517  Biso   1.000  C
  H581     1.0000 0.64447  0.83465  0.51316  Biso   1.000  H
  H582     1.0000 0.62206  0.77667  0.53897  Biso   1.000  H
  H583     1.0000 0.64442  0.83465  0.51316  Biso   1.000  H
  H584     1.0000 0.62201  0.77667  0.53897  Biso   1.000  H
  C624     1.0000 0.89052  0.79290  0.57952  Biso   1.000  C
  H585     1.0000 0.78503  0.75564  0.58457  Biso   1.000  H
  H586     1.0000 0.81095  0.94047  0.52427  Biso   1.000  H
  C625     1.0000 0.82525  0.98760  0.56834  Biso   1.000  C
  C626     1.0000 0.82521  0.98760  0.56834  Biso   1.000  C
  C627     1.0000 0.94592  0.81966  0.55848  Biso   1.000  C
  C628     1.0000 0.90271  0.78587  0.61119  Biso   1.000  C
  C629     1.0000 0.90269  0.78592  0.61119  Biso   1.000  C
  C630     1.0000 0.80626  0.97664  0.60034  Biso   1.000  C
  C631     1.0000 0.80622  0.97664  0.60034  Biso   1.000  C
  C632     1.0000 0.87376  0.05410  0.55848  Biso   1.000  C
  C633     1.0000 0.87372  0.05410  0.55848  Biso   1.000  C
  H587     1.0000 0.93845  0.82576  0.53726  Biso   1.000  H
  H588     1.0000 0.93841  0.82576  0.53726  Biso   1.000  H
  C634     1.0000 0.01239  0.83759  0.56834  Biso   1.000  C
  C635     1.0000 0.96919  0.80463  0.62192  Biso   1.000  C
  H589     1.0000 0.86627  0.76856  0.62557  Biso   1.000  H
  C636     1.0000 0.96915  0.80463  0.62192  Biso   1.000  C
  H590     1.0000 0.86622  0.76856  0.62557  Biso   1.000  H
  H591     1.0000 0.77376  0.93267  0.60727  Biso   1.000  H
  H592     1.0000 0.77371  0.93267  0.60727  Biso   1.000  H
  C637     1.0000 0.83547  0.03084  0.62192  Biso   1.000  C
  C638     1.0000 0.90240  0.10949  0.57952  Biso   1.000  C
  H593     1.0000 0.88735  0.06159  0.53726  Biso   1.000  H
  C639     1.0000 0.02337  0.82958  0.60034  Biso   1.000  C
  C640     1.0000 0.06926  0.86462  0.54517  Biso   1.000  C
  C641     1.0000 0.02333  0.82958  0.60034  Biso   1.000  C
  C642     1.0000 0.98002  0.80034  0.65525  Biso   1.000  C
  C643     1.0000 0.97998  0.80034  0.65525  Biso   1.000  C
  C644     1.0000 0.88319  0.09729  0.61119  Biso   1.000  C
  C645     1.0000 0.82037  0.01999  0.65525  Biso   1.000  C
  C646     1.0000 0.82028  0.01999  0.65525  Biso   1.000  C
  C647     1.0000 0.95320  0.18023  0.56929  Biso   1.000  C
  H594     1.0000 0.06737  0.84106  0.60727  Biso   1.000  H
  H595     1.0000 0.06733  0.84106  0.60727  Biso   1.000  H
  H596     1.0000 0.05956  0.87046  0.52427  Biso   1.000  H
  N76      1.0000 0.13050  0.88033  0.55193  Biso   1.000  N
  H597     1.0000 0.05952  0.87046  0.52427  Biso   1.000  H
  N77      1.0000 0.13046  0.88033  0.55193  Biso   1.000  N
  C648     1.0000 0.98589  0.79812  0.68317  Biso   1.000  C
  C649     1.0000 0.98585  0.79812  0.68317  Biso   1.000  C
  H598     1.0000 0.90237  0.13377  0.62557  Biso   1.000  H
  H599     1.0000 0.90228  0.13377  0.62557  Biso   1.000  H
  C650     1.0000 0.81228  0.01410  0.68317  Biso   1.000  C
  C651     1.0000 0.81219  0.01410  0.68317  Biso   1.000  C
  N78      1.0000 0.97421  0.19619  0.54130  Biso   1.000  N
  H600     1.0000 0.97066  0.21495  0.58457  Biso   1.000  H
  H601     1.0000 0.97057  0.21495  0.58457  Biso   1.000  H
  C652     1.0000 0.18114  0.90544  0.52632  Biso   1.000  C
  C653     1.0000 0.18116  0.90549  0.52632  Biso   1.000  C
  C654     1.0000 0.99299  0.79791  0.71704  Biso   1.000  C
  C655     1.0000 0.80494  0.00702  0.71704  Biso   1.000  C
  C656     1.0000 0.02532  0.26879  0.53524  Biso   1.000  C
  C657     1.0000 0.02528  0.26879  0.53524  Biso   1.000  C
  H602     1.0000 0.15985  0.91128  0.50706  Biso   1.000  H
  C658     1.0000 0.20481  0.85335  0.51964  Biso   1.000  C
  C659     1.0000 0.24350  0.97468  0.53524  Biso   1.000  C
  C660     1.0000 0.93704  0.76691  0.73622  Biso   1.000  C
  C661     1.0000 0.93700  0.76691  0.73622  Biso   1.000  C
  C662     1.0000 0.05621  0.82571  0.73119  Biso   1.000  C
  C663     1.0000 0.05623  0.82576  0.73119  Biso   1.000  C
  C664     1.0000 0.82988  0.06298  0.73622  Biso   1.000  C
  C665     1.0000 0.76956  0.94378  0.73119  Biso   1.000  C
  C666     1.0000 0.76951  0.94378  0.73119  Biso   1.000  C
  C667     1.0000 0.99961  0.29685  0.50887  Biso   1.000  C
  C668     1.0000 0.09454  0.27566  0.52632  Biso   1.000  C
  H603     1.0000 0.03122  0.29545  0.55466  Biso   1.000  H
  H604     1.0000 0.03118  0.29545  0.55466  Biso   1.000  H
  H605     1.0000 0.16533  0.80974  0.51316  Biso   1.000  H
  H606     1.0000 0.22336  0.84534  0.53897  Biso   1.000  H
  C669     1.0000 0.25967  0.87841  0.49382  Biso   1.000  C
  H607     1.0000 0.22332  0.84534  0.53897  Biso   1.000  H
  C670     1.0000 0.25963  0.87841  0.49382  Biso   1.000  C
  H608     1.0000 0.26427  0.96879  0.55466  Biso   1.000  H
  H609     1.0000 0.26423  0.96879  0.55466  Biso   1.000  H
  C671     1.0000 0.29722  0.00041  0.50887  Biso   1.000  C
  N79      1.0000 0.22202  0.02578  0.54130  Biso   1.000  N
  N80      1.0000 0.22193  0.02578  0.54130  Biso   1.000  N
  H610     1.0000 0.89313  0.74334  0.72727  Biso   1.000  H
  C672     1.0000 0.94382  0.76954  0.76880  Biso   1.000  C
  H611     1.0000 0.09553  0.84224  0.71856  Biso   1.000  H
  C673     1.0000 0.06300  0.82989  0.76379  Biso   1.000  C
  H612     1.0000 0.85024  0.10685  0.72727  Biso   1.000  H
  C674     1.0000 0.82578  0.05621  0.76880  Biso   1.000  C
  C675     1.0000 0.82573  0.05621  0.76880  Biso   1.000  C
  H613     1.0000 0.74676  0.90446  0.71856  Biso   1.000  H
  C676     1.0000 0.76693  0.93701  0.76379  Biso   1.000  C
  H614     1.0000 0.74672  0.90446  0.71856  Biso   1.000  H
  C677     1.0000 0.76689  0.93701  0.76379  Biso   1.000  C
  H615     1.0000 0.95590  0.29266  0.51516  Biso   1.000  H
  H616     1.0000 0.99174  0.26946  0.48987  Biso   1.000  H
  H617     1.0000 0.95599  0.29266  0.51516  Biso   1.000  H
  C678     1.0000 0.05129  0.37219  0.50170  Biso   1.000  C
  N81      1.0000 0.11968  0.25014  0.55193  Biso   1.000  N
  H618     1.0000 0.08879  0.24859  0.50706  Biso   1.000  H
  C679     1.0000 0.14664  0.35141  0.51964  Biso   1.000  C
  H619     1.0000 0.08874  0.24859  0.50706  Biso   1.000  H
  C680     1.0000 0.14660  0.35141  0.51964  Biso   1.000  C
  H620     1.0000 0.23956  0.88115  0.47387  Biso   1.000  H
  H621     1.0000 0.27535  0.84524  0.49128  Biso   1.000  H
  C681     1.0000 0.32093  0.94874  0.50170  Biso   1.000  C
  H622     1.0000 0.23952  0.88115  0.47387  Biso   1.000  H
  H623     1.0000 0.27533  0.84529  0.49128  Biso   1.000  H
  H624     1.0000 0.33673  0.04407  0.51516  Biso   1.000  H
  H625     1.0000 0.27775  0.00826  0.48987  Biso   1.000  H
  C682     1.0000 0.22699  0.04681  0.56929  Biso   1.000  C
  H626     1.0000 0.90450  0.74675  0.78143  Biso   1.000  H
  H627     1.0000 0.90446  0.74675  0.78143  Biso   1.000  H
  C683     1.0000 0.00702  0.80494  0.78295  Biso   1.000  C
  H628     1.0000 0.10692  0.85025  0.77274  Biso   1.000  H
  H629     1.0000 0.10687  0.85025  0.77274  Biso   1.000  H
  C684     1.0000 0.79791  0.99297  0.78295  Biso   1.000  C
  H630     1.0000 0.84230  0.09554  0.78143  Biso   1.000  H
  H631     1.0000 0.84222  0.09554  0.78143  Biso   1.000  H
  H632     1.0000 0.74339  0.89314  0.77274  Biso   1.000  H
  H633     1.0000 0.05521  0.40035  0.51998  Biso   1.000  H
  C685     1.0000 0.12163  0.38123  0.49382  Biso   1.000  C
  H634     1.0000 0.03487  0.38758  0.48387  Biso   1.000  H
  C686     1.0000 0.12154  0.38123  0.49382  Biso   1.000  C
  H635     1.0000 0.03478  0.38758  0.48387  Biso   1.000  H
  C687     1.0000 0.13535  0.20462  0.54517  Biso   1.000  C
  H636     1.0000 0.19019  0.35555  0.51316  Biso   1.000  H
  H637     1.0000 0.15460  0.37797  0.53897  Biso   1.000  H
  H638     1.0000 0.34516  0.94476  0.51998  Biso   1.000  H
  H639     1.0000 0.35277  0.96517  0.48387  Biso   1.000  H
  H640     1.0000 0.34511  0.94476  0.51998  Biso   1.000  H
  H641     1.0000 0.35272  0.96517  0.48387  Biso   1.000  H
  H642     1.0000 0.24430  0.02935  0.58457  Biso   1.000  H
  C688     1.0000 0.20706  0.09760  0.57952  Biso   1.000  C
  C689     1.0000 0.01414  0.81227  0.81682  Biso   1.000  C
  C690     1.0000 0.79818  0.98589  0.81682  Biso   1.000  C
  C691     1.0000 0.79813  0.98589  0.81682  Biso   1.000  C
  H643     1.0000 0.11883  0.35834  0.47387  Biso   1.000  H
  H644     1.0000 0.15469  0.43006  0.49128  Biso   1.000  H
  H645     1.0000 0.11885  0.35839  0.47387  Biso   1.000  H
  C692     1.0000 0.16240  0.17475  0.56834  Biso   1.000  C
  H646     1.0000 0.12955  0.18906  0.52427  Biso   1.000  H
  C693     1.0000 0.18033  0.12623  0.55848  Biso   1.000  C
  C694     1.0000 0.21407  0.11683  0.61119  Biso   1.000  C
  C695     1.0000 0.02005  0.82033  0.84474  Biso   1.000  C
  C696     1.0000 0.02000  0.82033  0.84474  Biso   1.000  C
  C697     1.0000 0.80038  0.98000  0.84474  Biso   1.000  C
  C698     1.0000 0.80033  0.98000  0.84474  Biso   1.000  C
  C699     1.0000 0.17038  0.19376  0.60034  Biso   1.000  C
  H647     1.0000 0.17426  0.11264  0.53726  Biso   1.000  H
  H648     1.0000 0.17419  0.11269  0.53726  Biso   1.000  H
  C700     1.0000 0.19536  0.16452  0.62192  Biso   1.000  C
  H649     1.0000 0.23147  0.09766  0.62557  Biso   1.000  H
  H650     1.0000 0.23142  0.09766  0.62557  Biso   1.000  H
  C701     1.0000 0.03088  0.83547  0.87810  Biso   1.000  C
  C702     1.0000 0.80462  0.96915  0.87810  Biso   1.000  C
  H651     1.0000 0.15893  0.22627  0.60727  Biso   1.000  H
  C703     1.0000 0.19971  0.17966  0.65525  Biso   1.000  C
  C704     1.0000 0.19962  0.17966  0.65525  Biso   1.000  C
  C705     1.0000 0.97666  0.80623  0.89967  Biso   1.000  C
  C706     1.0000 0.09729  0.88317  0.88883  Biso   1.000  C
  C707     1.0000 0.09731  0.88322  0.88883  Biso   1.000  C
  C708     1.0000 0.82957  0.02335  0.89967  Biso   1.000  C
  C709     1.0000 0.78594  0.90270  0.88883  Biso   1.000  C
  C710     1.0000 0.78589  0.90270  0.88883  Biso   1.000  C
  C711     1.0000 0.20182  0.18772  0.68317  Biso   1.000  C
  C712     1.0000 0.20184  0.18777  0.68317  Biso   1.000  C
  C713     1.0000 0.98764  0.82524  0.93165  Biso   1.000  C
  H652     1.0000 0.93266  0.77373  0.89274  Biso   1.000  H
  H653     1.0000 0.13381  0.90234  0.87444  Biso   1.000  H
  C714     1.0000 0.10949  0.90239  0.92049  Biso   1.000  C
  H654     1.0000 0.13377  0.90234  0.87444  Biso   1.000  H
  C715     1.0000 0.83765  0.01240  0.93165  Biso   1.000  C
  H655     1.0000 0.84109  0.06732  0.89274  Biso   1.000  H
  C716     1.0000 0.83756  0.01240  0.93165  Biso   1.000  C
  H656     1.0000 0.84104  0.06732  0.89274  Biso   1.000  H
  H657     1.0000 0.76859  0.86622  0.87444  Biso   1.000  H
  C717     1.0000 0.79295  0.89050  0.92049  Biso   1.000  C
  H658     1.0000 0.76855  0.86622  0.87444  Biso   1.000  H
  C718     1.0000 0.79291  0.89050  0.92049  Biso   1.000  C
  C719     1.0000 0.20204  0.19506  0.71704  Biso   1.000  C
  C720     1.0000 0.93078  0.79538  0.95482  Biso   1.000  C
  C721     1.0000 0.93074  0.79538  0.95482  Biso   1.000  C
  C722     1.0000 0.05410  0.87376  0.94153  Biso   1.000  C
  C723     1.0000 0.18022  0.95318  0.93070  Biso   1.000  C
  C724     1.0000 0.81971  0.94590  0.94153  Biso   1.000  C
  C725     1.0000 0.81966  0.94590  0.94153  Biso   1.000  C
  C726     1.0000 0.86464  0.06924  0.95482  Biso   1.000  C
  C727     1.0000 0.77297  0.81977  0.93070  Biso   1.000  C
  C728     1.0000 0.77300  0.81982  0.93070  Biso   1.000  C
  C729     1.0000 0.17423  0.23045  0.73119  Biso   1.000  C
  C730     1.0000 0.23310  0.17010  0.73622  Biso   1.000  C
  H659     1.0000 0.94048  0.81093  0.97574  Biso   1.000  H
  N82      1.0000 0.86958  0.74986  0.94806  Biso   1.000  N
  N83      1.0000 0.86954  0.74986  0.94806  Biso   1.000  N
  H660     1.0000 0.06161  0.88735  0.96273  Biso   1.000  H
  H661     1.0000 0.06157  0.88735  0.96273  Biso   1.000  H
  H662     1.0000 0.21500  0.97065  0.91544  Biso   1.000  H
  N84      1.0000 0.19624  0.97421  0.95872  Biso   1.000  N
  H663     1.0000 0.21495  0.97065  0.91544  Biso   1.000  H
  N85      1.0000 0.19619  0.97421  0.95872  Biso   1.000  N
  H664     1.0000 0.82576  0.93840  0.96273  Biso   1.000  H
  H665     1.0000 0.82579  0.93846  0.96273  Biso   1.000  H
  H666     1.0000 0.87048  0.05952  0.97574  Biso   1.000  H
  N86      1.0000 0.88026  0.13047  0.94806  Biso   1.000  N
  H667     1.0000 0.75570  0.78504  0.91544  Biso   1.000  H
  N87      1.0000 0.77806  0.80380  0.95872  Biso   1.000  N
  H668     1.0000 0.75566  0.78504  0.91544  Biso   1.000  H
  N88      1.0000 0.77801  0.80380  0.95872  Biso   1.000  N
  C731     1.0000 0.17008  0.23309  0.76379  Biso   1.000  C
  H669     1.0000 0.15770  0.25324  0.71856  Biso   1.000  H
  H670     1.0000 0.15768  0.25329  0.71856  Biso   1.000  H
  H671     1.0000 0.25666  0.14974  0.72727  Biso   1.000  H
  C732     1.0000 0.23049  0.17428  0.76880  Biso   1.000  C
  H672     1.0000 0.25664  0.14979  0.72727  Biso   1.000  H
  C733     1.0000 0.81887  0.72433  0.97367  Biso   1.000  C
  C734     1.0000 0.26882  0.02532  0.96475  Biso   1.000  C
  C735     1.0000 0.90547  0.18116  0.97367  Biso   1.000  C
  C736     1.0000 0.75653  0.73120  0.96475  Biso   1.000  C
  C737     1.0000 0.75648  0.73120  0.96475  Biso   1.000  C
  C738     1.0000 0.19504  0.20208  0.78295  Biso   1.000  C
  H673     1.0000 0.14974  0.25665  0.77274  Biso   1.000  H
  H674     1.0000 0.25324  0.15775  0.78143  Biso   1.000  H
  H675     1.0000 0.84019  0.75141  0.99293  Biso   1.000  H
  C739     1.0000 0.79523  0.64858  0.98034  Biso   1.000  C
  H676     1.0000 0.84018  0.75146  0.99293  Biso   1.000  H
  C740     1.0000 0.79518  0.64858  0.98034  Biso   1.000  C
  C741     1.0000 0.29686  0.99958  0.99112  Biso   1.000  C
  C742     1.0000 0.27565  0.09456  0.97367  Biso   1.000  C
  H677     1.0000 0.29544  0.03121  0.94533  Biso   1.000  H
  H678     1.0000 0.29547  0.03126  0.94533  Biso   1.000  H
  H679     1.0000 0.91123  0.15982  0.99293  Biso   1.000  H
  C743     1.0000 0.85341  0.20482  0.98034  Biso   1.000  C
  C744     1.0000 0.97474  0.24352  0.96475  Biso   1.000  C
  C745     1.0000 0.85332  0.20482  0.98034  Biso   1.000  C
  C746     1.0000 0.97465  0.24352  0.96475  Biso   1.000  C
  C747     1.0000 0.70276  0.70314  0.99112  Biso   1.000  C
  H680     1.0000 0.73581  0.70454  0.94533  Biso   1.000  H
  H681     1.0000 0.73577  0.70454  0.94533  Biso   1.000  H
  C748     1.0000 0.18777  0.20188  0.81682  Biso   1.000  C
  C749     1.0000 0.18773  0.20188  0.81682  Biso   1.000  C
  H682     1.0000 0.83469  0.64445  0.98682  Biso   1.000  H
  H683     1.0000 0.77667  0.62202  0.96104  Biso   1.000  H
  C750     1.0000 0.74040  0.61876  0.00617  Biso   1.000  C
  C751     1.0000 0.74036  0.61876  0.00617  Biso   1.000  C
  H684     1.0000 0.29270  0.95592  0.98483  Biso   1.000  H
  H685     1.0000 0.29266  0.95592  0.98483  Biso   1.000  H
  H686     1.0000 0.26948  0.99173  0.01014  Biso   1.000  H
  H687     1.0000 0.26944  0.99173  0.01014  Biso   1.000  H
  C752     1.0000 0.37218  0.05125  0.99831  Biso   1.000  C
  H688     1.0000 0.24852  0.08872  0.99293  Biso   1.000  H
  C753     1.0000 0.35146  0.14664  0.98034  Biso   1.000  C
  N89      1.0000 0.25017  0.11967  0.94806  Biso   1.000  N
  N90      1.0000 0.25011  0.11972  0.94806  Biso   1.000  N
  H689     1.0000 0.80977  0.16534  0.98682  Biso   1.000  H
  H690     1.0000 0.84538  0.22332  0.96104  Biso   1.000  H
  H691     1.0000 0.80973  0.16534  0.98682  Biso   1.000  H
  H692     1.0000 0.84529  0.22332  0.96104  Biso   1.000  H
  C754     1.0000 0.87845  0.25965  0.00617  Biso   1.000  C
  C755     1.0000 0.87836  0.25965  0.00617  Biso   1.000  C
  H693     1.0000 0.96881  0.26424  0.94533  Biso   1.000  H
  H694     1.0000 0.96872  0.26424  0.94533  Biso   1.000  H
  C756     1.0000 0.00045  0.29726  0.99112  Biso   1.000  C
  N91      1.0000 0.02581  0.22198  0.95872  Biso   1.000  N
  C757     1.0000 0.00040  0.29726  0.99112  Biso   1.000  C
  N92      1.0000 0.02572  0.22198  0.95872  Biso   1.000  N
  C758     1.0000 0.67910  0.62781  0.99831  Biso   1.000  C
  H695     1.0000 0.66328  0.70733  0.98483  Biso   1.000  H
  H696     1.0000 0.72227  0.73053  0.01014  Biso   1.000  H
  C759     1.0000 0.17964  0.19965  0.84474  Biso   1.000  C
  H697     1.0000 0.76048  0.64166  0.02614  Biso   1.000  H
  H698     1.0000 0.72467  0.56994  0.00874  Biso   1.000  H
  H699     1.0000 0.72462  0.56994  0.00874  Biso   1.000  H
  H700     1.0000 0.40035  0.05523  0.98003  Biso   1.000  H
  C760     1.0000 0.38121  0.12158  0.00617  Biso   1.000  C
  H701     1.0000 0.38755  0.03482  0.01614  Biso   1.000  H
  H702     1.0000 0.37797  0.15465  0.96104  Biso   1.000  H
  H703     1.0000 0.35559  0.19025  0.98682  Biso   1.000  H
  C761     1.0000 0.20460  0.13538  0.95482  Biso   1.000  C
  C762     1.0000 0.94871  0.32088  0.99831  Biso   1.000  C
  C763     1.0000 0.94869  0.32093  0.99831  Biso   1.000  C
  H704     1.0000 0.88115  0.23954  0.02614  Biso   1.000  H
  H705     1.0000 0.84527  0.27535  0.00874  Biso   1.000  H
  H706     1.0000 0.84522  0.27535  0.00874  Biso   1.000  H
  H707     1.0000 0.04408  0.33674  0.98483  Biso   1.000  H
  H708     1.0000 0.00827  0.27773  0.01014  Biso   1.000  H
  C764     1.0000 0.04687  0.22704  0.93070  Biso   1.000  C
  C765     1.0000 0.04678  0.22704  0.93070  Biso   1.000  C
  H709     1.0000 0.65490  0.59965  0.98003  Biso   1.000  H
  H710     1.0000 0.65486  0.59965  0.98003  Biso   1.000  H
  H711     1.0000 0.64728  0.61241  0.01614  Biso   1.000  H
  H712     1.0000 0.64723  0.61241  0.01614  Biso   1.000  H
  C766     1.0000 0.16456  0.19537  0.87810  Biso   1.000  C
  C767     1.0000 0.16450  0.19542  0.87810  Biso   1.000  C
  H713     1.0000 0.43006  0.15475  0.00874  Biso   1.000  H
  H714     1.0000 0.35841  0.11884  0.02614  Biso   1.000  H
  H715     1.0000 0.35836  0.11884  0.02614  Biso   1.000  H
  C768     1.0000 0.17475  0.16240  0.93165  Biso   1.000  C
  H716     1.0000 0.18906  0.12954  0.97574  Biso   1.000  H
  H717     1.0000 0.18901  0.12954  0.97574  Biso   1.000  H
  H718     1.0000 0.94472  0.34511  0.98003  Biso   1.000  H
  H719     1.0000 0.96516  0.35271  0.01614  Biso   1.000  H
  H720     1.0000 0.96519  0.35276  0.01614  Biso   1.000  H
  C769     1.0000 0.09757  0.20710  0.92049  Biso   1.000  C
  H721     1.0000 0.02939  0.24435  0.91544  Biso   1.000  H
  C770     1.0000 0.11684  0.21412  0.88883  Biso   1.000  C
  C771     1.0000 0.11675  0.21412  0.88883  Biso   1.000  C
  C772     1.0000 0.19379  0.17041  0.89967  Biso   1.000  C
  C773     1.0000 0.19370  0.17041  0.89967  Biso   1.000  C
  C774     1.0000 0.12621  0.18033  0.94153  Biso   1.000  C
  H722     1.0000 0.09770  0.23143  0.87444  Biso   1.000  H
  H723     1.0000 0.09766  0.23143  0.87444  Biso   1.000  H
  H724     1.0000 0.22627  0.15894  0.89274  Biso   1.000  H
  H725     1.0000 0.11269  0.17423  0.96273  Biso   1.000  H
  H726     1.0000 0.11260  0.17423  0.96273  Biso   1.000  H
  C775     1.0000 0.79516  0.14664  0.48036  Biso   1.000  C
  C776     1.0000 0.74035  0.12158  0.50618  Biso   1.000  C
  C777     1.0000 0.74039  0.12158  0.50618  Biso   1.000  C
  C778     1.0000 0.81888  0.09456  0.47368  Biso   1.000  C
  H727     1.0000 0.83469  0.19025  0.48684  Biso   1.000  H
  H728     1.0000 0.77666  0.15465  0.46103  Biso   1.000  H
  C779     1.0000 0.81884  0.09456  0.47368  Biso   1.000  C
  H729     1.0000 0.83464  0.19025  0.48684  Biso   1.000  H
  C780     1.0000 0.67905  0.05126  0.49830  Biso   1.000  C
  C781     1.0000 0.79521  0.14664  0.48036  Biso   1.000  C
  H730     1.0000 0.76046  0.11884  0.52613  Biso   1.000  H
  H731     1.0000 0.72467  0.15476  0.50872  Biso   1.000  H
  C782     1.0000 0.67909  0.05126  0.49830  Biso   1.000  C
  C783     1.0000 0.75652  0.02532  0.46476  Biso   1.000  C
  C784     1.0000 0.75647  0.02532  0.46476  Biso   1.000  C
  H732     1.0000 0.84017  0.08872  0.49294  Biso   1.000  H
  N93      1.0000 0.86952  0.11967  0.44807  Biso   1.000  N
  H733     1.0000 0.84013  0.08872  0.49294  Biso   1.000  H
  N94      1.0000 0.86959  0.11972  0.44807  Biso   1.000  N
  N95      1.0000 0.86954  0.11972  0.44807  Biso   1.000  N
  H734     1.0000 0.65486  0.05524  0.48002  Biso   1.000  H
  H735     1.0000 0.64725  0.03483  0.51613  Biso   1.000  H
  C785     1.0000 0.70280  0.99959  0.49113  Biso   1.000  C
  C786     1.0000 0.70275  0.99959  0.49113  Biso   1.000  C
  H736     1.0000 0.73575  0.03121  0.44534  Biso   1.000  H
  H737     1.0000 0.73577  0.03126  0.44534  Biso   1.000  H
  N96      1.0000 0.77800  0.97422  0.45870  Biso   1.000  N
  C787     1.0000 0.93076  0.13538  0.45483  Biso   1.000  C
  C788     1.0000 0.93071  0.13538  0.45483  Biso   1.000  C
  H738     1.0000 0.66329  0.95592  0.48484  Biso   1.000  H
  H739     1.0000 0.72227  0.99173  0.51013  Biso   1.000  H
  C789     1.0000 0.77299  0.95319  0.43071  Biso   1.000  C
  C790     1.0000 0.98763  0.16240  0.43166  Biso   1.000  C
  H740     1.0000 0.94046  0.12954  0.47573  Biso   1.000  H
  C791     1.0000 0.98759  0.16240  0.43166  Biso   1.000  C
  C792     1.0000 0.79296  0.90239  0.42048  Biso   1.000  C
  H741     1.0000 0.75567  0.97065  0.41543  Biso   1.000  H
  C793     1.0000 0.79288  0.90239  0.42048  Biso   1.000  C
  C794     1.0000 0.97665  0.17041  0.39966  Biso   1.000  C
  C795     1.0000 0.05410  0.18033  0.44152  Biso   1.000  C
  C796     1.0000 0.05405  0.18033  0.44152  Biso   1.000  C
  C797     1.0000 0.78595  0.88317  0.38881  Biso   1.000  C
  C798     1.0000 0.81973  0.87377  0.44152  Biso   1.000  C
  C799     1.0000 0.78589  0.88322  0.38881  Biso   1.000  C
  C800     1.0000 0.81964  0.87377  0.44152  Biso   1.000  C
  H742     1.0000 0.93265  0.15894  0.39273  Biso   1.000  H
  C801     1.0000 0.03083  0.19537  0.37808  Biso   1.000  C
  C802     1.0000 0.03086  0.19542  0.37808  Biso   1.000  C
  C803     1.0000 0.10950  0.20710  0.42048  Biso   1.000  C
  H743     1.0000 0.06157  0.17424  0.46274  Biso   1.000  H
  C804     1.0000 0.10946  0.20710  0.42048  Biso   1.000  C
  C805     1.0000 0.80466  0.83548  0.37808  Biso   1.000  C
  H744     1.0000 0.76860  0.90234  0.37443  Biso   1.000  H
  C806     1.0000 0.80461  0.83548  0.37808  Biso   1.000  C
  C807     1.0000 0.83767  0.82525  0.43166  Biso   1.000  C
  H745     1.0000 0.82577  0.88736  0.46274  Biso   1.000  H
  C808     1.0000 0.83762  0.82525  0.43166  Biso   1.000  C
  C809     1.0000 0.09731  0.21413  0.38881  Biso   1.000  C
  C810     1.0000 0.02000  0.19966  0.34475  Biso   1.000  C
  C811     1.0000 0.18020  0.22704  0.43071  Biso   1.000  C
  C812     1.0000 0.82959  0.80623  0.39966  Biso   1.000  C
  C813     1.0000 0.80031  0.82034  0.34475  Biso   1.000  C
  C814     1.0000 0.82955  0.80623  0.39966  Biso   1.000  C
  C815     1.0000 0.86462  0.79538  0.45483  Biso   1.000  C
  H746     1.0000 0.13375  0.23144  0.37443  Biso   1.000  H
  C816     1.0000 0.01413  0.20188  0.31683  Biso   1.000  C
  H747     1.0000 0.21499  0.24435  0.41543  Biso   1.000  H
  N97      1.0000 0.19619  0.22198  0.45870  Biso   1.000  N
  H748     1.0000 0.21494  0.24435  0.41543  Biso   1.000  H
  H749     1.0000 0.84113  0.77373  0.39273  Biso   1.000  H
  H750     1.0000 0.84104  0.77373  0.39273  Biso   1.000  H
  C817     1.0000 0.79816  0.81228  0.31683  Biso   1.000  C
  C818     1.0000 0.79812  0.81228  0.31683  Biso   1.000  C
  H751     1.0000 0.87052  0.81093  0.47573  Biso   1.000  H
  N98      1.0000 0.88034  0.74986  0.44807  Biso   1.000  N
  H752     1.0000 0.87043  0.81093  0.47573  Biso   1.000  H
  C819     1.0000 0.00703  0.20209  0.28296  Biso   1.000  C
  C820     1.0000 0.00698  0.20209  0.28296  Biso   1.000  C
  C821     1.0000 0.26881  0.24353  0.46476  Biso   1.000  C
  C822     1.0000 0.79798  0.80494  0.28296  Biso   1.000  C
  C823     1.0000 0.79794  0.80494  0.28296  Biso   1.000  C
  C824     1.0000 0.90553  0.72433  0.47368  Biso   1.000  C
  C825     1.0000 0.90544  0.72433  0.47368  Biso   1.000  C
  C826     1.0000 0.94381  0.17429  0.26881  Biso   1.000  C
  C827     1.0000 0.94377  0.17429  0.26881  Biso   1.000  C
  C828     1.0000 0.06298  0.23309  0.26378  Biso   1.000  C
  C829     1.0000 0.27571  0.18116  0.47368  Biso   1.000  C
  C830     1.0000 0.29684  0.29727  0.49113  Biso   1.000  C
  H753     1.0000 0.29546  0.26425  0.44534  Biso   1.000  H
  C831     1.0000 0.27566  0.18116  0.47368  Biso   1.000  C
  C832     1.0000 0.82579  0.76955  0.26881  Biso   1.000  C
  C833     1.0000 0.76696  0.82990  0.26378  Biso   1.000  C
  C834     1.0000 0.82570  0.76955  0.26881  Biso   1.000  C
  C835     1.0000 0.76688  0.82990  0.26378  Biso   1.000  C
  H754     1.0000 0.91128  0.75141  0.49294  Biso   1.000  H
  C836     1.0000 0.85338  0.64858  0.48036  Biso   1.000  C
  C837     1.0000 0.97470  0.73121  0.46476  Biso   1.000  C
  H755     1.0000 0.91131  0.75146  0.49294  Biso   1.000  H
  H756     1.0000 0.90449  0.15775  0.28144  Biso   1.000  H
  C838     1.0000 0.93702  0.17010  0.23621  Biso   1.000  C
  H757     1.0000 0.90445  0.15775  0.28144  Biso   1.000  H
  C839     1.0000 0.93698  0.17010  0.23621  Biso   1.000  C
  H758     1.0000 0.10689  0.25665  0.27273  Biso   1.000  H
  C840     1.0000 0.05620  0.23045  0.23120  Biso   1.000  C
  H759     1.0000 0.10685  0.25665  0.27273  Biso   1.000  H
  C841     1.0000 0.05616  0.23045  0.23120  Biso   1.000  C
  H760     1.0000 0.24857  0.15982  0.49294  Biso   1.000  H
  C842     1.0000 0.35144  0.20483  0.48036  Biso   1.000  C
  N99      1.0000 0.25018  0.13047  0.44807  Biso   1.000  N
  H761     1.0000 0.24852  0.15982  0.49294  Biso   1.000  H
  N100     1.0000 0.25014  0.13047  0.44807  Biso   1.000  N
  C843     1.0000 0.37215  0.32088  0.49830  Biso   1.000  C
  H762     1.0000 0.29268  0.33674  0.48484  Biso   1.000  H
  H763     1.0000 0.26949  0.27773  0.51013  Biso   1.000  H
  C844     1.0000 0.37217  0.32093  0.49830  Biso   1.000  C
  H764     1.0000 0.29264  0.33674  0.48484  Biso   1.000  H
  H765     1.0000 0.26944  0.27773  0.51013  Biso   1.000  H
  H766     1.0000 0.84228  0.74676  0.28144  Biso   1.000  H
  C845     1.0000 0.82994  0.76691  0.23621  Biso   1.000  C
  H767     1.0000 0.74336  0.85026  0.27273  Biso   1.000  H
  C846     1.0000 0.76957  0.82571  0.23120  Biso   1.000  C
  C847     1.0000 0.76951  0.82576  0.23120  Biso   1.000  C
  H768     1.0000 0.80983  0.64445  0.48684  Biso   1.000  H
  H769     1.0000 0.84542  0.62202  0.46103  Biso   1.000  H
  C848     1.0000 0.87843  0.61877  0.50618  Biso   1.000  C
  H770     1.0000 0.80978  0.64445  0.48684  Biso   1.000  H
  H771     1.0000 0.84533  0.62202  0.46103  Biso   1.000  H
  H772     1.0000 0.96880  0.70454  0.44534  Biso   1.000  H
  C849     1.0000 0.00045  0.70315  0.49113  Biso   1.000  C
  N101     1.0000 0.02581  0.80380  0.45870  Biso   1.000  N
  C850     1.0000 0.00036  0.70315  0.49113  Biso   1.000  C
  C851     1.0000 0.99300  0.19506  0.21705  Biso   1.000  C
  H773     1.0000 0.89310  0.14974  0.22726  Biso   1.000  H
  C852     1.0000 0.99295  0.19506  0.21705  Biso   1.000  C
  H774     1.0000 0.89313  0.14980  0.22726  Biso   1.000  H
  H775     1.0000 0.09552  0.25324  0.21857  Biso   1.000  H
  H776     1.0000 0.09555  0.25329  0.21857  Biso   1.000  H
  H777     1.0000 0.35555  0.16535  0.48684  Biso   1.000  H
  H778     1.0000 0.37796  0.22332  0.46103  Biso   1.000  H
  C853     1.0000 0.38122  0.25965  0.50618  Biso   1.000  C
  C854     1.0000 0.20462  0.06924  0.45483  Biso   1.000  C
  C855     1.0000 0.20458  0.06924  0.45483  Biso   1.000  C
  H779     1.0000 0.40037  0.34511  0.48002  Biso   1.000  H
  H780     1.0000 0.38757  0.35271  0.51613  Biso   1.000  H
  H781     1.0000 0.40033  0.34511  0.48002  Biso   1.000  H
  H782     1.0000 0.38755  0.35276  0.51613  Biso   1.000  H
  C856     1.0000 0.80498  0.79791  0.21705  Biso   1.000  C
  H783     1.0000 0.85028  0.74335  0.22726  Biso   1.000  H
  C857     1.0000 0.80489  0.79791  0.21705  Biso   1.000  C
  H784     1.0000 0.85019  0.74335  0.22726  Biso   1.000  H
  H785     1.0000 0.74678  0.84225  0.21857  Biso   1.000  H
  H786     1.0000 0.74674  0.84225  0.21857  Biso   1.000  H
  H787     1.0000 0.88124  0.64166  0.52613  Biso   1.000  H
  H788     1.0000 0.84529  0.56994  0.50872  Biso   1.000  H
  C858     1.0000 0.94873  0.62781  0.49830  Biso   1.000  C
  H789     1.0000 0.88115  0.64166  0.52613  Biso   1.000  H
  H790     1.0000 0.04407  0.70733  0.48484  Biso   1.000  H
  H791     1.0000 0.00833  0.73053  0.51013  Biso   1.000  H
  H792     1.0000 0.00828  0.73053  0.51013  Biso   1.000  H
  C859     1.0000 0.04682  0.81977  0.43071  Biso   1.000  C
  C860     1.0000 0.04684  0.81982  0.43071  Biso   1.000  C
  C861     1.0000 0.98588  0.18772  0.18318  Biso   1.000  C
  C862     1.0000 0.98586  0.18777  0.18318  Biso   1.000  C
  H793     1.0000 0.35837  0.23955  0.52613  Biso   1.000  H
  H794     1.0000 0.43007  0.27536  0.50872  Biso   1.000  H
  H795     1.0000 0.35833  0.23955  0.52613  Biso   1.000  H
  C863     1.0000 0.17477  0.01240  0.43166  Biso   1.000  C
  H796     1.0000 0.18907  0.05953  0.47573  Biso   1.000  H
  H797     1.0000 0.18902  0.05953  0.47573  Biso   1.000  H
  C864     1.0000 0.81225  0.79812  0.18318  Biso   1.000  C
  H798     1.0000 0.94481  0.59965  0.48002  Biso   1.000  H
  H799     1.0000 0.96515  0.61241  0.51613  Biso   1.000  H
  H800     1.0000 0.02937  0.78505  0.41543  Biso   1.000  H
  C865     1.0000 0.09762  0.89051  0.42048  Biso   1.000  C
  C866     1.0000 0.97997  0.17966  0.15526  Biso   1.000  C
  C867     1.0000 0.12626  0.94590  0.44152  Biso   1.000  C
  C868     1.0000 0.12617  0.94590  0.44152  Biso   1.000  C
  C869     1.0000 0.19376  0.02336  0.39966  Biso   1.000  C
  C870     1.0000 0.82038  0.80034  0.15526  Biso   1.000  C
  C871     1.0000 0.11679  0.90270  0.38881  Biso   1.000  C
  C872     1.0000 0.96914  0.16452  0.12190  Biso   1.000  C
  C873     1.0000 0.96909  0.16452  0.12190  Biso   1.000  C
  H801     1.0000 0.11267  0.93841  0.46274  Biso   1.000  H
  H802     1.0000 0.11265  0.93846  0.46274  Biso   1.000  H
  C874     1.0000 0.16456  0.96915  0.37808  Biso   1.000  C
  H803     1.0000 0.22626  0.06733  0.39273  Biso   1.000  H
  C875     1.0000 0.83551  0.80463  0.12190  Biso   1.000  C
  H804     1.0000 0.09765  0.86622  0.37443  Biso   1.000  H
  C876     1.0000 0.90273  0.11683  0.11117  Biso   1.000  C
  C877     1.0000 0.90269  0.11683  0.11117  Biso   1.000  C
  C878     1.0000 0.02336  0.19377  0.10033  Biso   1.000  C
  C879     1.0000 0.02332  0.19377  0.10033  Biso   1.000  C
  C880     1.0000 0.17965  0.98000  0.34475  Biso   1.000  C
  C881     1.0000 0.80628  0.82959  0.10033  Biso   1.000  C
  C882     1.0000 0.88323  0.78587  0.11117  Biso   1.000  C
  C883     1.0000 0.88325  0.78593  0.11117  Biso   1.000  C
  H805     1.0000 0.86621  0.09766  0.12556  Biso   1.000  H
  C884     1.0000 0.89053  0.09761  0.07951  Biso   1.000  C
  C885     1.0000 0.89048  0.09761  0.07951  Biso   1.000  C
  C886     1.0000 0.01238  0.17475  0.06835  Biso   1.000  C
  H806     1.0000 0.06736  0.22627  0.10726  Biso   1.000  H
  C887     1.0000 0.01233  0.17475  0.06835  Biso   1.000  C
  H807     1.0000 0.06731  0.22627  0.10726  Biso   1.000  H
  C888     1.0000 0.18778  0.98589  0.31683  Biso   1.000  C
  C889     1.0000 0.82523  0.83760  0.06835  Biso   1.000  C
  H808     1.0000 0.77375  0.84106  0.10726  Biso   1.000  H
  H809     1.0000 0.90232  0.76856  0.12556  Biso   1.000  H
  C890     1.0000 0.90240  0.79290  0.07951  Biso   1.000  C
  C891     1.0000 0.81980  0.04681  0.06930  Biso   1.000  C
  C892     1.0000 0.94592  0.12623  0.05847  Biso   1.000  C
  C893     1.0000 0.81976  0.04681  0.06930  Biso   1.000  C
  C894     1.0000 0.94587  0.12623  0.05847  Biso   1.000  C
  C895     1.0000 0.06924  0.20462  0.04518  Biso   1.000  C
  C896     1.0000 0.19508  0.99297  0.28296  Biso   1.000  C
  C897     1.0000 0.87377  0.81967  0.05847  Biso   1.000  C
  C898     1.0000 0.79542  0.86462  0.04518  Biso   1.000  C
  C899     1.0000 0.79538  0.86462  0.04518  Biso   1.000  C
  C900     1.0000 0.95315  0.77296  0.06930  Biso   1.000  C
  H810     1.0000 0.78502  0.02935  0.08456  Biso   1.000  H
  N102     1.0000 0.80378  0.02578  0.04128  Biso   1.000  N
  H811     1.0000 0.93841  0.11264  0.03727  Biso   1.000  H
  H812     1.0000 0.93843  0.11270  0.03727  Biso   1.000  H
  H813     1.0000 0.05954  0.18907  0.02426  Biso   1.000  H
  N103     1.0000 0.13044  0.25014  0.05194  Biso   1.000  N
  H814     1.0000 0.05949  0.18907  0.02426  Biso   1.000  H
  C901     1.0000 0.17010  0.93701  0.26378  Biso   1.000  C
  C902     1.0000 0.23046  0.05622  0.26881  Biso   1.000  C
  H815     1.0000 0.88733  0.82576  0.03727  Biso   1.000  H
  H816     1.0000 0.81096  0.87046  0.02426  Biso   1.000  H
  N104     1.0000 0.74989  0.88033  0.05194  Biso   1.000  N
  H817     1.0000 0.97068  0.75565  0.08456  Biso   1.000  H
  N105     1.0000 0.97426  0.77802  0.04128  Biso   1.000  N
  H818     1.0000 0.97063  0.75565  0.08456  Biso   1.000  H
  C903     1.0000 0.73120  0.97468  0.03525  Biso   1.000  C
  C904     1.0000 0.73115  0.97468  0.03525  Biso   1.000  C
  C905     1.0000 0.18115  0.27567  0.02633  Biso   1.000  C
  C906     1.0000 0.18111  0.27567  0.02633  Biso   1.000  C
  H819     1.0000 0.14982  0.89314  0.27273  Biso   1.000  H
  C907     1.0000 0.17424  0.94378  0.23120  Biso   1.000  C
  H820     1.0000 0.14973  0.89314  0.27273  Biso   1.000  H
  H821     1.0000 0.25326  0.09554  0.28144  Biso   1.000  H
  C908     1.0000 0.23309  0.06299  0.23621  Biso   1.000  C
  C909     1.0000 0.72437  0.90544  0.02633  Biso   1.000  C
  C910     1.0000 0.72430  0.90549  0.02633  Biso   1.000  C
  C911     1.0000 0.02533  0.75647  0.03525  Biso   1.000  C
  C912     1.0000 0.02535  0.75652  0.03525  Biso   1.000  C
  C913     1.0000 0.70316  0.00041  0.00888  Biso   1.000  C
  C914     1.0000 0.70312  0.00041  0.00888  Biso   1.000  C
  H822     1.0000 0.70454  0.96879  0.05467  Biso   1.000  H
  H823     1.0000 0.15983  0.24859  0.00707  Biso   1.000  H
  C915     1.0000 0.20480  0.35142  0.01966  Biso   1.000  C
  C916     1.0000 0.24349  0.26879  0.03525  Biso   1.000  C
  H824     1.0000 0.15772  0.90446  0.21857  Biso   1.000  H
  C917     1.0000 0.20211  0.00703  0.21705  Biso   1.000  C
  C918     1.0000 0.20206  0.00703  0.21705  Biso   1.000  C
  H825     1.0000 0.25663  0.10686  0.22726  Biso   1.000  H
  H826     1.0000 0.25659  0.10686  0.22726  Biso   1.000  H
  H827     1.0000 0.75150  0.91128  0.00707  Biso   1.000  H
  C919     1.0000 0.64861  0.85336  0.01966  Biso   1.000  C
  H828     1.0000 0.75145  0.91128  0.00707  Biso   1.000  H
  C920     1.0000 0.64852  0.85336  0.01966  Biso   1.000  C
  C921     1.0000 0.99962  0.70273  0.00888  Biso   1.000  C
  C922     1.0000 0.09459  0.81884  0.02633  Biso   1.000  C
  H829     1.0000 0.03121  0.73575  0.05467  Biso   1.000  H
  C923     1.0000 0.09450  0.81884  0.02633  Biso   1.000  C
  H830     1.0000 0.70732  0.04408  0.01517  Biso   1.000  H
  C924     1.0000 0.62788  0.94874  0.00169  Biso   1.000  C
  C925     1.0000 0.62779  0.94874  0.00169  Biso   1.000  C
  H831     1.0000 0.73054  0.00827  0.98986  Biso   1.000  H
  H832     1.0000 0.73050  0.00827  0.98986  Biso   1.000  H
  C926     1.0000 0.25962  0.38123  0.99383  Biso   1.000  C
  H833     1.0000 0.16534  0.35555  0.01318  Biso   1.000  H
  H834     1.0000 0.22336  0.37798  0.03896  Biso   1.000  H
  H835     1.0000 0.16529  0.35555  0.01318  Biso   1.000  H
  H836     1.0000 0.22331  0.37798  0.03896  Biso   1.000  H
  C927     1.0000 0.29726  0.29685  0.00888  Biso   1.000  C
  H837     1.0000 0.26421  0.29546  0.05467  Biso   1.000  H
  N106     1.0000 0.22196  0.19620  0.04128  Biso   1.000  N
  C928     1.0000 0.29722  0.29685  0.00888  Biso   1.000  C
  C929     1.0000 0.20184  0.01411  0.18318  Biso   1.000  C
  C930     1.0000 0.61881  0.87842  0.99383  Biso   1.000  C
  H838     1.0000 0.64444  0.80975  0.01318  Biso   1.000  H
  H839     1.0000 0.62205  0.84535  0.03896  Biso   1.000  H
  H840     1.0000 0.64439  0.80975  0.01318  Biso   1.000  H
  H841     1.0000 0.99180  0.72227  0.98986  Biso   1.000  H
  H842     1.0000 0.99171  0.72227  0.98986  Biso   1.000  H
  H843     1.0000 0.95594  0.66326  0.01517  Biso   1.000  H
  C931     1.0000 0.05127  0.67912  0.00169  Biso   1.000  C
  H844     1.0000 0.08875  0.84018  0.00707  Biso   1.000  H
  C932     1.0000 0.14666  0.79517  0.01966  Biso   1.000  C
  N107     1.0000 0.11971  0.86953  0.05194  Biso   1.000  N
  H845     1.0000 0.61243  0.96517  0.98386  Biso   1.000  H
  H846     1.0000 0.59967  0.94476  0.01997  Biso   1.000  H
  H847     1.0000 0.23954  0.35834  0.97386  Biso   1.000  H
  H848     1.0000 0.27535  0.43006  0.99126  Biso   1.000  H
  H849     1.0000 0.23952  0.35839  0.97386  Biso   1.000  H
  H850     1.0000 0.27531  0.43006  0.99126  Biso   1.000  H
  C933     1.0000 0.32092  0.37219  0.00169  Biso   1.000  C
  C934     1.0000 0.32088  0.37219  0.00169  Biso   1.000  C
  H851     1.0000 0.27775  0.26947  0.98986  Biso   1.000  H
  H852     1.0000 0.27771  0.26947  0.98986  Biso   1.000  H
  H853     1.0000 0.33674  0.29267  0.01517  Biso   1.000  H
  H854     1.0000 0.33669  0.29267  0.01517  Biso   1.000  H
  C935     1.0000 0.22705  0.18023  0.06930  Biso   1.000  C
  C936     1.0000 0.22700  0.18023  0.06930  Biso   1.000  C
  C937     1.0000 0.19964  0.02000  0.15526  Biso   1.000  C
  H855     1.0000 0.64161  0.88116  0.97386  Biso   1.000  H
  H856     1.0000 0.56996  0.84524  0.99126  Biso   1.000  H
  H857     1.0000 0.56998  0.84530  0.99126  Biso   1.000  H
  C938     1.0000 0.12157  0.74035  0.99383  Biso   1.000  C
  H858     1.0000 0.03486  0.64729  0.98386  Biso   1.000  H
  H859     1.0000 0.05530  0.65489  0.01997  Biso   1.000  H
  H860     1.0000 0.05526  0.65489  0.01997  Biso   1.000  H
  H861     1.0000 0.19020  0.83465  0.01318  Biso   1.000  H
  H862     1.0000 0.15468  0.77668  0.03896  Biso   1.000  H
  C939     1.0000 0.13538  0.93076  0.04518  Biso   1.000  C
  C940     1.0000 0.13534  0.93076  0.04518  Biso   1.000  C
  H863     1.0000 0.35274  0.38759  0.98386  Biso   1.000  H
  H864     1.0000 0.34512  0.40035  0.01997  Biso   1.000  H
  C941     1.0000 0.20707  0.10949  0.07951  Biso   1.000  C
  H865     1.0000 0.24432  0.21495  0.08456  Biso   1.000  H
  C942     1.0000 0.19540  0.03085  0.12190  Biso   1.000  C
  C943     1.0000 0.19536  0.03085  0.12190  Biso   1.000  C
  H866     1.0000 0.11887  0.76045  0.97386  Biso   1.000  H
  H867     1.0000 0.15471  0.72464  0.99126  Biso   1.000  H
  H868     1.0000 0.11878  0.76045  0.97386  Biso   1.000  H
  H869     1.0000 0.15474  0.72469  0.99126  Biso   1.000  H
  C944     1.0000 0.16237  0.98760  0.06835  Biso   1.000  C
  H870     1.0000 0.12954  0.94047  0.02426  Biso   1.000  H
  C945     1.0000 0.18031  0.05410  0.05847  Biso   1.000  C
  C946     1.0000 0.21408  0.09730  0.11117  Biso   1.000  C
  C947     1.0000 0.17040  0.97664  0.10033  Biso   1.000  C
  H871     1.0000 0.17426  0.06159  0.03727  Biso   1.000  H
  H872     1.0000 0.17422  0.06159  0.03727  Biso   1.000  H
  H873     1.0000 0.23143  0.13378  0.12556  Biso   1.000  H
  H874     1.0000 0.15893  0.93267  0.10726  Biso   1.000  H
  C948     1.0000 0.79516  0.14664  0.48036  Biso   1.000  C
  C949     1.0000 0.74035  0.12158  0.50618  Biso   1.000  C
  C950     1.0000 0.74039  0.12158  0.50618  Biso   1.000  C
  H875     1.0000 0.77666  0.15465  0.46103  Biso   1.000  H
  C951     1.0000 0.81888  0.09456  0.47368  Biso   1.000  C
  H876     1.0000 0.83469  0.19025  0.48684  Biso   1.000  H
  C952     1.0000 0.81884  0.09456  0.47368  Biso   1.000  C
  H877     1.0000 0.83464  0.19025  0.48684  Biso   1.000  H
  C953     1.0000 0.67905  0.05126  0.49830  Biso   1.000  C
  H878     1.0000 0.76046  0.11884  0.52613  Biso   1.000  H
  H879     1.0000 0.72467  0.15476  0.50872  Biso   1.000  H
  C954     1.0000 0.79521  0.14664  0.48036  Biso   1.000  C
  C955     1.0000 0.67909  0.05126  0.49830  Biso   1.000  C
  C956     1.0000 0.75652  0.02532  0.46476  Biso   1.000  C
  C957     1.0000 0.75647  0.02532  0.46476  Biso   1.000  C
  H880     1.0000 0.84017  0.08872  0.49294  Biso   1.000  H
  N108     1.0000 0.86952  0.11967  0.44807  Biso   1.000  N
  H881     1.0000 0.84013  0.08872  0.49294  Biso   1.000  H
  N109     1.0000 0.86959  0.11972  0.44807  Biso   1.000  N
  N110     1.0000 0.86954  0.11972  0.44807  Biso   1.000  N
  H882     1.0000 0.65486  0.05524  0.48002  Biso   1.000  H
  H883     1.0000 0.64725  0.03483  0.51613  Biso   1.000  H
  C958     1.0000 0.70280  0.99959  0.49113  Biso   1.000  C
  C959     1.0000 0.70275  0.99959  0.49113  Biso   1.000  C
  H884     1.0000 0.73575  0.03121  0.44534  Biso   1.000  H
  H885     1.0000 0.73577  0.03126  0.44534  Biso   1.000  H
  N111     1.0000 0.77800  0.97422  0.45870  Biso   1.000  N
  C960     1.0000 0.93076  0.13538  0.45483  Biso   1.000  C
  C961     1.0000 0.93071  0.13538  0.45483  Biso   1.000  C
  H886     1.0000 0.72227  0.99173  0.51013  Biso   1.000  H
  H887     1.0000 0.66329  0.95592  0.48484  Biso   1.000  H
  C962     1.0000 0.77299  0.95319  0.43071  Biso   1.000  C
  H888     1.0000 0.94046  0.12954  0.47573  Biso   1.000  H
  C963     1.0000 0.98763  0.16240  0.43166  Biso   1.000  C
  C964     1.0000 0.98759  0.16240  0.43166  Biso   1.000  C
  C965     1.0000 0.79296  0.90239  0.42048  Biso   1.000  C
  H889     1.0000 0.75567  0.97065  0.41543  Biso   1.000  H
  C966     1.0000 0.79288  0.90239  0.42048  Biso   1.000  C
  C967     1.0000 0.97665  0.17041  0.39966  Biso   1.000  C
  C968     1.0000 0.05410  0.18033  0.44152  Biso   1.000  C
  C969     1.0000 0.05405  0.18033  0.44152  Biso   1.000  C
  C970     1.0000 0.78595  0.88317  0.38881  Biso   1.000  C
  C971     1.0000 0.81973  0.87377  0.44152  Biso   1.000  C
  C972     1.0000 0.78589  0.88322  0.38881  Biso   1.000  C
  C973     1.0000 0.81964  0.87377  0.44152  Biso   1.000  C
  H890     1.0000 0.93265  0.15894  0.39273  Biso   1.000  H
  C974     1.0000 0.03083  0.19537  0.37808  Biso   1.000  C
  C975     1.0000 0.03086  0.19542  0.37808  Biso   1.000  C
  C976     1.0000 0.10950  0.20710  0.42048  Biso   1.000  C
  H891     1.0000 0.06157  0.17424  0.46274  Biso   1.000  H
  C977     1.0000 0.10946  0.20710  0.42048  Biso   1.000  C
  C978     1.0000 0.80466  0.83548  0.37808  Biso   1.000  C
  H892     1.0000 0.76860  0.90234  0.37443  Biso   1.000  H
  C979     1.0000 0.80461  0.83548  0.37808  Biso   1.000  C
  C980     1.0000 0.83767  0.82525  0.43166  Biso   1.000  C
  H893     1.0000 0.82577  0.88736  0.46274  Biso   1.000  H
  C981     1.0000 0.83762  0.82525  0.43166  Biso   1.000  C
  C982     1.0000 0.09731  0.21413  0.38881  Biso   1.000  C
  C983     1.0000 0.02000  0.19966  0.34475  Biso   1.000  C
  C984     1.0000 0.18020  0.22704  0.43071  Biso   1.000  C
  C985     1.0000 0.82959  0.80623  0.39966  Biso   1.000  C
  C986     1.0000 0.80031  0.82034  0.34475  Biso   1.000  C
  C987     1.0000 0.82955  0.80623  0.39966  Biso   1.000  C
  C988     1.0000 0.86462  0.79538  0.45483  Biso   1.000  C
  H894     1.0000 0.13375  0.23144  0.37443  Biso   1.000  H
  C989     1.0000 0.01413  0.20188  0.31683  Biso   1.000  C
  H895     1.0000 0.21499  0.24435  0.41543  Biso   1.000  H
  N112     1.0000 0.19619  0.22198  0.45870  Biso   1.000  N
  H896     1.0000 0.21494  0.24435  0.41543  Biso   1.000  H
  H897     1.0000 0.84113  0.77373  0.39273  Biso   1.000  H
  H898     1.0000 0.84104  0.77373  0.39273  Biso   1.000  H
  C990     1.0000 0.79816  0.81228  0.31683  Biso   1.000  C
  C991     1.0000 0.79812  0.81228  0.31683  Biso   1.000  C
  H899     1.0000 0.87052  0.81093  0.47573  Biso   1.000  H
  N113     1.0000 0.88034  0.74986  0.44807  Biso   1.000  N
  H900     1.0000 0.87043  0.81093  0.47573  Biso   1.000  H
  C992     1.0000 0.00703  0.20209  0.28296  Biso   1.000  C
  C993     1.0000 0.00698  0.20209  0.28296  Biso   1.000  C
  C994     1.0000 0.26881  0.24353  0.46476  Biso   1.000  C
  C995     1.0000 0.79798  0.80494  0.28296  Biso   1.000  C
  C996     1.0000 0.79794  0.80494  0.28296  Biso   1.000  C
  C997     1.0000 0.90553  0.72433  0.47368  Biso   1.000  C
  C998     1.0000 0.90544  0.72433  0.47368  Biso   1.000  C
  C999     1.0000 0.94381  0.17429  0.26881  Biso   1.000  C
  C1000    1.0000 0.94377  0.17429  0.26881  Biso   1.000  C
  C1001    1.0000 0.06298  0.23309  0.26378  Biso   1.000  C
  C1002    1.0000 0.27571  0.18116  0.47368  Biso   1.000  C
  C1003    1.0000 0.29684  0.29727  0.49113  Biso   1.000  C
  H901     1.0000 0.29546  0.26425  0.44534  Biso   1.000  H
  C1004    1.0000 0.27566  0.18116  0.47368  Biso   1.000  C
  C1005    1.0000 0.82579  0.76955  0.26881  Biso   1.000  C
  C1006    1.0000 0.76696  0.82990  0.26378  Biso   1.000  C
  C1007    1.0000 0.82570  0.76955  0.26881  Biso   1.000  C
  C1008    1.0000 0.76688  0.82990  0.26378  Biso   1.000  C
  H902     1.0000 0.91128  0.75141  0.49294  Biso   1.000  H
  C1009    1.0000 0.85338  0.64858  0.48036  Biso   1.000  C
  C1010    1.0000 0.97470  0.73121  0.46476  Biso   1.000  C
  H903     1.0000 0.91131  0.75146  0.49294  Biso   1.000  H
  H904     1.0000 0.90449  0.15775  0.28144  Biso   1.000  H
  C1011    1.0000 0.93702  0.17010  0.23621  Biso   1.000  C
  H905     1.0000 0.90445  0.15775  0.28144  Biso   1.000  H
  C1012    1.0000 0.93698  0.17010  0.23621  Biso   1.000  C
  H906     1.0000 0.10689  0.25665  0.27273  Biso   1.000  H
  C1013    1.0000 0.05620  0.23045  0.23120  Biso   1.000  C
  H907     1.0000 0.10685  0.25665  0.27273  Biso   1.000  H
  C1014    1.0000 0.05616  0.23045  0.23120  Biso   1.000  C
  H908     1.0000 0.24857  0.15982  0.49294  Biso   1.000  H
  C1015    1.0000 0.35144  0.20483  0.48036  Biso   1.000  C
  N114     1.0000 0.25018  0.13047  0.44807  Biso   1.000  N
  H909     1.0000 0.24852  0.15982  0.49294  Biso   1.000  H
  N115     1.0000 0.25014  0.13047  0.44807  Biso   1.000  N
  C1016    1.0000 0.37215  0.32088  0.49830  Biso   1.000  C
  H910     1.0000 0.29268  0.33674  0.48484  Biso   1.000  H
  H911     1.0000 0.26949  0.27773  0.51013  Biso   1.000  H
  C1017    1.0000 0.37217  0.32093  0.49830  Biso   1.000  C
  H912     1.0000 0.29264  0.33674  0.48484  Biso   1.000  H
  H913     1.0000 0.26944  0.27773  0.51013  Biso   1.000  H
  H914     1.0000 0.84228  0.74676  0.28144  Biso   1.000  H
  C1018    1.0000 0.82994  0.76691  0.23621  Biso   1.000  C
  H915     1.0000 0.74336  0.85026  0.27273  Biso   1.000  H
  C1019    1.0000 0.76957  0.82571  0.23120  Biso   1.000  C
  C1020    1.0000 0.76951  0.82576  0.23120  Biso   1.000  C
  H916     1.0000 0.80983  0.64445  0.48684  Biso   1.000  H
  H917     1.0000 0.84542  0.62202  0.46103  Biso   1.000  H
  C1021    1.0000 0.87843  0.61877  0.50618  Biso   1.000  C
  H918     1.0000 0.80978  0.64445  0.48684  Biso   1.000  H
  H919     1.0000 0.84533  0.62202  0.46103  Biso   1.000  H
  H920     1.0000 0.96880  0.70454  0.44534  Biso   1.000  H
  C1022    1.0000 0.00045  0.70315  0.49113  Biso   1.000  C
  N116     1.0000 0.02581  0.80380  0.45870  Biso   1.000  N
  C1023    1.0000 0.00036  0.70315  0.49113  Biso   1.000  C
  C1024    1.0000 0.99300  0.19506  0.21705  Biso   1.000  C
  H921     1.0000 0.89310  0.14974  0.22726  Biso   1.000  H
  C1025    1.0000 0.99295  0.19506  0.21705  Biso   1.000  C
  H922     1.0000 0.89313  0.14980  0.22726  Biso   1.000  H
  H923     1.0000 0.09552  0.25324  0.21857  Biso   1.000  H
  H924     1.0000 0.09555  0.25329  0.21857  Biso   1.000  H
  H925     1.0000 0.35555  0.16535  0.48684  Biso   1.000  H
  H926     1.0000 0.37796  0.22332  0.46103  Biso   1.000  H
  C1026    1.0000 0.38122  0.25965  0.50618  Biso   1.000  C
  C1027    1.0000 0.20462  0.06924  0.45483  Biso   1.000  C
  C1028    1.0000 0.20458  0.06924  0.45483  Biso   1.000  C
  H927     1.0000 0.40037  0.34511  0.48002  Biso   1.000  H
  H928     1.0000 0.38757  0.35271  0.51613  Biso   1.000  H
  H929     1.0000 0.40033  0.34511  0.48002  Biso   1.000  H
  H930     1.0000 0.38755  0.35276  0.51613  Biso   1.000  H
  C1029    1.0000 0.80498  0.79791  0.21705  Biso   1.000  C
  H931     1.0000 0.85028  0.74335  0.22726  Biso   1.000  H
  C1030    1.0000 0.80489  0.79791  0.21705  Biso   1.000  C
  H932     1.0000 0.85019  0.74335  0.22726  Biso   1.000  H
  H933     1.0000 0.74678  0.84225  0.21857  Biso   1.000  H
  H934     1.0000 0.74674  0.84225  0.21857  Biso   1.000  H
  H935     1.0000 0.84529  0.56994  0.50872  Biso   1.000  H
  C1031    1.0000 0.94873  0.62781  0.49830  Biso   1.000  C
  H936     1.0000 0.88124  0.64166  0.52613  Biso   1.000  H
  H937     1.0000 0.88115  0.64166  0.52613  Biso   1.000  H
  H938     1.0000 0.04407  0.70733  0.48484  Biso   1.000  H
  H939     1.0000 0.00833  0.73053  0.51013  Biso   1.000  H
  H940     1.0000 0.00828  0.73053  0.51013  Biso   1.000  H
  C1032    1.0000 0.04682  0.81977  0.43071  Biso   1.000  C
  C1033    1.0000 0.04684  0.81982  0.43071  Biso   1.000  C
  C1034    1.0000 0.98588  0.18772  0.18318  Biso   1.000  C
  C1035    1.0000 0.98586  0.18777  0.18318  Biso   1.000  C
  H941     1.0000 0.35837  0.23955  0.52613  Biso   1.000  H
  H942     1.0000 0.43007  0.27536  0.50872  Biso   1.000  H
  H943     1.0000 0.35833  0.23955  0.52613  Biso   1.000  H
  C1036    1.0000 0.17477  0.01240  0.43166  Biso   1.000  C
  H944     1.0000 0.18907  0.05953  0.47573  Biso   1.000  H
  H945     1.0000 0.18902  0.05953  0.47573  Biso   1.000  H
  C1037    1.0000 0.81225  0.79812  0.18318  Biso   1.000  C
  H946     1.0000 0.94481  0.59965  0.48002  Biso   1.000  H
  H947     1.0000 0.96515  0.61241  0.51613  Biso   1.000  H
  H948     1.0000 0.02937  0.78505  0.41543  Biso   1.000  H
  C1038    1.0000 0.09762  0.89051  0.42048  Biso   1.000  C
  C1039    1.0000 0.97997  0.17966  0.15526  Biso   1.000  C
  C1040    1.0000 0.12626  0.94590  0.44152  Biso   1.000  C
  C1041    1.0000 0.12617  0.94590  0.44152  Biso   1.000  C
  C1042    1.0000 0.19376  0.02336  0.39966  Biso   1.000  C
  C1043    1.0000 0.82038  0.80034  0.15526  Biso   1.000  C
  C1044    1.0000 0.11679  0.90270  0.38881  Biso   1.000  C
  C1045    1.0000 0.96914  0.16452  0.12190  Biso   1.000  C
  C1046    1.0000 0.96909  0.16452  0.12190  Biso   1.000  C
  H949     1.0000 0.11267  0.93841  0.46274  Biso   1.000  H
  H950     1.0000 0.11265  0.93846  0.46274  Biso   1.000  H
  C1047    1.0000 0.16456  0.96915  0.37808  Biso   1.000  C
  H951     1.0000 0.22626  0.06733  0.39273  Biso   1.000  H
  C1048    1.0000 0.83551  0.80463  0.12190  Biso   1.000  C
  H952     1.0000 0.09765  0.86622  0.37443  Biso   1.000  H
  C1049    1.0000 0.90273  0.11683  0.11117  Biso   1.000  C
  C1050    1.0000 0.90269  0.11683  0.11117  Biso   1.000  C
  C1051    1.0000 0.02336  0.19377  0.10033  Biso   1.000  C
  C1052    1.0000 0.02332  0.19377  0.10033  Biso   1.000  C
  C1053    1.0000 0.17965  0.98000  0.34475  Biso   1.000  C
  C1054    1.0000 0.80628  0.82959  0.10033  Biso   1.000  C
  C1055    1.0000 0.88323  0.78587  0.11117  Biso   1.000  C
  C1056    1.0000 0.88325  0.78593  0.11117  Biso   1.000  C
  H953     1.0000 0.86621  0.09766  0.12556  Biso   1.000  H
  C1057    1.0000 0.89053  0.09761  0.07951  Biso   1.000  C
  C1058    1.0000 0.89048  0.09761  0.07951  Biso   1.000  C
  C1059    1.0000 0.01238  0.17475  0.06835  Biso   1.000  C
  H954     1.0000 0.06736  0.22627  0.10726  Biso   1.000  H
  C1060    1.0000 0.01233  0.17475  0.06835  Biso   1.000  C
  H955     1.0000 0.06731  0.22627  0.10726  Biso   1.000  H
  C1061    1.0000 0.18778  0.98589  0.31683  Biso   1.000  C
  C1062    1.0000 0.82523  0.83760  0.06835  Biso   1.000  C
  H956     1.0000 0.77375  0.84106  0.10726  Biso   1.000  H
  C1063    1.0000 0.90240  0.79290  0.07951  Biso   1.000  C
  H957     1.0000 0.90232  0.76856  0.12556  Biso   1.000  H
  C1064    1.0000 0.81980  0.04681  0.06930  Biso   1.000  C
  C1065    1.0000 0.94592  0.12623  0.05847  Biso   1.000  C
  C1066    1.0000 0.81976  0.04681  0.06930  Biso   1.000  C
  C1067    1.0000 0.94587  0.12623  0.05847  Biso   1.000  C
  C1068    1.0000 0.06924  0.20462  0.04518  Biso   1.000  C
  C1069    1.0000 0.19508  0.99297  0.28296  Biso   1.000  C
  C1070    1.0000 0.87377  0.81967  0.05847  Biso   1.000  C
  C1071    1.0000 0.79542  0.86462  0.04518  Biso   1.000  C
  C1072    1.0000 0.79538  0.86462  0.04518  Biso   1.000  C
  C1073    1.0000 0.95315  0.77296  0.06930  Biso   1.000  C
  H958     1.0000 0.78502  0.02935  0.08456  Biso   1.000  H
  N117     1.0000 0.80378  0.02578  0.04128  Biso   1.000  N
  H959     1.0000 0.93841  0.11264  0.03727  Biso   1.000  H
  H960     1.0000 0.93843  0.11270  0.03727  Biso   1.000  H
  H961     1.0000 0.05954  0.18907  0.02426  Biso   1.000  H
  N118     1.0000 0.13044  0.25014  0.05194  Biso   1.000  N
  H962     1.0000 0.05949  0.18907  0.02426  Biso   1.000  H
  C1074    1.0000 0.17010  0.93701  0.26378  Biso   1.000  C
  C1075    1.0000 0.23046  0.05622  0.26881  Biso   1.000  C
  H963     1.0000 0.88733  0.82576  0.03727  Biso   1.000  H
  H964     1.0000 0.81096  0.87046  0.02426  Biso   1.000  H
  N119     1.0000 0.74989  0.88033  0.05194  Biso   1.000  N
  H965     1.0000 0.97068  0.75565  0.08456  Biso   1.000  H
  N120     1.0000 0.97426  0.77802  0.04128  Biso   1.000  N
  H966     1.0000 0.97063  0.75565  0.08456  Biso   1.000  H
  C1076    1.0000 0.73120  0.97468  0.03525  Biso   1.000  C
  C1077    1.0000 0.73115  0.97468  0.03525  Biso   1.000  C
  C1078    1.0000 0.18115  0.27567  0.02633  Biso   1.000  C
  C1079    1.0000 0.18111  0.27567  0.02633  Biso   1.000  C
  H967     1.0000 0.14982  0.89314  0.27273  Biso   1.000  H
  C1080    1.0000 0.17424  0.94378  0.23120  Biso   1.000  C
  H968     1.0000 0.14973  0.89314  0.27273  Biso   1.000  H
  H969     1.0000 0.25326  0.09554  0.28144  Biso   1.000  H
  C1081    1.0000 0.23309  0.06299  0.23621  Biso   1.000  C
  C1082    1.0000 0.72437  0.90544  0.02633  Biso   1.000  C
  C1083    1.0000 0.72430  0.90549  0.02633  Biso   1.000  C
  C1084    1.0000 0.02533  0.75647  0.03525  Biso   1.000  C
  C1085    1.0000 0.02535  0.75652  0.03525  Biso   1.000  C
  C1086    1.0000 0.70316  0.00041  0.00888  Biso   1.000  C
  C1087    1.0000 0.70312  0.00041  0.00888  Biso   1.000  C
  H970     1.0000 0.70454  0.96879  0.05467  Biso   1.000  H
  H971     1.0000 0.15983  0.24859  0.00707  Biso   1.000  H
  C1088    1.0000 0.20480  0.35142  0.01966  Biso   1.000  C
  C1089    1.0000 0.24349  0.26879  0.03525  Biso   1.000  C
  H972     1.0000 0.15772  0.90446  0.21857  Biso   1.000  H
  C1090    1.0000 0.20211  0.00703  0.21705  Biso   1.000  C
  C1091    1.0000 0.20206  0.00703  0.21705  Biso   1.000  C
  H973     1.0000 0.25663  0.10686  0.22726  Biso   1.000  H
  H974     1.0000 0.25659  0.10686  0.22726  Biso   1.000  H
  H975     1.0000 0.75150  0.91128  0.00707  Biso   1.000  H
  C1092    1.0000 0.64861  0.85336  0.01966  Biso   1.000  C
  H976     1.0000 0.75145  0.91128  0.00707  Biso   1.000  H
  C1093    1.0000 0.64852  0.85336  0.01966  Biso   1.000  C
  C1094    1.0000 0.99962  0.70273  0.00888  Biso   1.000  C
  C1095    1.0000 0.09459  0.81884  0.02633  Biso   1.000  C
  H977     1.0000 0.03121  0.73575  0.05467  Biso   1.000  H
  C1096    1.0000 0.09450  0.81884  0.02633  Biso   1.000  C
  H978     1.0000 0.70732  0.04408  0.01517  Biso   1.000  H
  C1097    1.0000 0.62788  0.94874  0.00169  Biso   1.000  C
  C1098    1.0000 0.62779  0.94874  0.00169  Biso   1.000  C
  H979     1.0000 0.73054  0.00827  0.98986  Biso   1.000  H
  H980     1.0000 0.73050  0.00827  0.98986  Biso   1.000  H
  C1099    1.0000 0.25962  0.38123  0.99383  Biso   1.000  C
  H981     1.0000 0.16534  0.35555  0.01318  Biso   1.000  H
  H982     1.0000 0.22336  0.37798  0.03896  Biso   1.000  H
  H983     1.0000 0.16529  0.35555  0.01318  Biso   1.000  H
  H984     1.0000 0.22331  0.37798  0.03896  Biso   1.000  H
  C1100    1.0000 0.29726  0.29685  0.00888  Biso   1.000  C
  H985     1.0000 0.26421  0.29546  0.05467  Biso   1.000  H
  N121     1.0000 0.22196  0.19620  0.04128  Biso   1.000  N
  C1101    1.0000 0.29722  0.29685  0.00888  Biso   1.000  C
  C1102    1.0000 0.20184  0.01411  0.18318  Biso   1.000  C
  C1103    1.0000 0.61881  0.87842  0.99383  Biso   1.000  C
  H986     1.0000 0.64444  0.80975  0.01318  Biso   1.000  H
  H987     1.0000 0.62205  0.84535  0.03896  Biso   1.000  H
  H988     1.0000 0.64439  0.80975  0.01318  Biso   1.000  H
  H989     1.0000 0.95594  0.66326  0.01517  Biso   1.000  H
  H990     1.0000 0.99180  0.72227  0.98986  Biso   1.000  H
  H991     1.0000 0.99171  0.72227  0.98986  Biso   1.000  H
  C1104    1.0000 0.05127  0.67912  0.00169  Biso   1.000  C
  H992     1.0000 0.08875  0.84018  0.00707  Biso   1.000  H
  N122     1.0000 0.11971  0.86953  0.05194  Biso   1.000  N
  C1105    1.0000 0.14666  0.79517  0.01966  Biso   1.000  C
  H993     1.0000 0.61243  0.96517  0.98386  Biso   1.000  H
  H994     1.0000 0.59967  0.94476  0.01997  Biso   1.000  H
  H995     1.0000 0.23954  0.35834  0.97386  Biso   1.000  H
  H996     1.0000 0.27535  0.43006  0.99126  Biso   1.000  H
  H997     1.0000 0.23952  0.35839  0.97386  Biso   1.000  H
  H998     1.0000 0.27531  0.43006  0.99126  Biso   1.000  H
  C1106    1.0000 0.32092  0.37219  0.00169  Biso   1.000  C
  C1107    1.0000 0.32088  0.37219  0.00169  Biso   1.000  C
  H999     1.0000 0.27775  0.26947  0.98986  Biso   1.000  H
  H1000    1.0000 0.27771  0.26947  0.98986  Biso   1.000  H
  H1001    1.0000 0.33674  0.29267  0.01517  Biso   1.000  H
  H1002    1.0000 0.33669  0.29267  0.01517  Biso   1.000  H
  C1108    1.0000 0.22705  0.18023  0.06930  Biso   1.000  C
  C1109    1.0000 0.22700  0.18023  0.06930  Biso   1.000  C
  C1110    1.0000 0.19964  0.02000  0.15526  Biso   1.000  C
  H1003    1.0000 0.64161  0.88116  0.97386  Biso   1.000  H
  H1004    1.0000 0.56996  0.84524  0.99126  Biso   1.000  H
  H1005    1.0000 0.56998  0.84530  0.99126  Biso   1.000  H
  H1006    1.0000 0.03486  0.64729  0.98386  Biso   1.000  H
  C1111    1.0000 0.12157  0.74035  0.99383  Biso   1.000  C
  H1007    1.0000 0.05530  0.65489  0.01997  Biso   1.000  H
  H1008    1.0000 0.05526  0.65489  0.01997  Biso   1.000  H
  C1112    1.0000 0.13538  0.93076  0.04518  Biso   1.000  C
  C1113    1.0000 0.13534  0.93076  0.04518  Biso   1.000  C
  H1009    1.0000 0.19020  0.83465  0.01318  Biso   1.000  H
  H1010    1.0000 0.15468  0.77668  0.03896  Biso   1.000  H
  H1011    1.0000 0.35274  0.38759  0.98386  Biso   1.000  H
  H1012    1.0000 0.34512  0.40035  0.01997  Biso   1.000  H
  C1114    1.0000 0.20707  0.10949  0.07951  Biso   1.000  C
  H1013    1.0000 0.24432  0.21495  0.08456  Biso   1.000  H
  C1115    1.0000 0.19540  0.03085  0.12190  Biso   1.000  C
  C1116    1.0000 0.19536  0.03085  0.12190  Biso   1.000  C
  H1014    1.0000 0.11887  0.76045  0.97386  Biso   1.000  H
  H1015    1.0000 0.15471  0.72464  0.99126  Biso   1.000  H
  H1016    1.0000 0.11878  0.76045  0.97386  Biso   1.000  H
  H1017    1.0000 0.15474  0.72469  0.99126  Biso   1.000  H
  H1018    1.0000 0.12954  0.94047  0.02426  Biso   1.000  H
  C1117    1.0000 0.16237  0.98760  0.06835  Biso   1.000  C
  C1118    1.0000 0.18031  0.05410  0.05847  Biso   1.000  C
  C1119    1.0000 0.21408  0.09730  0.11117  Biso   1.000  C
  C1120    1.0000 0.17040  0.97664  0.10033  Biso   1.000  C
  H1019    1.0000 0.17426  0.06159  0.03727  Biso   1.000  H
  H1020    1.0000 0.17422  0.06159  0.03727  Biso   1.000  H
  H1021    1.0000 0.23143  0.13378  0.12556  Biso   1.000  H
  H1022    1.0000 0.15893  0.93267  0.10726  Biso   1.000  H
  C1121    1.0000 0.79516  0.14664  0.48036  Biso   1.000  C
  C1122    1.0000 0.74035  0.12158  0.50618  Biso   1.000  C
  H1023    1.0000 0.77666  0.15465  0.46103  Biso   1.000  H
  C1123    1.0000 0.81888  0.09456  0.47368  Biso   1.000  C
  H1024    1.0000 0.83469  0.19025  0.48684  Biso   1.000  H
  C1124    1.0000 0.81884  0.09456  0.47368  Biso   1.000  C
  H1025    1.0000 0.83464  0.19025  0.48684  Biso   1.000  H
  C1125    1.0000 0.74039  0.12158  0.50618  Biso   1.000  C
  H1026    1.0000 0.76046  0.11884  0.52613  Biso   1.000  H
  H1027    1.0000 0.72467  0.15476  0.50872  Biso   1.000  H
  C1126    1.0000 0.79521  0.14664  0.48036  Biso   1.000  C
  C1127    1.0000 0.67909  0.05126  0.49830  Biso   1.000  C
  C1128    1.0000 0.67905  0.05126  0.49830  Biso   1.000  C
  H1028    1.0000 0.84017  0.08872  0.49294  Biso   1.000  H
  C1129    1.0000 0.75652  0.02532  0.46476  Biso   1.000  C
  N123     1.0000 0.86952  0.11967  0.44807  Biso   1.000  N
  H1029    1.0000 0.84013  0.08872  0.49294  Biso   1.000  H
  C1130    1.0000 0.75647  0.02532  0.46476  Biso   1.000  C
  N124     1.0000 0.86959  0.11972  0.44807  Biso   1.000  N
  N125     1.0000 0.86954  0.11972  0.44807  Biso   1.000  N
  H1030    1.0000 0.65486  0.05524  0.48002  Biso   1.000  H
  H1031    1.0000 0.64725  0.03483  0.51613  Biso   1.000  H
  C1131    1.0000 0.70280  0.99959  0.49113  Biso   1.000  C
  C1132    1.0000 0.70275  0.99959  0.49113  Biso   1.000  C
  N126     1.0000 0.77800  0.97422  0.45870  Biso   1.000  N
  H1032    1.0000 0.73575  0.03121  0.44534  Biso   1.000  H
  H1033    1.0000 0.73577  0.03126  0.44534  Biso   1.000  H
  C1133    1.0000 0.93076  0.13538  0.45483  Biso   1.000  C
  C1134    1.0000 0.93071  0.13538  0.45483  Biso   1.000  C
  H1034    1.0000 0.72227  0.99173  0.51013  Biso   1.000  H
  H1035    1.0000 0.66329  0.95592  0.48484  Biso   1.000  H
  C1135    1.0000 0.77299  0.95319  0.43071  Biso   1.000  C
  H1036    1.0000 0.94046  0.12954  0.47573  Biso   1.000  H
  C1136    1.0000 0.98763  0.16240  0.43166  Biso   1.000  C
  C1137    1.0000 0.98759  0.16240  0.43166  Biso   1.000  C
  C1138    1.0000 0.79296  0.90239  0.42048  Biso   1.000  C
  H1037    1.0000 0.75567  0.97065  0.41543  Biso   1.000  H
  C1139    1.0000 0.79288  0.90239  0.42048  Biso   1.000  C
  C1140    1.0000 0.97665  0.17041  0.39966  Biso   1.000  C
  C1141    1.0000 0.05410  0.18033  0.44152  Biso   1.000  C
  C1142    1.0000 0.05405  0.18033  0.44152  Biso   1.000  C
  C1143    1.0000 0.78595  0.88317  0.38881  Biso   1.000  C
  C1144    1.0000 0.81973  0.87377  0.44152  Biso   1.000  C
  C1145    1.0000 0.78589  0.88322  0.38881  Biso   1.000  C
  C1146    1.0000 0.81964  0.87377  0.44152  Biso   1.000  C
  H1038    1.0000 0.93265  0.15894  0.39273  Biso   1.000  H
  C1147    1.0000 0.03083  0.19537  0.37808  Biso   1.000  C
  C1148    1.0000 0.03086  0.19542  0.37808  Biso   1.000  C
  C1149    1.0000 0.10950  0.20710  0.42048  Biso   1.000  C
  H1039    1.0000 0.06157  0.17424  0.46274  Biso   1.000  H
  C1150    1.0000 0.10946  0.20710  0.42048  Biso   1.000  C
  C1151    1.0000 0.80466  0.83548  0.37808  Biso   1.000  C
  H1040    1.0000 0.76860  0.90234  0.37443  Biso   1.000  H
  C1152    1.0000 0.80461  0.83548  0.37808  Biso   1.000  C
  C1153    1.0000 0.83767  0.82525  0.43166  Biso   1.000  C
  H1041    1.0000 0.82577  0.88736  0.46274  Biso   1.000  H
  C1154    1.0000 0.83762  0.82525  0.43166  Biso   1.000  C
  C1155    1.0000 0.09731  0.21413  0.38881  Biso   1.000  C
  C1156    1.0000 0.02000  0.19966  0.34475  Biso   1.000  C
  C1157    1.0000 0.18020  0.22704  0.43071  Biso   1.000  C
  C1158    1.0000 0.82959  0.80623  0.39966  Biso   1.000  C
  C1159    1.0000 0.80031  0.82034  0.34475  Biso   1.000  C
  C1160    1.0000 0.82955  0.80623  0.39966  Biso   1.000  C
  C1161    1.0000 0.86462  0.79538  0.45483  Biso   1.000  C
  H1042    1.0000 0.13375  0.23144  0.37443  Biso   1.000  H
  C1162    1.0000 0.01413  0.20188  0.31683  Biso   1.000  C
  H1043    1.0000 0.21499  0.24435  0.41543  Biso   1.000  H
  N127     1.0000 0.19619  0.22198  0.45870  Biso   1.000  N
  H1044    1.0000 0.21494  0.24435  0.41543  Biso   1.000  H
  H1045    1.0000 0.84113  0.77373  0.39273  Biso   1.000  H
  H1046    1.0000 0.84104  0.77373  0.39273  Biso   1.000  H
  C1163    1.0000 0.79816  0.81228  0.31683  Biso   1.000  C
  C1164    1.0000 0.79812  0.81228  0.31683  Biso   1.000  C
  H1047    1.0000 0.87052  0.81093  0.47573  Biso   1.000  H
  N128     1.0000 0.88034  0.74986  0.44807  Biso   1.000  N
  H1048    1.0000 0.87043  0.81093  0.47573  Biso   1.000  H
  C1165    1.0000 0.00703  0.20209  0.28296  Biso   1.000  C
  C1166    1.0000 0.00698  0.20209  0.28296  Biso   1.000  C
  C1167    1.0000 0.26881  0.24353  0.46476  Biso   1.000  C
  C1168    1.0000 0.79798  0.80494  0.28296  Biso   1.000  C
  C1169    1.0000 0.79794  0.80494  0.28296  Biso   1.000  C
  C1170    1.0000 0.90553  0.72433  0.47368  Biso   1.000  C
  C1171    1.0000 0.90544  0.72433  0.47368  Biso   1.000  C
  C1172    1.0000 0.94381  0.17429  0.26881  Biso   1.000  C
  C1173    1.0000 0.94377  0.17429  0.26881  Biso   1.000  C
  C1174    1.0000 0.06298  0.23309  0.26378  Biso   1.000  C
  C1175    1.0000 0.27571  0.18116  0.47368  Biso   1.000  C
  C1176    1.0000 0.29684  0.29727  0.49113  Biso   1.000  C
  H1049    1.0000 0.29546  0.26425  0.44534  Biso   1.000  H
  C1177    1.0000 0.27566  0.18116  0.47368  Biso   1.000  C
  C1178    1.0000 0.82579  0.76955  0.26881  Biso   1.000  C
  C1179    1.0000 0.76696  0.82990  0.26378  Biso   1.000  C
  C1180    1.0000 0.82570  0.76955  0.26881  Biso   1.000  C
  C1181    1.0000 0.76688  0.82990  0.26378  Biso   1.000  C
  H1050    1.0000 0.91128  0.75141  0.49294  Biso   1.000  H
  C1182    1.0000 0.85338  0.64858  0.48036  Biso   1.000  C
  C1183    1.0000 0.97470  0.73121  0.46476  Biso   1.000  C
  H1051    1.0000 0.91131  0.75146  0.49294  Biso   1.000  H
  H1052    1.0000 0.90449  0.15775  0.28144  Biso   1.000  H
  C1184    1.0000 0.93702  0.17010  0.23621  Biso   1.000  C
  H1053    1.0000 0.90445  0.15775  0.28144  Biso   1.000  H
  C1185    1.0000 0.93698  0.17010  0.23621  Biso   1.000  C
  H1054    1.0000 0.10689  0.25665  0.27273  Biso   1.000  H
  C1186    1.0000 0.05620  0.23045  0.23120  Biso   1.000  C
  H1055    1.0000 0.10685  0.25665  0.27273  Biso   1.000  H
  C1187    1.0000 0.05616  0.23045  0.23120  Biso   1.000  C
  H1056    1.0000 0.24857  0.15982  0.49294  Biso   1.000  H
  C1188    1.0000 0.35144  0.20483  0.48036  Biso   1.000  C
  N129     1.0000 0.25018  0.13047  0.44807  Biso   1.000  N
  H1057    1.0000 0.24852  0.15982  0.49294  Biso   1.000  H
  N130     1.0000 0.25014  0.13047  0.44807  Biso   1.000  N
  C1189    1.0000 0.37215  0.32088  0.49830  Biso   1.000  C
  H1058    1.0000 0.29268  0.33674  0.48484  Biso   1.000  H
  H1059    1.0000 0.26949  0.27773  0.51013  Biso   1.000  H
  C1190    1.0000 0.37217  0.32093  0.49830  Biso   1.000  C
  H1060    1.0000 0.29264  0.33674  0.48484  Biso   1.000  H
  H1061    1.0000 0.26944  0.27773  0.51013  Biso   1.000  H
  H1062    1.0000 0.84228  0.74676  0.28144  Biso   1.000  H
  C1191    1.0000 0.82994  0.76691  0.23621  Biso   1.000  C
  H1063    1.0000 0.74336  0.85026  0.27273  Biso   1.000  H
  C1192    1.0000 0.76957  0.82571  0.23120  Biso   1.000  C
  C1193    1.0000 0.76951  0.82576  0.23120  Biso   1.000  C
  H1064    1.0000 0.80983  0.64445  0.48684  Biso   1.000  H
  H1065    1.0000 0.84542  0.62202  0.46103  Biso   1.000  H
  C1194    1.0000 0.87843  0.61877  0.50618  Biso   1.000  C
  H1066    1.0000 0.80978  0.64445  0.48684  Biso   1.000  H
  H1067    1.0000 0.84533  0.62202  0.46103  Biso   1.000  H
  H1068    1.0000 0.96880  0.70454  0.44534  Biso   1.000  H
  C1195    1.0000 0.00045  0.70315  0.49113  Biso   1.000  C
  N131     1.0000 0.02581  0.80380  0.45870  Biso   1.000  N
  C1196    1.0000 0.00036  0.70315  0.49113  Biso   1.000  C
  C1197    1.0000 0.99300  0.19506  0.21705  Biso   1.000  C
  H1069    1.0000 0.89310  0.14974  0.22726  Biso   1.000  H
  C1198    1.0000 0.99295  0.19506  0.21705  Biso   1.000  C
  H1070    1.0000 0.89313  0.14980  0.22726  Biso   1.000  H
  H1071    1.0000 0.09552  0.25324  0.21857  Biso   1.000  H
  H1072    1.0000 0.09555  0.25329  0.21857  Biso   1.000  H
  H1073    1.0000 0.35555  0.16535  0.48684  Biso   1.000  H
  H1074    1.0000 0.37796  0.22332  0.46103  Biso   1.000  H
  C1199    1.0000 0.38122  0.25965  0.50618  Biso   1.000  C
  C1200    1.0000 0.20462  0.06924  0.45483  Biso   1.000  C
  C1201    1.0000 0.20458  0.06924  0.45483  Biso   1.000  C
  H1075    1.0000 0.40037  0.34511  0.48002  Biso   1.000  H
  H1076    1.0000 0.38757  0.35271  0.51613  Biso   1.000  H
  H1077    1.0000 0.40033  0.34511  0.48002  Biso   1.000  H
  H1078    1.0000 0.38755  0.35276  0.51613  Biso   1.000  H
  C1202    1.0000 0.80498  0.79791  0.21705  Biso   1.000  C
  H1079    1.0000 0.85028  0.74335  0.22726  Biso   1.000  H
  C1203    1.0000 0.80489  0.79791  0.21705  Biso   1.000  C
  H1080    1.0000 0.85019  0.74335  0.22726  Biso   1.000  H
  H1081    1.0000 0.74678  0.84225  0.21857  Biso   1.000  H
  H1082    1.0000 0.74674  0.84225  0.21857  Biso   1.000  H
  H1083    1.0000 0.84529  0.56994  0.50872  Biso   1.000  H
  C1204    1.0000 0.94873  0.62781  0.49830  Biso   1.000  C
  H1084    1.0000 0.88124  0.64166  0.52613  Biso   1.000  H
  H1085    1.0000 0.88115  0.64166  0.52613  Biso   1.000  H
  H1086    1.0000 0.04407  0.70733  0.48484  Biso   1.000  H
  H1087    1.0000 0.00833  0.73053  0.51013  Biso   1.000  H
  H1088    1.0000 0.00828  0.73053  0.51013  Biso   1.000  H
  C1205    1.0000 0.04682  0.81977  0.43071  Biso   1.000  C
  C1206    1.0000 0.04684  0.81982  0.43071  Biso   1.000  C
  C1207    1.0000 0.98588  0.18772  0.18318  Biso   1.000  C
  C1208    1.0000 0.98586  0.18777  0.18318  Biso   1.000  C
  H1089    1.0000 0.35837  0.23955  0.52613  Biso   1.000  H
  H1090    1.0000 0.43007  0.27536  0.50872  Biso   1.000  H
  H1091    1.0000 0.35833  0.23955  0.52613  Biso   1.000  H
  C1209    1.0000 0.17477  0.01240  0.43166  Biso   1.000  C
  H1092    1.0000 0.18907  0.05953  0.47573  Biso   1.000  H
  H1093    1.0000 0.18902  0.05953  0.47573  Biso   1.000  H
  C1210    1.0000 0.81225  0.79812  0.18318  Biso   1.000  C
  H1094    1.0000 0.94481  0.59965  0.48002  Biso   1.000  H
  H1095    1.0000 0.96515  0.61241  0.51613  Biso   1.000  H
  H1096    1.0000 0.02937  0.78505  0.41543  Biso   1.000  H
  C1211    1.0000 0.09762  0.89051  0.42048  Biso   1.000  C
  C1212    1.0000 0.97997  0.17966  0.15526  Biso   1.000  C
  C1213    1.0000 0.12626  0.94590  0.44152  Biso   1.000  C
  C1214    1.0000 0.12617  0.94590  0.44152  Biso   1.000  C
  C1215    1.0000 0.19376  0.02336  0.39966  Biso   1.000  C
  C1216    1.0000 0.82038  0.80034  0.15526  Biso   1.000  C
  C1217    1.0000 0.11679  0.90270  0.38881  Biso   1.000  C
  C1218    1.0000 0.96914  0.16452  0.12190  Biso   1.000  C
  C1219    1.0000 0.96909  0.16452  0.12190  Biso   1.000  C
  H1097    1.0000 0.11267  0.93841  0.46274  Biso   1.000  H
  H1098    1.0000 0.11265  0.93846  0.46274  Biso   1.000  H
  C1220    1.0000 0.16456  0.96915  0.37808  Biso   1.000  C
  H1099    1.0000 0.22626  0.06733  0.39273  Biso   1.000  H
  C1221    1.0000 0.83551  0.80463  0.12190  Biso   1.000  C
  H1100    1.0000 0.09765  0.86622  0.37443  Biso   1.000  H
  C1222    1.0000 0.90273  0.11683  0.11117  Biso   1.000  C
  C1223    1.0000 0.90269  0.11683  0.11117  Biso   1.000  C
  C1224    1.0000 0.02336  0.19377  0.10033  Biso   1.000  C
  C1225    1.0000 0.02332  0.19377  0.10033  Biso   1.000  C
  C1226    1.0000 0.17965  0.98000  0.34475  Biso   1.000  C
  C1227    1.0000 0.80628  0.82959  0.10033  Biso   1.000  C
  C1228    1.0000 0.88323  0.78587  0.11117  Biso   1.000  C
  C1229    1.0000 0.88325  0.78593  0.11117  Biso   1.000  C
  H1101    1.0000 0.86621  0.09766  0.12556  Biso   1.000  H
  C1230    1.0000 0.89053  0.09761  0.07951  Biso   1.000  C
  C1231    1.0000 0.89048  0.09761  0.07951  Biso   1.000  C
  C1232    1.0000 0.01238  0.17475  0.06835  Biso   1.000  C
  H1102    1.0000 0.06736  0.22627  0.10726  Biso   1.000  H
  C1233    1.0000 0.01233  0.17475  0.06835  Biso   1.000  C
  H1103    1.0000 0.06731  0.22627  0.10726  Biso   1.000  H
  C1234    1.0000 0.18778  0.98589  0.31683  Biso   1.000  C
  C1235    1.0000 0.82523  0.83760  0.06835  Biso   1.000  C
  H1104    1.0000 0.77375  0.84106  0.10726  Biso   1.000  H
  C1236    1.0000 0.90240  0.79290  0.07951  Biso   1.000  C
  H1105    1.0000 0.90232  0.76856  0.12556  Biso   1.000  H
  C1237    1.0000 0.81980  0.04681  0.06930  Biso   1.000  C
  C1238    1.0000 0.94592  0.12623  0.05847  Biso   1.000  C
  C1239    1.0000 0.81976  0.04681  0.06930  Biso   1.000  C
  C1240    1.0000 0.94587  0.12623  0.05847  Biso   1.000  C
  C1241    1.0000 0.06924  0.20462  0.04518  Biso   1.000  C
  C1242    1.0000 0.19508  0.99297  0.28296  Biso   1.000  C
  C1243    1.0000 0.87377  0.81967  0.05847  Biso   1.000  C
  C1244    1.0000 0.79542  0.86462  0.04518  Biso   1.000  C
  C1245    1.0000 0.79538  0.86462  0.04518  Biso   1.000  C
  C1246    1.0000 0.95315  0.77296  0.06930  Biso   1.000  C
  H1106    1.0000 0.78502  0.02935  0.08456  Biso   1.000  H
  N132     1.0000 0.80378  0.02578  0.04128  Biso   1.000  N
  H1107    1.0000 0.93841  0.11264  0.03727  Biso   1.000  H
  H1108    1.0000 0.93843  0.11270  0.03727  Biso   1.000  H
  H1109    1.0000 0.05954  0.18907  0.02426  Biso   1.000  H
  N133     1.0000 0.13044  0.25014  0.05194  Biso   1.000  N
  H1110    1.0000 0.05949  0.18907  0.02426  Biso   1.000  H
  C1247    1.0000 0.17010  0.93701  0.26378  Biso   1.000  C
  C1248    1.0000 0.23046  0.05622  0.26881  Biso   1.000  C
  H1111    1.0000 0.88733  0.82576  0.03727  Biso   1.000  H
  H1112    1.0000 0.81096  0.87046  0.02426  Biso   1.000  H
  N134     1.0000 0.74989  0.88033  0.05194  Biso   1.000  N
  H1113    1.0000 0.97068  0.75565  0.08456  Biso   1.000  H
  N135     1.0000 0.97426  0.77802  0.04128  Biso   1.000  N
  H1114    1.0000 0.97063  0.75565  0.08456  Biso   1.000  H
  C1249    1.0000 0.73120  0.97468  0.03525  Biso   1.000  C
  C1250    1.0000 0.73115  0.97468  0.03525  Biso   1.000  C
  C1251    1.0000 0.18115  0.27567  0.02633  Biso   1.000  C
  C1252    1.0000 0.18111  0.27567  0.02633  Biso   1.000  C
  H1115    1.0000 0.14982  0.89314  0.27273  Biso   1.000  H
  C1253    1.0000 0.17424  0.94378  0.23120  Biso   1.000  C
  H1116    1.0000 0.14973  0.89314  0.27273  Biso   1.000  H
  H1117    1.0000 0.25326  0.09554  0.28144  Biso   1.000  H
  C1254    1.0000 0.23309  0.06299  0.23621  Biso   1.000  C
  C1255    1.0000 0.72437  0.90544  0.02633  Biso   1.000  C
  C1256    1.0000 0.72430  0.90549  0.02633  Biso   1.000  C
  C1257    1.0000 0.02533  0.75647  0.03525  Biso   1.000  C
  C1258    1.0000 0.02535  0.75652  0.03525  Biso   1.000  C
  H1118    1.0000 0.70454  0.96879  0.05467  Biso   1.000  H
  C1259    1.0000 0.70316  0.00041  0.00888  Biso   1.000  C
  C1260    1.0000 0.70312  0.00041  0.00888  Biso   1.000  C
  H1119    1.0000 0.15983  0.24859  0.00707  Biso   1.000  H
  C1261    1.0000 0.20480  0.35142  0.01966  Biso   1.000  C
  C1262    1.0000 0.24349  0.26879  0.03525  Biso   1.000  C
  H1120    1.0000 0.15772  0.90446  0.21857  Biso   1.000  H
  C1263    1.0000 0.20211  0.00703  0.21705  Biso   1.000  C
  C1264    1.0000 0.20206  0.00703  0.21705  Biso   1.000  C
  H1121    1.0000 0.25663  0.10686  0.22726  Biso   1.000  H
  H1122    1.0000 0.25659  0.10686  0.22726  Biso   1.000  H
  H1123    1.0000 0.75150  0.91128  0.00707  Biso   1.000  H
  C1265    1.0000 0.64861  0.85336  0.01966  Biso   1.000  C
  H1124    1.0000 0.75145  0.91128  0.00707  Biso   1.000  H
  C1266    1.0000 0.64852  0.85336  0.01966  Biso   1.000  C
  C1267    1.0000 0.99962  0.70273  0.00888  Biso   1.000  C
  C1268    1.0000 0.09459  0.81884  0.02633  Biso   1.000  C
  H1125    1.0000 0.03121  0.73575  0.05467  Biso   1.000  H
  C1269    1.0000 0.09450  0.81884  0.02633  Biso   1.000  C
  H1126    1.0000 0.70732  0.04408  0.01517  Biso   1.000  H
  C1270    1.0000 0.62788  0.94874  0.00169  Biso   1.000  C
  C1271    1.0000 0.62779  0.94874  0.00169  Biso   1.000  C
  H1127    1.0000 0.73054  0.00827  0.98986  Biso   1.000  H
  H1128    1.0000 0.73050  0.00827  0.98986  Biso   1.000  H
  C1272    1.0000 0.25962  0.38123  0.99383  Biso   1.000  C
  H1129    1.0000 0.16534  0.35555  0.01318  Biso   1.000  H
  H1130    1.0000 0.22336  0.37798  0.03896  Biso   1.000  H
  H1131    1.0000 0.16529  0.35555  0.01318  Biso   1.000  H
  H1132    1.0000 0.22331  0.37798  0.03896  Biso   1.000  H
  C1273    1.0000 0.29726  0.29685  0.00888  Biso   1.000  C
  H1133    1.0000 0.26421  0.29546  0.05467  Biso   1.000  H
  N136     1.0000 0.22196  0.19620  0.04128  Biso   1.000  N
  C1274    1.0000 0.29722  0.29685  0.00888  Biso   1.000  C
  C1275    1.0000 0.20184  0.01411  0.18318  Biso   1.000  C
  C1276    1.0000 0.61881  0.87842  0.99383  Biso   1.000  C
  H1134    1.0000 0.64444  0.80975  0.01318  Biso   1.000  H
  H1135    1.0000 0.62205  0.84535  0.03896  Biso   1.000  H
  H1136    1.0000 0.64439  0.80975  0.01318  Biso   1.000  H
  H1137    1.0000 0.95594  0.66326  0.01517  Biso   1.000  H
  H1138    1.0000 0.99180  0.72227  0.98986  Biso   1.000  H
  H1139    1.0000 0.99171  0.72227  0.98986  Biso   1.000  H
  C1277    1.0000 0.05127  0.67912  0.00169  Biso   1.000  C
  H1140    1.0000 0.08875  0.84018  0.00707  Biso   1.000  H
  N137     1.0000 0.11971  0.86953  0.05194  Biso   1.000  N
  C1278    1.0000 0.14666  0.79517  0.01966  Biso   1.000  C
  H1141    1.0000 0.61243  0.96517  0.98386  Biso   1.000  H
  H1142    1.0000 0.59967  0.94476  0.01997  Biso   1.000  H
  H1143    1.0000 0.23954  0.35834  0.97386  Biso   1.000  H
  H1144    1.0000 0.27535  0.43006  0.99126  Biso   1.000  H
  H1145    1.0000 0.23952  0.35839  0.97386  Biso   1.000  H
  H1146    1.0000 0.27531  0.43006  0.99126  Biso   1.000  H
  C1279    1.0000 0.32092  0.37219  0.00169  Biso   1.000  C
  C1280    1.0000 0.32088  0.37219  0.00169  Biso   1.000  C
  H1147    1.0000 0.27775  0.26947  0.98986  Biso   1.000  H
  H1148    1.0000 0.27771  0.26947  0.98986  Biso   1.000  H
  H1149    1.0000 0.33674  0.29267  0.01517  Biso   1.000  H
  H1150    1.0000 0.33669  0.29267  0.01517  Biso   1.000  H
  C1281    1.0000 0.22705  0.18023  0.06930  Biso   1.000  C
  C1282    1.0000 0.22700  0.18023  0.06930  Biso   1.000  C
  C1283    1.0000 0.19964  0.02000  0.15526  Biso   1.000  C
  H1151    1.0000 0.64161  0.88116  0.97386  Biso   1.000  H
  H1152    1.0000 0.56996  0.84524  0.99126  Biso   1.000  H
  H1153    1.0000 0.56998  0.84530  0.99126  Biso   1.000  H
  H1154    1.0000 0.03486  0.64729  0.98386  Biso   1.000  H
  C1284    1.0000 0.12157  0.74035  0.99383  Biso   1.000  C
  H1155    1.0000 0.05530  0.65489  0.01997  Biso   1.000  H
  H1156    1.0000 0.05526  0.65489  0.01997  Biso   1.000  H
  C1285    1.0000 0.13538  0.93076  0.04518  Biso   1.000  C
  C1286    1.0000 0.13534  0.93076  0.04518  Biso   1.000  C
  H1157    1.0000 0.19020  0.83465  0.01318  Biso   1.000  H
  H1158    1.0000 0.15468  0.77668  0.03896  Biso   1.000  H
  H1159    1.0000 0.35274  0.38759  0.98386  Biso   1.000  H
  H1160    1.0000 0.34512  0.40035  0.01997  Biso   1.000  H
  C1287    1.0000 0.20707  0.10949  0.07951  Biso   1.000  C
  H1161    1.0000 0.24432  0.21495  0.08456  Biso   1.000  H
  C1288    1.0000 0.19540  0.03085  0.12190  Biso   1.000  C
  C1289    1.0000 0.19536  0.03085  0.12190  Biso   1.000  C
  H1162    1.0000 0.11887  0.76045  0.97386  Biso   1.000  H
  H1163    1.0000 0.15471  0.72464  0.99126  Biso   1.000  H
  H1164    1.0000 0.11878  0.76045  0.97386  Biso   1.000  H
  H1165    1.0000 0.15474  0.72469  0.99126  Biso   1.000  H
  H1166    1.0000 0.12954  0.94047  0.02426  Biso   1.000  H
  C1290    1.0000 0.16237  0.98760  0.06835  Biso   1.000  C
  C1291    1.0000 0.21408  0.09730  0.11117  Biso   1.000  C
  C1292    1.0000 0.18031  0.05410  0.05847  Biso   1.000  C
  C1293    1.0000 0.17040  0.97664  0.10033  Biso   1.000  C
  H1167    1.0000 0.23143  0.13378  0.12556  Biso   1.000  H
  H1168    1.0000 0.17426  0.06159  0.03727  Biso   1.000  H
  H1169    1.0000 0.17422  0.06159  0.03727  Biso   1.000  H
  H1170    1.0000 0.15893  0.93267  0.10726  Biso   1.000  H
  C1294    1.0000 0.79516  0.14664  0.48036  Biso   1.000  C
  C1295    1.0000 0.81888  0.09456  0.47368  Biso   1.000  C
  C1296    1.0000 0.81884  0.09456  0.47368  Biso   1.000  C
  H1171    1.0000 0.77666  0.15465  0.46103  Biso   1.000  H
  H1172    1.0000 0.83469  0.19025  0.48684  Biso   1.000  H
  C1297    1.0000 0.74035  0.12158  0.50618  Biso   1.000  C
  H1173    1.0000 0.83464  0.19025  0.48684  Biso   1.000  H
  C1298    1.0000 0.74039  0.12158  0.50618  Biso   1.000  C
  N138     1.0000 0.86952  0.11967  0.44807  Biso   1.000  N
  N139     1.0000 0.86959  0.11972  0.44807  Biso   1.000  N
  N140     1.0000 0.86954  0.11972  0.44807  Biso   1.000  N
  H1174    1.0000 0.84017  0.08872  0.49294  Biso   1.000  H
  C1299    1.0000 0.79521  0.14664  0.48036  Biso   1.000  C
  C1300    1.0000 0.75652  0.02532  0.46476  Biso   1.000  C
  H1175    1.0000 0.84013  0.08872  0.49294  Biso   1.000  H
  C1301    1.0000 0.75647  0.02532  0.46476  Biso   1.000  C
  H1176    1.0000 0.76046  0.11884  0.52613  Biso   1.000  H
  H1177    1.0000 0.72467  0.15476  0.50872  Biso   1.000  H
  C1302    1.0000 0.67909  0.05126  0.49830  Biso   1.000  C
  C1303    1.0000 0.67905  0.05126  0.49830  Biso   1.000  C
  C1304    1.0000 0.93076  0.13538  0.45483  Biso   1.000  C
  C1305    1.0000 0.93071  0.13538  0.45483  Biso   1.000  C
  C1306    1.0000 0.70280  0.99959  0.49113  Biso   1.000  C
  N141     1.0000 0.77800  0.97422  0.45870  Biso   1.000  N
  C1307    1.0000 0.70275  0.99959  0.49113  Biso   1.000  C
  H1178    1.0000 0.73575  0.03121  0.44534  Biso   1.000  H
  H1179    1.0000 0.73577  0.03126  0.44534  Biso   1.000  H
  H1180    1.0000 0.65486  0.05524  0.48002  Biso   1.000  H
  H1181    1.0000 0.64725  0.03483  0.51613  Biso   1.000  H
  C1308    1.0000 0.98763  0.16240  0.43166  Biso   1.000  C
  C1309    1.0000 0.98759  0.16240  0.43166  Biso   1.000  C
  H1182    1.0000 0.94046  0.12954  0.47573  Biso   1.000  H
  H1183    1.0000 0.72227  0.99173  0.51013  Biso   1.000  H
  H1184    1.0000 0.66329  0.95592  0.48484  Biso   1.000  H
  C1310    1.0000 0.77299  0.95319  0.43071  Biso   1.000  C
  C1311    1.0000 0.97665  0.17041  0.39966  Biso   1.000  C
  C1312    1.0000 0.05410  0.18033  0.44152  Biso   1.000  C
  C1313    1.0000 0.05405  0.18033  0.44152  Biso   1.000  C
  C1314    1.0000 0.79296  0.90239  0.42048  Biso   1.000  C
  H1185    1.0000 0.75567  0.97065  0.41543  Biso   1.000  H
  C1315    1.0000 0.79288  0.90239  0.42048  Biso   1.000  C
  C1316    1.0000 0.03083  0.19537  0.37808  Biso   1.000  C
  C1317    1.0000 0.03086  0.19542  0.37808  Biso   1.000  C
  H1186    1.0000 0.93265  0.15894  0.39273  Biso   1.000  H
  C1318    1.0000 0.10950  0.20710  0.42048  Biso   1.000  C
  C1319    1.0000 0.10946  0.20710  0.42048  Biso   1.000  C
  H1187    1.0000 0.06157  0.17424  0.46274  Biso   1.000  H
  C1320    1.0000 0.78595  0.88317  0.38881  Biso   1.000  C
  C1321    1.0000 0.81973  0.87377  0.44152  Biso   1.000  C
  C1322    1.0000 0.78589  0.88322  0.38881  Biso   1.000  C
  C1323    1.0000 0.81964  0.87377  0.44152  Biso   1.000  C
  C1324    1.0000 0.02000  0.19966  0.34475  Biso   1.000  C
  C1325    1.0000 0.09731  0.21413  0.38881  Biso   1.000  C
  C1326    1.0000 0.18020  0.22704  0.43071  Biso   1.000  C
  C1327    1.0000 0.80466  0.83548  0.37808  Biso   1.000  C
  H1188    1.0000 0.76860  0.90234  0.37443  Biso   1.000  H
  C1328    1.0000 0.80461  0.83548  0.37808  Biso   1.000  C
  C1329    1.0000 0.83767  0.82525  0.43166  Biso   1.000  C
  H1189    1.0000 0.82577  0.88736  0.46274  Biso   1.000  H
  C1330    1.0000 0.83762  0.82525  0.43166  Biso   1.000  C
  C1331    1.0000 0.01413  0.20188  0.31683  Biso   1.000  C
  H1190    1.0000 0.13375  0.23144  0.37443  Biso   1.000  H
  H1191    1.0000 0.21499  0.24435  0.41543  Biso   1.000  H
  N142     1.0000 0.19619  0.22198  0.45870  Biso   1.000  N
  H1192    1.0000 0.21494  0.24435  0.41543  Biso   1.000  H
  C1332    1.0000 0.80031  0.82034  0.34475  Biso   1.000  C
  C1333    1.0000 0.82959  0.80623  0.39966  Biso   1.000  C
  C1334    1.0000 0.82955  0.80623  0.39966  Biso   1.000  C
  C1335    1.0000 0.86462  0.79538  0.45483  Biso   1.000  C
  C1336    1.0000 0.00703  0.20209  0.28296  Biso   1.000  C
  C1337    1.0000 0.00698  0.20209  0.28296  Biso   1.000  C
  C1338    1.0000 0.26881  0.24353  0.46476  Biso   1.000  C
  C1339    1.0000 0.79816  0.81228  0.31683  Biso   1.000  C
  C1340    1.0000 0.79812  0.81228  0.31683  Biso   1.000  C
  H1193    1.0000 0.84113  0.77373  0.39273  Biso   1.000  H
  H1194    1.0000 0.84104  0.77373  0.39273  Biso   1.000  H
  H1195    1.0000 0.87052  0.81093  0.47573  Biso   1.000  H
  N143     1.0000 0.88034  0.74986  0.44807  Biso   1.000  N
  H1196    1.0000 0.87043  0.81093  0.47573  Biso   1.000  H
  C1341    1.0000 0.94381  0.17429  0.26881  Biso   1.000  C
  C1342    1.0000 0.94377  0.17429  0.26881  Biso   1.000  C
  C1343    1.0000 0.06298  0.23309  0.26378  Biso   1.000  C
  C1344    1.0000 0.27571  0.18116  0.47368  Biso   1.000  C
  C1345    1.0000 0.29684  0.29727  0.49113  Biso   1.000  C
  H1197    1.0000 0.29546  0.26425  0.44534  Biso   1.000  H
  C1346    1.0000 0.27566  0.18116  0.47368  Biso   1.000  C
  C1347    1.0000 0.79798  0.80494  0.28296  Biso   1.000  C
  C1348    1.0000 0.79794  0.80494  0.28296  Biso   1.000  C
  C1349    1.0000 0.90553  0.72433  0.47368  Biso   1.000  C
  C1350    1.0000 0.90544  0.72433  0.47368  Biso   1.000  C
  C1351    1.0000 0.93702  0.17010  0.23621  Biso   1.000  C
  C1352    1.0000 0.93698  0.17010  0.23621  Biso   1.000  C
  H1198    1.0000 0.90449  0.15775  0.28144  Biso   1.000  H
  H1199    1.0000 0.90445  0.15775  0.28144  Biso   1.000  H
  C1353    1.0000 0.05620  0.23045  0.23120  Biso   1.000  C
  C1354    1.0000 0.05616  0.23045  0.23120  Biso   1.000  C
  H1200    1.0000 0.10689  0.25665  0.27273  Biso   1.000  H
  H1201    1.0000 0.10685  0.25665  0.27273  Biso   1.000  H
  H1202    1.0000 0.24857  0.15982  0.49294  Biso   1.000  H
  C1355    1.0000 0.35144  0.20483  0.48036  Biso   1.000  C
  N144     1.0000 0.25018  0.13047  0.44807  Biso   1.000  N
  H1203    1.0000 0.24852  0.15982  0.49294  Biso   1.000  H
  N145     1.0000 0.25014  0.13047  0.44807  Biso   1.000  N
  C1356    1.0000 0.37215  0.32088  0.49830  Biso   1.000  C
  H1204    1.0000 0.29268  0.33674  0.48484  Biso   1.000  H
  H1205    1.0000 0.26949  0.27773  0.51013  Biso   1.000  H
  C1357    1.0000 0.37217  0.32093  0.49830  Biso   1.000  C
  H1206    1.0000 0.29264  0.33674  0.48484  Biso   1.000  H
  H1207    1.0000 0.26944  0.27773  0.51013  Biso   1.000  H
  C1358    1.0000 0.76696  0.82990  0.26378  Biso   1.000  C
  C1359    1.0000 0.76688  0.82990  0.26378  Biso   1.000  C
  C1360    1.0000 0.82579  0.76955  0.26881  Biso   1.000  C
  C1361    1.0000 0.82570  0.76955  0.26881  Biso   1.000  C
  C1362    1.0000 0.97470  0.73121  0.46476  Biso   1.000  C
  H1208    1.0000 0.91128  0.75141  0.49294  Biso   1.000  H
  C1363    1.0000 0.85338  0.64858  0.48036  Biso   1.000  C
  H1209    1.0000 0.91131  0.75146  0.49294  Biso   1.000  H
  C1364    1.0000 0.99300  0.19506  0.21705  Biso   1.000  C
  C1365    1.0000 0.99295  0.19506  0.21705  Biso   1.000  C
  H1210    1.0000 0.89310  0.14974  0.22726  Biso   1.000  H
  H1211    1.0000 0.89313  0.14980  0.22726  Biso   1.000  H
  H1212    1.0000 0.09552  0.25324  0.21857  Biso   1.000  H
  H1213    1.0000 0.09555  0.25329  0.21857  Biso   1.000  H
  H1214    1.0000 0.35555  0.16535  0.48684  Biso   1.000  H
  H1215    1.0000 0.37796  0.22332  0.46103  Biso   1.000  H
  C1366    1.0000 0.38122  0.25965  0.50618  Biso   1.000  C
  C1367    1.0000 0.20462  0.06924  0.45483  Biso   1.000  C
  C1368    1.0000 0.20458  0.06924  0.45483  Biso   1.000  C
  H1216    1.0000 0.40037  0.34511  0.48002  Biso   1.000  H
  H1217    1.0000 0.38757  0.35271  0.51613  Biso   1.000  H
  H1218    1.0000 0.40033  0.34511  0.48002  Biso   1.000  H
  H1219    1.0000 0.38755  0.35276  0.51613  Biso   1.000  H
  C1369    1.0000 0.76957  0.82571  0.23120  Biso   1.000  C
  C1370    1.0000 0.76951  0.82576  0.23120  Biso   1.000  C
  H1220    1.0000 0.74336  0.85026  0.27273  Biso   1.000  H
  C1371    1.0000 0.82994  0.76691  0.23621  Biso   1.000  C
  H1221    1.0000 0.84228  0.74676  0.28144  Biso   1.000  H
  N146     1.0000 0.02581  0.80380  0.45870  Biso   1.000  N
  H1222    1.0000 0.96880  0.70454  0.44534  Biso   1.000  H
  C1372    1.0000 0.00045  0.70315  0.49113  Biso   1.000  C
  C1373    1.0000 0.00036  0.70315  0.49113  Biso   1.000  C
  H1223    1.0000 0.80983  0.64445  0.48684  Biso   1.000  H
  H1224    1.0000 0.84542  0.62202  0.46103  Biso   1.000  H
  C1374    1.0000 0.87843  0.61877  0.50618  Biso   1.000  C
  H1225    1.0000 0.80978  0.64445  0.48684  Biso   1.000  H
  H1226    1.0000 0.84533  0.62202  0.46103  Biso   1.000  H
  C1375    1.0000 0.98588  0.18772  0.18318  Biso   1.000  C
  C1376    1.0000 0.98586  0.18777  0.18318  Biso   1.000  C
  H1227    1.0000 0.35837  0.23955  0.52613  Biso   1.000  H
  H1228    1.0000 0.43007  0.27536  0.50872  Biso   1.000  H
  H1229    1.0000 0.35833  0.23955  0.52613  Biso   1.000  H
  C1377    1.0000 0.17477  0.01240  0.43166  Biso   1.000  C
  H1230    1.0000 0.18907  0.05953  0.47573  Biso   1.000  H
  H1231    1.0000 0.18902  0.05953  0.47573  Biso   1.000  H
  C1378    1.0000 0.80498  0.79791  0.21705  Biso   1.000  C
  C1379    1.0000 0.80489  0.79791  0.21705  Biso   1.000  C
  H1232    1.0000 0.74678  0.84225  0.21857  Biso   1.000  H
  H1233    1.0000 0.74674  0.84225  0.21857  Biso   1.000  H
  H1234    1.0000 0.85028  0.74335  0.22726  Biso   1.000  H
  H1235    1.0000 0.85019  0.74335  0.22726  Biso   1.000  H
  C1380    1.0000 0.04682  0.81977  0.43071  Biso   1.000  C
  C1381    1.0000 0.04684  0.81982  0.43071  Biso   1.000  C
  C1382    1.0000 0.94873  0.62781  0.49830  Biso   1.000  C
  H1236    1.0000 0.04407  0.70733  0.48484  Biso   1.000  H
  H1237    1.0000 0.00833  0.73053  0.51013  Biso   1.000  H
  H1238    1.0000 0.00828  0.73053  0.51013  Biso   1.000  H
  H1239    1.0000 0.84529  0.56994  0.50872  Biso   1.000  H
  H1240    1.0000 0.88124  0.64166  0.52613  Biso   1.000  H
  H1241    1.0000 0.88115  0.64166  0.52613  Biso   1.000  H
  C1383    1.0000 0.97997  0.17966  0.15526  Biso   1.000  C
  C1384    1.0000 0.12626  0.94590  0.44152  Biso   1.000  C
  C1385    1.0000 0.12617  0.94590  0.44152  Biso   1.000  C
  C1386    1.0000 0.19376  0.02336  0.39966  Biso   1.000  C
  C1387    1.0000 0.81225  0.79812  0.18318  Biso   1.000  C
  C1388    1.0000 0.09762  0.89051  0.42048  Biso   1.000  C
  H1242    1.0000 0.02937  0.78505  0.41543  Biso   1.000  H
  H1243    1.0000 0.94481  0.59965  0.48002  Biso   1.000  H
  H1244    1.0000 0.96515  0.61241  0.51613  Biso   1.000  H
  C1389    1.0000 0.96914  0.16452  0.12190  Biso   1.000  C
  C1390    1.0000 0.96909  0.16452  0.12190  Biso   1.000  C
  H1245    1.0000 0.11267  0.93841  0.46274  Biso   1.000  H
  H1246    1.0000 0.11265  0.93846  0.46274  Biso   1.000  H
  C1391    1.0000 0.16456  0.96915  0.37808  Biso   1.000  C
  H1247    1.0000 0.22626  0.06733  0.39273  Biso   1.000  H
  C1392    1.0000 0.82038  0.80034  0.15526  Biso   1.000  C
  C1393    1.0000 0.11679  0.90270  0.38881  Biso   1.000  C
  C1394    1.0000 0.90273  0.11683  0.11117  Biso   1.000  C
  C1395    1.0000 0.90269  0.11683  0.11117  Biso   1.000  C
  C1396    1.0000 0.02336  0.19377  0.10033  Biso   1.000  C
  C1397    1.0000 0.02332  0.19377  0.10033  Biso   1.000  C
  C1398    1.0000 0.17965  0.98000  0.34475  Biso   1.000  C
  C1399    1.0000 0.83551  0.80463  0.12190  Biso   1.000  C
  H1248    1.0000 0.09765  0.86622  0.37443  Biso   1.000  H
  H1249    1.0000 0.86621  0.09766  0.12556  Biso   1.000  H
  C1400    1.0000 0.89053  0.09761  0.07951  Biso   1.000  C
  C1401    1.0000 0.89048  0.09761  0.07951  Biso   1.000  C
  C1402    1.0000 0.01238  0.17475  0.06835  Biso   1.000  C
  H1250    1.0000 0.06736  0.22627  0.10726  Biso   1.000  H
  C1403    1.0000 0.01233  0.17475  0.06835  Biso   1.000  C
  H1251    1.0000 0.06731  0.22627  0.10726  Biso   1.000  H
  C1404    1.0000 0.18778  0.98589  0.31683  Biso   1.000  C
  C1405    1.0000 0.80628  0.82959  0.10033  Biso   1.000  C
  C1406    1.0000 0.88323  0.78587  0.11117  Biso   1.000  C
  C1407    1.0000 0.88325  0.78593  0.11117  Biso   1.000  C
  C1408    1.0000 0.81980  0.04681  0.06930  Biso   1.000  C
  C1409    1.0000 0.94592  0.12623  0.05847  Biso   1.000  C
  C1410    1.0000 0.81976  0.04681  0.06930  Biso   1.000  C
  C1411    1.0000 0.94587  0.12623  0.05847  Biso   1.000  C
  C1412    1.0000 0.06924  0.20462  0.04518  Biso   1.000  C
  C1413    1.0000 0.19508  0.99297  0.28296  Biso   1.000  C
  C1414    1.0000 0.82523  0.83760  0.06835  Biso   1.000  C
  H1252    1.0000 0.77375  0.84106  0.10726  Biso   1.000  H
  C1415    1.0000 0.90240  0.79290  0.07951  Biso   1.000  C
  H1253    1.0000 0.90232  0.76856  0.12556  Biso   1.000  H
  H1254    1.0000 0.78502  0.02935  0.08456  Biso   1.000  H
  N147     1.0000 0.80378  0.02578  0.04128  Biso   1.000  N
  H1255    1.0000 0.93841  0.11264  0.03727  Biso   1.000  H
  H1256    1.0000 0.93843  0.11270  0.03727  Biso   1.000  H
  H1257    1.0000 0.05954  0.18907  0.02426  Biso   1.000  H
  N148     1.0000 0.13044  0.25014  0.05194  Biso   1.000  N
  H1258    1.0000 0.05949  0.18907  0.02426  Biso   1.000  H
  C1416    1.0000 0.17010  0.93701  0.26378  Biso   1.000  C
  C1417    1.0000 0.23046  0.05622  0.26881  Biso   1.000  C
  C1418    1.0000 0.87377  0.81967  0.05847  Biso   1.000  C
  C1419    1.0000 0.79542  0.86462  0.04518  Biso   1.000  C
  C1420    1.0000 0.79538  0.86462  0.04518  Biso   1.000  C
  C1421    1.0000 0.95315  0.77296  0.06930  Biso   1.000  C
  C1422    1.0000 0.73120  0.97468  0.03525  Biso   1.000  C
  C1423    1.0000 0.73115  0.97468  0.03525  Biso   1.000  C
  C1424    1.0000 0.18115  0.27567  0.02633  Biso   1.000  C
  C1425    1.0000 0.18111  0.27567  0.02633  Biso   1.000  C
  C1426    1.0000 0.17424  0.94378  0.23120  Biso   1.000  C
  H1259    1.0000 0.14982  0.89314  0.27273  Biso   1.000  H
  H1260    1.0000 0.14973  0.89314  0.27273  Biso   1.000  H
  C1427    1.0000 0.23309  0.06299  0.23621  Biso   1.000  C
  H1261    1.0000 0.25326  0.09554  0.28144  Biso   1.000  H
  H1262    1.0000 0.88733  0.82576  0.03727  Biso   1.000  H
  N149     1.0000 0.74989  0.88033  0.05194  Biso   1.000  N
  H1263    1.0000 0.81096  0.87046  0.02426  Biso   1.000  H
  H1264    1.0000 0.97068  0.75565  0.08456  Biso   1.000  H
  N150     1.0000 0.97426  0.77802  0.04128  Biso   1.000  N
  H1265    1.0000 0.97063  0.75565  0.08456  Biso   1.000  H
  C1428    1.0000 0.72437  0.90544  0.02633  Biso   1.000  C
  H1266    1.0000 0.70454  0.96879  0.05467  Biso   1.000  H
  C1429    1.0000 0.72430  0.90549  0.02633  Biso   1.000  C
  C1430    1.0000 0.70316  0.00041  0.00888  Biso   1.000  C
  C1431    1.0000 0.70312  0.00041  0.00888  Biso   1.000  C
  H1267    1.0000 0.15983  0.24859  0.00707  Biso   1.000  H
  C1432    1.0000 0.20480  0.35142  0.01966  Biso   1.000  C
  C1433    1.0000 0.24349  0.26879  0.03525  Biso   1.000  C
  H1268    1.0000 0.15772  0.90446  0.21857  Biso   1.000  H
  C1434    1.0000 0.20211  0.00703  0.21705  Biso   1.000  C
  C1435    1.0000 0.20206  0.00703  0.21705  Biso   1.000  C
  H1269    1.0000 0.25663  0.10686  0.22726  Biso   1.000  H
  H1270    1.0000 0.25659  0.10686  0.22726  Biso   1.000  H
  C1436    1.0000 0.02533  0.75647  0.03525  Biso   1.000  C
  C1437    1.0000 0.02535  0.75652  0.03525  Biso   1.000  C
  H1271    1.0000 0.75150  0.91128  0.00707  Biso   1.000  H
  C1438    1.0000 0.64861  0.85336  0.01966  Biso   1.000  C
  H1272    1.0000 0.75145  0.91128  0.00707  Biso   1.000  H
  C1439    1.0000 0.64852  0.85336  0.01966  Biso   1.000  C
  H1273    1.0000 0.70732  0.04408  0.01517  Biso   1.000  H
  C1440    1.0000 0.62788  0.94874  0.00169  Biso   1.000  C
  C1441    1.0000 0.62779  0.94874  0.00169  Biso   1.000  C
  H1274    1.0000 0.73054  0.00827  0.98986  Biso   1.000  H
  H1275    1.0000 0.73050  0.00827  0.98986  Biso   1.000  H
  C1442    1.0000 0.25962  0.38123  0.99383  Biso   1.000  C
  H1276    1.0000 0.16534  0.35555  0.01318  Biso   1.000  H
  H1277    1.0000 0.22336  0.37798  0.03896  Biso   1.000  H
  H1278    1.0000 0.16529  0.35555  0.01318  Biso   1.000  H
  H1279    1.0000 0.22331  0.37798  0.03896  Biso   1.000  H
  C1443    1.0000 0.29726  0.29685  0.00888  Biso   1.000  C
  H1280    1.0000 0.26421  0.29546  0.05467  Biso   1.000  H
  N151     1.0000 0.22196  0.19620  0.04128  Biso   1.000  N
  C1444    1.0000 0.29722  0.29685  0.00888  Biso   1.000  C
  C1445    1.0000 0.20184  0.01411  0.18318  Biso   1.000  C
  C1446    1.0000 0.09459  0.81884  0.02633  Biso   1.000  C
  C1447    1.0000 0.09450  0.81884  0.02633  Biso   1.000  C
  C1448    1.0000 0.99962  0.70273  0.00888  Biso   1.000  C
  H1281    1.0000 0.03121  0.73575  0.05467  Biso   1.000  H
  C1449    1.0000 0.61881  0.87842  0.99383  Biso   1.000  C
  H1282    1.0000 0.64444  0.80975  0.01318  Biso   1.000  H
  H1283    1.0000 0.62205  0.84535  0.03896  Biso   1.000  H
  H1284    1.0000 0.64439  0.80975  0.01318  Biso   1.000  H
  H1285    1.0000 0.61243  0.96517  0.98386  Biso   1.000  H
  H1286    1.0000 0.59967  0.94476  0.01997  Biso   1.000  H
  H1287    1.0000 0.23954  0.35834  0.97386  Biso   1.000  H
  H1288    1.0000 0.27535  0.43006  0.99126  Biso   1.000  H
  H1289    1.0000 0.23952  0.35839  0.97386  Biso   1.000  H
  H1290    1.0000 0.27531  0.43006  0.99126  Biso   1.000  H
  C1450    1.0000 0.32092  0.37219  0.00169  Biso   1.000  C
  C1451    1.0000 0.32088  0.37219  0.00169  Biso   1.000  C
  H1291    1.0000 0.27775  0.26947  0.98986  Biso   1.000  H
  H1292    1.0000 0.27771  0.26947  0.98986  Biso   1.000  H
  H1293    1.0000 0.33674  0.29267  0.01517  Biso   1.000  H
  H1294    1.0000 0.33669  0.29267  0.01517  Biso   1.000  H
  C1452    1.0000 0.22705  0.18023  0.06930  Biso   1.000  C
  C1453    1.0000 0.22700  0.18023  0.06930  Biso   1.000  C
  C1454    1.0000 0.19964  0.02000  0.15526  Biso   1.000  C
  H1295    1.0000 0.08875  0.84018  0.00707  Biso   1.000  H
  N152     1.0000 0.11971  0.86953  0.05194  Biso   1.000  N
  C1455    1.0000 0.14666  0.79517  0.01966  Biso   1.000  C
  H1296    1.0000 0.95594  0.66326  0.01517  Biso   1.000  H
  H1297    1.0000 0.99180  0.72227  0.98986  Biso   1.000  H
  H1298    1.0000 0.99171  0.72227  0.98986  Biso   1.000  H
  C1456    1.0000 0.05127  0.67912  0.00169  Biso   1.000  C
  H1299    1.0000 0.64161  0.88116  0.97386  Biso   1.000  H
  H1300    1.0000 0.56996  0.84524  0.99126  Biso   1.000  H
  H1301    1.0000 0.56998  0.84530  0.99126  Biso   1.000  H
  H1302    1.0000 0.35274  0.38759  0.98386  Biso   1.000  H
  H1303    1.0000 0.34512  0.40035  0.01997  Biso   1.000  H
  C1457    1.0000 0.20707  0.10949  0.07951  Biso   1.000  C
  H1304    1.0000 0.24432  0.21495  0.08456  Biso   1.000  H
  C1458    1.0000 0.19540  0.03085  0.12190  Biso   1.000  C
  C1459    1.0000 0.19536  0.03085  0.12190  Biso   1.000  C
  C1460    1.0000 0.13538  0.93076  0.04518  Biso   1.000  C
  C1461    1.0000 0.13534  0.93076  0.04518  Biso   1.000  C
  C1462    1.0000 0.12157  0.74035  0.99383  Biso   1.000  C
  H1305    1.0000 0.19020  0.83465  0.01318  Biso   1.000  H
  H1306    1.0000 0.15468  0.77668  0.03896  Biso   1.000  H
  H1307    1.0000 0.03486  0.64729  0.98386  Biso   1.000  H
  H1308    1.0000 0.05530  0.65489  0.01997  Biso   1.000  H
  H1309    1.0000 0.05526  0.65489  0.01997  Biso   1.000  H
  C1463    1.0000 0.21408  0.09730  0.11117  Biso   1.000  C
  C1464    1.0000 0.18031  0.05410  0.05847  Biso   1.000  C
  C1465    1.0000 0.17040  0.97664  0.10033  Biso   1.000  C
  H1310    1.0000 0.12954  0.94047  0.02426  Biso   1.000  H
  C1466    1.0000 0.16237  0.98760  0.06835  Biso   1.000  C
  H1311    1.0000 0.11887  0.76045  0.97386  Biso   1.000  H
  H1312    1.0000 0.15471  0.72464  0.99126  Biso   1.000  H
  H1313    1.0000 0.11878  0.76045  0.97386  Biso   1.000  H
  H1314    1.0000 0.15474  0.72469  0.99126  Biso   1.000  H
  H1315    1.0000 0.23143  0.13378  0.12556  Biso   1.000  H
  H1316    1.0000 0.17426  0.06159  0.03727  Biso   1.000  H
  H1317    1.0000 0.17422  0.06159  0.03727  Biso   1.000  H
  H1318    1.0000 0.15893  0.93267  0.10726  Biso   1.000  H
  C1467    1.0000 0.04788  0.45491  0.33951  Biso   1.000  C
  C1468    1.0000 0.01812  0.47998  0.31368  Biso   1.000  C
  C1469    1.0000 0.03885  0.38459  0.33165  Biso   1.000  C
  H1319    1.0000 0.02503  0.45218  0.35947  Biso   1.000  H
  H1320    1.0000 0.09673  0.48809  0.34207  Biso   1.000  H
  C1470    1.0000 0.94237  0.42789  0.30701  Biso   1.000  C
  H1321    1.0000 0.02225  0.52359  0.32016  Biso   1.000  H
  H1322    1.0000 0.04464  0.48798  0.29438  Biso   1.000  H
  C1471    1.0000 0.96352  0.33292  0.32445  Biso   1.000  C
  H1323    1.0000 0.06702  0.38857  0.31337  Biso   1.000  H
  H1324    1.0000 0.05422  0.36816  0.34948  Biso   1.000  H
  N153     1.0000 0.91680  0.45300  0.28139  Biso   1.000  N
  C1472    1.0000 0.93549  0.35865  0.29808  Biso   1.000  C
  H1325    1.0000 0.91524  0.42205  0.32626  Biso   1.000  H
  H1326    1.0000 0.95932  0.28926  0.31816  Biso   1.000  H
  H1327    1.0000 0.93615  0.32506  0.34347  Biso   1.000  H
  C1473    1.0000 0.87131  0.46871  0.28816  Biso   1.000  C
  N154     1.0000 0.86286  0.30755  0.29205  Biso   1.000  N
  H1328    1.0000 0.96211  0.36454  0.27866  Biso   1.000  H
  C1474    1.0000 0.84146  0.49574  0.26499  Biso   1.000  C
  H1329    1.0000 0.85573  0.46287  0.30907  Biso   1.000  H
  C1475    1.0000 0.84689  0.28652  0.26404  Biso   1.000  C
  C1476    1.0000 0.79292  0.51367  0.27486  Biso   1.000  C
  C1477    1.0000 0.86041  0.50374  0.23301  Biso   1.000  C
  C1478    1.0000 0.77616  0.23572  0.25383  Biso   1.000  C
  H1330    1.0000 0.88162  0.30398  0.24877  Biso   1.000  H
  C1479    1.0000 0.76429  0.54043  0.25383  Biso   1.000  C
  H1331    1.0000 0.77931  0.50757  0.29606  Biso   1.000  H
  C1480    1.0000 0.83118  0.52870  0.21143  Biso   1.000  C
  H1332    1.0000 0.89293  0.49227  0.22608  Biso   1.000  H
  C1481    1.0000 0.72077  0.20710  0.27486  Biso   1.000  C
  C1482    1.0000 0.76395  0.21650  0.22216  Biso   1.000  C
  C1483    1.0000 0.71349  0.56038  0.26404  Biso   1.000  C
  C1484    1.0000 0.78346  0.54746  0.22216  Biso   1.000  C
  C1485    1.0000 0.84630  0.53299  0.17807  Biso   1.000  C
  C1486    1.0000 0.65431  0.15858  0.26499  Biso   1.000  C
  H1333    1.0000 0.72823  0.22069  0.29606  Biso   1.000  H
  C1487    1.0000 0.69755  0.16881  0.21143  Biso   1.000  C
  H1334    1.0000 0.80043  0.23567  0.20777  Biso   1.000  H
  N155     1.0000 0.69243  0.55531  0.29205  Biso   1.000  N
  H1335    1.0000 0.69606  0.57769  0.24877  Biso   1.000  H
  H1336    1.0000 0.76433  0.56477  0.20777  Biso   1.000  H
  C1488    1.0000 0.85440  0.53521  0.15016  Biso   1.000  C
  C1489    1.0000 0.59740  0.12871  0.28816  Biso   1.000  C
  C1490    1.0000 0.64333  0.13956  0.23301  Biso   1.000  C
  C1491    1.0000 0.68667  0.15367  0.17807  Biso   1.000  C
  C1492    1.0000 0.64136  0.57686  0.29808  Biso   1.000  C
  C1493    1.0000 0.86175  0.53542  0.11628  Biso   1.000  C
  N156     1.0000 0.53620  0.08319  0.28139  Biso   1.000  N
  H1337    1.0000 0.60715  0.14427  0.30907  Biso   1.000  H
  H1338    1.0000 0.59933  0.10706  0.22608  Biso   1.000  H
  C1494    1.0000 0.68081  0.14561  0.15016  Biso   1.000  C
  C1495    1.0000 0.57214  0.51449  0.30701  Biso   1.000  C
  C1496    1.0000 0.66707  0.63060  0.32445  Biso   1.000  C
  H1339    1.0000 0.63543  0.59758  0.27866  Biso   1.000  H
  C1497    1.0000 0.89716  0.50762  0.10213  Biso   1.000  C
  C1498    1.0000 0.83675  0.56642  0.09712  Biso   1.000  C
  C1499    1.0000 0.48554  0.05767  0.30701  Biso   1.000  C
  C1500    1.0000 0.67369  0.13827  0.11628  Biso   1.000  C
  N157     1.0000 0.54698  0.46380  0.28139  Biso   1.000  N
  H1340    1.0000 0.57794  0.49315  0.32626  Biso   1.000  H
  C1501    1.0000 0.52003  0.53816  0.31368  Biso   1.000  C
  C1502    1.0000 0.61538  0.65421  0.33165  Biso   1.000  C
  H1341    1.0000 0.71075  0.67007  0.31816  Biso   1.000  H
  H1342    1.0000 0.67493  0.61107  0.34347  Biso   1.000  H
  C1503    1.0000 0.89977  0.50343  0.06956  Biso   1.000  C
  H1343    1.0000 0.91995  0.49108  0.11476  Biso   1.000  H
  C1504    1.0000 0.84094  0.56379  0.06453  Biso   1.000  C
  H1344    1.0000 0.81645  0.58998  0.10607  Biso   1.000  H
  C1505    1.0000 0.42315  0.06454  0.29808  Biso   1.000  C
  H1345    1.0000 0.50682  0.08474  0.32626  Biso   1.000  H
  C1506    1.0000 0.46189  0.98192  0.31368  Biso   1.000  C
  C1507    1.0000 0.61048  0.10288  0.10213  Biso   1.000  C
  C1508    1.0000 0.72967  0.16323  0.09712  Biso   1.000  C
  C1509    1.0000 0.53131  0.40257  0.28816  Biso   1.000  C
  H1346    1.0000 0.47644  0.49868  0.32016  Biso   1.000  H
  H1347    1.0000 0.51201  0.55666  0.29438  Biso   1.000  H
  C1510    1.0000 0.54507  0.59298  0.33951  Biso   1.000  C
  H1348    1.0000 0.61143  0.67845  0.31337  Biso   1.000  H
  H1349    1.0000 0.63183  0.68604  0.34948  Biso   1.000  H
  C1511    1.0000 0.86875  0.52839  0.05038  Biso   1.000  C
  H1350    1.0000 0.92328  0.48308  0.06061  Biso   1.000  H
  H1351    1.0000 0.82439  0.58663  0.05190  Biso   1.000  H
  N158     1.0000 0.44468  0.13714  0.29205  Biso   1.000  N
  C1512    1.0000 0.36943  0.03648  0.32445  Biso   1.000  C
  H1352    1.0000 0.40243  0.03788  0.27866  Biso   1.000  H
  H1353    1.0000 0.50140  0.97778  0.32016  Biso   1.000  H
  H1354    1.0000 0.44333  0.95536  0.29438  Biso   1.000  H
  C1513    1.0000 0.40707  0.95210  0.33951  Biso   1.000  C
  C1514    1.0000 0.60366  0.10024  0.06956  Biso   1.000  C
  H1355    1.0000 0.57112  0.08009  0.11476  Biso   1.000  H
  C1515    1.0000 0.72287  0.15904  0.06453  Biso   1.000  C
  H1356    1.0000 0.77354  0.18359  0.10607  Biso   1.000  H
  C1516    1.0000 0.50428  0.34573  0.26499  Biso   1.000  C
  H1357    1.0000 0.53715  0.39286  0.30907  Biso   1.000  H
  H1358    1.0000 0.54786  0.57288  0.35947  Biso   1.000  H
  H1359    1.0000 0.51193  0.60869  0.34207  Biso   1.000  H
  C1517    1.0000 0.86853  0.52105  0.01650  Biso   1.000  C
  C1518    1.0000 0.43964  0.15310  0.26404  Biso   1.000  C
  H1360    1.0000 0.32995  0.04067  0.31816  Biso   1.000  H
  H1361    1.0000 0.38894  0.06387  0.34347  Biso   1.000  H
  C1519    1.0000 0.34581  0.96114  0.33165  Biso   1.000  C
  H1362    1.0000 0.42715  0.97499  0.35947  Biso   1.000  H
  H1363    1.0000 0.39134  0.90327  0.34207  Biso   1.000  H
  C1520    1.0000 0.65966  0.13125  0.05038  Biso   1.000  C
  H1364    1.0000 0.55980  0.07668  0.06061  Biso   1.000  H
  H1365    1.0000 0.76220  0.17558  0.05190  Biso   1.000  H
  C1521    1.0000 0.49624  0.35669  0.23301  Biso   1.000  C
  C1522    1.0000 0.48633  0.27923  0.27486  Biso   1.000  C
  C1523    1.0000 0.86633  0.51299  0.98858  Biso   1.000  C
  C1524    1.0000 0.45957  0.22384  0.25383  Biso   1.000  C
  H1366    1.0000 0.42233  0.11838  0.24877  Biso   1.000  H
  H1367    1.0000 0.32153  0.93298  0.31337  Biso   1.000  H
  H1368    1.0000 0.31395  0.94575  0.34948  Biso   1.000  H
  C1525    1.0000 0.65252  0.13145  0.01650  Biso   1.000  C
  C1526    1.0000 0.47129  0.30248  0.21143  Biso   1.000  C
  H1369    1.0000 0.50771  0.40066  0.22608  Biso   1.000  H
  H1370    1.0000 0.49245  0.27179  0.29606  Biso   1.000  H
  C1527    1.0000 0.86207  0.49785  0.95525  Biso   1.000  C
  C1528    1.0000 0.45256  0.23603  0.22216  Biso   1.000  C
  C1529    1.0000 0.64665  0.13367  0.98858  Biso   1.000  C
  C1530    1.0000 0.46700  0.31334  0.17807  Biso   1.000  C
  C1531    1.0000 0.83709  0.52710  0.93367  Biso   1.000  C
  C1532    1.0000 0.88078  0.45016  0.94452  Biso   1.000  C
  H1371    1.0000 0.43521  0.19955  0.20777  Biso   1.000  H
  C1533    1.0000 0.63581  0.13796  0.95525  Biso   1.000  C
  C1534    1.0000 0.46480  0.31923  0.15016  Biso   1.000  C
  C1535    1.0000 0.82906  0.50808  0.90167  Biso   1.000  C
  H1372    1.0000 0.82560  0.55960  0.94060  Biso   1.000  H
  C1536    1.0000 0.87377  0.43094  0.91285  Biso   1.000  C
  H1373    1.0000 0.89809  0.43099  0.95891  Biso   1.000  H
  C1537    1.0000 0.56934  0.11921  0.94452  Biso   1.000  C
  C1538    1.0000 0.69000  0.16292  0.93367  Biso   1.000  C
  C1539    1.0000 0.46458  0.32630  0.11628  Biso   1.000  C
  C1540    1.0000 0.80202  0.53795  0.87850  Biso   1.000  C
  C1541    1.0000 0.84700  0.45957  0.89182  Biso   1.000  C
  C1542    1.0000 0.89370  0.38015  0.90262  Biso   1.000  C
  C1543    1.0000 0.55719  0.12623  0.91285  Biso   1.000  C
  H1374    1.0000 0.53289  0.10190  0.95891  Biso   1.000  H
  C1544    1.0000 0.67906  0.17093  0.90167  Biso   1.000  C
  H1375    1.0000 0.73399  0.17439  0.94060  Biso   1.000  H
  C1545    1.0000 0.49240  0.38955  0.10213  Biso   1.000  C
  C1546    1.0000 0.43356  0.27034  0.09712  Biso   1.000  C
  N159     1.0000 0.78634  0.58347  0.88526  Biso   1.000  N
  H1376    1.0000 0.79621  0.52240  0.85761  Biso   1.000  H
  H1377    1.0000 0.84088  0.44598  0.87059  Biso   1.000  H
  H1378    1.0000 0.91097  0.36268  0.91791  Biso   1.000  H
  N160     1.0000 0.88865  0.35912  0.87463  Biso   1.000  N
  C1547    1.0000 0.48645  0.10629  0.90262  Biso   1.000  C
  C1548    1.0000 0.61259  0.15300  0.89182  Biso   1.000  C
  C1549    1.0000 0.73593  0.19795  0.87850  Biso   1.000  C
  C1550    1.0000 0.49654  0.39632  0.06956  Biso   1.000  C
  H1379    1.0000 0.50893  0.42887  0.11476  Biso   1.000  H
  C1551    1.0000 0.43618  0.27711  0.06453  Biso   1.000  C
  H1380    1.0000 0.41006  0.22648  0.10607  Biso   1.000  H
  C1552    1.0000 0.76121  0.60900  0.85965  Biso   1.000  C
  C1553    1.0000 0.91017  0.30801  0.86858  Biso   1.000  C
  N161     1.0000 0.47045  0.11135  0.87463  Biso   1.000  N
  H1381    1.0000 0.45170  0.08898  0.91791  Biso   1.000  H
  H1382    1.0000 0.60508  0.15910  0.87059  Biso   1.000  H
  H1383    1.0000 0.72619  0.20379  0.85761  Biso   1.000  H
  N162     1.0000 0.79712  0.21366  0.88526  Biso   1.000  N
  C1554    1.0000 0.47161  0.34036  0.05038  Biso   1.000  C
  H1384    1.0000 0.51691  0.44019  0.06061  Biso   1.000  H
  H1385    1.0000 0.41339  0.23779  0.05190  Biso   1.000  H
  C1555    1.0000 0.69194  0.60213  0.86858  Biso   1.000  C
  H1386    1.0000 0.75541  0.58192  0.84040  Biso   1.000  H
  C1556    1.0000 0.81327  0.68475  0.85298  Biso   1.000  C
  C1557    1.0000 0.84783  0.23883  0.85965  Biso   1.000  C
  C1558    1.0000 0.96394  0.33375  0.84220  Biso   1.000  C
  H1387    1.0000 0.93090  0.30212  0.88799  Biso   1.000  H
  C1559    1.0000 0.39784  0.08980  0.86858  Biso   1.000  C
  C1560    1.0000 0.47891  0.34744  0.01650  Biso   1.000  C
  N163     1.0000 0.64088  0.52953  0.87463  Biso   1.000  N
  C1561    1.0000 0.66628  0.63018  0.84220  Biso   1.000  C
  H1388    1.0000 0.69789  0.62879  0.88799  Biso   1.000  H
  H1389    1.0000 0.85690  0.68888  0.84650  Biso   1.000  H
  H1390    1.0000 0.82131  0.71131  0.87230  Biso   1.000  H
  C1562    1.0000 0.78826  0.71456  0.82715  Biso   1.000  C
  H1391    1.0000 0.82652  0.24461  0.84040  Biso   1.000  H
  C1563    1.0000 0.87148  0.18669  0.85298  Biso   1.000  C
  C1564    1.0000 0.98759  0.28207  0.83503  Biso   1.000  C
  H1392    1.0000 0.94442  0.34160  0.82321  Biso   1.000  H
  H1393    1.0000 0.00340  0.37741  0.84849  Biso   1.000  H
  C1565    1.0000 0.39098  0.15217  0.85965  Biso   1.000  C
  C1566    1.0000 0.36980  0.03607  0.84220  Biso   1.000  C
  H1394    1.0000 0.37119  0.06908  0.88799  Biso   1.000  H
  C1567    1.0000 0.48700  0.35333  0.98858  Biso   1.000  C
  C1568    1.0000 0.61987  0.51356  0.90262  Biso   1.000  C
  C1569    1.0000 0.71796  0.70552  0.83503  Biso   1.000  C
  H1395    1.0000 0.62262  0.62600  0.84849  Biso   1.000  H
  H1396    1.0000 0.65840  0.60280  0.82321  Biso   1.000  H
  H1397    1.0000 0.78552  0.69172  0.80721  Biso   1.000  H
  H1398    1.0000 0.82140  0.76339  0.82461  Biso   1.000  H
  H1399    1.0000 0.83200  0.14308  0.84650  Biso   1.000  H
  H1400    1.0000 0.88998  0.17868  0.87230  Biso   1.000  H
  C1570    1.0000 0.92630  0.21175  0.82715  Biso   1.000  C
  H1401    1.0000 0.01178  0.27810  0.85331  Biso   1.000  H
  H1402    1.0000 0.01939  0.29851  0.81720  Biso   1.000  H
  N164     1.0000 0.41651  0.20286  0.88526  Biso   1.000  N
  H1403    1.0000 0.41812  0.17351  0.84040  Biso   1.000  H
  C1571    1.0000 0.31520  0.12851  0.85298  Biso   1.000  C
  C1572    1.0000 0.29450  0.01245  0.83503  Biso   1.000  C
  H1404    1.0000 0.37401  0.99659  0.84849  Biso   1.000  H
  H1405    1.0000 0.39720  0.05560  0.82321  Biso   1.000  H
  C1573    1.0000 0.50213  0.36418  0.95525  Biso   1.000  C
  C1574    1.0000 0.56906  0.44282  0.91285  Biso   1.000  C
  H1406    1.0000 0.63728  0.54829  0.91791  Biso   1.000  H
  H1407    1.0000 0.72188  0.73368  0.85331  Biso   1.000  H
  H1408    1.0000 0.70149  0.72092  0.81720  Biso   1.000  H
  H1409    1.0000 0.90619  0.21449  0.80721  Biso   1.000  H
  H1410    1.0000 0.94198  0.17858  0.82461  Biso   1.000  H
  C1575    1.0000 0.46207  0.26409  0.87850  Biso   1.000  C
  H1411    1.0000 0.31109  0.16798  0.84650  Biso   1.000  H
  H1412    1.0000 0.28868  0.11001  0.87230  Biso   1.000  H
  C1576    1.0000 0.28542  0.07368  0.82715  Biso   1.000  C
  H1413    1.0000 0.26632  0.98822  0.85331  Biso   1.000  H
  H1414    1.0000 0.27916  0.98062  0.81720  Biso   1.000  H
  C1577    1.0000 0.47288  0.30998  0.93367  Biso   1.000  C
  C1578    1.0000 0.54986  0.43063  0.94452  Biso   1.000  C
  C1579    1.0000 0.54043  0.38743  0.89182  Biso   1.000  C
  C1580    1.0000 0.49187  0.32093  0.90167  Biso   1.000  C
  H1415    1.0000 0.47762  0.27381  0.85761  Biso   1.000  H
  H1416    1.0000 0.30831  0.09378  0.80721  Biso   1.000  H
  H1417    1.0000 0.23658  0.05798  0.82461  Biso   1.000  H
  H1418    1.0000 0.44038  0.26600  0.94060  Biso   1.000  H
  H1419    1.0000 0.56899  0.46711  0.95891  Biso   1.000  H
  H1420    1.0000 0.55402  0.39492  0.87059  Biso   1.000  H
  C1581    1.0000 0.70550  0.71792  0.66498  Biso   1.000  C
  C1582    1.0000 0.63017  0.66625  0.65779  Biso   1.000  C
  C1583    1.0000 0.71457  0.78825  0.67284  Biso   1.000  C
  H1421    1.0000 0.73371  0.72190  0.64670  Biso   1.000  H
  H1422    1.0000 0.72091  0.70149  0.68281  Biso   1.000  H
  C1584    1.0000 0.60213  0.69198  0.63141  Biso   1.000  C
  H1423    1.0000 0.62601  0.62259  0.65150  Biso   1.000  H
  H1424    1.0000 0.60279  0.65840  0.67680  Biso   1.000  H
  C1585    1.0000 0.68477  0.81331  0.64701  Biso   1.000  C
  H1425    1.0000 0.69172  0.78551  0.69280  Biso   1.000  H
  H1426    1.0000 0.76342  0.82142  0.67540  Biso   1.000  H
  N165     1.0000 0.52955  0.64088  0.62538  Biso   1.000  N
  C1586    1.0000 0.60901  0.76122  0.64034  Biso   1.000  C
  H1427    1.0000 0.62882  0.69793  0.61199  Biso   1.000  H
  H1428    1.0000 0.68890  0.85692  0.65349  Biso   1.000  H
  H1429    1.0000 0.71133  0.82132  0.62771  Biso   1.000  H
  C1587    1.0000 0.51353  0.61985  0.59737  Biso   1.000  C
  H1430    1.0000 0.58188  0.75538  0.65959  Biso   1.000  H
  N166     1.0000 0.58348  0.78634  0.61472  Biso   1.000  N
  C1588    1.0000 0.44280  0.56906  0.58716  Biso   1.000  C
  H1431    1.0000 0.54831  0.63731  0.58210  Biso   1.000  H
  C1589    1.0000 0.53795  0.80204  0.62149  Biso   1.000  C
  C1590    1.0000 0.43060  0.54984  0.55549  Biso   1.000  C
  C1591    1.0000 0.38741  0.54043  0.60820  Biso   1.000  C
  C1592    1.0000 0.50810  0.82907  0.59832  Biso   1.000  C
  H1432    1.0000 0.52241  0.79620  0.64240  Biso   1.000  H
  C1593    1.0000 0.36420  0.50214  0.54476  Biso   1.000  C
  H1433    1.0000 0.46712  0.56901  0.54111  Biso   1.000  H
  C1594    1.0000 0.32095  0.49191  0.59832  Biso   1.000  C
  H1434    1.0000 0.39492  0.55402  0.62939  Biso   1.000  H
  C1595    1.0000 0.52710  0.83708  0.56634  Biso   1.000  C
  C1596    1.0000 0.45957  0.84700  0.60820  Biso   1.000  C
  C1597    1.0000 0.35336  0.48700  0.51141  Biso   1.000  C
  C1598    1.0000 0.30997  0.47290  0.56634  Biso   1.000  C
  C1599    1.0000 0.26409  0.46205  0.62149  Biso   1.000  C
  C1600    1.0000 0.49790  0.86209  0.54476  Biso   1.000  C
  H1435    1.0000 0.55962  0.82561  0.55941  Biso   1.000  H
  C1601    1.0000 0.43093  0.87376  0.58716  Biso   1.000  C
  H1436    1.0000 0.44600  0.84090  0.62939  Biso   1.000  H
  C1602    1.0000 0.34745  0.47894  0.48349  Biso   1.000  C
  H1437    1.0000 0.26598  0.44040  0.55941  Biso   1.000  H
  H1438    1.0000 0.27379  0.47760  0.64240  Biso   1.000  H
  N167     1.0000 0.20289  0.41652  0.61472  Biso   1.000  N
  C1603    1.0000 0.51299  0.86632  0.51141  Biso   1.000  C
  C1604    1.0000 0.45015  0.88079  0.55549  Biso   1.000  C
  C1605    1.0000 0.38018  0.89371  0.59737  Biso   1.000  C
  C1606    1.0000 0.34034  0.47160  0.44961  Biso   1.000  C
  C1607    1.0000 0.15218  0.39100  0.64034  Biso   1.000  C
  C1608    1.0000 0.52108  0.86854  0.48349  Biso   1.000  C
  H1439    1.0000 0.43102  0.89810  0.54111  Biso   1.000  H
  H1440    1.0000 0.36270  0.91102  0.58210  Biso   1.000  H
  N168     1.0000 0.35912  0.88864  0.62538  Biso   1.000  N
  C1609    1.0000 0.39631  0.49656  0.43045  Biso   1.000  C
  C1610    1.0000 0.27713  0.43621  0.43546  Biso   1.000  C
  H1441    1.0000 0.17353  0.41812  0.65959  Biso   1.000  H
  C1611    1.0000 0.12854  0.31525  0.64701  Biso   1.000  C
  C1612    1.0000 0.08984  0.39787  0.63141  Biso   1.000  C
  C1613    1.0000 0.52839  0.86875  0.44961  Biso   1.000  C
  C1614    1.0000 0.30805  0.91019  0.63141  Biso   1.000  C
  C1615    1.0000 0.38954  0.49243  0.39786  Biso   1.000  C
  H1442    1.0000 0.44023  0.51692  0.43940  Biso   1.000  H
  C1616    1.0000 0.27035  0.43357  0.40289  Biso   1.000  C
  H1443    1.0000 0.23781  0.41342  0.44809  Biso   1.000  H
  H1444    1.0000 0.16800  0.31111  0.65349  Biso   1.000  H
  H1445    1.0000 0.10998  0.28869  0.62771  Biso   1.000  H
  C1617    1.0000 0.07371  0.28543  0.67284  Biso   1.000  C
  C1618    1.0000 0.03607  0.36981  0.65779  Biso   1.000  C
  H1446    1.0000 0.06912  0.37121  0.61199  Biso   1.000  H
  N169     1.0000 0.11137  0.47047  0.62538  Biso   1.000  N
  C1619    1.0000 0.50344  0.89975  0.43045  Biso   1.000  C
  C1620    1.0000 0.56381  0.84095  0.43546  Biso   1.000  C
  C1621    1.0000 0.23879  0.84782  0.64034  Biso   1.000  C
  C1622    1.0000 0.33376  0.96393  0.65779  Biso   1.000  C
  H1447    1.0000 0.30212  0.93091  0.61199  Biso   1.000  H
  C1623    1.0000 0.32631  0.46458  0.38371  Biso   1.000  C
  H1448    1.0000 0.42884  0.50891  0.38523  Biso   1.000  H
  H1449    1.0000 0.22644  0.41001  0.39394  Biso   1.000  H
  H1450    1.0000 0.09380  0.30832  0.69280  Biso   1.000  H
  H1451    1.0000 0.05798  0.23660  0.67540  Biso   1.000  H
  C1624    1.0000 0.01241  0.29448  0.66498  Biso   1.000  C
  H1452    1.0000 0.05558  0.39720  0.67680  Biso   1.000  H
  H1453    1.0000 0.99659  0.37400  0.65150  Biso   1.000  H
  C1625    1.0000 0.10629  0.48643  0.59737  Biso   1.000  C
  C1626    1.0000 0.50758  0.89712  0.39786  Biso   1.000  C
  H1454    1.0000 0.48309  0.92332  0.43940  Biso   1.000  H
  C1627    1.0000 0.56641  0.83677  0.40289  Biso   1.000  C
  H1455    1.0000 0.58659  0.82442  0.44809  Biso   1.000  H
  N170     1.0000 0.21362  0.79713  0.61472  Biso   1.000  N
  H1456    1.0000 0.24458  0.82648  0.65959  Biso   1.000  H
  C1628    1.0000 0.18672  0.87149  0.64701  Biso   1.000  C
  C1629    1.0000 0.28209  0.98760  0.66498  Biso   1.000  C
  H1457    1.0000 0.34158  0.94440  0.67680  Biso   1.000  H
  H1458    1.0000 0.37735  0.00341  0.65150  Biso   1.000  H
  C1630    1.0000 0.31920  0.46478  0.34983  Biso   1.000  C
  H1459    1.0000 0.98822  0.26631  0.64670  Biso   1.000  H
  H1460    1.0000 0.98059  0.27908  0.68281  Biso   1.000  H
  H1461    1.0000 0.08901  0.45171  0.58210  Biso   1.000  H
  C1631    1.0000 0.12626  0.55717  0.58716  Biso   1.000  C
  C1632    1.0000 0.53539  0.86172  0.38371  Biso   1.000  C
  H1462    1.0000 0.49108  0.91996  0.38523  Biso   1.000  H
  H1463    1.0000 0.58997  0.81641  0.39394  Biso   1.000  H
  C1633    1.0000 0.19795  0.73590  0.62149  Biso   1.000  C
  H1464    1.0000 0.14313  0.83201  0.65349  Biso   1.000  H
  H1465    1.0000 0.17869  0.88999  0.62771  Biso   1.000  H
  C1634    1.0000 0.21176  0.92631  0.67284  Biso   1.000  C
  H1466    1.0000 0.27807  0.01178  0.64670  Biso   1.000  H
  H1467    1.0000 0.29845  0.01942  0.68281  Biso   1.000  H
  C1635    1.0000 0.31333  0.46701  0.32191  Biso   1.000  C
  C1636    1.0000 0.11925  0.56937  0.55549  Biso   1.000  C
  C1637    1.0000 0.15302  0.61256  0.60820  Biso   1.000  C
  C1638    1.0000 0.53520  0.85444  0.34983  Biso   1.000  C
  C1639    1.0000 0.17096  0.67907  0.59832  Biso   1.000  C
  H1468    1.0000 0.20379  0.72619  0.64240  Biso   1.000  H
  H1469    1.0000 0.21451  0.90621  0.69280  Biso   1.000  H
  H1470    1.0000 0.17862  0.94202  0.67540  Biso   1.000  H
  C1640    1.0000 0.30250  0.47129  0.28858  Biso   1.000  C
  C1641    1.0000 0.13793  0.63582  0.54476  Biso   1.000  C
  H1471    1.0000 0.10190  0.53289  0.54111  Biso   1.000  H
  H1472    1.0000 0.15910  0.60512  0.62939  Biso   1.000  H
  C1642    1.0000 0.53302  0.84633  0.32191  Biso   1.000  C
  C1643    1.0000 0.16293  0.69002  0.56634  Biso   1.000  C
  C1644    1.0000 0.35669  0.49625  0.26700  Biso   1.000  C
  C1645    1.0000 0.23602  0.45254  0.27785  Biso   1.000  C
  C1646    1.0000 0.13369  0.64667  0.51141  Biso   1.000  C
  C1647    1.0000 0.52872  0.83119  0.28858  Biso   1.000  C
  H1473    1.0000 0.17440  0.73399  0.55941  Biso   1.000  H
  C1648    1.0000 0.34570  0.50426  0.23500  Biso   1.000  C
  H1474    1.0000 0.40068  0.50772  0.27394  Biso   1.000  H
  H1475    1.0000 0.19958  0.43523  0.29224  Biso   1.000  H
  C1649    1.0000 0.22383  0.45957  0.24618  Biso   1.000  C
  C1650    1.0000 0.13149  0.65256  0.48349  Biso   1.000  C
  C1651    1.0000 0.54743  0.78349  0.27785  Biso   1.000  C
  C1652    1.0000 0.50374  0.86043  0.26700  Biso   1.000  C
  C1653    1.0000 0.27923  0.48633  0.22515  Biso   1.000  C
  C1654    1.0000 0.40257  0.53129  0.21183  Biso   1.000  C
  C1655    1.0000 0.15313  0.43962  0.23595  Biso   1.000  C
  C1656    1.0000 0.13122  0.65964  0.44961  Biso   1.000  C
  C1657    1.0000 0.54041  0.76427  0.24618  Biso   1.000  C
  H1476    1.0000 0.56478  0.76432  0.29224  Biso   1.000  H
  C1658    1.0000 0.49571  0.84142  0.23500  Biso   1.000  C
  H1477    1.0000 0.49224  0.89293  0.27394  Biso   1.000  H
  H1478    1.0000 0.27177  0.49243  0.20393  Biso   1.000  H
  H1479    1.0000 0.39287  0.53712  0.19094  Biso   1.000  H
  N171     1.0000 0.46381  0.54699  0.21860  Biso   1.000  N
  H1480    1.0000 0.11835  0.42231  0.25124  Biso   1.000  H
  N172     1.0000 0.13714  0.44468  0.20796  Biso   1.000  N
  C1659    1.0000 0.10025  0.60368  0.43045  Biso   1.000  C
  C1660    1.0000 0.15909  0.72288  0.43546  Biso   1.000  C
  C1661    1.0000 0.56035  0.71348  0.23595  Biso   1.000  C
  C1662    1.0000 0.51365  0.79290  0.22515  Biso   1.000  C
  C1663    1.0000 0.46871  0.87128  0.21183  Biso   1.000  C
  C1664    1.0000 0.51448  0.57216  0.19298  Biso   1.000  C
  C1665    1.0000 0.06455  0.42319  0.20191  Biso   1.000  C
  C1666    1.0000 0.10287  0.61045  0.39786  Biso   1.000  C
  H1481    1.0000 0.07670  0.55981  0.43940  Biso   1.000  H
  C1667    1.0000 0.16323  0.72965  0.40289  Biso   1.000  C
  H1482    1.0000 0.17562  0.76220  0.44809  Biso   1.000  H
  N173     1.0000 0.55533  0.69245  0.20796  Biso   1.000  N
  H1483    1.0000 0.57766  0.69601  0.25124  Biso   1.000  H
  H1484    1.0000 0.50757  0.77931  0.20393  Biso   1.000  H
  H1485    1.0000 0.46286  0.85573  0.19094  Biso   1.000  H
  N174     1.0000 0.45303  0.91681  0.21860  Biso   1.000  N
  H1486    1.0000 0.49316  0.57794  0.17373  Biso   1.000  H
  C1668    1.0000 0.53812  0.52002  0.18631  Biso   1.000  C
  C1669    1.0000 0.57681  0.64135  0.20191  Biso   1.000  C
  C1670    1.0000 0.05763  0.48550  0.19298  Biso   1.000  C
  C1671    1.0000 0.03649  0.36940  0.17553  Biso   1.000  C
  H1487    1.0000 0.03788  0.40242  0.22133  Biso   1.000  H
  C1672    1.0000 0.13825  0.67369  0.38371  Biso   1.000  C
  H1488    1.0000 0.08008  0.57112  0.38523  Biso   1.000  H
  H1489    1.0000 0.18356  0.77352  0.39394  Biso   1.000  H
  C1673    1.0000 0.42785  0.94233  0.19298  Biso   1.000  C
  H1490    1.0000 0.49864  0.47641  0.17983  Biso   1.000  H
  H1491    1.0000 0.55667  0.51201  0.20564  Biso   1.000  H
  C1674    1.0000 0.59299  0.54508  0.16048  Biso   1.000  C
  C1675    1.0000 0.63058  0.66708  0.17553  Biso   1.000  C
  H1492    1.0000 0.59759  0.63545  0.22133  Biso   1.000  H
  H1493    1.0000 0.08476  0.50684  0.17373  Biso   1.000  H
  N175     1.0000 0.08315  0.53619  0.21860  Biso   1.000  N
  C1676    1.0000 0.98189  0.46184  0.18631  Biso   1.000  C
  H1494    1.0000 0.04065  0.32992  0.18182  Biso   1.000  H
  H1495    1.0000 0.06384  0.38893  0.15654  Biso   1.000  H
  C1677    1.0000 0.96119  0.34578  0.16836  Biso   1.000  C
  C1678    1.0000 0.14559  0.68077  0.34983  Biso   1.000  C
  C1679    1.0000 0.35863  0.93546  0.20191  Biso   1.000  C
  H1496    1.0000 0.42210  0.91526  0.17373  Biso   1.000  H
  C1680    1.0000 0.47995  0.01808  0.18631  Biso   1.000  C
  H1497    1.0000 0.57288  0.54782  0.14054  Biso   1.000  H
  H1498    1.0000 0.60866  0.51191  0.15794  Biso   1.000  H
  C1681    1.0000 0.65424  0.61541  0.16836  Biso   1.000  C
  H1499    1.0000 0.67009  0.71074  0.18182  Biso   1.000  H
  H1500    1.0000 0.61106  0.67493  0.15654  Biso   1.000  H
  C1682    1.0000 0.12871  0.59742  0.21183  Biso   1.000  C
  H1501    1.0000 0.97778  0.50132  0.17983  Biso   1.000  H
  H1502    1.0000 0.95537  0.44334  0.20564  Biso   1.000  H
  C1683    1.0000 0.95211  0.40702  0.16048  Biso   1.000  C
  H1503    1.0000 0.93296  0.32155  0.18664  Biso   1.000  H
  H1504    1.0000 0.94576  0.31396  0.15054  Biso   1.000  H
  C1684    1.0000 0.15369  0.68666  0.32191  Biso   1.000  C
  N176     1.0000 0.30757  0.86286  0.20796  Biso   1.000  N
  C1685    1.0000 0.33292  0.96352  0.17553  Biso   1.000  C
  H1505    1.0000 0.36458  0.96212  0.22133  Biso   1.000  H
  H1506    1.0000 0.52355  0.02222  0.17983  Biso   1.000  H
  H1507    1.0000 0.48795  0.04464  0.20564  Biso   1.000  H
  C1686    1.0000 0.45495  0.04790  0.16048  Biso   1.000  C
  H1508    1.0000 0.67847  0.61143  0.18664  Biso   1.000  H
  H1509    1.0000 0.68608  0.63184  0.15054  Biso   1.000  H
  C1687    1.0000 0.15856  0.65426  0.23500  Biso   1.000  C
  H1510    1.0000 0.14426  0.60714  0.19094  Biso   1.000  H
  H1511    1.0000 0.97496  0.42712  0.14054  Biso   1.000  H
  H1512    1.0000 0.90329  0.39136  0.15794  Biso   1.000  H
  C1688    1.0000 0.16878  0.69751  0.28858  Biso   1.000  C
  C1689    1.0000 0.28652  0.84689  0.23595  Biso   1.000  C
  H1513    1.0000 0.28926  0.95933  0.18182  Biso   1.000  H
  H1514    1.0000 0.32505  0.93613  0.15654  Biso   1.000  H
  C1690    1.0000 0.38455  0.03885  0.16836  Biso   1.000  C
  H1515    1.0000 0.45216  0.02506  0.14054  Biso   1.000  H
  H1516    1.0000 0.48800  0.09673  0.15794  Biso   1.000  H
  C1691    1.0000 0.13957  0.64331  0.26700  Biso   1.000  C
  C1692    1.0000 0.20712  0.72076  0.22515  Biso   1.000  C
  C1693    1.0000 0.21654  0.76396  0.27785  Biso   1.000  C
  C1694    1.0000 0.23575  0.77616  0.24618  Biso   1.000  C
  H1517    1.0000 0.30397  0.88162  0.25124  Biso   1.000  H
  H1518    1.0000 0.38852  0.06701  0.18664  Biso   1.000  H
  H1519    1.0000 0.36813  0.05425  0.15054  Biso   1.000  H
  H1520    1.0000 0.10707  0.59934  0.27394  Biso   1.000  H
  H1521    1.0000 0.22066  0.72826  0.20393  Biso   1.000  H
  H1522    1.0000 0.23568  0.80044  0.29224  Biso   1.000  H
  C1695    1.0000 0.45491  0.40702  0.66049  Biso   1.000  C
  C1696    1.0000 0.47995  0.46184  0.68632  Biso   1.000  C
  H1523    1.0000 0.45216  0.42712  0.64053  Biso   1.000  H
  H1524    1.0000 0.48807  0.39136  0.65793  Biso   1.000  H
  C1697    1.0000 0.38460  0.34578  0.66835  Biso   1.000  C
  C1698    1.0000 0.42788  0.48550  0.69299  Biso   1.000  C
  H1525    1.0000 0.52354  0.50132  0.67984  Biso   1.000  H
  H1526    1.0000 0.48797  0.44334  0.70562  Biso   1.000  H
  H1527    1.0000 0.38859  0.32155  0.68663  Biso   1.000  H
  H1528    1.0000 0.36819  0.31396  0.65052  Biso   1.000  H
  C1699    1.0000 0.33291  0.36940  0.67555  Biso   1.000  C
  H1529    1.0000 0.42208  0.50684  0.67374  Biso   1.000  H
  C1700    1.0000 0.35864  0.42319  0.70192  Biso   1.000  C
  N177     1.0000 0.45304  0.53619  0.71861  Biso   1.000  N
  H1530    1.0000 0.28927  0.32992  0.68184  Biso   1.000  H
  H1531    1.0000 0.32509  0.38893  0.65653  Biso   1.000  H
  H1532    1.0000 0.36454  0.40242  0.72134  Biso   1.000  H
  N178     1.0000 0.30754  0.44468  0.70795  Biso   1.000  N
  C1701    1.0000 0.46871  0.59742  0.71184  Biso   1.000  C
  C1702    1.0000 0.28649  0.43962  0.73596  Biso   1.000  C
  C1703    1.0000 0.49570  0.65426  0.73501  Biso   1.000  C
  H1533    1.0000 0.46287  0.60714  0.69093  Biso   1.000  H
  C1704    1.0000 0.23573  0.45957  0.74617  Biso   1.000  C
  H1534    1.0000 0.30396  0.42231  0.75123  Biso   1.000  H
  C1705    1.0000 0.50374  0.64331  0.76699  Biso   1.000  C
  C1706    1.0000 0.51365  0.72076  0.72514  Biso   1.000  C
  C1707    1.0000 0.21651  0.45254  0.77784  Biso   1.000  C
  C1708    1.0000 0.20710  0.48633  0.72514  Biso   1.000  C
  H1535    1.0000 0.49227  0.59934  0.77392  Biso   1.000  H
  C1709    1.0000 0.52874  0.69751  0.78857  Biso   1.000  C
  C1710    1.0000 0.54040  0.77616  0.74617  Biso   1.000  C
  H1536    1.0000 0.50759  0.72826  0.70394  Biso   1.000  H
  C1711    1.0000 0.16879  0.47129  0.78857  Biso   1.000  C
  H1537    1.0000 0.23565  0.43523  0.79223  Biso   1.000  H
  C1712    1.0000 0.15856  0.50426  0.73501  Biso   1.000  C
  H1538    1.0000 0.22066  0.49243  0.70394  Biso   1.000  H
  C1713    1.0000 0.54742  0.76396  0.77784  Biso   1.000  C
  C1714    1.0000 0.53298  0.68666  0.82193  Biso   1.000  C
  C1715    1.0000 0.56038  0.84689  0.73596  Biso   1.000  C
  C1716    1.0000 0.13957  0.49625  0.76699  Biso   1.000  C
  C1717    1.0000 0.15367  0.46701  0.82193  Biso   1.000  C
  C1718    1.0000 0.12871  0.53129  0.71184  Biso   1.000  C
  H1539    1.0000 0.56476  0.80044  0.79223  Biso   1.000  H
  C1719    1.0000 0.53518  0.68077  0.84984  Biso   1.000  C
  H1540    1.0000 0.57765  0.88162  0.75123  Biso   1.000  H
  N179     1.0000 0.55529  0.86286  0.70795  Biso   1.000  N
  H1541    1.0000 0.10704  0.50772  0.77392  Biso   1.000  H
  C1720    1.0000 0.14558  0.46478  0.84984  Biso   1.000  C
  H1542    1.0000 0.14425  0.53712  0.69093  Biso   1.000  H
  N180     1.0000 0.08318  0.54699  0.71861  Biso   1.000  N
  C1721    1.0000 0.53544  0.67369  0.88372  Biso   1.000  C
  C1722    1.0000 0.57683  0.93546  0.70192  Biso   1.000  C
  C1723    1.0000 0.13827  0.46458  0.88372  Biso   1.000  C
  C1724    1.0000 0.05768  0.57216  0.69299  Biso   1.000  C
  C1725    1.0000 0.50758  0.61045  0.89787  Biso   1.000  C
  C1726    1.0000 0.56642  0.72965  0.90288  Biso   1.000  C
  C1727    1.0000 0.51448  0.94233  0.69299  Biso   1.000  C
  C1728    1.0000 0.63059  0.96352  0.67555  Biso   1.000  C
  H1543    1.0000 0.59754  0.96212  0.72134  Biso   1.000  H
  C1729    1.0000 0.10288  0.49243  0.89787  Biso   1.000  C
  C1730    1.0000 0.16322  0.43357  0.90288  Biso   1.000  C
  H1544    1.0000 0.08478  0.57794  0.67374  Biso   1.000  H
  C1731    1.0000 0.06453  0.64135  0.70192  Biso   1.000  C
  C1732    1.0000 0.98190  0.52002  0.68632  Biso   1.000  C
  C1733    1.0000 0.50343  0.60368  0.93044  Biso   1.000  C
  H1545    1.0000 0.49105  0.57112  0.88524  Biso   1.000  H
  C1734    1.0000 0.56380  0.72288  0.93547  Biso   1.000  C
  H1546    1.0000 0.58996  0.77352  0.89393  Biso   1.000  H
  H1547    1.0000 0.49316  0.91526  0.67374  Biso   1.000  H
  N181     1.0000 0.46377  0.91681  0.71861  Biso   1.000  N
  C1735    1.0000 0.53808  0.01808  0.68632  Biso   1.000  C
  H1548    1.0000 0.67007  0.95933  0.68184  Biso   1.000  H
  H1549    1.0000 0.61108  0.93613  0.65653  Biso   1.000  H
  C1736    1.0000 0.65425  0.03885  0.66835  Biso   1.000  C
  C1737    1.0000 0.10025  0.49656  0.93044  Biso   1.000  C
  H1550    1.0000 0.08007  0.50891  0.88524  Biso   1.000  H
  C1738    1.0000 0.15908  0.43621  0.93547  Biso   1.000  C
  H1551    1.0000 0.18357  0.41001  0.89393  Biso   1.000  H
  C1739    1.0000 0.03650  0.66708  0.67555  Biso   1.000  C
  H1552    1.0000 0.03787  0.63545  0.72134  Biso   1.000  H
  N182     1.0000 0.13711  0.69245  0.70795  Biso   1.000  N
  H1553    1.0000 0.97777  0.47641  0.67984  Biso   1.000  H
  H1554    1.0000 0.95534  0.51201  0.70562  Biso   1.000  H
  C1740    1.0000 0.95210  0.54508  0.66049  Biso   1.000  C
  C1741    1.0000 0.52841  0.65964  0.94962  Biso   1.000  C
  H1555    1.0000 0.48311  0.55981  0.93939  Biso   1.000  H
  H1556    1.0000 0.58659  0.76220  0.94810  Biso   1.000  H
  C1742    1.0000 0.40257  0.87128  0.71184  Biso   1.000  C
  H1557    1.0000 0.49862  0.02222  0.67984  Biso   1.000  H
  H1558    1.0000 0.55664  0.04464  0.70562  Biso   1.000  H
  C1743    1.0000 0.59295  0.04790  0.66049  Biso   1.000  C
  H1559    1.0000 0.67845  0.06701  0.68663  Biso   1.000  H
  H1560    1.0000 0.68603  0.05425  0.65052  Biso   1.000  H
  C1744    1.0000 0.13127  0.47160  0.94962  Biso   1.000  C
  H1561    1.0000 0.07669  0.51692  0.93939  Biso   1.000  H
  H1562    1.0000 0.17561  0.41342  0.94810  Biso   1.000  H
  H1563    1.0000 0.04065  0.71074  0.68184  Biso   1.000  H
  H1564    1.0000 0.06387  0.67493  0.65653  Biso   1.000  H
  C1745    1.0000 0.96117  0.61541  0.66835  Biso   1.000  C
  C1746    1.0000 0.15313  0.71348  0.73596  Biso   1.000  C
  H1565    1.0000 0.97494  0.54782  0.64053  Biso   1.000  H
  H1566    1.0000 0.90324  0.51191  0.65793  Biso   1.000  H
  C1747    1.0000 0.52107  0.65256  0.98350  Biso   1.000  C
  C1748    1.0000 0.34571  0.84142  0.73501  Biso   1.000  C
  H1567    1.0000 0.39287  0.85573  0.69093  Biso   1.000  H
  H1568    1.0000 0.57289  0.02506  0.64053  Biso   1.000  H
  H1569    1.0000 0.60864  0.09673  0.65793  Biso   1.000  H
  C1749    1.0000 0.13149  0.47894  0.98350  Biso   1.000  C
  H1570    1.0000 0.93296  0.61143  0.68663  Biso   1.000  H
  H1571    1.0000 0.94576  0.63184  0.65052  Biso   1.000  H
  H1572    1.0000 0.11836  0.69601  0.75123  Biso   1.000  H
  C1750    1.0000 0.22386  0.76427  0.74617  Biso   1.000  C
  C1751    1.0000 0.51298  0.64667  0.01142  Biso   1.000  C
  C1752    1.0000 0.35669  0.86043  0.76699  Biso   1.000  C
  C1753    1.0000 0.27925  0.79290  0.72514  Biso   1.000  C
  C1754    1.0000 0.13364  0.48700  0.01142  Biso   1.000  C
  C1755    1.0000 0.23607  0.78349  0.77784  Biso   1.000  C
  C1756    1.0000 0.49789  0.63582  0.04475  Biso   1.000  C
  H1573    1.0000 0.40069  0.89293  0.77392  Biso   1.000  H
  C1757    1.0000 0.30247  0.83119  0.78857  Biso   1.000  C
  H1574    1.0000 0.27174  0.77931  0.70394  Biso   1.000  H
  C1758    1.0000 0.13795  0.50214  0.04475  Biso   1.000  C
  H1575    1.0000 0.19954  0.76432  0.79223  Biso   1.000  H
  C1759    1.0000 0.52709  0.69002  0.06633  Biso   1.000  C
  C1760    1.0000 0.45012  0.56937  0.05548  Biso   1.000  C
  C1761    1.0000 0.31330  0.84633  0.82193  Biso   1.000  C
  C1762    1.0000 0.16293  0.47290  0.06633  Biso   1.000  C
  C1763    1.0000 0.11924  0.54984  0.05548  Biso   1.000  C
  C1764    1.0000 0.50810  0.67907  0.09833  Biso   1.000  C
  H1576    1.0000 0.55959  0.73399  0.05940  Biso   1.000  H
  H1577    1.0000 0.43098  0.53289  0.04109  Biso   1.000  H
  C1765    1.0000 0.43091  0.55717  0.08715  Biso   1.000  C
  C1766    1.0000 0.31924  0.85444  0.84984  Biso   1.000  C
  C1767    1.0000 0.17096  0.49191  0.09833  Biso   1.000  C
  H1578    1.0000 0.17442  0.44040  0.05940  Biso   1.000  H
  H1579    1.0000 0.10188  0.56901  0.04109  Biso   1.000  H
  C1768    1.0000 0.12625  0.56906  0.08715  Biso   1.000  C
  C1769    1.0000 0.45955  0.61256  0.10818  Biso   1.000  C
  C1770    1.0000 0.53795  0.73590  0.12150  Biso   1.000  C
  C1771    1.0000 0.38015  0.48643  0.09738  Biso   1.000  C
  C1772    1.0000 0.32633  0.86172  0.88372  Biso   1.000  C
  C1773    1.0000 0.15302  0.54043  0.10818  Biso   1.000  C
  C1774    1.0000 0.19795  0.46205  0.12150  Biso   1.000  C
  C1775    1.0000 0.10632  0.61985  0.09738  Biso   1.000  C
  H1580    1.0000 0.44603  0.60512  0.12941  Biso   1.000  H
  H1581    1.0000 0.52240  0.72619  0.14239  Biso   1.000  H
  N183     1.0000 0.58351  0.79713  0.11474  Biso   1.000  N
  H1582    1.0000 0.36270  0.45171  0.08209  Biso   1.000  H
  N184     1.0000 0.35910  0.47047  0.12537  Biso   1.000  N
  C1776    1.0000 0.38954  0.89712  0.89787  Biso   1.000  C
  C1777    1.0000 0.27035  0.83677  0.90288  Biso   1.000  C
  H1583    1.0000 0.15910  0.55402  0.12941  Biso   1.000  H
  H1584    1.0000 0.20381  0.47760  0.14239  Biso   1.000  H
  N185     1.0000 0.21363  0.41652  0.11474  Biso   1.000  N
  H1585    1.0000 0.08901  0.63731  0.08209  Biso   1.000  H
  N186     1.0000 0.11133  0.64088  0.12537  Biso   1.000  N
  C1778    1.0000 0.60904  0.84782  0.14035  Biso   1.000  C
  C1779    1.0000 0.30803  0.39787  0.13142  Biso   1.000  C
  C1780    1.0000 0.39631  0.89975  0.93044  Biso   1.000  C
  H1586    1.0000 0.42888  0.91996  0.88524  Biso   1.000  H
  C1781    1.0000 0.27715  0.84095  0.93547  Biso   1.000  C
  H1587    1.0000 0.22643  0.81641  0.89393  Biso   1.000  H
  C1782    1.0000 0.23882  0.39100  0.14035  Biso   1.000  C
  C1783    1.0000 0.08985  0.69198  0.13142  Biso   1.000  C
  H1588    1.0000 0.58190  0.82648  0.15960  Biso   1.000  H
  C1784    1.0000 0.68477  0.87149  0.14702  Biso   1.000  C
  C1785    1.0000 0.60214  0.91019  0.13142  Biso   1.000  C
  C1786    1.0000 0.33374  0.36981  0.15780  Biso   1.000  C
  H1589    1.0000 0.30208  0.37121  0.11201  Biso   1.000  H
  C1787    1.0000 0.34036  0.86875  0.94962  Biso   1.000  C
  H1590    1.0000 0.44022  0.92332  0.93939  Biso   1.000  H
  H1591    1.0000 0.23782  0.82442  0.94810  Biso   1.000  H
  H1592    1.0000 0.24459  0.41812  0.15960  Biso   1.000  H
  C1788    1.0000 0.18671  0.31525  0.14702  Biso   1.000  C
  C1789    1.0000 0.15221  0.76122  0.14035  Biso   1.000  C
  C1790    1.0000 0.03608  0.66625  0.15780  Biso   1.000  C
  H1593    1.0000 0.06910  0.69793  0.11201  Biso   1.000  H
  H1594    1.0000 0.68888  0.83201  0.15350  Biso   1.000  H
  H1595    1.0000 0.71129  0.88999  0.12770  Biso   1.000  H
  C1791    1.0000 0.71455  0.92631  0.17285  Biso   1.000  C
  C1792    1.0000 0.63017  0.96393  0.15780  Biso   1.000  C
  H1596    1.0000 0.62879  0.93091  0.11201  Biso   1.000  H
  N187     1.0000 0.52952  0.88864  0.12537  Biso   1.000  N
  C1793    1.0000 0.28207  0.29448  0.16497  Biso   1.000  C
  H1597    1.0000 0.37740  0.37400  0.15151  Biso   1.000  H
  H1598    1.0000 0.34162  0.39720  0.17679  Biso   1.000  H
  C1794    1.0000 0.34746  0.86854  0.98350  Biso   1.000  C
  H1599    1.0000 0.14312  0.31111  0.15350  Biso   1.000  H
  H1600    1.0000 0.17871  0.28869  0.12770  Biso   1.000  H
  C1795    1.0000 0.21172  0.28543  0.17285  Biso   1.000  C
  H1601    1.0000 0.17350  0.75538  0.15960  Biso   1.000  H
  C1796    1.0000 0.12854  0.81331  0.14702  Biso   1.000  C
  N188     1.0000 0.20285  0.78634  0.11474  Biso   1.000  N
  H1602    1.0000 0.99658  0.62259  0.15151  Biso   1.000  H
  C1797    1.0000 0.01243  0.71792  0.16497  Biso   1.000  C
  H1603    1.0000 0.05560  0.65840  0.17679  Biso   1.000  H
  H1604    1.0000 0.69171  0.90621  0.19279  Biso   1.000  H
  H1605    1.0000 0.76340  0.94202  0.17539  Biso   1.000  H
  C1798    1.0000 0.70550  0.98760  0.16497  Biso   1.000  C
  H1606    1.0000 0.60282  0.94440  0.17679  Biso   1.000  H
  H1607    1.0000 0.62597  0.00341  0.15151  Biso   1.000  H
  C1799    1.0000 0.51353  0.89371  0.09738  Biso   1.000  C
  H1608    1.0000 0.27810  0.26631  0.14669  Biso   1.000  H
  H1609    1.0000 0.29849  0.27908  0.18280  Biso   1.000  H
  C1800    1.0000 0.35333  0.86632  0.01142  Biso   1.000  C
  H1610    1.0000 0.21453  0.30832  0.19279  Biso   1.000  H
  H1611    1.0000 0.17862  0.23660  0.17539  Biso   1.000  H
  H1612    1.0000 0.16802  0.85692  0.15350  Biso   1.000  H
  H1613    1.0000 0.10999  0.82132  0.12770  Biso   1.000  H
  C1801    1.0000 0.07368  0.78825  0.17285  Biso   1.000  C
  C1802    1.0000 0.26409  0.80204  0.12150  Biso   1.000  C
  H1614    1.0000 0.98819  0.72190  0.14669  Biso   1.000  H
  H1615    1.0000 0.98058  0.70149  0.18280  Biso   1.000  H
  H1616    1.0000 0.73366  0.01178  0.14669  Biso   1.000  H
  H1617    1.0000 0.72093  0.01942  0.18280  Biso   1.000  H
  C1803    1.0000 0.44283  0.87376  0.08715  Biso   1.000  C
  H1618    1.0000 0.54832  0.91102  0.08209  Biso   1.000  H
  C1804    1.0000 0.36419  0.86209  0.04475  Biso   1.000  C
  H1619    1.0000 0.09379  0.78551  0.19279  Biso   1.000  H
  H1620    1.0000 0.05800  0.82142  0.17539  Biso   1.000  H
  C1805    1.0000 0.32096  0.82907  0.09833  Biso   1.000  C
  H1621    1.0000 0.27379  0.79620  0.14239  Biso   1.000  H
  C1806    1.0000 0.43064  0.88079  0.05548  Biso   1.000  C
  C1807    1.0000 0.38743  0.84700  0.10818  Biso   1.000  C
  C1808    1.0000 0.30998  0.83708  0.06633  Biso   1.000  C
  H1622    1.0000 0.46708  0.89810  0.04109  Biso   1.000  H
  H1623    1.0000 0.39490  0.84090  0.12941  Biso   1.000  H
  H1624    1.0000 0.26598  0.82561  0.05940  Biso   1.000  H
