data_image0
_cell_length_a       28.017
_cell_length_b       11.626
_cell_length_c       23.255
_cell_angle_alpha    90
_cell_angle_beta     110.6
_cell_angle_gamma    90

_symmetry_space_group_name_H-M    "P 1"
_symmetry_int_tables_number       1

loop_
  _symmetry_equiv_pos_as_xyz
  'x, y, z'

loop_
  _atom_site_label
  _atom_site_occupancy
  _atom_site_fract_x
  _atom_site_fract_y
  _atom_site_fract_z
  _atom_site_thermal_displace_type
  _atom_site_B_iso_or_equiv
  _atom_site_type_symbol
  C1       1.0000 0.58145  0.59014  0.92172  Biso   1.000  C
  N1       1.0000 0.60034  0.64425  0.87945  Biso   1.000  N
  N2       1.0000 0.60036  0.64425  0.87941  Biso   1.000  N
  N3       1.0000 0.60206  0.63633  0.98396  Biso   1.000  N
  N4       1.0000 0.60205  0.63633  0.98392  Biso   1.000  N
  C2       1.0000 0.63004  0.58799  0.85295  Biso   1.000  C
  C3       1.0000 0.63006  0.58799  0.85290  Biso   1.000  C
  C4       1.0000 0.58164  0.75305  0.85074  Biso   1.000  C
  C5       1.0000 0.58147  0.59014  0.92176  Biso   1.000  C
  C6       1.0000 0.63260  0.57346  0.03271  Biso   1.000  C
  C7       1.0000 0.58091  0.73456  0.00321  Biso   1.000  C
  C8       1.0000 0.63259  0.57346  0.03266  Biso   1.000  C
  C9       1.0000 0.58090  0.73456  0.00317  Biso   1.000  C
  N5       1.0000 0.63514  0.65646  0.80843  Biso   1.000  N
  O1       1.0000 0.64845  0.49183  0.86696  Biso   1.000  O
  O2       1.0000 0.64843  0.49183  0.86691  Biso   1.000  O
  C10      1.0000 0.60573  0.76062  0.79966  Biso   1.000  C
  C11      1.0000 0.60576  0.76062  0.79961  Biso   1.000  C
  N6       1.0000 0.60164  0.85300  0.88722  Biso   1.000  N
  O3       1.0000 0.65314  0.51875  0.97542  Biso   1.000  O
  O4       1.0000 0.65317  0.51875  0.97542  Biso   1.000  O
  N7       1.0000 0.63641  0.62954  0.08521  Biso   1.000  N
  N8       1.0000 0.63640  0.62954  0.08517  Biso   1.000  N
  N9       1.0000 0.59945  0.84500  0.99044  Biso   1.000  N
  C12      1.0000 0.60370  0.72880  0.07428  Biso   1.000  C
  C13      1.0000 0.66054  0.62128  0.76672  Biso   1.000  C
  N10      1.0000 0.63535  0.86470  0.81514  Biso   1.000  N
  C14      1.0000 0.63146  0.92061  0.86526  Biso   1.000  C
  C15      1.0000 0.63145  0.92061  0.86521  Biso   1.000  C
  C16      1.0000 0.57955  0.89885  0.93095  Biso   1.000  C
  C17      1.0000 0.57957  0.89885  0.93090  Biso   1.000  C
  C18      1.0000 0.65712  0.57612  0.14379  Biso   1.000  C
  C19      1.0000 0.62660  0.90444  0.04208  Biso   1.000  C
  N11      1.0000 0.63009  0.83743  0.09059  Biso   1.000  N
  N12      1.0000 0.63013  0.83743  0.09059  Biso   1.000  N
  N13      1.0000 0.71055  0.67022  0.77885  Biso   1.000  N
  N14      1.0000 0.71054  0.67022  0.77880  Biso   1.000  N
  C20      1.0000 0.65786  0.91786  0.77476  Biso   1.000  C
  C21      1.0000 0.65784  0.91786  0.77471  Biso   1.000  C
  O5       1.0000 0.64983  0.01196  0.88552  Biso   1.000  O
  O6       1.0000 0.64987  0.01196  0.88552  Biso   1.000  O
  N15      1.0000 0.70721  0.61543  0.18329  Biso   1.000  N
  N16      1.0000 0.70724  0.61543  0.18329  Biso   1.000  N
  O7       1.0000 0.64291  0.00241  0.04318  Biso   1.000  O
  C22      1.0000 0.65500  0.87339  0.15499  Biso   1.000  C
  C23      1.0000 0.65504  0.87339  0.15499  Biso   1.000  C
  C24      1.0000 0.72113  0.77860  0.75225  Biso   1.000  C
  C25      1.0000 0.75305  0.61190  0.81413  Biso   1.000  C
  C26      1.0000 0.72115  0.77860  0.75220  Biso   1.000  C
  N17      1.0000 0.70895  0.88035  0.78142  Biso   1.000  N
  C27      1.0000 0.74912  0.56150  0.18210  Biso   1.000  C
  C28      1.0000 0.71782  0.71942  0.22161  Biso   1.000  C
  N18      1.0000 0.70541  0.82694  0.18412  Biso   1.000  N
  N19      1.0000 0.70544  0.82694  0.18407  Biso   1.000  N
  C29      1.0000 0.78225  0.78058  0.77843  Biso   1.000  C
  C30      1.0000 0.69621  0.77929  0.68403  Biso   1.000  C
  C31      1.0000 0.69625  0.77929  0.68403  Biso   1.000  C
  O8       1.0000 0.75346  0.52142  0.84096  Biso   1.000  O
  N20      1.0000 0.79462  0.67315  0.81592  Biso   1.000  N
  O9       1.0000 0.75345  0.52142  0.84091  Biso   1.000  O
  N21      1.0000 0.79466  0.67315  0.81592  Biso   1.000  N
  C32      1.0000 0.75095  0.93850  0.81794  Biso   1.000  C
  O10      1.0000 0.75052  0.47230  0.15550  Biso   1.000  O
  N22      1.0000 0.79112  0.61973  0.21862  Biso   1.000  N
  N23      1.0000 0.79111  0.61973  0.21857  Biso   1.000  N
  C33      1.0000 0.69291  0.71822  0.26879  Biso   1.000  C
  C34      1.0000 0.77890  0.72140  0.24779  Biso   1.000  C
  C35      1.0000 0.77894  0.72140  0.24779  Biso   1.000  C
  C36      1.0000 0.74702  0.88810  0.18591  Biso   1.000  C
  C37      1.0000 0.74701  0.88810  0.18587  Biso   1.000  C
  N24      1.0000 0.79283  0.88466  0.81675  Biso   1.000  N
  C38      1.0000 0.80712  0.78178  0.73125  Biso   1.000  C
  N25      1.0000 0.79285  0.88466  0.81670  Biso   1.000  N
  C39      1.0000 0.80715  0.78178  0.73121  Biso   1.000  C
  C40      1.0000 0.84503  0.62661  0.84505  Biso   1.000  C
  C41      1.0000 0.84505  0.62661  0.84500  Biso   1.000  C
  O11      1.0000 0.74955  0.02770  0.84454  Biso   1.000  O
  C42      1.0000 0.84222  0.58223  0.22528  Biso   1.000  C
  N26      1.0000 0.78952  0.82986  0.22119  Biso   1.000  N
  C43      1.0000 0.80382  0.72071  0.31601  Biso   1.000  C
  O12      1.0000 0.74661  0.97858  0.15908  Biso   1.000  O
  C44      1.0000 0.84295  0.92396  0.85625  Biso   1.000  C
  C45      1.0000 0.84294  0.92396  0.85621  Biso   1.000  C
  N27      1.0000 0.86994  0.66265  0.90945  Biso   1.000  N
  N28      1.0000 0.86997  0.66265  0.90941  Biso   1.000  N
  N29      1.0000 0.86472  0.63530  0.18490  Biso   1.000  N
  C46      1.0000 0.83953  0.87872  0.23332  Biso   1.000  C
  C47      1.0000 0.83952  0.87872  0.23327  Biso   1.000  C
  N30      1.0000 0.86362  0.87055  0.91483  Biso   1.000  N
  N31      1.0000 0.86366  0.87055  0.91483  Biso   1.000  N
  C48      1.0000 0.89634  0.77120  0.92576  Biso   1.000  C
  C49      1.0000 0.87344  0.59565  0.95796  Biso   1.000  C
  C50      1.0000 0.89636  0.77120  0.92571  Biso   1.000  C
  C51      1.0000 0.87346  0.59565  0.95792  Biso   1.000  C
  C52      1.0000 0.86861  0.57939  0.13478  Biso   1.000  C
  C53      1.0000 0.89430  0.73938  0.20038  Biso   1.000  C
  C54      1.0000 0.89434  0.73938  0.20038  Biso   1.000  C
  N32      1.0000 0.86493  0.84363  0.19161  Biso   1.000  N
  C55      1.0000 0.86743  0.92663  0.96733  Biso   1.000  C
  C56      1.0000 0.86747  0.92663  0.96733  Biso   1.000  C
  C57      1.0000 0.91916  0.76553  0.99683  Biso   1.000  C
  O13      1.0000 0.85716  0.49759  0.95686  Biso   1.000  O
  O14      1.0000 0.85715  0.49759  0.95681  Biso   1.000  O
  N33      1.0000 0.90062  0.65500  0.00960  Biso   1.000  N
  N34      1.0000 0.89843  0.64700  0.11282  Biso   1.000  N
  N35      1.0000 0.89841  0.64700  0.11278  Biso   1.000  N
  O15      1.0000 0.85020  0.48813  0.11452  Biso   1.000  O
  O16      1.0000 0.85022  0.48813  0.11448  Biso   1.000  O
  C58      1.0000 0.91839  0.74703  0.14930  Biso   1.000  C
  C59      1.0000 0.91843  0.74703  0.14930  Biso   1.000  C
  C60      1.0000 0.86999  0.91201  0.14709  Biso   1.000  C
  C61      1.0000 0.87003  0.91201  0.14709  Biso   1.000  C
  O17      1.0000 0.84690  0.98133  0.02462  Biso   1.000  O
  N36      1.0000 0.89801  0.86375  0.01608  Biso   1.000  N
  O18      1.0000 0.84692  0.98133  0.02457  Biso   1.000  O
  C62      1.0000 0.92049  0.60124  0.06909  Biso   1.000  C
  C63      1.0000 0.92053  0.60124  0.06909  Biso   1.000  C
  N37      1.0000 0.89969  0.85584  0.12059  Biso   1.000  N
  N38      1.0000 0.89973  0.85584  0.12059  Biso   1.000  N
  O19      1.0000 0.85159  0.00826  0.13308  Biso   1.000  O
  O20      1.0000 0.85162  0.00826  0.13308  Biso   1.000  O
  C64      1.0000 0.91860  0.90994  0.07828  Biso   1.000  C
  C65      1.0000 0.58145  0.59014  0.92172  Biso   1.000  C
  N39      1.0000 0.60034  0.64425  0.87945  Biso   1.000  N
  N40      1.0000 0.60036  0.64425  0.87941  Biso   1.000  N
  N41      1.0000 0.60206  0.63633  0.98396  Biso   1.000  N
  N42      1.0000 0.60205  0.63633  0.98392  Biso   1.000  N
  C66      1.0000 0.63004  0.58799  0.85295  Biso   1.000  C
  C67      1.0000 0.63006  0.58799  0.85290  Biso   1.000  C
  C68      1.0000 0.58164  0.75305  0.85074  Biso   1.000  C
  C69      1.0000 0.58147  0.59014  0.92176  Biso   1.000  C
  C70      1.0000 0.63260  0.57346  0.03271  Biso   1.000  C
  C71      1.0000 0.58091  0.73456  0.00321  Biso   1.000  C
  C72      1.0000 0.63259  0.57346  0.03266  Biso   1.000  C
  C73      1.0000 0.58090  0.73456  0.00317  Biso   1.000  C
  N43      1.0000 0.63514  0.65646  0.80843  Biso   1.000  N
  O21      1.0000 0.64845  0.49183  0.86696  Biso   1.000  O
  O22      1.0000 0.64843  0.49183  0.86691  Biso   1.000  O
  C74      1.0000 0.60573  0.76062  0.79966  Biso   1.000  C
  C75      1.0000 0.60576  0.76062  0.79961  Biso   1.000  C
  N44      1.0000 0.60164  0.85300  0.88722  Biso   1.000  N
  O23      1.0000 0.65314  0.51875  0.97542  Biso   1.000  O
  O24      1.0000 0.65317  0.51875  0.97542  Biso   1.000  O
  N45      1.0000 0.63641  0.62954  0.08521  Biso   1.000  N
  N46      1.0000 0.63640  0.62954  0.08517  Biso   1.000  N
  N47      1.0000 0.59945  0.84500  0.99044  Biso   1.000  N
  C76      1.0000 0.60370  0.72880  0.07428  Biso   1.000  C
  C77      1.0000 0.66054  0.62128  0.76672  Biso   1.000  C
  N48      1.0000 0.63535  0.86470  0.81514  Biso   1.000  N
  C78      1.0000 0.63146  0.92061  0.86526  Biso   1.000  C
  C79      1.0000 0.63145  0.92061  0.86521  Biso   1.000  C
  C80      1.0000 0.57955  0.89885  0.93095  Biso   1.000  C
  C81      1.0000 0.57957  0.89885  0.93090  Biso   1.000  C
  C82      1.0000 0.65712  0.57612  0.14379  Biso   1.000  C
  C83      1.0000 0.62660  0.90444  0.04208  Biso   1.000  C
  N49      1.0000 0.63009  0.83743  0.09059  Biso   1.000  N
  N50      1.0000 0.63013  0.83743  0.09059  Biso   1.000  N
  N51      1.0000 0.71055  0.67022  0.77885  Biso   1.000  N
  N52      1.0000 0.71054  0.67022  0.77880  Biso   1.000  N
  C84      1.0000 0.65786  0.91786  0.77476  Biso   1.000  C
  C85      1.0000 0.65784  0.91786  0.77471  Biso   1.000  C
  O25      1.0000 0.64983  0.01196  0.88552  Biso   1.000  O
  O26      1.0000 0.64987  0.01196  0.88552  Biso   1.000  O
  N53      1.0000 0.70721  0.61543  0.18329  Biso   1.000  N
  N54      1.0000 0.70724  0.61543  0.18329  Biso   1.000  N
  O27      1.0000 0.64291  0.00241  0.04318  Biso   1.000  O
  C86      1.0000 0.65500  0.87339  0.15499  Biso   1.000  C
  C87      1.0000 0.65504  0.87339  0.15499  Biso   1.000  C
  C88      1.0000 0.75305  0.61190  0.81413  Biso   1.000  C
  C89      1.0000 0.72113  0.77860  0.75225  Biso   1.000  C
  C90      1.0000 0.72115  0.77860  0.75220  Biso   1.000  C
  N55      1.0000 0.70895  0.88035  0.78142  Biso   1.000  N
  C91      1.0000 0.74912  0.56150  0.18210  Biso   1.000  C
  C92      1.0000 0.71782  0.71942  0.22161  Biso   1.000  C
  N56      1.0000 0.70541  0.82694  0.18412  Biso   1.000  N
  N57      1.0000 0.70544  0.82694  0.18407  Biso   1.000  N
  O28      1.0000 0.75346  0.52142  0.84096  Biso   1.000  O
  N58      1.0000 0.79462  0.67315  0.81592  Biso   1.000  N
  O29      1.0000 0.75345  0.52142  0.84091  Biso   1.000  O
  N59      1.0000 0.79466  0.67315  0.81592  Biso   1.000  N
  C93      1.0000 0.78225  0.78058  0.77843  Biso   1.000  C
  C94      1.0000 0.69621  0.77929  0.68403  Biso   1.000  C
  C95      1.0000 0.69625  0.77929  0.68403  Biso   1.000  C
  C96      1.0000 0.75095  0.93850  0.81794  Biso   1.000  C
  O30      1.0000 0.75052  0.47230  0.15550  Biso   1.000  O
  N60      1.0000 0.79112  0.61973  0.21862  Biso   1.000  N
  N61      1.0000 0.79111  0.61973  0.21857  Biso   1.000  N
  C97      1.0000 0.69291  0.71822  0.26879  Biso   1.000  C
  C98      1.0000 0.77890  0.72140  0.24779  Biso   1.000  C
  C99      1.0000 0.77894  0.72140  0.24779  Biso   1.000  C
  C100     1.0000 0.74702  0.88810  0.18591  Biso   1.000  C
  C101     1.0000 0.74701  0.88810  0.18587  Biso   1.000  C
  C102     1.0000 0.84503  0.62661  0.84505  Biso   1.000  C
  C103     1.0000 0.84505  0.62661  0.84500  Biso   1.000  C
  N62      1.0000 0.79283  0.88466  0.81675  Biso   1.000  N
  C104     1.0000 0.80712  0.78178  0.73125  Biso   1.000  C
  N63      1.0000 0.79285  0.88466  0.81670  Biso   1.000  N
  C105     1.0000 0.80715  0.78178  0.73121  Biso   1.000  C
  O31      1.0000 0.74955  0.02770  0.84454  Biso   1.000  O
  C106     1.0000 0.84222  0.58223  0.22528  Biso   1.000  C
  N64      1.0000 0.78952  0.82986  0.22119  Biso   1.000  N
  C107     1.0000 0.80382  0.72071  0.31601  Biso   1.000  C
  O32      1.0000 0.74661  0.97858  0.15908  Biso   1.000  O
  N65      1.0000 0.86994  0.66265  0.90945  Biso   1.000  N
  N66      1.0000 0.86997  0.66265  0.90941  Biso   1.000  N
  C108     1.0000 0.84295  0.92396  0.85625  Biso   1.000  C
  C109     1.0000 0.84294  0.92396  0.85621  Biso   1.000  C
  N67      1.0000 0.86472  0.63530  0.18490  Biso   1.000  N
  C110     1.0000 0.83953  0.87872  0.23332  Biso   1.000  C
  C111     1.0000 0.83952  0.87872  0.23327  Biso   1.000  C
  C112     1.0000 0.89634  0.77120  0.92576  Biso   1.000  C
  C113     1.0000 0.87344  0.59565  0.95796  Biso   1.000  C
  C114     1.0000 0.89636  0.77120  0.92571  Biso   1.000  C
  C115     1.0000 0.87346  0.59565  0.95792  Biso   1.000  C
  N68      1.0000 0.86362  0.87055  0.91483  Biso   1.000  N
  N69      1.0000 0.86366  0.87055  0.91483  Biso   1.000  N
  C116     1.0000 0.86861  0.57939  0.13478  Biso   1.000  C
  C117     1.0000 0.89430  0.73938  0.20038  Biso   1.000  C
  C118     1.0000 0.89434  0.73938  0.20038  Biso   1.000  C
  N70      1.0000 0.86493  0.84363  0.19161  Biso   1.000  N
  C119     1.0000 0.91916  0.76553  0.99683  Biso   1.000  C
  O33      1.0000 0.85716  0.49759  0.95686  Biso   1.000  O
  O34      1.0000 0.85715  0.49759  0.95681  Biso   1.000  O
  N71      1.0000 0.90062  0.65500  0.00960  Biso   1.000  N
  C120     1.0000 0.86743  0.92663  0.96733  Biso   1.000  C
  C121     1.0000 0.86747  0.92663  0.96733  Biso   1.000  C
  N72      1.0000 0.89843  0.64700  0.11282  Biso   1.000  N
  N73      1.0000 0.89841  0.64700  0.11278  Biso   1.000  N
  O35      1.0000 0.85020  0.48813  0.11452  Biso   1.000  O
  O36      1.0000 0.85022  0.48813  0.11448  Biso   1.000  O
  C122     1.0000 0.91839  0.74703  0.14930  Biso   1.000  C
  C123     1.0000 0.91843  0.74703  0.14930  Biso   1.000  C
  C124     1.0000 0.86999  0.91201  0.14709  Biso   1.000  C
  C125     1.0000 0.87003  0.91201  0.14709  Biso   1.000  C
  N74      1.0000 0.89801  0.86375  0.01608  Biso   1.000  N
  C126     1.0000 0.92049  0.60124  0.06909  Biso   1.000  C
  C127     1.0000 0.92053  0.60124  0.06909  Biso   1.000  C
  O37      1.0000 0.84690  0.98133  0.02462  Biso   1.000  O
  O38      1.0000 0.84692  0.98133  0.02457  Biso   1.000  O
  N75      1.0000 0.89969  0.85584  0.12059  Biso   1.000  N
  N76      1.0000 0.89973  0.85584  0.12059  Biso   1.000  N
  O39      1.0000 0.85159  0.00826  0.13308  Biso   1.000  O
  O40      1.0000 0.85162  0.00826  0.13308  Biso   1.000  O
  C128     1.0000 0.91860  0.90994  0.07828  Biso   1.000  C
  N77      1.0000 0.36495  0.65646  0.69161  Biso   1.000  N
  C129     1.0000 0.37005  0.58799  0.64709  Biso   1.000  C
  C130     1.0000 0.39433  0.76062  0.70043  Biso   1.000  C
  C131     1.0000 0.33955  0.62128  0.73332  Biso   1.000  C
  N78      1.0000 0.39976  0.64425  0.62063  Biso   1.000  N
  O41      1.0000 0.35165  0.49183  0.63313  Biso   1.000  O
  C132     1.0000 0.41845  0.75305  0.64930  Biso   1.000  C
  N79      1.0000 0.36474  0.86470  0.68490  Biso   1.000  N
  N80      1.0000 0.28955  0.67022  0.72124  Biso   1.000  N
  C133     1.0000 0.41863  0.59014  0.57832  Biso   1.000  C
  N81      1.0000 0.39844  0.85300  0.61282  Biso   1.000  N
  C134     1.0000 0.36864  0.92061  0.63483  Biso   1.000  C
  C135     1.0000 0.34225  0.91786  0.72533  Biso   1.000  C
  C136     1.0000 0.27897  0.77860  0.74784  Biso   1.000  C
  C137     1.0000 0.24704  0.61190  0.68591  Biso   1.000  C
  N82      1.0000 0.39804  0.63633  0.51612  Biso   1.000  N
  C138     1.0000 0.42056  0.89885  0.56914  Biso   1.000  C
  O42      1.0000 0.35025  0.01196  0.61452  Biso   1.000  O
  N83      1.0000 0.29114  0.88035  0.71862  Biso   1.000  N
  C139     1.0000 0.21784  0.78058  0.72161  Biso   1.000  C
  C140     1.0000 0.30384  0.77929  0.81601  Biso   1.000  C
  N84      1.0000 0.20543  0.67315  0.68412  Biso   1.000  N
  O43      1.0000 0.24664  0.52142  0.65913  Biso   1.000  O
  C141     1.0000 0.36743  0.57346  0.46729  Biso   1.000  C
  C142     1.0000 0.41914  0.73456  0.49683  Biso   1.000  C
  N85      1.0000 0.40063  0.84500  0.50960  Biso   1.000  N
  C143     1.0000 0.24913  0.93850  0.68210  Biso   1.000  C
  N86      1.0000 0.20724  0.88466  0.68334  Biso   1.000  N
  C144     1.0000 0.19294  0.78178  0.76883  Biso   1.000  C
  C145     1.0000 0.15502  0.62661  0.65500  Biso   1.000  C
  N87      1.0000 0.36364  0.62954  0.41483  Biso   1.000  N
  O44      1.0000 0.34695  0.51875  0.52462  Biso   1.000  O
  C146     1.0000 0.39634  0.72880  0.42572  Biso   1.000  C
  C147     1.0000 0.37344  0.90444  0.45792  Biso   1.000  C
  O45      1.0000 0.25054  0.02770  0.65550  Biso   1.000  O
  C148     1.0000 0.15715  0.92396  0.64383  Biso   1.000  C
  N88      1.0000 0.13016  0.66265  0.59064  Biso   1.000  N
  C149     1.0000 0.34292  0.57612  0.35621  Biso   1.000  C
  N89      1.0000 0.36991  0.83743  0.40941  Biso   1.000  N
  O46      1.0000 0.35713  0.00241  0.45682  Biso   1.000  O
  N90      1.0000 0.13643  0.87055  0.58522  Biso   1.000  N
  C150     1.0000 0.12663  0.59565  0.54212  Biso   1.000  C
  C151     1.0000 0.10373  0.77120  0.57433  Biso   1.000  C
  N91      1.0000 0.29283  0.61543  0.31670  Biso   1.000  N
  C152     1.0000 0.34503  0.87339  0.34500  Biso   1.000  C
  C153     1.0000 0.13262  0.92663  0.53271  Biso   1.000  C
  N92      1.0000 0.09942  0.65500  0.49040  Biso   1.000  N
  O47      1.0000 0.14294  0.49759  0.54323  Biso   1.000  O
  C154     1.0000 0.08093  0.76553  0.50321  Biso   1.000  C
  C155     1.0000 0.25092  0.56150  0.31790  Biso   1.000  C
  C156     1.0000 0.28221  0.71942  0.27839  Biso   1.000  C
  N93      1.0000 0.29464  0.82694  0.31592  Biso   1.000  N
  N94      1.0000 0.10203  0.86375  0.48392  Biso   1.000  N
  O48      1.0000 0.15312  0.98133  0.47542  Biso   1.000  O
  C157     1.0000 0.07951  0.60124  0.43091  Biso   1.000  C
  O49      1.0000 0.24952  0.47230  0.34450  Biso   1.000  O
  N95      1.0000 0.20893  0.61973  0.28142  Biso   1.000  N
  C158     1.0000 0.22110  0.72140  0.25220  Biso   1.000  C
  C159     1.0000 0.30713  0.71822  0.23121  Biso   1.000  C
  C160     1.0000 0.25303  0.88810  0.31413  Biso   1.000  C
  C161     1.0000 0.08143  0.90994  0.42172  Biso   1.000  C
  N96      1.0000 0.10163  0.64700  0.38722  Biso   1.000  N
  C162     1.0000 0.15782  0.58223  0.27471  Biso   1.000  C
  N97      1.0000 0.21052  0.82986  0.27880  Biso   1.000  N
  C163     1.0000 0.19622  0.72071  0.18399  Biso   1.000  C
  O50      1.0000 0.25343  0.97858  0.34091  Biso   1.000  O
  N98      1.0000 0.10031  0.85584  0.37941  Biso   1.000  N
  C164     1.0000 0.13143  0.57939  0.36521  Biso   1.000  C
  C165     1.0000 0.08161  0.74703  0.35070  Biso   1.000  C
  N99      1.0000 0.13532  0.63530  0.31509  Biso   1.000  N
  C166     1.0000 0.16052  0.87872  0.26672  Biso   1.000  C
  C167     1.0000 0.13001  0.91201  0.35290  Biso   1.000  C
  O51      1.0000 0.14981  0.48813  0.38552  Biso   1.000  O
  C168     1.0000 0.10574  0.73938  0.29961  Biso   1.000  C
  N100     1.0000 0.13511  0.84363  0.30839  Biso   1.000  N
  O52      1.0000 0.14841  0.00826  0.36691  Biso   1.000  O
  C169     1.0000 0.34295  0.42388  0.85621  Biso   1.000  C
  N101     1.0000 0.29285  0.38457  0.81675  Biso   1.000  N
  N102     1.0000 0.29283  0.38457  0.81670  Biso   1.000  N
  N103     1.0000 0.36364  0.37055  0.91483  Biso   1.000  N
  C170     1.0000 0.28223  0.28058  0.77843  Biso   1.000  C
  C171     1.0000 0.28226  0.28058  0.77843  Biso   1.000  C
  C172     1.0000 0.34293  0.42388  0.85625  Biso   1.000  C
  C173     1.0000 0.25094  0.43850  0.81794  Biso   1.000  C
  C174     1.0000 0.25097  0.43850  0.81794  Biso   1.000  C
  C175     1.0000 0.36745  0.42663  0.96733  Biso   1.000  C
  C176     1.0000 0.39635  0.27120  0.92576  Biso   1.000  C
  C177     1.0000 0.39634  0.27120  0.92571  Biso   1.000  C
  C178     1.0000 0.30713  0.28178  0.73121  Biso   1.000  C
  N104     1.0000 0.29464  0.17315  0.81592  Biso   1.000  N
  C179     1.0000 0.30714  0.28178  0.73125  Biso   1.000  C
  C180     1.0000 0.22115  0.27860  0.75225  Biso   1.000  C
  C181     1.0000 0.22114  0.27860  0.75220  Biso   1.000  C
  N105     1.0000 0.20893  0.38027  0.78142  Biso   1.000  N
  O53      1.0000 0.24953  0.52770  0.84454  Biso   1.000  O
  O54      1.0000 0.24957  0.52770  0.84454  Biso   1.000  O
  O55      1.0000 0.34692  0.48133  0.02462  Biso   1.000  O
  N106     1.0000 0.39799  0.36367  0.01608  Biso   1.000  N
  O56      1.0000 0.34690  0.48133  0.02457  Biso   1.000  O
  N107     1.0000 0.39803  0.36367  0.01608  Biso   1.000  N
  N108     1.0000 0.36996  0.16257  0.90945  Biso   1.000  N
  N109     1.0000 0.36995  0.16257  0.90941  Biso   1.000  N
  C182     1.0000 0.41914  0.26553  0.99683  Biso   1.000  C
  C183     1.0000 0.41918  0.26553  0.99683  Biso   1.000  C
  C184     1.0000 0.34505  0.12661  0.84505  Biso   1.000  C
  C185     1.0000 0.25303  0.11190  0.81413  Biso   1.000  C
  C186     1.0000 0.34504  0.12661  0.84500  Biso   1.000  C
  C187     1.0000 0.25307  0.11190  0.81413  Biso   1.000  C
  N110     1.0000 0.21054  0.17022  0.77885  Biso   1.000  N
  C188     1.0000 0.19623  0.27929  0.68403  Biso   1.000  C
  N111     1.0000 0.21056  0.17022  0.77880  Biso   1.000  N
  C189     1.0000 0.15784  0.41777  0.77476  Biso   1.000  C
  C190     1.0000 0.15786  0.41777  0.77471  Biso   1.000  C
  C191     1.0000 0.41859  0.40994  0.07828  Biso   1.000  C
  C192     1.0000 0.41862  0.40994  0.07828  Biso   1.000  C
  C193     1.0000 0.37346  0.09556  0.95796  Biso   1.000  C
  C194     1.0000 0.37344  0.09556  0.95792  Biso   1.000  C
  N112     1.0000 0.40060  0.15500  0.00960  Biso   1.000  N
  N113     1.0000 0.40064  0.15500  0.00960  Biso   1.000  N
  O57      1.0000 0.25345  0.02142  0.84096  Biso   1.000  O
  O58      1.0000 0.25343  0.02142  0.84091  Biso   1.000  O
  C195     1.0000 0.16052  0.12128  0.76672  Biso   1.000  C
  C196     1.0000 0.16056  0.12128  0.76672  Biso   1.000  C
  N114     1.0000 0.13533  0.36470  0.81514  Biso   1.000  N
  N115     1.0000 0.13537  0.36470  0.81514  Biso   1.000  N
  N116     1.0000 0.39971  0.35584  0.12059  Biso   1.000  N
  O59      1.0000 0.35714  0.99759  0.95686  Biso   1.000  O
  O60      1.0000 0.35717  0.99759  0.95681  Biso   1.000  O
  C197     1.0000 0.42051  0.10124  0.06909  Biso   1.000  C
  N117     1.0000 0.13512  0.15637  0.80843  Biso   1.000  N
  N118     1.0000 0.13516  0.15637  0.80843  Biso   1.000  N
  C198     1.0000 0.13144  0.42061  0.86526  Biso   1.000  C
  C199     1.0000 0.10575  0.26062  0.79966  Biso   1.000  C
  C200     1.0000 0.13146  0.42061  0.86521  Biso   1.000  C
  C201     1.0000 0.10574  0.26062  0.79961  Biso   1.000  C
  C202     1.0000 0.41841  0.24703  0.14930  Biso   1.000  C
  C203     1.0000 0.37001  0.41201  0.14709  Biso   1.000  C
  N119     1.0000 0.39841  0.14700  0.11282  Biso   1.000  N
  N120     1.0000 0.39843  0.14700  0.11278  Biso   1.000  N
  C204     1.0000 0.13006  0.08799  0.85295  Biso   1.000  C
  C205     1.0000 0.13005  0.08799  0.85290  Biso   1.000  C
  O61      1.0000 0.14985  0.51196  0.88552  Biso   1.000  O
  N121     1.0000 0.10163  0.35300  0.88722  Biso   1.000  N
  N122     1.0000 0.10166  0.35300  0.88722  Biso   1.000  N
  C206     1.0000 0.08166  0.25297  0.85074  Biso   1.000  C
  C207     1.0000 0.39432  0.23938  0.20038  Biso   1.000  C
  O62      1.0000 0.35161  0.50817  0.13308  Biso   1.000  O
  N123     1.0000 0.36492  0.34363  0.19161  Biso   1.000  N
  C208     1.0000 0.36859  0.07939  0.13478  Biso   1.000  C
  C209     1.0000 0.36863  0.07939  0.13478  Biso   1.000  C
  N124     1.0000 0.10036  0.14425  0.87945  Biso   1.000  N
  N125     1.0000 0.10035  0.14425  0.87941  Biso   1.000  N
  O63      1.0000 0.14846  0.99183  0.86696  Biso   1.000  O
  O64      1.0000 0.14845  0.99183  0.86691  Biso   1.000  O
  C210     1.0000 0.07956  0.39885  0.93095  Biso   1.000  C
  C211     1.0000 0.07955  0.39885  0.93090  Biso   1.000  C
  N126     1.0000 0.36471  0.13530  0.18490  Biso   1.000  N
  N127     1.0000 0.36474  0.13530  0.18490  Biso   1.000  N
  C212     1.0000 0.33951  0.37872  0.23332  Biso   1.000  C
  C213     1.0000 0.33953  0.37872  0.23327  Biso   1.000  C
  O65      1.0000 0.35022  0.98813  0.11452  Biso   1.000  O
  O66      1.0000 0.35021  0.98813  0.11448  Biso   1.000  O
  C214     1.0000 0.08145  0.09014  0.92176  Biso   1.000  C
  C215     1.0000 0.08147  0.09014  0.92172  Biso   1.000  C
  N128     1.0000 0.09944  0.34500  0.99044  Biso   1.000  N
  N129     1.0000 0.09947  0.34500  0.99044  Biso   1.000  N
  C216     1.0000 0.34220  0.08223  0.22528  Biso   1.000  C
  C217     1.0000 0.34223  0.08223  0.22528  Biso   1.000  C
  N130     1.0000 0.28950  0.32978  0.22119  Biso   1.000  N
  N131     1.0000 0.28953  0.32978  0.22119  Biso   1.000  N
  N132     1.0000 0.10204  0.13633  0.98396  Biso   1.000  N
  N133     1.0000 0.10206  0.13633  0.98392  Biso   1.000  N
  C218     1.0000 0.12661  0.40444  0.04208  Biso   1.000  C
  C219     1.0000 0.08089  0.23447  0.00321  Biso   1.000  C
  C220     1.0000 0.08091  0.23447  0.00317  Biso   1.000  C
  N134     1.0000 0.29110  0.11973  0.21862  Biso   1.000  N
  N135     1.0000 0.29113  0.11973  0.21857  Biso   1.000  N
  C221     1.0000 0.27892  0.22140  0.24779  Biso   1.000  C
  C222     1.0000 0.24700  0.38810  0.18591  Biso   1.000  C
  C223     1.0000 0.24702  0.38810  0.18587  Biso   1.000  C
  C224     1.0000 0.13262  0.07337  0.03271  Biso   1.000  C
  C225     1.0000 0.13261  0.07337  0.03266  Biso   1.000  C
  O67      1.0000 0.14289  0.50241  0.04318  Biso   1.000  O
  N136     1.0000 0.13011  0.33743  0.09059  Biso   1.000  N
  O68      1.0000 0.14293  0.50241  0.04318  Biso   1.000  O
  C226     1.0000 0.10372  0.22880  0.07428  Biso   1.000  C
  C227     1.0000 0.24910  0.06150  0.18210  Biso   1.000  C
  C228     1.0000 0.24914  0.06150  0.18210  Biso   1.000  C
  C229     1.0000 0.21781  0.21942  0.22161  Biso   1.000  C
  C230     1.0000 0.30384  0.22071  0.31601  Biso   1.000  C
  C231     1.0000 0.21784  0.21942  0.22161  Biso   1.000  C
  N137     1.0000 0.20543  0.32694  0.18412  Biso   1.000  N
  N138     1.0000 0.20542  0.32694  0.18407  Biso   1.000  N
  O69      1.0000 0.24659  0.47858  0.15908  Biso   1.000  O
  O70      1.0000 0.24663  0.47858  0.15908  Biso   1.000  O
  O71      1.0000 0.15316  0.01867  0.97542  Biso   1.000  O
  N139     1.0000 0.13643  0.12954  0.08521  Biso   1.000  N
  N140     1.0000 0.13641  0.12954  0.08517  Biso   1.000  N
  C232     1.0000 0.15502  0.37339  0.15499  Biso   1.000  C
  N141     1.0000 0.20722  0.11543  0.18329  Biso   1.000  N
  O72      1.0000 0.25050  0.97230  0.15550  Biso   1.000  O
  O73      1.0000 0.25054  0.97230  0.15550  Biso   1.000  O
  C233     1.0000 0.19293  0.21822  0.26879  Biso   1.000  C
  C234     1.0000 0.15710  0.07612  0.14379  Biso   1.000  C
  C235     1.0000 0.15714  0.07612  0.14379  Biso   1.000  C
  C236     1.0000 0.34295  0.42388  0.85621  Biso   1.000  C
  N142     1.0000 0.29285  0.38457  0.81675  Biso   1.000  N
  N143     1.0000 0.29283  0.38457  0.81670  Biso   1.000  N
  N144     1.0000 0.36364  0.37055  0.91483  Biso   1.000  N
  C237     1.0000 0.28223  0.28058  0.77843  Biso   1.000  C
  C238     1.0000 0.28226  0.28058  0.77843  Biso   1.000  C
  C239     1.0000 0.25094  0.43850  0.81794  Biso   1.000  C
  C240     1.0000 0.25097  0.43850  0.81794  Biso   1.000  C
  C241     1.0000 0.34293  0.42388  0.85625  Biso   1.000  C
  C242     1.0000 0.39635  0.27120  0.92576  Biso   1.000  C
  C243     1.0000 0.39634  0.27120  0.92571  Biso   1.000  C
  C244     1.0000 0.36745  0.42663  0.96733  Biso   1.000  C
  C245     1.0000 0.22115  0.27860  0.75225  Biso   1.000  C
  C246     1.0000 0.22114  0.27860  0.75220  Biso   1.000  C
  N145     1.0000 0.29464  0.17315  0.81592  Biso   1.000  N
  C247     1.0000 0.30714  0.28178  0.73125  Biso   1.000  C
  C248     1.0000 0.30713  0.28178  0.73121  Biso   1.000  C
  N146     1.0000 0.20893  0.38027  0.78142  Biso   1.000  N
  O74      1.0000 0.24953  0.52770  0.84454  Biso   1.000  O
  O75      1.0000 0.24957  0.52770  0.84454  Biso   1.000  O
  N147     1.0000 0.36996  0.16257  0.90945  Biso   1.000  N
  N148     1.0000 0.36995  0.16257  0.90941  Biso   1.000  N
  C249     1.0000 0.41914  0.26553  0.99683  Biso   1.000  C
  C250     1.0000 0.41918  0.26553  0.99683  Biso   1.000  C
  O76      1.0000 0.34692  0.48133  0.02462  Biso   1.000  O
  N149     1.0000 0.39799  0.36367  0.01608  Biso   1.000  N
  O77      1.0000 0.34690  0.48133  0.02457  Biso   1.000  O
  N150     1.0000 0.39803  0.36367  0.01608  Biso   1.000  N
  C251     1.0000 0.19623  0.27929  0.68403  Biso   1.000  C
  N151     1.0000 0.21054  0.17022  0.77885  Biso   1.000  N
  N152     1.0000 0.21056  0.17022  0.77880  Biso   1.000  N
  C252     1.0000 0.25303  0.11190  0.81413  Biso   1.000  C
  C253     1.0000 0.25307  0.11190  0.81413  Biso   1.000  C
  C254     1.0000 0.34505  0.12661  0.84505  Biso   1.000  C
  C255     1.0000 0.34504  0.12661  0.84500  Biso   1.000  C
  C256     1.0000 0.15784  0.41777  0.77476  Biso   1.000  C
  C257     1.0000 0.15786  0.41777  0.77471  Biso   1.000  C
  C258     1.0000 0.37346  0.09556  0.95796  Biso   1.000  C
  C259     1.0000 0.37344  0.09556  0.95792  Biso   1.000  C
  N153     1.0000 0.40060  0.15500  0.00960  Biso   1.000  N
  N154     1.0000 0.40064  0.15500  0.00960  Biso   1.000  N
  C260     1.0000 0.41859  0.40994  0.07828  Biso   1.000  C
  C261     1.0000 0.41862  0.40994  0.07828  Biso   1.000  C
  C262     1.0000 0.16052  0.12128  0.76672  Biso   1.000  C
  C263     1.0000 0.16056  0.12128  0.76672  Biso   1.000  C
  O78      1.0000 0.25345  0.02142  0.84096  Biso   1.000  O
  O79      1.0000 0.25343  0.02142  0.84091  Biso   1.000  O
  N155     1.0000 0.13533  0.36470  0.81514  Biso   1.000  N
  N156     1.0000 0.13537  0.36470  0.81514  Biso   1.000  N
  O80      1.0000 0.35714  0.99759  0.95686  Biso   1.000  O
  O81      1.0000 0.35717  0.99759  0.95681  Biso   1.000  O
  C264     1.0000 0.42051  0.10124  0.06909  Biso   1.000  C
  N157     1.0000 0.39971  0.35584  0.12059  Biso   1.000  N
  N158     1.0000 0.13512  0.15637  0.80843  Biso   1.000  N
  N159     1.0000 0.13516  0.15637  0.80843  Biso   1.000  N
  C265     1.0000 0.13144  0.42061  0.86526  Biso   1.000  C
  C266     1.0000 0.10575  0.26062  0.79966  Biso   1.000  C
  C267     1.0000 0.13146  0.42061  0.86521  Biso   1.000  C
  C268     1.0000 0.10574  0.26062  0.79961  Biso   1.000  C
  N160     1.0000 0.39841  0.14700  0.11282  Biso   1.000  N
  N161     1.0000 0.39843  0.14700  0.11278  Biso   1.000  N
  C269     1.0000 0.41841  0.24703  0.14930  Biso   1.000  C
  C270     1.0000 0.37001  0.41201  0.14709  Biso   1.000  C
  C271     1.0000 0.13006  0.08799  0.85295  Biso   1.000  C
  C272     1.0000 0.13005  0.08799  0.85290  Biso   1.000  C
  O82      1.0000 0.14985  0.51196  0.88552  Biso   1.000  O
  N162     1.0000 0.10163  0.35300  0.88722  Biso   1.000  N
  N163     1.0000 0.10166  0.35300  0.88722  Biso   1.000  N
  C273     1.0000 0.08166  0.25297  0.85074  Biso   1.000  C
  C274     1.0000 0.36859  0.07939  0.13478  Biso   1.000  C
  C275     1.0000 0.36863  0.07939  0.13478  Biso   1.000  C
  C276     1.0000 0.39432  0.23938  0.20038  Biso   1.000  C
  O83      1.0000 0.35161  0.50817  0.13308  Biso   1.000  O
  N164     1.0000 0.36492  0.34363  0.19161  Biso   1.000  N
  O84      1.0000 0.14846  0.99183  0.86696  Biso   1.000  O
  O85      1.0000 0.14845  0.99183  0.86691  Biso   1.000  O
  N165     1.0000 0.10036  0.14425  0.87945  Biso   1.000  N
  N166     1.0000 0.10035  0.14425  0.87941  Biso   1.000  N
  C277     1.0000 0.07956  0.39885  0.93095  Biso   1.000  C
  C278     1.0000 0.07955  0.39885  0.93090  Biso   1.000  C
  O86      1.0000 0.35022  0.98813  0.11452  Biso   1.000  O
  O87      1.0000 0.35021  0.98813  0.11448  Biso   1.000  O
  N167     1.0000 0.36471  0.13530  0.18490  Biso   1.000  N
  N168     1.0000 0.36474  0.13530  0.18490  Biso   1.000  N
  C279     1.0000 0.33951  0.37872  0.23332  Biso   1.000  C
  C280     1.0000 0.33953  0.37872  0.23327  Biso   1.000  C
  C281     1.0000 0.08145  0.09014  0.92176  Biso   1.000  C
  C282     1.0000 0.08147  0.09014  0.92172  Biso   1.000  C
  N169     1.0000 0.09944  0.34500  0.99044  Biso   1.000  N
  N170     1.0000 0.09947  0.34500  0.99044  Biso   1.000  N
  C283     1.0000 0.34220  0.08223  0.22528  Biso   1.000  C
  C284     1.0000 0.34223  0.08223  0.22528  Biso   1.000  C
  N171     1.0000 0.28950  0.32978  0.22119  Biso   1.000  N
  N172     1.0000 0.28953  0.32978  0.22119  Biso   1.000  N
  N173     1.0000 0.10204  0.13633  0.98396  Biso   1.000  N
  N174     1.0000 0.10206  0.13633  0.98392  Biso   1.000  N
  C285     1.0000 0.12661  0.40444  0.04208  Biso   1.000  C
  C286     1.0000 0.08089  0.23447  0.00321  Biso   1.000  C
  C287     1.0000 0.08091  0.23447  0.00317  Biso   1.000  C
  N175     1.0000 0.29110  0.11973  0.21862  Biso   1.000  N
  N176     1.0000 0.29113  0.11973  0.21857  Biso   1.000  N
  C288     1.0000 0.24700  0.38810  0.18591  Biso   1.000  C
  C289     1.0000 0.24702  0.38810  0.18587  Biso   1.000  C
  C290     1.0000 0.27892  0.22140  0.24779  Biso   1.000  C
  C291     1.0000 0.13262  0.07337  0.03271  Biso   1.000  C
  C292     1.0000 0.13261  0.07337  0.03266  Biso   1.000  C
  O88      1.0000 0.14289  0.50241  0.04318  Biso   1.000  O
  N177     1.0000 0.13011  0.33743  0.09059  Biso   1.000  N
  O89      1.0000 0.14293  0.50241  0.04318  Biso   1.000  O
  C293     1.0000 0.10372  0.22880  0.07428  Biso   1.000  C
  C294     1.0000 0.24910  0.06150  0.18210  Biso   1.000  C
  C295     1.0000 0.24914  0.06150  0.18210  Biso   1.000  C
  N178     1.0000 0.20543  0.32694  0.18412  Biso   1.000  N
  N179     1.0000 0.20542  0.32694  0.18407  Biso   1.000  N
  O90      1.0000 0.24659  0.47858  0.15908  Biso   1.000  O
  O91      1.0000 0.24663  0.47858  0.15908  Biso   1.000  O
  C296     1.0000 0.21781  0.21942  0.22161  Biso   1.000  C
  C297     1.0000 0.21784  0.21942  0.22161  Biso   1.000  C
  C298     1.0000 0.30384  0.22071  0.31601  Biso   1.000  C
  O92      1.0000 0.15316  0.01867  0.97542  Biso   1.000  O
  N180     1.0000 0.13643  0.12954  0.08521  Biso   1.000  N
  N181     1.0000 0.13641  0.12954  0.08517  Biso   1.000  N
  C299     1.0000 0.15502  0.37339  0.15499  Biso   1.000  C
  N182     1.0000 0.20722  0.11543  0.18329  Biso   1.000  N
  O93      1.0000 0.25050  0.97230  0.15550  Biso   1.000  O
  O94      1.0000 0.25054  0.97230  0.15550  Biso   1.000  O
  C300     1.0000 0.19293  0.21822  0.26879  Biso   1.000  C
  C301     1.0000 0.15710  0.07612  0.14379  Biso   1.000  C
  C302     1.0000 0.15714  0.07612  0.14379  Biso   1.000  C
  C303     1.0000 0.69296  0.28178  0.76883  Biso   1.000  C
  C304     1.0000 0.71786  0.28058  0.72161  Biso   1.000  C
  N183     1.0000 0.70545  0.17315  0.68412  Biso   1.000  N
  N184     1.0000 0.70725  0.38457  0.68334  Biso   1.000  N
  C305     1.0000 0.77895  0.27860  0.74784  Biso   1.000  C
  C306     1.0000 0.65504  0.12661  0.65500  Biso   1.000  C
  C307     1.0000 0.74705  0.11190  0.68591  Biso   1.000  C
  C308     1.0000 0.65713  0.42388  0.64383  Biso   1.000  C
  C309     1.0000 0.74915  0.43850  0.68210  Biso   1.000  C
  N185     1.0000 0.78956  0.17022  0.72124  Biso   1.000  N
  N186     1.0000 0.79116  0.38027  0.71862  Biso   1.000  N
  C310     1.0000 0.80386  0.27929  0.81601  Biso   1.000  C
  N187     1.0000 0.63014  0.16257  0.59064  Biso   1.000  N
  O95      1.0000 0.74666  0.02142  0.65913  Biso   1.000  O
  N188     1.0000 0.63644  0.37055  0.58522  Biso   1.000  N
  O96      1.0000 0.75052  0.52770  0.65550  Biso   1.000  O
  C311     1.0000 0.83953  0.12128  0.73332  Biso   1.000  C
  C312     1.0000 0.84226  0.41777  0.72533  Biso   1.000  C
  C313     1.0000 0.62664  0.09556  0.54212  Biso   1.000  C
  C314     1.0000 0.60375  0.27120  0.57433  Biso   1.000  C
  C315     1.0000 0.63264  0.42663  0.53271  Biso   1.000  C
  N189     1.0000 0.86493  0.15637  0.69161  Biso   1.000  N
  N190     1.0000 0.86472  0.36470  0.68490  Biso   1.000  N
  N191     1.0000 0.59944  0.15500  0.49040  Biso   1.000  N
  O97      1.0000 0.64292  0.99759  0.54323  Biso   1.000  O
  C316     1.0000 0.58095  0.26553  0.50321  Biso   1.000  C
  N192     1.0000 0.60204  0.36367  0.48392  Biso   1.000  N
  O98      1.0000 0.65314  0.48133  0.47542  Biso   1.000  O
  C317     1.0000 0.89435  0.26062  0.70043  Biso   1.000  C
  C318     1.0000 0.87003  0.08799  0.64709  Biso   1.000  C
  C319     1.0000 0.86866  0.42061  0.63483  Biso   1.000  C
  C320     1.0000 0.57953  0.10124  0.43091  Biso   1.000  C
  C321     1.0000 0.58142  0.40994  0.42172  Biso   1.000  C
  C322     1.0000 0.91843  0.25297  0.64930  Biso   1.000  C
  N193     1.0000 0.89974  0.14425  0.62063  Biso   1.000  N
  O99      1.0000 0.85164  0.99183  0.63313  Biso   1.000  O
  N194     1.0000 0.89843  0.35300  0.61282  Biso   1.000  N
  O100     1.0000 0.85024  0.51196  0.61452  Biso   1.000  O
  N195     1.0000 0.60164  0.14700  0.38722  Biso   1.000  N
  N196     1.0000 0.60033  0.35584  0.37941  Biso   1.000  N
  C323     1.0000 0.91865  0.09014  0.57832  Biso   1.000  C
  C324     1.0000 0.92054  0.39885  0.56914  Biso   1.000  C
  C325     1.0000 0.58163  0.24703  0.35070  Biso   1.000  C
  C326     1.0000 0.63141  0.07939  0.36521  Biso   1.000  C
  C327     1.0000 0.63003  0.41201  0.35290  Biso   1.000  C
  N197     1.0000 0.89802  0.13633  0.51612  Biso   1.000  N
  N198     1.0000 0.90062  0.34500  0.50960  Biso   1.000  N
  C328     1.0000 0.60572  0.23938  0.29961  Biso   1.000  C
  N199     1.0000 0.63533  0.13530  0.31509  Biso   1.000  N
  O101     1.0000 0.64983  0.98813  0.38552  Biso   1.000  O
  N200     1.0000 0.63512  0.34363  0.30839  Biso   1.000  N
  O102     1.0000 0.64843  0.50817  0.36691  Biso   1.000  O
  C329     1.0000 0.86742  0.07337  0.46729  Biso   1.000  C
  C330     1.0000 0.91912  0.23447  0.49683  Biso   1.000  C
  C331     1.0000 0.87342  0.40444  0.45792  Biso   1.000  C
  C332     1.0000 0.65781  0.08223  0.27471  Biso   1.000  C
  C333     1.0000 0.66050  0.37872  0.26672  Biso   1.000  C
  N201     1.0000 0.86362  0.12954  0.41483  Biso   1.000  N
  O103     1.0000 0.84693  0.01867  0.52462  Biso   1.000  O
  C334     1.0000 0.89632  0.22880  0.42572  Biso   1.000  C
  N202     1.0000 0.86993  0.33743  0.40941  Biso   1.000  N
  O104     1.0000 0.85711  0.50241  0.45682  Biso   1.000  O
  N203     1.0000 0.70891  0.11973  0.28142  Biso   1.000  N
  N204     1.0000 0.71050  0.32978  0.27880  Biso   1.000  N
  C335     1.0000 0.84294  0.07612  0.35621  Biso   1.000  C
  C336     1.0000 0.84502  0.37339  0.34500  Biso   1.000  C
  C337     1.0000 0.75090  0.06150  0.31790  Biso   1.000  C
  C338     1.0000 0.72112  0.22140  0.25220  Biso   1.000  C
  C339     1.0000 0.75302  0.38810  0.31413  Biso   1.000  C
  N205     1.0000 0.79281  0.11543  0.31670  Biso   1.000  N
  N206     1.0000 0.79462  0.32694  0.31592  Biso   1.000  N
  O105     1.0000 0.74953  0.97230  0.34450  Biso   1.000  O
  C340     1.0000 0.78220  0.21942  0.27839  Biso   1.000  C
  C341     1.0000 0.69620  0.22071  0.18399  Biso   1.000  C
  O106     1.0000 0.75341  0.47858  0.34091  Biso   1.000  O
  C342     1.0000 0.80711  0.21822  0.23121  Biso   1.000  C
