data_image0
_cell_length_a       12.086
_cell_length_b       20.278
_cell_length_c       12.588
_cell_angle_alpha    90
_cell_angle_beta     112.18
_cell_angle_gamma    90

_symmetry_space_group_name_H-M    "P 1"
_symmetry_int_tables_number       1

loop_
  _symmetry_equiv_pos_as_xyz
  'x, y, z'

loop_
  _atom_site_label
  _atom_site_occupancy
  _atom_site_fract_x
  _atom_site_fract_y
  _atom_site_fract_z
  _atom_site_thermal_displace_type
  _atom_site_B_iso_or_equiv
  _atom_site_type_symbol
  C1       1.0000 0.70762  0.80491  0.88577  Biso   1.000  C
  N1       1.0000 0.83161  0.78805  0.91640  Biso   1.000  N
  N2       1.0000 0.83153  0.78805  0.91640  Biso   1.000  N
  N3       1.0000 0.67750  0.87124  0.83987  Biso   1.000  N
  H1       1.0000 0.69043  0.80121  0.95526  Biso   1.000  H
  H2       1.0000 0.65694  0.77330  0.82632  Biso   1.000  H
  C2       1.0000 0.88388  0.76945  0.83447  Biso   1.000  C
  C3       1.0000 0.91177  0.78716  0.02767  Biso   1.000  C
  C4       1.0000 0.62704  0.88273  0.71659  Biso   1.000  C
  C5       1.0000 0.63766  0.91750  0.89744  Biso   1.000  C
  N4       1.0000 0.88928  0.82266  0.75940  Biso   1.000  N
  H3       1.0000 0.84201  0.73178  0.78754  Biso   1.000  H
  C6       1.0000 0.01746  0.75732  0.91159  Biso   1.000  C
  N5       1.0000 0.02023  0.76763  0.02595  Biso   1.000  N
  O1       1.0000 0.89064  0.79909  0.11303  Biso   1.000  O
  N6       1.0000 0.71447  0.89042  0.66435  Biso   1.000  N
  C7       1.0000 0.57143  0.95271  0.70604  Biso   1.000  C
  H4       1.0000 0.56974  0.84949  0.67799  Biso   1.000  H
  C8       1.0000 0.57134  0.95271  0.70604  Biso   1.000  C
  H5       1.0000 0.56966  0.84949  0.67799  Biso   1.000  H
  O2       1.0000 0.65076  0.91577  0.99850  Biso   1.000  O
  N7       1.0000 0.57900  0.96627  0.82126  Biso   1.000  N
  O3       1.0000 0.65067  0.91577  0.99850  Biso   1.000  O
  C9       1.0000 0.79073  0.83815  0.65354  Biso   1.000  C
  C10      1.0000 0.79065  0.83815  0.65354  Biso   1.000  C
  C11      1.0000 0.00386  0.84190  0.77913  Biso   1.000  C
  C12      1.0000 0.00377  0.84190  0.77913  Biso   1.000  C
  N8       1.0000 0.07959  0.80718  0.87179  Biso   1.000  N
  H6       1.0000 0.04842  0.71338  0.90216  Biso   1.000  H
  C13      1.0000 0.12423  0.75791  0.12967  Biso   1.000  C
  C14      1.0000 0.73266  0.95493  0.64496  Biso   1.000  C
  N9       1.0000 0.64898  0.99211  0.66675  Biso   1.000  N
  H7       1.0000 0.48985  0.95581  0.65345  Biso   1.000  H
  C15      1.0000 0.52625  0.02308  0.85377  Biso   1.000  C
  H8       1.0000 0.82263  0.85191  0.59726  Biso   1.000  H
  H9       1.0000 0.74244  0.79899  0.62712  Biso   1.000  H
  O4       1.0000 0.03423  0.88179  0.72234  Biso   1.000  O
  C16      1.0000 0.20761  0.80703  0.90173  Biso   1.000  C
  N10      1.0000 0.20897  0.81177  0.15918  Biso   1.000  N
  H10      1.0000 0.09441  0.75471  0.19041  Biso   1.000  H
  H11      1.0000 0.16555  0.71792  0.12135  Biso   1.000  H
  N11      1.0000 0.20889  0.81177  0.15918  Biso   1.000  N
  O5       1.0000 0.80743  0.97628  0.60996  Biso   1.000  O
  O6       1.0000 0.80735  0.97628  0.60996  Biso   1.000  O
  C17      1.0000 0.63527  0.06179  0.64093  Biso   1.000  C
  N12      1.0000 0.60487  0.07969  0.88706  Biso   1.000  N
  H12      1.0000 0.50601  0.01050  0.91803  Biso   1.000  H
  H13      1.0000 0.45446  0.03472  0.78797  Biso   1.000  H
  H14      1.0000 0.22128  0.82691  0.83927  Biso   1.000  H
  H15      1.0000 0.23583  0.76038  0.91185  Biso   1.000  H
  H16      1.0000 0.22120  0.82691  0.83927  Biso   1.000  H
  N13      1.0000 0.27347  0.84426  0.00399  Biso   1.000  N
  N14      1.0000 0.27339  0.84426  0.00399  Biso   1.000  N
  C18      1.0000 0.30576  0.81798  0.11894  Biso   1.000  C
  C19      1.0000 0.21783  0.85600  0.24505  Biso   1.000  C
  N15      1.0000 0.68664  0.10331  0.74087  Biso   1.000  N
  H17      1.0000 0.67641  0.07032  0.59006  Biso   1.000  H
  H18      1.0000 0.54835  0.07210  0.60232  Biso   1.000  H
  N16      1.0000 0.68656  0.10331  0.74087  Biso   1.000  N
  C20      1.0000 0.61648  0.12629  0.80504  Biso   1.000  C
  C21      1.0000 0.66606  0.09873  0.99807  Biso   1.000  C
  C22      1.0000 0.33400  0.90127  0.00201  Biso   1.000  C
  C23      1.0000 0.38359  0.87371  0.19504  Biso   1.000  C
  H19      1.0000 0.34693  0.77631  0.12581  Biso   1.000  H
  O7       1.0000 0.15329  0.85783  0.29953  Biso   1.000  O
  N17      1.0000 0.31342  0.89669  0.25921  Biso   1.000  N
  C24      1.0000 0.78223  0.14400  0.75503  Biso   1.000  C
  C25      1.0000 0.69430  0.18202  0.88114  Biso   1.000  C
  H20      1.0000 0.54004  0.14040  0.75331  Biso   1.000  H
  N18      1.0000 0.72660  0.15574  0.99610  Biso   1.000  N
  O8       1.0000 0.66508  0.07106  0.08437  Biso   1.000  O
  O9       1.0000 0.33499  0.92894  0.91571  Biso   1.000  O
  N19      1.0000 0.39519  0.92031  0.11303  Biso   1.000  N
  H21      1.0000 0.46003  0.85960  0.24677  Biso   1.000  H
  C26      1.0000 0.36480  0.93821  0.35915  Biso   1.000  C
  O10      1.0000 0.84678  0.14217  0.70055  Biso   1.000  O
  N20      1.0000 0.79109  0.18823  0.84090  Biso   1.000  N
  H22      1.0000 0.65313  0.22369  0.87427  Biso   1.000  H
  C27      1.0000 0.79245  0.19297  0.09836  Biso   1.000  C
  C28      1.0000 0.47381  0.97692  0.14631  Biso   1.000  C
  H23      1.0000 0.32366  0.92968  0.41003  Biso   1.000  H
  H24      1.0000 0.45171  0.92790  0.39776  Biso   1.000  H
  N21      1.0000 0.35109  0.00789  0.33333  Biso   1.000  N
  C29      1.0000 0.87584  0.24209  0.87041  Biso   1.000  C
  N22      1.0000 0.92048  0.19282  0.12830  Biso   1.000  N
  H25      1.0000 0.77878  0.17309  0.16081  Biso   1.000  H
  H26      1.0000 0.76423  0.23962  0.08823  Biso   1.000  H
  H27      1.0000 0.49405  0.98950  0.08206  Biso   1.000  H
  H28      1.0000 0.54561  0.96528  0.21211  Biso   1.000  H
  N23      1.0000 0.42107  0.03373  0.17883  Biso   1.000  N
  C30      1.0000 0.42864  0.04729  0.29404  Biso   1.000  C
  C31      1.0000 0.26740  0.04507  0.35512  Biso   1.000  C
  N24      1.0000 0.97983  0.23237  0.97413  Biso   1.000  N
  H29      1.0000 0.90565  0.24529  0.80968  Biso   1.000  H
  H30      1.0000 0.83451  0.28208  0.87874  Biso   1.000  H
  H31      1.0000 0.90562  0.24529  0.80959  Biso   1.000  H
  C32      1.0000 0.98260  0.24268  0.08849  Biso   1.000  C
  C33      1.0000 0.99621  0.15810  0.22095  Biso   1.000  C
  C34      1.0000 0.36240  0.08250  0.10264  Biso   1.000  C
  C35      1.0000 0.37302  0.11727  0.28349  Biso   1.000  C
  H32      1.0000 0.51021  0.04419  0.34663  Biso   1.000  H
  O11      1.0000 0.19263  0.02372  0.39012  Biso   1.000  O
  N25      1.0000 0.28559  0.10958  0.33573  Biso   1.000  N
  C36      1.0000 0.08829  0.21284  0.97242  Biso   1.000  C
  H33      1.0000 0.95164  0.28662  0.09793  Biso   1.000  H
  C37      1.0000 0.11619  0.23055  0.16561  Biso   1.000  C
  N26      1.0000 0.11078  0.17734  0.24068  Biso   1.000  N
  O12      1.0000 0.96583  0.11821  0.27774  Biso   1.000  O
  O13      1.0000 0.34931  0.08423  0.00159  Biso   1.000  O
  N27      1.0000 0.32257  0.12876  0.16021  Biso   1.000  N
  N28      1.0000 0.32253  0.12876  0.16012  Biso   1.000  N
  H34      1.0000 0.43032  0.15051  0.32209  Biso   1.000  H
  C38      1.0000 0.20934  0.16185  0.34654  Biso   1.000  C
  N29      1.0000 0.16845  0.21195  0.08369  Biso   1.000  N
  O14      1.0000 0.10942  0.20091  0.88706  Biso   1.000  O
  H35      1.0000 0.15805  0.26822  0.21254  Biso   1.000  H
  C39      1.0000 0.29244  0.19509  0.11431  Biso   1.000  C
  H36      1.0000 0.17743  0.14809  0.40282  Biso   1.000  H
  H37      1.0000 0.25762  0.20101  0.37297  Biso   1.000  H
  H38      1.0000 0.30963  0.19879  0.04482  Biso   1.000  H
  H39      1.0000 0.34312  0.22670  0.17376  Biso   1.000  H
  C40      1.0000 0.70762  0.80491  0.88577  Biso   1.000  C
  N30      1.0000 0.83161  0.78805  0.91640  Biso   1.000  N
  N31      1.0000 0.83153  0.78805  0.91640  Biso   1.000  N
  N32      1.0000 0.67750  0.87124  0.83987  Biso   1.000  N
  H40      1.0000 0.69043  0.80121  0.95526  Biso   1.000  H
  H41      1.0000 0.65694  0.77330  0.82632  Biso   1.000  H
  C41      1.0000 0.88388  0.76945  0.83447  Biso   1.000  C
  C42      1.0000 0.91177  0.78716  0.02767  Biso   1.000  C
  C43      1.0000 0.62704  0.88273  0.71659  Biso   1.000  C
  C44      1.0000 0.63766  0.91750  0.89744  Biso   1.000  C
  N33      1.0000 0.88928  0.82266  0.75940  Biso   1.000  N
  H42      1.0000 0.84201  0.73178  0.78754  Biso   1.000  H
  C45      1.0000 0.01746  0.75732  0.91159  Biso   1.000  C
  N34      1.0000 0.02023  0.76763  0.02595  Biso   1.000  N
  O15      1.0000 0.89064  0.79909  0.11303  Biso   1.000  O
  N35      1.0000 0.71447  0.89042  0.66435  Biso   1.000  N
  C46      1.0000 0.57143  0.95271  0.70604  Biso   1.000  C
  H43      1.0000 0.56974  0.84949  0.67799  Biso   1.000  H
  C47      1.0000 0.57134  0.95271  0.70604  Biso   1.000  C
  H44      1.0000 0.56966  0.84949  0.67799  Biso   1.000  H
  N36      1.0000 0.57900  0.96627  0.82126  Biso   1.000  N
  O16      1.0000 0.65076  0.91577  0.99850  Biso   1.000  O
  O17      1.0000 0.65067  0.91577  0.99850  Biso   1.000  O
  C48      1.0000 0.79073  0.83815  0.65354  Biso   1.000  C
  C49      1.0000 0.79065  0.83815  0.65354  Biso   1.000  C
  C50      1.0000 0.00386  0.84190  0.77913  Biso   1.000  C
  C51      1.0000 0.00377  0.84190  0.77913  Biso   1.000  C
  N37      1.0000 0.07959  0.80718  0.87179  Biso   1.000  N
  H45      1.0000 0.04842  0.71338  0.90216  Biso   1.000  H
  C52      1.0000 0.12423  0.75791  0.12967  Biso   1.000  C
  C53      1.0000 0.73266  0.95493  0.64496  Biso   1.000  C
  N38      1.0000 0.64898  0.99211  0.66675  Biso   1.000  N
  H46      1.0000 0.48985  0.95581  0.65345  Biso   1.000  H
  C54      1.0000 0.52625  0.02308  0.85377  Biso   1.000  C
  H47      1.0000 0.82263  0.85191  0.59726  Biso   1.000  H
  H48      1.0000 0.74244  0.79899  0.62712  Biso   1.000  H
  O18      1.0000 0.03423  0.88179  0.72234  Biso   1.000  O
  C55      1.0000 0.20761  0.80703  0.90173  Biso   1.000  C
  N39      1.0000 0.20897  0.81177  0.15918  Biso   1.000  N
  H49      1.0000 0.09441  0.75471  0.19041  Biso   1.000  H
  H50      1.0000 0.16555  0.71792  0.12135  Biso   1.000  H
  N40      1.0000 0.20889  0.81177  0.15918  Biso   1.000  N
  O19      1.0000 0.80743  0.97628  0.60996  Biso   1.000  O
  O20      1.0000 0.80735  0.97628  0.60996  Biso   1.000  O
  C56      1.0000 0.63527  0.06179  0.64093  Biso   1.000  C
  N41      1.0000 0.60487  0.07969  0.88706  Biso   1.000  N
  H51      1.0000 0.50601  0.01050  0.91803  Biso   1.000  H
  H52      1.0000 0.45446  0.03472  0.78797  Biso   1.000  H
  H53      1.0000 0.22128  0.82691  0.83927  Biso   1.000  H
  H54      1.0000 0.23583  0.76038  0.91185  Biso   1.000  H
  H55      1.0000 0.22120  0.82691  0.83927  Biso   1.000  H
  N42      1.0000 0.27347  0.84426  0.00399  Biso   1.000  N
  N43      1.0000 0.27339  0.84426  0.00399  Biso   1.000  N
  C57      1.0000 0.30576  0.81798  0.11894  Biso   1.000  C
  C58      1.0000 0.21783  0.85600  0.24505  Biso   1.000  C
  N44      1.0000 0.68664  0.10331  0.74087  Biso   1.000  N
  H56      1.0000 0.67641  0.07032  0.59006  Biso   1.000  H
  H57      1.0000 0.54835  0.07210  0.60232  Biso   1.000  H
  N45      1.0000 0.68656  0.10331  0.74087  Biso   1.000  N
  C59      1.0000 0.61648  0.12629  0.80504  Biso   1.000  C
  C60      1.0000 0.66606  0.09873  0.99807  Biso   1.000  C
  C61      1.0000 0.33400  0.90127  0.00201  Biso   1.000  C
  C62      1.0000 0.38359  0.87371  0.19504  Biso   1.000  C
  H58      1.0000 0.34693  0.77631  0.12581  Biso   1.000  H
  O21      1.0000 0.15329  0.85783  0.29953  Biso   1.000  O
  N46      1.0000 0.31342  0.89669  0.25921  Biso   1.000  N
  C63      1.0000 0.78223  0.14400  0.75503  Biso   1.000  C
  C64      1.0000 0.69430  0.18202  0.88114  Biso   1.000  C
  H59      1.0000 0.54004  0.14040  0.75331  Biso   1.000  H
  N47      1.0000 0.72660  0.15574  0.99610  Biso   1.000  N
  O22      1.0000 0.66508  0.07106  0.08437  Biso   1.000  O
  O23      1.0000 0.33499  0.92894  0.91571  Biso   1.000  O
  N48      1.0000 0.39519  0.92031  0.11303  Biso   1.000  N
  H60      1.0000 0.46003  0.85960  0.24677  Biso   1.000  H
  C65      1.0000 0.36480  0.93821  0.35915  Biso   1.000  C
  O24      1.0000 0.84678  0.14217  0.70055  Biso   1.000  O
  N49      1.0000 0.79109  0.18823  0.84090  Biso   1.000  N
  H61      1.0000 0.65313  0.22369  0.87427  Biso   1.000  H
  C66      1.0000 0.79245  0.19297  0.09836  Biso   1.000  C
  C67      1.0000 0.47381  0.97692  0.14631  Biso   1.000  C
  H62      1.0000 0.32366  0.92968  0.41003  Biso   1.000  H
  H63      1.0000 0.45171  0.92790  0.39776  Biso   1.000  H
  N50      1.0000 0.35109  0.00789  0.33333  Biso   1.000  N
  C68      1.0000 0.87584  0.24209  0.87041  Biso   1.000  C
  N51      1.0000 0.92048  0.19282  0.12830  Biso   1.000  N
  H64      1.0000 0.77878  0.17309  0.16081  Biso   1.000  H
  H65      1.0000 0.76423  0.23962  0.08823  Biso   1.000  H
  H66      1.0000 0.49405  0.98950  0.08206  Biso   1.000  H
  H67      1.0000 0.54561  0.96528  0.21211  Biso   1.000  H
  N52      1.0000 0.42107  0.03373  0.17883  Biso   1.000  N
  C69      1.0000 0.42864  0.04729  0.29404  Biso   1.000  C
  C70      1.0000 0.26740  0.04507  0.35512  Biso   1.000  C
  N53      1.0000 0.97983  0.23237  0.97413  Biso   1.000  N
  H68      1.0000 0.90565  0.24529  0.80968  Biso   1.000  H
  H69      1.0000 0.83451  0.28208  0.87874  Biso   1.000  H
  H70      1.0000 0.90562  0.24529  0.80959  Biso   1.000  H
  C71      1.0000 0.98260  0.24268  0.08849  Biso   1.000  C
  C72      1.0000 0.99621  0.15810  0.22095  Biso   1.000  C
  C73      1.0000 0.36240  0.08250  0.10264  Biso   1.000  C
  C74      1.0000 0.37302  0.11727  0.28349  Biso   1.000  C
  H71      1.0000 0.51021  0.04419  0.34663  Biso   1.000  H
  O25      1.0000 0.19263  0.02372  0.39012  Biso   1.000  O
  N54      1.0000 0.28559  0.10958  0.33573  Biso   1.000  N
  C75      1.0000 0.08829  0.21284  0.97242  Biso   1.000  C
  H72      1.0000 0.95164  0.28662  0.09793  Biso   1.000  H
  C76      1.0000 0.11619  0.23055  0.16561  Biso   1.000  C
  N55      1.0000 0.11078  0.17734  0.24068  Biso   1.000  N
  O26      1.0000 0.96583  0.11821  0.27774  Biso   1.000  O
  O27      1.0000 0.34931  0.08423  0.00159  Biso   1.000  O
  N56      1.0000 0.32257  0.12876  0.16021  Biso   1.000  N
  N57      1.0000 0.32253  0.12876  0.16012  Biso   1.000  N
  H73      1.0000 0.43032  0.15051  0.32209  Biso   1.000  H
  C77      1.0000 0.20934  0.16185  0.34654  Biso   1.000  C
  N58      1.0000 0.16845  0.21195  0.08369  Biso   1.000  N
  O28      1.0000 0.10942  0.20091  0.88706  Biso   1.000  O
  H74      1.0000 0.15805  0.26822  0.21254  Biso   1.000  H
  C78      1.0000 0.29244  0.19509  0.11431  Biso   1.000  C
  H75      1.0000 0.17743  0.14809  0.40282  Biso   1.000  H
  H76      1.0000 0.25762  0.20101  0.37297  Biso   1.000  H
  H77      1.0000 0.30963  0.19879  0.04482  Biso   1.000  H
  H78      1.0000 0.34312  0.22670  0.17376  Biso   1.000  H
  C79      1.0000 0.70762  0.80491  0.88577  Biso   1.000  C
  N59      1.0000 0.83161  0.78805  0.91640  Biso   1.000  N
  N60      1.0000 0.83153  0.78805  0.91640  Biso   1.000  N
  N61      1.0000 0.67750  0.87124  0.83987  Biso   1.000  N
  H79      1.0000 0.69043  0.80121  0.95526  Biso   1.000  H
  H80      1.0000 0.65694  0.77330  0.82632  Biso   1.000  H
  C80      1.0000 0.88388  0.76945  0.83447  Biso   1.000  C
  C81      1.0000 0.91177  0.78716  0.02767  Biso   1.000  C
  C82      1.0000 0.62704  0.88273  0.71659  Biso   1.000  C
  C83      1.0000 0.63766  0.91750  0.89744  Biso   1.000  C
  N62      1.0000 0.88928  0.82266  0.75940  Biso   1.000  N
  H81      1.0000 0.84201  0.73178  0.78754  Biso   1.000  H
  C84      1.0000 0.01746  0.75732  0.91159  Biso   1.000  C
  N63      1.0000 0.02023  0.76763  0.02595  Biso   1.000  N
  O29      1.0000 0.89064  0.79909  0.11303  Biso   1.000  O
  N64      1.0000 0.71447  0.89042  0.66435  Biso   1.000  N
  C85      1.0000 0.57143  0.95271  0.70604  Biso   1.000  C
  H82      1.0000 0.56974  0.84949  0.67799  Biso   1.000  H
  C86      1.0000 0.57134  0.95271  0.70604  Biso   1.000  C
  H83      1.0000 0.56966  0.84949  0.67799  Biso   1.000  H
  N65      1.0000 0.57900  0.96627  0.82126  Biso   1.000  N
  O30      1.0000 0.65076  0.91577  0.99850  Biso   1.000  O
  O31      1.0000 0.65067  0.91577  0.99850  Biso   1.000  O
  C87      1.0000 0.79073  0.83815  0.65354  Biso   1.000  C
  C88      1.0000 0.79065  0.83815  0.65354  Biso   1.000  C
  C89      1.0000 0.00386  0.84190  0.77913  Biso   1.000  C
  C90      1.0000 0.00377  0.84190  0.77913  Biso   1.000  C
  N66      1.0000 0.07959  0.80718  0.87179  Biso   1.000  N
  H84      1.0000 0.04842  0.71338  0.90216  Biso   1.000  H
  C91      1.0000 0.12423  0.75791  0.12967  Biso   1.000  C
  C92      1.0000 0.73266  0.95493  0.64496  Biso   1.000  C
  N67      1.0000 0.64898  0.99211  0.66675  Biso   1.000  N
  H85      1.0000 0.48985  0.95581  0.65345  Biso   1.000  H
  C93      1.0000 0.52625  0.02308  0.85377  Biso   1.000  C
  H86      1.0000 0.82263  0.85191  0.59726  Biso   1.000  H
  H87      1.0000 0.74244  0.79899  0.62712  Biso   1.000  H
  O32      1.0000 0.03423  0.88179  0.72234  Biso   1.000  O
  C94      1.0000 0.20761  0.80703  0.90173  Biso   1.000  C
  N68      1.0000 0.20897  0.81177  0.15918  Biso   1.000  N
  H88      1.0000 0.09441  0.75471  0.19041  Biso   1.000  H
  H89      1.0000 0.16555  0.71792  0.12135  Biso   1.000  H
  N69      1.0000 0.20889  0.81177  0.15918  Biso   1.000  N
  O33      1.0000 0.80743  0.97628  0.60996  Biso   1.000  O
  O34      1.0000 0.80735  0.97628  0.60996  Biso   1.000  O
  C95      1.0000 0.63527  0.06179  0.64093  Biso   1.000  C
  N70      1.0000 0.60487  0.07969  0.88706  Biso   1.000  N
  H90      1.0000 0.50601  0.01050  0.91803  Biso   1.000  H
  H91      1.0000 0.45446  0.03472  0.78797  Biso   1.000  H
  H92      1.0000 0.22128  0.82691  0.83927  Biso   1.000  H
  H93      1.0000 0.23583  0.76038  0.91185  Biso   1.000  H
  H94      1.0000 0.22120  0.82691  0.83927  Biso   1.000  H
  N71      1.0000 0.27347  0.84426  0.00399  Biso   1.000  N
  N72      1.0000 0.27339  0.84426  0.00399  Biso   1.000  N
  C96      1.0000 0.30576  0.81798  0.11894  Biso   1.000  C
  C97      1.0000 0.21783  0.85600  0.24505  Biso   1.000  C
  N73      1.0000 0.68664  0.10331  0.74087  Biso   1.000  N
  H95      1.0000 0.67641  0.07032  0.59006  Biso   1.000  H
  H96      1.0000 0.54835  0.07210  0.60232  Biso   1.000  H
  N74      1.0000 0.68656  0.10331  0.74087  Biso   1.000  N
  C98      1.0000 0.61648  0.12629  0.80504  Biso   1.000  C
  C99      1.0000 0.66606  0.09873  0.99807  Biso   1.000  C
  C100     1.0000 0.33400  0.90127  0.00201  Biso   1.000  C
  C101     1.0000 0.38359  0.87371  0.19504  Biso   1.000  C
  H97      1.0000 0.34693  0.77631  0.12581  Biso   1.000  H
  O35      1.0000 0.15329  0.85783  0.29953  Biso   1.000  O
  N75      1.0000 0.31342  0.89669  0.25921  Biso   1.000  N
  C102     1.0000 0.78223  0.14400  0.75503  Biso   1.000  C
  C103     1.0000 0.69430  0.18202  0.88114  Biso   1.000  C
  H98      1.0000 0.54004  0.14040  0.75331  Biso   1.000  H
  N76      1.0000 0.72660  0.15574  0.99610  Biso   1.000  N
  O36      1.0000 0.66508  0.07106  0.08437  Biso   1.000  O
  O37      1.0000 0.33499  0.92894  0.91571  Biso   1.000  O
  N77      1.0000 0.39519  0.92031  0.11303  Biso   1.000  N
  H99      1.0000 0.46003  0.85960  0.24677  Biso   1.000  H
  C104     1.0000 0.36480  0.93821  0.35915  Biso   1.000  C
  O38      1.0000 0.84678  0.14217  0.70055  Biso   1.000  O
  N78      1.0000 0.79109  0.18823  0.84090  Biso   1.000  N
  H100     1.0000 0.65313  0.22369  0.87427  Biso   1.000  H
  C105     1.0000 0.79245  0.19297  0.09836  Biso   1.000  C
  C106     1.0000 0.47381  0.97692  0.14631  Biso   1.000  C
  H101     1.0000 0.32366  0.92968  0.41003  Biso   1.000  H
  H102     1.0000 0.45171  0.92790  0.39776  Biso   1.000  H
  N79      1.0000 0.35109  0.00789  0.33333  Biso   1.000  N
  C107     1.0000 0.87584  0.24209  0.87041  Biso   1.000  C
  N80      1.0000 0.92048  0.19282  0.12830  Biso   1.000  N
  H103     1.0000 0.77878  0.17309  0.16081  Biso   1.000  H
  H104     1.0000 0.76423  0.23962  0.08823  Biso   1.000  H
  H105     1.0000 0.49405  0.98950  0.08206  Biso   1.000  H
  H106     1.0000 0.54561  0.96528  0.21211  Biso   1.000  H
  N81      1.0000 0.42107  0.03373  0.17883  Biso   1.000  N
  C108     1.0000 0.42864  0.04729  0.29404  Biso   1.000  C
  C109     1.0000 0.26740  0.04507  0.35512  Biso   1.000  C
  N82      1.0000 0.97983  0.23237  0.97413  Biso   1.000  N
  H107     1.0000 0.90565  0.24529  0.80968  Biso   1.000  H
  H108     1.0000 0.83451  0.28208  0.87874  Biso   1.000  H
  H109     1.0000 0.90562  0.24529  0.80959  Biso   1.000  H
  C110     1.0000 0.98260  0.24268  0.08849  Biso   1.000  C
  C111     1.0000 0.99621  0.15810  0.22095  Biso   1.000  C
  C112     1.0000 0.36240  0.08250  0.10264  Biso   1.000  C
  C113     1.0000 0.37302  0.11727  0.28349  Biso   1.000  C
  H110     1.0000 0.51021  0.04419  0.34663  Biso   1.000  H
  O39      1.0000 0.19263  0.02372  0.39012  Biso   1.000  O
  N83      1.0000 0.28559  0.10958  0.33573  Biso   1.000  N
  C114     1.0000 0.08829  0.21284  0.97242  Biso   1.000  C
  H111     1.0000 0.95164  0.28662  0.09793  Biso   1.000  H
  C115     1.0000 0.11619  0.23055  0.16561  Biso   1.000  C
  N84      1.0000 0.11078  0.17734  0.24068  Biso   1.000  N
  O40      1.0000 0.96583  0.11821  0.27774  Biso   1.000  O
  O41      1.0000 0.34931  0.08423  0.00159  Biso   1.000  O
  N85      1.0000 0.32257  0.12876  0.16021  Biso   1.000  N
  N86      1.0000 0.32253  0.12876  0.16012  Biso   1.000  N
  H112     1.0000 0.43032  0.15051  0.32209  Biso   1.000  H
  C116     1.0000 0.20934  0.16185  0.34654  Biso   1.000  C
  N87      1.0000 0.16845  0.21195  0.08369  Biso   1.000  N
  O42      1.0000 0.10942  0.20091  0.88706  Biso   1.000  O
  H113     1.0000 0.15805  0.26822  0.21254  Biso   1.000  H
  C117     1.0000 0.29244  0.19509  0.11431  Biso   1.000  C
  H114     1.0000 0.17743  0.14809  0.40282  Biso   1.000  H
  H115     1.0000 0.25762  0.20101  0.37297  Biso   1.000  H
  H116     1.0000 0.30963  0.19879  0.04482  Biso   1.000  H
  H117     1.0000 0.34312  0.22670  0.17376  Biso   1.000  H
  C118     1.0000 0.70762  0.80491  0.88577  Biso   1.000  C
  N88      1.0000 0.83161  0.78805  0.91640  Biso   1.000  N
  N89      1.0000 0.83153  0.78805  0.91640  Biso   1.000  N
  N90      1.0000 0.67750  0.87124  0.83987  Biso   1.000  N
  H118     1.0000 0.69043  0.80121  0.95526  Biso   1.000  H
  H119     1.0000 0.65694  0.77330  0.82632  Biso   1.000  H
  C119     1.0000 0.88388  0.76945  0.83447  Biso   1.000  C
  C120     1.0000 0.91177  0.78716  0.02767  Biso   1.000  C
  C121     1.0000 0.62704  0.88273  0.71659  Biso   1.000  C
  C122     1.0000 0.63766  0.91750  0.89744  Biso   1.000  C
  N91      1.0000 0.88928  0.82266  0.75940  Biso   1.000  N
  H120     1.0000 0.84201  0.73178  0.78754  Biso   1.000  H
  C123     1.0000 0.01746  0.75732  0.91159  Biso   1.000  C
  N92      1.0000 0.02023  0.76763  0.02595  Biso   1.000  N
  O43      1.0000 0.89064  0.79909  0.11303  Biso   1.000  O
  N93      1.0000 0.71447  0.89042  0.66435  Biso   1.000  N
  C124     1.0000 0.57143  0.95271  0.70604  Biso   1.000  C
  H121     1.0000 0.56974  0.84949  0.67799  Biso   1.000  H
  C125     1.0000 0.57134  0.95271  0.70604  Biso   1.000  C
  H122     1.0000 0.56966  0.84949  0.67799  Biso   1.000  H
  N94      1.0000 0.57900  0.96627  0.82126  Biso   1.000  N
  O44      1.0000 0.65076  0.91577  0.99850  Biso   1.000  O
  O45      1.0000 0.65067  0.91577  0.99850  Biso   1.000  O
  C126     1.0000 0.79073  0.83815  0.65354  Biso   1.000  C
  C127     1.0000 0.79065  0.83815  0.65354  Biso   1.000  C
  C128     1.0000 0.00386  0.84190  0.77913  Biso   1.000  C
  C129     1.0000 0.00377  0.84190  0.77913  Biso   1.000  C
  N95      1.0000 0.07959  0.80718  0.87179  Biso   1.000  N
  H123     1.0000 0.04842  0.71338  0.90216  Biso   1.000  H
  C130     1.0000 0.12423  0.75791  0.12967  Biso   1.000  C
  C131     1.0000 0.73266  0.95493  0.64496  Biso   1.000  C
  N96      1.0000 0.64898  0.99211  0.66675  Biso   1.000  N
  H124     1.0000 0.48985  0.95581  0.65345  Biso   1.000  H
  C132     1.0000 0.52625  0.02308  0.85377  Biso   1.000  C
  H125     1.0000 0.82263  0.85191  0.59726  Biso   1.000  H
  H126     1.0000 0.74244  0.79899  0.62712  Biso   1.000  H
  O46      1.0000 0.03423  0.88179  0.72234  Biso   1.000  O
  C133     1.0000 0.20761  0.80703  0.90173  Biso   1.000  C
  N97      1.0000 0.20897  0.81177  0.15918  Biso   1.000  N
  H127     1.0000 0.09441  0.75471  0.19041  Biso   1.000  H
  H128     1.0000 0.16555  0.71792  0.12135  Biso   1.000  H
  N98      1.0000 0.20889  0.81177  0.15918  Biso   1.000  N
  O47      1.0000 0.80743  0.97628  0.60996  Biso   1.000  O
  O48      1.0000 0.80735  0.97628  0.60996  Biso   1.000  O
  C134     1.0000 0.63527  0.06179  0.64093  Biso   1.000  C
  N99      1.0000 0.60487  0.07969  0.88706  Biso   1.000  N
  H129     1.0000 0.50601  0.01050  0.91803  Biso   1.000  H
  H130     1.0000 0.45446  0.03472  0.78797  Biso   1.000  H
  H131     1.0000 0.22128  0.82691  0.83927  Biso   1.000  H
  H132     1.0000 0.23583  0.76038  0.91185  Biso   1.000  H
  H133     1.0000 0.22120  0.82691  0.83927  Biso   1.000  H
  N100     1.0000 0.27347  0.84426  0.00399  Biso   1.000  N
  N101     1.0000 0.27339  0.84426  0.00399  Biso   1.000  N
  C135     1.0000 0.30576  0.81798  0.11894  Biso   1.000  C
  C136     1.0000 0.21783  0.85600  0.24505  Biso   1.000  C
  N102     1.0000 0.68664  0.10331  0.74087  Biso   1.000  N
  H134     1.0000 0.67641  0.07032  0.59006  Biso   1.000  H
  H135     1.0000 0.54835  0.07210  0.60232  Biso   1.000  H
  N103     1.0000 0.68656  0.10331  0.74087  Biso   1.000  N
  C137     1.0000 0.61648  0.12629  0.80504  Biso   1.000  C
  C138     1.0000 0.66606  0.09873  0.99807  Biso   1.000  C
  C139     1.0000 0.33400  0.90127  0.00201  Biso   1.000  C
  C140     1.0000 0.38359  0.87371  0.19504  Biso   1.000  C
  H136     1.0000 0.34693  0.77631  0.12581  Biso   1.000  H
  O49      1.0000 0.15329  0.85783  0.29953  Biso   1.000  O
  N104     1.0000 0.31342  0.89669  0.25921  Biso   1.000  N
  C141     1.0000 0.78223  0.14400  0.75503  Biso   1.000  C
  C142     1.0000 0.69430  0.18202  0.88114  Biso   1.000  C
  H137     1.0000 0.54004  0.14040  0.75331  Biso   1.000  H
  N105     1.0000 0.72660  0.15574  0.99610  Biso   1.000  N
  O50      1.0000 0.66508  0.07106  0.08437  Biso   1.000  O
  O51      1.0000 0.33499  0.92894  0.91571  Biso   1.000  O
  N106     1.0000 0.39519  0.92031  0.11303  Biso   1.000  N
  H138     1.0000 0.46003  0.85960  0.24677  Biso   1.000  H
  C143     1.0000 0.36480  0.93821  0.35915  Biso   1.000  C
  O52      1.0000 0.84678  0.14217  0.70055  Biso   1.000  O
  N107     1.0000 0.79109  0.18823  0.84090  Biso   1.000  N
  H139     1.0000 0.65313  0.22369  0.87427  Biso   1.000  H
  C144     1.0000 0.79245  0.19297  0.09836  Biso   1.000  C
  C145     1.0000 0.47381  0.97692  0.14631  Biso   1.000  C
  H140     1.0000 0.32366  0.92968  0.41003  Biso   1.000  H
  H141     1.0000 0.45171  0.92790  0.39776  Biso   1.000  H
  N108     1.0000 0.35109  0.00789  0.33333  Biso   1.000  N
  C146     1.0000 0.87584  0.24209  0.87041  Biso   1.000  C
  N109     1.0000 0.92048  0.19282  0.12830  Biso   1.000  N
  H142     1.0000 0.77878  0.17309  0.16081  Biso   1.000  H
  H143     1.0000 0.76423  0.23962  0.08823  Biso   1.000  H
  H144     1.0000 0.49405  0.98950  0.08206  Biso   1.000  H
  H145     1.0000 0.54561  0.96528  0.21211  Biso   1.000  H
  N110     1.0000 0.42107  0.03373  0.17883  Biso   1.000  N
  C147     1.0000 0.42864  0.04729  0.29404  Biso   1.000  C
  C148     1.0000 0.26740  0.04507  0.35512  Biso   1.000  C
  N111     1.0000 0.97983  0.23237  0.97413  Biso   1.000  N
  H146     1.0000 0.90565  0.24529  0.80968  Biso   1.000  H
  H147     1.0000 0.83451  0.28208  0.87874  Biso   1.000  H
  H148     1.0000 0.90562  0.24529  0.80959  Biso   1.000  H
  C149     1.0000 0.98260  0.24268  0.08849  Biso   1.000  C
  C150     1.0000 0.99621  0.15810  0.22095  Biso   1.000  C
  C151     1.0000 0.36240  0.08250  0.10264  Biso   1.000  C
  C152     1.0000 0.37302  0.11727  0.28349  Biso   1.000  C
  H149     1.0000 0.51021  0.04419  0.34663  Biso   1.000  H
  O53      1.0000 0.19263  0.02372  0.39012  Biso   1.000  O
  N112     1.0000 0.28559  0.10958  0.33573  Biso   1.000  N
  C153     1.0000 0.08829  0.21284  0.97242  Biso   1.000  C
  H150     1.0000 0.95164  0.28662  0.09793  Biso   1.000  H
  C154     1.0000 0.11619  0.23055  0.16561  Biso   1.000  C
  N113     1.0000 0.11078  0.17734  0.24068  Biso   1.000  N
  O54      1.0000 0.96583  0.11821  0.27774  Biso   1.000  O
  O55      1.0000 0.34931  0.08423  0.00159  Biso   1.000  O
  N114     1.0000 0.32257  0.12876  0.16021  Biso   1.000  N
  N115     1.0000 0.32253  0.12876  0.16012  Biso   1.000  N
  H151     1.0000 0.43032  0.15051  0.32209  Biso   1.000  H
  C155     1.0000 0.20934  0.16185  0.34654  Biso   1.000  C
  N116     1.0000 0.16845  0.21195  0.08369  Biso   1.000  N
  O56      1.0000 0.10942  0.20091  0.88706  Biso   1.000  O
  H152     1.0000 0.15805  0.26822  0.21254  Biso   1.000  H
  C156     1.0000 0.29244  0.19509  0.11431  Biso   1.000  C
  H153     1.0000 0.17743  0.14809  0.40282  Biso   1.000  H
  H154     1.0000 0.25762  0.20101  0.37297  Biso   1.000  H
  H155     1.0000 0.30963  0.19879  0.04482  Biso   1.000  H
  H156     1.0000 0.34312  0.22670  0.17376  Biso   1.000  H
  C157     1.0000 0.70762  0.80491  0.88577  Biso   1.000  C
  N117     1.0000 0.83161  0.78805  0.91640  Biso   1.000  N
  N118     1.0000 0.83153  0.78805  0.91640  Biso   1.000  N
  N119     1.0000 0.67750  0.87124  0.83987  Biso   1.000  N
  H157     1.0000 0.69043  0.80121  0.95526  Biso   1.000  H
  H158     1.0000 0.65694  0.77330  0.82632  Biso   1.000  H
  C158     1.0000 0.88388  0.76945  0.83447  Biso   1.000  C
  C159     1.0000 0.91177  0.78716  0.02767  Biso   1.000  C
  C160     1.0000 0.62704  0.88273  0.71659  Biso   1.000  C
  C161     1.0000 0.63766  0.91750  0.89744  Biso   1.000  C
  N120     1.0000 0.88928  0.82266  0.75940  Biso   1.000  N
  H159     1.0000 0.84201  0.73178  0.78754  Biso   1.000  H
  C162     1.0000 0.01746  0.75732  0.91159  Biso   1.000  C
  N121     1.0000 0.02023  0.76763  0.02595  Biso   1.000  N
  O57      1.0000 0.89064  0.79909  0.11303  Biso   1.000  O
  N122     1.0000 0.71447  0.89042  0.66435  Biso   1.000  N
  C163     1.0000 0.57143  0.95271  0.70604  Biso   1.000  C
  H160     1.0000 0.56974  0.84949  0.67799  Biso   1.000  H
  C164     1.0000 0.57134  0.95271  0.70604  Biso   1.000  C
  H161     1.0000 0.56966  0.84949  0.67799  Biso   1.000  H
  N123     1.0000 0.57900  0.96627  0.82126  Biso   1.000  N
  O58      1.0000 0.65076  0.91577  0.99850  Biso   1.000  O
  O59      1.0000 0.65067  0.91577  0.99850  Biso   1.000  O
  C165     1.0000 0.79073  0.83815  0.65354  Biso   1.000  C
  C166     1.0000 0.79065  0.83815  0.65354  Biso   1.000  C
  C167     1.0000 0.00386  0.84190  0.77913  Biso   1.000  C
  C168     1.0000 0.00377  0.84190  0.77913  Biso   1.000  C
  N124     1.0000 0.07959  0.80718  0.87179  Biso   1.000  N
  H162     1.0000 0.04842  0.71338  0.90216  Biso   1.000  H
  C169     1.0000 0.12423  0.75791  0.12967  Biso   1.000  C
  C170     1.0000 0.73266  0.95493  0.64496  Biso   1.000  C
  N125     1.0000 0.64898  0.99211  0.66675  Biso   1.000  N
  H163     1.0000 0.48985  0.95581  0.65345  Biso   1.000  H
  C171     1.0000 0.52625  0.02308  0.85377  Biso   1.000  C
  H164     1.0000 0.82263  0.85191  0.59726  Biso   1.000  H
  H165     1.0000 0.74244  0.79899  0.62712  Biso   1.000  H
  O60      1.0000 0.03423  0.88179  0.72234  Biso   1.000  O
  C172     1.0000 0.20761  0.80703  0.90173  Biso   1.000  C
  N126     1.0000 0.20897  0.81177  0.15918  Biso   1.000  N
  H166     1.0000 0.09441  0.75471  0.19041  Biso   1.000  H
  H167     1.0000 0.16555  0.71792  0.12135  Biso   1.000  H
  N127     1.0000 0.20889  0.81177  0.15918  Biso   1.000  N
  O61      1.0000 0.80743  0.97628  0.60996  Biso   1.000  O
  O62      1.0000 0.80735  0.97628  0.60996  Biso   1.000  O
  C173     1.0000 0.63527  0.06179  0.64093  Biso   1.000  C
  N128     1.0000 0.60487  0.07969  0.88706  Biso   1.000  N
  H168     1.0000 0.50601  0.01050  0.91803  Biso   1.000  H
  H169     1.0000 0.45446  0.03472  0.78797  Biso   1.000  H
  H170     1.0000 0.22128  0.82691  0.83927  Biso   1.000  H
  H171     1.0000 0.23583  0.76038  0.91185  Biso   1.000  H
  H172     1.0000 0.22120  0.82691  0.83927  Biso   1.000  H
  N129     1.0000 0.27347  0.84426  0.00399  Biso   1.000  N
  N130     1.0000 0.27339  0.84426  0.00399  Biso   1.000  N
  C174     1.0000 0.30576  0.81798  0.11894  Biso   1.000  C
  C175     1.0000 0.21783  0.85600  0.24505  Biso   1.000  C
  N131     1.0000 0.68664  0.10331  0.74087  Biso   1.000  N
  H173     1.0000 0.67641  0.07032  0.59006  Biso   1.000  H
  H174     1.0000 0.54835  0.07210  0.60232  Biso   1.000  H
  N132     1.0000 0.68656  0.10331  0.74087  Biso   1.000  N
  C176     1.0000 0.61648  0.12629  0.80504  Biso   1.000  C
  C177     1.0000 0.66606  0.09873  0.99807  Biso   1.000  C
  C178     1.0000 0.33400  0.90127  0.00201  Biso   1.000  C
  C179     1.0000 0.38359  0.87371  0.19504  Biso   1.000  C
  H175     1.0000 0.34693  0.77631  0.12581  Biso   1.000  H
  O63      1.0000 0.15329  0.85783  0.29953  Biso   1.000  O
  N133     1.0000 0.31342  0.89669  0.25921  Biso   1.000  N
  C180     1.0000 0.78223  0.14400  0.75503  Biso   1.000  C
  C181     1.0000 0.69430  0.18202  0.88114  Biso   1.000  C
  H176     1.0000 0.54004  0.14040  0.75331  Biso   1.000  H
  N134     1.0000 0.72660  0.15574  0.99610  Biso   1.000  N
  O64      1.0000 0.66508  0.07106  0.08437  Biso   1.000  O
  O65      1.0000 0.33499  0.92894  0.91571  Biso   1.000  O
  N135     1.0000 0.39519  0.92031  0.11303  Biso   1.000  N
  H177     1.0000 0.46003  0.85960  0.24677  Biso   1.000  H
  C182     1.0000 0.36480  0.93821  0.35915  Biso   1.000  C
  O66      1.0000 0.84678  0.14217  0.70055  Biso   1.000  O
  N136     1.0000 0.79109  0.18823  0.84090  Biso   1.000  N
  H178     1.0000 0.65313  0.22369  0.87427  Biso   1.000  H
  C183     1.0000 0.79245  0.19297  0.09836  Biso   1.000  C
  C184     1.0000 0.47381  0.97692  0.14631  Biso   1.000  C
  H179     1.0000 0.32366  0.92968  0.41003  Biso   1.000  H
  H180     1.0000 0.45171  0.92790  0.39776  Biso   1.000  H
  N137     1.0000 0.35109  0.00789  0.33333  Biso   1.000  N
  C185     1.0000 0.87584  0.24209  0.87041  Biso   1.000  C
  N138     1.0000 0.92048  0.19282  0.12830  Biso   1.000  N
  H181     1.0000 0.77878  0.17309  0.16081  Biso   1.000  H
  H182     1.0000 0.76423  0.23962  0.08823  Biso   1.000  H
  H183     1.0000 0.49405  0.98950  0.08206  Biso   1.000  H
  H184     1.0000 0.54561  0.96528  0.21211  Biso   1.000  H
  N139     1.0000 0.42107  0.03373  0.17883  Biso   1.000  N
  C186     1.0000 0.42864  0.04729  0.29404  Biso   1.000  C
  C187     1.0000 0.26740  0.04507  0.35512  Biso   1.000  C
  N140     1.0000 0.97983  0.23237  0.97413  Biso   1.000  N
  H185     1.0000 0.90565  0.24529  0.80968  Biso   1.000  H
  H186     1.0000 0.83451  0.28208  0.87874  Biso   1.000  H
  H187     1.0000 0.90562  0.24529  0.80959  Biso   1.000  H
  C188     1.0000 0.98260  0.24268  0.08849  Biso   1.000  C
  C189     1.0000 0.99621  0.15810  0.22095  Biso   1.000  C
  C190     1.0000 0.36240  0.08250  0.10264  Biso   1.000  C
  C191     1.0000 0.37302  0.11727  0.28349  Biso   1.000  C
  H188     1.0000 0.51021  0.04419  0.34663  Biso   1.000  H
  O67      1.0000 0.19263  0.02372  0.39012  Biso   1.000  O
  N141     1.0000 0.28559  0.10958  0.33573  Biso   1.000  N
  C192     1.0000 0.08829  0.21284  0.97242  Biso   1.000  C
  H189     1.0000 0.95164  0.28662  0.09793  Biso   1.000  H
  C193     1.0000 0.11619  0.23055  0.16561  Biso   1.000  C
  N142     1.0000 0.11078  0.17734  0.24068  Biso   1.000  N
  O68      1.0000 0.96583  0.11821  0.27774  Biso   1.000  O
  O69      1.0000 0.34931  0.08423  0.00159  Biso   1.000  O
  N143     1.0000 0.32257  0.12876  0.16021  Biso   1.000  N
  N144     1.0000 0.32253  0.12876  0.16012  Biso   1.000  N
  H190     1.0000 0.43032  0.15051  0.32209  Biso   1.000  H
  C194     1.0000 0.20934  0.16185  0.34654  Biso   1.000  C
  N145     1.0000 0.16845  0.21195  0.08369  Biso   1.000  N
  O70      1.0000 0.10942  0.20091  0.88706  Biso   1.000  O
  H191     1.0000 0.15805  0.26822  0.21254  Biso   1.000  H
  C195     1.0000 0.29244  0.19509  0.11431  Biso   1.000  C
  H192     1.0000 0.17743  0.14809  0.40282  Biso   1.000  H
  H193     1.0000 0.25762  0.20101  0.37297  Biso   1.000  H
  H194     1.0000 0.30963  0.19879  0.04482  Biso   1.000  H
  H195     1.0000 0.34312  0.22670  0.17376  Biso   1.000  H
  C196     1.0000 0.70762  0.80491  0.88577  Biso   1.000  C
  N146     1.0000 0.83161  0.78805  0.91640  Biso   1.000  N
  N147     1.0000 0.83153  0.78805  0.91640  Biso   1.000  N
  N148     1.0000 0.67750  0.87124  0.83987  Biso   1.000  N
  H196     1.0000 0.69043  0.80121  0.95526  Biso   1.000  H
  H197     1.0000 0.65694  0.77330  0.82632  Biso   1.000  H
  C197     1.0000 0.88388  0.76945  0.83447  Biso   1.000  C
  C198     1.0000 0.91177  0.78716  0.02767  Biso   1.000  C
  C199     1.0000 0.62704  0.88273  0.71659  Biso   1.000  C
  C200     1.0000 0.63766  0.91750  0.89744  Biso   1.000  C
  N149     1.0000 0.88928  0.82266  0.75940  Biso   1.000  N
  H198     1.0000 0.84201  0.73178  0.78754  Biso   1.000  H
  C201     1.0000 0.01746  0.75732  0.91159  Biso   1.000  C
  N150     1.0000 0.02023  0.76763  0.02595  Biso   1.000  N
  O71      1.0000 0.89064  0.79909  0.11303  Biso   1.000  O
  N151     1.0000 0.71447  0.89042  0.66435  Biso   1.000  N
  C202     1.0000 0.57143  0.95271  0.70604  Biso   1.000  C
  H199     1.0000 0.56974  0.84949  0.67799  Biso   1.000  H
  C203     1.0000 0.57134  0.95271  0.70604  Biso   1.000  C
  H200     1.0000 0.56966  0.84949  0.67799  Biso   1.000  H
  N152     1.0000 0.57900  0.96627  0.82126  Biso   1.000  N
  O72      1.0000 0.65076  0.91577  0.99850  Biso   1.000  O
  O73      1.0000 0.65067  0.91577  0.99850  Biso   1.000  O
  C204     1.0000 0.79073  0.83815  0.65354  Biso   1.000  C
  C205     1.0000 0.79065  0.83815  0.65354  Biso   1.000  C
  C206     1.0000 0.00386  0.84190  0.77913  Biso   1.000  C
  C207     1.0000 0.00377  0.84190  0.77913  Biso   1.000  C
  N153     1.0000 0.07959  0.80718  0.87179  Biso   1.000  N
  H201     1.0000 0.04842  0.71338  0.90216  Biso   1.000  H
  C208     1.0000 0.12423  0.75791  0.12967  Biso   1.000  C
  C209     1.0000 0.73266  0.95493  0.64496  Biso   1.000  C
  N154     1.0000 0.64898  0.99211  0.66675  Biso   1.000  N
  H202     1.0000 0.48985  0.95581  0.65345  Biso   1.000  H
  C210     1.0000 0.52625  0.02308  0.85377  Biso   1.000  C
  H203     1.0000 0.82263  0.85191  0.59726  Biso   1.000  H
  H204     1.0000 0.74244  0.79899  0.62712  Biso   1.000  H
  O74      1.0000 0.03423  0.88179  0.72234  Biso   1.000  O
  C211     1.0000 0.20761  0.80703  0.90173  Biso   1.000  C
  N155     1.0000 0.20897  0.81177  0.15918  Biso   1.000  N
  H205     1.0000 0.09441  0.75471  0.19041  Biso   1.000  H
  H206     1.0000 0.16555  0.71792  0.12135  Biso   1.000  H
  N156     1.0000 0.20889  0.81177  0.15918  Biso   1.000  N
  O75      1.0000 0.80743  0.97628  0.60996  Biso   1.000  O
  O76      1.0000 0.80735  0.97628  0.60996  Biso   1.000  O
  C212     1.0000 0.63527  0.06179  0.64093  Biso   1.000  C
  N157     1.0000 0.60487  0.07969  0.88706  Biso   1.000  N
  H207     1.0000 0.50601  0.01050  0.91803  Biso   1.000  H
  H208     1.0000 0.45446  0.03472  0.78797  Biso   1.000  H
  H209     1.0000 0.22128  0.82691  0.83927  Biso   1.000  H
  H210     1.0000 0.23583  0.76038  0.91185  Biso   1.000  H
  H211     1.0000 0.22120  0.82691  0.83927  Biso   1.000  H
  N158     1.0000 0.27347  0.84426  0.00399  Biso   1.000  N
  N159     1.0000 0.27339  0.84426  0.00399  Biso   1.000  N
  C213     1.0000 0.30576  0.81798  0.11894  Biso   1.000  C
  C214     1.0000 0.21783  0.85600  0.24505  Biso   1.000  C
  N160     1.0000 0.68664  0.10331  0.74087  Biso   1.000  N
  H212     1.0000 0.67641  0.07032  0.59006  Biso   1.000  H
  H213     1.0000 0.54835  0.07210  0.60232  Biso   1.000  H
  N161     1.0000 0.68656  0.10331  0.74087  Biso   1.000  N
  C215     1.0000 0.61648  0.12629  0.80504  Biso   1.000  C
  C216     1.0000 0.66606  0.09873  0.99807  Biso   1.000  C
  C217     1.0000 0.33400  0.90127  0.00201  Biso   1.000  C
  C218     1.0000 0.38359  0.87371  0.19504  Biso   1.000  C
  H214     1.0000 0.34693  0.77631  0.12581  Biso   1.000  H
  O77      1.0000 0.15329  0.85783  0.29953  Biso   1.000  O
  N162     1.0000 0.31342  0.89669  0.25921  Biso   1.000  N
  C219     1.0000 0.78223  0.14400  0.75503  Biso   1.000  C
  C220     1.0000 0.69430  0.18202  0.88114  Biso   1.000  C
  H215     1.0000 0.54004  0.14040  0.75331  Biso   1.000  H
  N163     1.0000 0.72660  0.15574  0.99610  Biso   1.000  N
  O78      1.0000 0.66508  0.07106  0.08437  Biso   1.000  O
  O79      1.0000 0.33499  0.92894  0.91571  Biso   1.000  O
  N164     1.0000 0.39519  0.92031  0.11303  Biso   1.000  N
  H216     1.0000 0.46003  0.85960  0.24677  Biso   1.000  H
  C221     1.0000 0.36480  0.93821  0.35915  Biso   1.000  C
  O80      1.0000 0.84678  0.14217  0.70055  Biso   1.000  O
  N165     1.0000 0.79109  0.18823  0.84090  Biso   1.000  N
  H217     1.0000 0.65313  0.22369  0.87427  Biso   1.000  H
  C222     1.0000 0.79245  0.19297  0.09836  Biso   1.000  C
  C223     1.0000 0.47381  0.97692  0.14631  Biso   1.000  C
  H218     1.0000 0.32366  0.92968  0.41003  Biso   1.000  H
  H219     1.0000 0.45171  0.92790  0.39776  Biso   1.000  H
  N166     1.0000 0.35109  0.00789  0.33333  Biso   1.000  N
  C224     1.0000 0.87584  0.24209  0.87041  Biso   1.000  C
  N167     1.0000 0.92048  0.19282  0.12830  Biso   1.000  N
  H220     1.0000 0.77878  0.17309  0.16081  Biso   1.000  H
  H221     1.0000 0.76423  0.23962  0.08823  Biso   1.000  H
  H222     1.0000 0.49405  0.98950  0.08206  Biso   1.000  H
  H223     1.0000 0.54561  0.96528  0.21211  Biso   1.000  H
  N168     1.0000 0.42107  0.03373  0.17883  Biso   1.000  N
  C225     1.0000 0.42864  0.04729  0.29404  Biso   1.000  C
  C226     1.0000 0.26740  0.04507  0.35512  Biso   1.000  C
  N169     1.0000 0.97983  0.23237  0.97413  Biso   1.000  N
  H224     1.0000 0.90565  0.24529  0.80968  Biso   1.000  H
  H225     1.0000 0.83451  0.28208  0.87874  Biso   1.000  H
  H226     1.0000 0.90562  0.24529  0.80959  Biso   1.000  H
  C227     1.0000 0.98260  0.24268  0.08849  Biso   1.000  C
  C228     1.0000 0.99621  0.15810  0.22095  Biso   1.000  C
  C229     1.0000 0.36240  0.08250  0.10264  Biso   1.000  C
  C230     1.0000 0.37302  0.11727  0.28349  Biso   1.000  C
  H227     1.0000 0.51021  0.04419  0.34663  Biso   1.000  H
  O81      1.0000 0.19263  0.02372  0.39012  Biso   1.000  O
  N170     1.0000 0.28559  0.10958  0.33573  Biso   1.000  N
  C231     1.0000 0.08829  0.21284  0.97242  Biso   1.000  C
  H228     1.0000 0.95164  0.28662  0.09793  Biso   1.000  H
  C232     1.0000 0.11619  0.23055  0.16561  Biso   1.000  C
  N171     1.0000 0.11078  0.17734  0.24068  Biso   1.000  N
  O82      1.0000 0.96583  0.11821  0.27774  Biso   1.000  O
  O83      1.0000 0.34931  0.08423  0.00159  Biso   1.000  O
  N172     1.0000 0.32257  0.12876  0.16021  Biso   1.000  N
  N173     1.0000 0.32253  0.12876  0.16012  Biso   1.000  N
  H229     1.0000 0.43032  0.15051  0.32209  Biso   1.000  H
  C233     1.0000 0.20934  0.16185  0.34654  Biso   1.000  C
  N174     1.0000 0.16845  0.21195  0.08369  Biso   1.000  N
  O84      1.0000 0.10942  0.20091  0.88706  Biso   1.000  O
  H230     1.0000 0.15805  0.26822  0.21254  Biso   1.000  H
  C234     1.0000 0.29244  0.19509  0.11431  Biso   1.000  C
  H231     1.0000 0.17743  0.14809  0.40282  Biso   1.000  H
  H232     1.0000 0.25762  0.20101  0.37297  Biso   1.000  H
  H233     1.0000 0.30963  0.19879  0.04482  Biso   1.000  H
  H234     1.0000 0.34312  0.22670  0.17376  Biso   1.000  H
  C235     1.0000 0.70762  0.80491  0.88577  Biso   1.000  C
  N175     1.0000 0.83161  0.78805  0.91640  Biso   1.000  N
  N176     1.0000 0.83153  0.78805  0.91640  Biso   1.000  N
  N177     1.0000 0.67750  0.87124  0.83987  Biso   1.000  N
  H235     1.0000 0.69043  0.80121  0.95526  Biso   1.000  H
  H236     1.0000 0.65694  0.77330  0.82632  Biso   1.000  H
  C236     1.0000 0.88388  0.76945  0.83447  Biso   1.000  C
  C237     1.0000 0.91177  0.78716  0.02767  Biso   1.000  C
  C238     1.0000 0.62704  0.88273  0.71659  Biso   1.000  C
  C239     1.0000 0.63766  0.91750  0.89744  Biso   1.000  C
  N178     1.0000 0.88928  0.82266  0.75940  Biso   1.000  N
  H237     1.0000 0.84201  0.73178  0.78754  Biso   1.000  H
  C240     1.0000 0.01746  0.75732  0.91159  Biso   1.000  C
  N179     1.0000 0.02023  0.76763  0.02595  Biso   1.000  N
  O85      1.0000 0.89064  0.79909  0.11303  Biso   1.000  O
  N180     1.0000 0.71447  0.89042  0.66435  Biso   1.000  N
  C241     1.0000 0.57143  0.95271  0.70604  Biso   1.000  C
  H238     1.0000 0.56974  0.84949  0.67799  Biso   1.000  H
  C242     1.0000 0.57134  0.95271  0.70604  Biso   1.000  C
  H239     1.0000 0.56966  0.84949  0.67799  Biso   1.000  H
  N181     1.0000 0.57900  0.96627  0.82126  Biso   1.000  N
  O86      1.0000 0.65076  0.91577  0.99850  Biso   1.000  O
  O87      1.0000 0.65067  0.91577  0.99850  Biso   1.000  O
  C243     1.0000 0.79073  0.83815  0.65354  Biso   1.000  C
  C244     1.0000 0.79065  0.83815  0.65354  Biso   1.000  C
  C245     1.0000 0.00386  0.84190  0.77913  Biso   1.000  C
  C246     1.0000 0.00377  0.84190  0.77913  Biso   1.000  C
  N182     1.0000 0.07959  0.80718  0.87179  Biso   1.000  N
  H240     1.0000 0.04842  0.71338  0.90216  Biso   1.000  H
  C247     1.0000 0.12423  0.75791  0.12967  Biso   1.000  C
  C248     1.0000 0.73266  0.95493  0.64496  Biso   1.000  C
  N183     1.0000 0.64898  0.99211  0.66675  Biso   1.000  N
  H241     1.0000 0.48985  0.95581  0.65345  Biso   1.000  H
  C249     1.0000 0.52625  0.02308  0.85377  Biso   1.000  C
  H242     1.0000 0.82263  0.85191  0.59726  Biso   1.000  H
  H243     1.0000 0.74244  0.79899  0.62712  Biso   1.000  H
  O88      1.0000 0.03423  0.88179  0.72234  Biso   1.000  O
  C250     1.0000 0.20761  0.80703  0.90173  Biso   1.000  C
  N184     1.0000 0.20897  0.81177  0.15918  Biso   1.000  N
  H244     1.0000 0.09441  0.75471  0.19041  Biso   1.000  H
  H245     1.0000 0.16555  0.71792  0.12135  Biso   1.000  H
  N185     1.0000 0.20889  0.81177  0.15918  Biso   1.000  N
  O89      1.0000 0.80743  0.97628  0.60996  Biso   1.000  O
  O90      1.0000 0.80735  0.97628  0.60996  Biso   1.000  O
  C251     1.0000 0.63527  0.06179  0.64093  Biso   1.000  C
  N186     1.0000 0.60487  0.07969  0.88706  Biso   1.000  N
  H246     1.0000 0.50601  0.01050  0.91803  Biso   1.000  H
  H247     1.0000 0.45446  0.03472  0.78797  Biso   1.000  H
  H248     1.0000 0.22128  0.82691  0.83927  Biso   1.000  H
  H249     1.0000 0.23583  0.76038  0.91185  Biso   1.000  H
  H250     1.0000 0.22120  0.82691  0.83927  Biso   1.000  H
  N187     1.0000 0.27347  0.84426  0.00399  Biso   1.000  N
  N188     1.0000 0.27339  0.84426  0.00399  Biso   1.000  N
  C252     1.0000 0.30576  0.81798  0.11894  Biso   1.000  C
  C253     1.0000 0.21783  0.85600  0.24505  Biso   1.000  C
  N189     1.0000 0.68664  0.10331  0.74087  Biso   1.000  N
  H251     1.0000 0.67641  0.07032  0.59006  Biso   1.000  H
  H252     1.0000 0.54835  0.07210  0.60232  Biso   1.000  H
  N190     1.0000 0.68656  0.10331  0.74087  Biso   1.000  N
  C254     1.0000 0.61648  0.12629  0.80504  Biso   1.000  C
  C255     1.0000 0.66606  0.09873  0.99807  Biso   1.000  C
  C256     1.0000 0.33400  0.90127  0.00201  Biso   1.000  C
  C257     1.0000 0.38359  0.87371  0.19504  Biso   1.000  C
  H253     1.0000 0.34693  0.77631  0.12581  Biso   1.000  H
  O91      1.0000 0.15329  0.85783  0.29953  Biso   1.000  O
  N191     1.0000 0.31342  0.89669  0.25921  Biso   1.000  N
  C258     1.0000 0.78223  0.14400  0.75503  Biso   1.000  C
  C259     1.0000 0.69430  0.18202  0.88114  Biso   1.000  C
  H254     1.0000 0.54004  0.14040  0.75331  Biso   1.000  H
  N192     1.0000 0.72660  0.15574  0.99610  Biso   1.000  N
  O92      1.0000 0.66508  0.07106  0.08437  Biso   1.000  O
  O93      1.0000 0.33499  0.92894  0.91571  Biso   1.000  O
  N193     1.0000 0.39519  0.92031  0.11303  Biso   1.000  N
  H255     1.0000 0.46003  0.85960  0.24677  Biso   1.000  H
  C260     1.0000 0.36480  0.93821  0.35915  Biso   1.000  C
  O94      1.0000 0.84678  0.14217  0.70055  Biso   1.000  O
  N194     1.0000 0.79109  0.18823  0.84090  Biso   1.000  N
  H256     1.0000 0.65313  0.22369  0.87427  Biso   1.000  H
  C261     1.0000 0.79245  0.19297  0.09836  Biso   1.000  C
  C262     1.0000 0.47381  0.97692  0.14631  Biso   1.000  C
  H257     1.0000 0.32366  0.92968  0.41003  Biso   1.000  H
  H258     1.0000 0.45171  0.92790  0.39776  Biso   1.000  H
  N195     1.0000 0.35109  0.00789  0.33333  Biso   1.000  N
  C263     1.0000 0.87584  0.24209  0.87041  Biso   1.000  C
  N196     1.0000 0.92048  0.19282  0.12830  Biso   1.000  N
  H259     1.0000 0.77878  0.17309  0.16081  Biso   1.000  H
  H260     1.0000 0.76423  0.23962  0.08823  Biso   1.000  H
  H261     1.0000 0.49405  0.98950  0.08206  Biso   1.000  H
  H262     1.0000 0.54561  0.96528  0.21211  Biso   1.000  H
  N197     1.0000 0.42107  0.03373  0.17883  Biso   1.000  N
  C264     1.0000 0.42864  0.04729  0.29404  Biso   1.000  C
  C265     1.0000 0.26740  0.04507  0.35512  Biso   1.000  C
  N198     1.0000 0.97983  0.23237  0.97413  Biso   1.000  N
  H263     1.0000 0.90565  0.24529  0.80968  Biso   1.000  H
  H264     1.0000 0.83451  0.28208  0.87874  Biso   1.000  H
  H265     1.0000 0.90562  0.24529  0.80959  Biso   1.000  H
  C266     1.0000 0.98260  0.24268  0.08849  Biso   1.000  C
  C267     1.0000 0.99621  0.15810  0.22095  Biso   1.000  C
  C268     1.0000 0.36240  0.08250  0.10264  Biso   1.000  C
  C269     1.0000 0.37302  0.11727  0.28349  Biso   1.000  C
  H266     1.0000 0.51021  0.04419  0.34663  Biso   1.000  H
  O95      1.0000 0.19263  0.02372  0.39012  Biso   1.000  O
  N199     1.0000 0.28559  0.10958  0.33573  Biso   1.000  N
  C270     1.0000 0.08829  0.21284  0.97242  Biso   1.000  C
  H267     1.0000 0.95164  0.28662  0.09793  Biso   1.000  H
  C271     1.0000 0.11619  0.23055  0.16561  Biso   1.000  C
  N200     1.0000 0.11078  0.17734  0.24068  Biso   1.000  N
  O96      1.0000 0.96583  0.11821  0.27774  Biso   1.000  O
  O97      1.0000 0.34931  0.08423  0.00159  Biso   1.000  O
  N201     1.0000 0.32257  0.12876  0.16021  Biso   1.000  N
  N202     1.0000 0.32253  0.12876  0.16012  Biso   1.000  N
  H268     1.0000 0.43032  0.15051  0.32209  Biso   1.000  H
  C272     1.0000 0.20934  0.16185  0.34654  Biso   1.000  C
  N203     1.0000 0.16845  0.21195  0.08369  Biso   1.000  N
  O98      1.0000 0.10942  0.20091  0.88706  Biso   1.000  O
  H269     1.0000 0.15805  0.26822  0.21254  Biso   1.000  H
  C273     1.0000 0.29244  0.19509  0.11431  Biso   1.000  C
  H270     1.0000 0.17743  0.14809  0.40282  Biso   1.000  H
  H271     1.0000 0.25762  0.20101  0.37297  Biso   1.000  H
  H272     1.0000 0.30963  0.19879  0.04482  Biso   1.000  H
  H273     1.0000 0.34312  0.22670  0.17376  Biso   1.000  H
  C274     1.0000 0.70762  0.80491  0.88577  Biso   1.000  C
  N204     1.0000 0.83161  0.78805  0.91640  Biso   1.000  N
  N205     1.0000 0.83153  0.78805  0.91640  Biso   1.000  N
  N206     1.0000 0.67750  0.87124  0.83987  Biso   1.000  N
  H274     1.0000 0.69043  0.80121  0.95526  Biso   1.000  H
  H275     1.0000 0.65694  0.77330  0.82632  Biso   1.000  H
  C275     1.0000 0.88388  0.76945  0.83447  Biso   1.000  C
  C276     1.0000 0.91177  0.78716  0.02767  Biso   1.000  C
  C277     1.0000 0.62704  0.88273  0.71659  Biso   1.000  C
  C278     1.0000 0.63766  0.91750  0.89744  Biso   1.000  C
  N207     1.0000 0.88928  0.82266  0.75940  Biso   1.000  N
  H276     1.0000 0.84201  0.73178  0.78754  Biso   1.000  H
  C279     1.0000 0.01746  0.75732  0.91159  Biso   1.000  C
  N208     1.0000 0.02023  0.76763  0.02595  Biso   1.000  N
  O99      1.0000 0.89064  0.79909  0.11303  Biso   1.000  O
  N209     1.0000 0.71447  0.89042  0.66435  Biso   1.000  N
  C280     1.0000 0.57143  0.95271  0.70604  Biso   1.000  C
  H277     1.0000 0.56974  0.84949  0.67799  Biso   1.000  H
  C281     1.0000 0.57134  0.95271  0.70604  Biso   1.000  C
  H278     1.0000 0.56966  0.84949  0.67799  Biso   1.000  H
  N210     1.0000 0.57900  0.96627  0.82126  Biso   1.000  N
  O100     1.0000 0.65076  0.91577  0.99850  Biso   1.000  O
  O101     1.0000 0.65067  0.91577  0.99850  Biso   1.000  O
  C282     1.0000 0.79073  0.83815  0.65354  Biso   1.000  C
  C283     1.0000 0.79065  0.83815  0.65354  Biso   1.000  C
  C284     1.0000 0.00386  0.84190  0.77913  Biso   1.000  C
  C285     1.0000 0.00377  0.84190  0.77913  Biso   1.000  C
  N211     1.0000 0.07959  0.80718  0.87179  Biso   1.000  N
  H279     1.0000 0.04842  0.71338  0.90216  Biso   1.000  H
  C286     1.0000 0.12423  0.75791  0.12967  Biso   1.000  C
  C287     1.0000 0.73266  0.95493  0.64496  Biso   1.000  C
  N212     1.0000 0.64898  0.99211  0.66675  Biso   1.000  N
  H280     1.0000 0.48985  0.95581  0.65345  Biso   1.000  H
  C288     1.0000 0.52625  0.02308  0.85377  Biso   1.000  C
  H281     1.0000 0.82263  0.85191  0.59726  Biso   1.000  H
  H282     1.0000 0.74244  0.79899  0.62712  Biso   1.000  H
  O102     1.0000 0.03423  0.88179  0.72234  Biso   1.000  O
  C289     1.0000 0.20761  0.80703  0.90173  Biso   1.000  C
  N213     1.0000 0.20897  0.81177  0.15918  Biso   1.000  N
  H283     1.0000 0.09441  0.75471  0.19041  Biso   1.000  H
  H284     1.0000 0.16555  0.71792  0.12135  Biso   1.000  H
  N214     1.0000 0.20889  0.81177  0.15918  Biso   1.000  N
  O103     1.0000 0.80743  0.97628  0.60996  Biso   1.000  O
  O104     1.0000 0.80735  0.97628  0.60996  Biso   1.000  O
  C290     1.0000 0.63527  0.06179  0.64093  Biso   1.000  C
  N215     1.0000 0.60487  0.07969  0.88706  Biso   1.000  N
  H285     1.0000 0.50601  0.01050  0.91803  Biso   1.000  H
  H286     1.0000 0.45446  0.03472  0.78797  Biso   1.000  H
  H287     1.0000 0.22128  0.82691  0.83927  Biso   1.000  H
  H288     1.0000 0.23583  0.76038  0.91185  Biso   1.000  H
  H289     1.0000 0.22120  0.82691  0.83927  Biso   1.000  H
  N216     1.0000 0.27347  0.84426  0.00399  Biso   1.000  N
  N217     1.0000 0.27339  0.84426  0.00399  Biso   1.000  N
  C291     1.0000 0.30576  0.81798  0.11894  Biso   1.000  C
  C292     1.0000 0.21783  0.85600  0.24505  Biso   1.000  C
  N218     1.0000 0.68664  0.10331  0.74087  Biso   1.000  N
  H290     1.0000 0.67641  0.07032  0.59006  Biso   1.000  H
  H291     1.0000 0.54835  0.07210  0.60232  Biso   1.000  H
  N219     1.0000 0.68656  0.10331  0.74087  Biso   1.000  N
  C293     1.0000 0.61648  0.12629  0.80504  Biso   1.000  C
  C294     1.0000 0.66606  0.09873  0.99807  Biso   1.000  C
  C295     1.0000 0.33400  0.90127  0.00201  Biso   1.000  C
  C296     1.0000 0.38359  0.87371  0.19504  Biso   1.000  C
  H292     1.0000 0.34693  0.77631  0.12581  Biso   1.000  H
  O105     1.0000 0.15329  0.85783  0.29953  Biso   1.000  O
  N220     1.0000 0.31342  0.89669  0.25921  Biso   1.000  N
  C297     1.0000 0.78223  0.14400  0.75503  Biso   1.000  C
  C298     1.0000 0.69430  0.18202  0.88114  Biso   1.000  C
  H293     1.0000 0.54004  0.14040  0.75331  Biso   1.000  H
  N221     1.0000 0.72660  0.15574  0.99610  Biso   1.000  N
  O106     1.0000 0.66508  0.07106  0.08437  Biso   1.000  O
  O107     1.0000 0.33499  0.92894  0.91571  Biso   1.000  O
  N222     1.0000 0.39519  0.92031  0.11303  Biso   1.000  N
  H294     1.0000 0.46003  0.85960  0.24677  Biso   1.000  H
  C299     1.0000 0.36480  0.93821  0.35915  Biso   1.000  C
  O108     1.0000 0.84678  0.14217  0.70055  Biso   1.000  O
  N223     1.0000 0.79109  0.18823  0.84090  Biso   1.000  N
  H295     1.0000 0.65313  0.22369  0.87427  Biso   1.000  H
  C300     1.0000 0.79245  0.19297  0.09836  Biso   1.000  C
  C301     1.0000 0.47381  0.97692  0.14631  Biso   1.000  C
  H296     1.0000 0.32366  0.92968  0.41003  Biso   1.000  H
  H297     1.0000 0.45171  0.92790  0.39776  Biso   1.000  H
  N224     1.0000 0.35109  0.00789  0.33333  Biso   1.000  N
  C302     1.0000 0.87584  0.24209  0.87041  Biso   1.000  C
  N225     1.0000 0.92048  0.19282  0.12830  Biso   1.000  N
  H298     1.0000 0.77878  0.17309  0.16081  Biso   1.000  H
  H299     1.0000 0.76423  0.23962  0.08823  Biso   1.000  H
  H300     1.0000 0.49405  0.98950  0.08206  Biso   1.000  H
  H301     1.0000 0.54561  0.96528  0.21211  Biso   1.000  H
  N226     1.0000 0.42107  0.03373  0.17883  Biso   1.000  N
  C303     1.0000 0.42864  0.04729  0.29404  Biso   1.000  C
  C304     1.0000 0.26740  0.04507  0.35512  Biso   1.000  C
  N227     1.0000 0.97983  0.23237  0.97413  Biso   1.000  N
  H302     1.0000 0.90565  0.24529  0.80968  Biso   1.000  H
  H303     1.0000 0.83451  0.28208  0.87874  Biso   1.000  H
  H304     1.0000 0.90562  0.24529  0.80959  Biso   1.000  H
  C305     1.0000 0.98260  0.24268  0.08849  Biso   1.000  C
  C306     1.0000 0.99621  0.15810  0.22095  Biso   1.000  C
  C307     1.0000 0.36240  0.08250  0.10264  Biso   1.000  C
  C308     1.0000 0.37302  0.11727  0.28349  Biso   1.000  C
  H305     1.0000 0.51021  0.04419  0.34663  Biso   1.000  H
  O109     1.0000 0.19263  0.02372  0.39012  Biso   1.000  O
  N228     1.0000 0.28559  0.10958  0.33573  Biso   1.000  N
  C309     1.0000 0.08829  0.21284  0.97242  Biso   1.000  C
  H306     1.0000 0.95164  0.28662  0.09793  Biso   1.000  H
  C310     1.0000 0.11619  0.23055  0.16561  Biso   1.000  C
  N229     1.0000 0.11078  0.17734  0.24068  Biso   1.000  N
  O110     1.0000 0.96583  0.11821  0.27774  Biso   1.000  O
  O111     1.0000 0.34931  0.08423  0.00159  Biso   1.000  O
  N230     1.0000 0.32257  0.12876  0.16021  Biso   1.000  N
  N231     1.0000 0.32253  0.12876  0.16012  Biso   1.000  N
  H307     1.0000 0.43032  0.15051  0.32209  Biso   1.000  H
  C311     1.0000 0.20934  0.16185  0.34654  Biso   1.000  C
  N232     1.0000 0.16845  0.21195  0.08369  Biso   1.000  N
  O112     1.0000 0.10942  0.20091  0.88706  Biso   1.000  O
  H308     1.0000 0.15805  0.26822  0.21254  Biso   1.000  H
  C312     1.0000 0.29244  0.19509  0.11431  Biso   1.000  C
  H309     1.0000 0.17743  0.14809  0.40282  Biso   1.000  H
  H310     1.0000 0.25762  0.20101  0.37297  Biso   1.000  H
  H311     1.0000 0.30963  0.19879  0.04482  Biso   1.000  H
  H312     1.0000 0.34312  0.22670  0.17376  Biso   1.000  H
  C313     1.0000 0.30573  0.68202  0.61888  Biso   1.000  C
  C314     1.0000 0.38359  0.62629  0.69506  Biso   1.000  C
  N233     1.0000 0.27335  0.65574  0.50392  Biso   1.000  N
  N234     1.0000 0.20897  0.68823  0.65920  Biso   1.000  N
  H313     1.0000 0.34694  0.72369  0.62583  Biso   1.000  H
  N235     1.0000 0.39519  0.57969  0.61305  Biso   1.000  N
  N236     1.0000 0.31339  0.60331  0.75915  Biso   1.000  N
  H314     1.0000 0.45999  0.64040  0.74671  Biso   1.000  H
  C315     1.0000 0.33400  0.59873  0.50204  Biso   1.000  C
  C316     1.0000 0.20761  0.69297  0.40175  Biso   1.000  C
  C317     1.0000 0.21783  0.64400  0.74508  Biso   1.000  C
  C318     1.0000 0.12423  0.74209  0.62969  Biso   1.000  C
  C319     1.0000 0.47381  0.52308  0.64633  Biso   1.000  C
  C320     1.0000 0.36480  0.56179  0.85918  Biso   1.000  C
  O113     1.0000 0.33495  0.57106  0.41565  Biso   1.000  O
  N237     1.0000 0.07959  0.69282  0.37181  Biso   1.000  N
  H315     1.0000 0.22116  0.67309  0.33921  Biso   1.000  H
  H316     1.0000 0.23580  0.73962  0.41179  Biso   1.000  H
  O114     1.0000 0.15325  0.64217  0.79947  Biso   1.000  O
  N238     1.0000 0.02023  0.73237  0.52597  Biso   1.000  N
  H317     1.0000 0.09441  0.74529  0.69043  Biso   1.000  H
  H318     1.0000 0.16552  0.78208  0.62128  Biso   1.000  H
  N239     1.0000 0.42107  0.46627  0.67885  Biso   1.000  N
  H319     1.0000 0.49402  0.51050  0.58199  Biso   1.000  H
  H320     1.0000 0.54561  0.53472  0.71213  Biso   1.000  H
  N240     1.0000 0.35109  0.49211  0.83335  Biso   1.000  N
  H321     1.0000 0.32366  0.57032  0.91005  Biso   1.000  H
  H322     1.0000 0.45168  0.57210  0.89770  Biso   1.000  H
  C321     1.0000 0.01743  0.74268  0.41153  Biso   1.000  C
  C322     1.0000 0.00386  0.65810  0.27916  Biso   1.000  C
  C323     1.0000 0.91177  0.71284  0.52769  Biso   1.000  C
  C324     1.0000 0.36237  0.41750  0.60258  Biso   1.000  C
  C325     1.0000 0.42861  0.45271  0.79398  Biso   1.000  C
  C326     1.0000 0.26737  0.45493  0.85506  Biso   1.000  C
  C327     1.0000 0.88388  0.73055  0.33449  Biso   1.000  C
  H323     1.0000 0.04839  0.78662  0.40209  Biso   1.000  H
  N241     1.0000 0.88928  0.67734  0.25943  Biso   1.000  N
  O115     1.0000 0.03423  0.61821  0.22236  Biso   1.000  O
  N242     1.0000 0.83158  0.71195  0.41633  Biso   1.000  N
  O116     1.0000 0.89061  0.70091  0.61296  Biso   1.000  O
  N243     1.0000 0.32253  0.37124  0.66015  Biso   1.000  N
  O117     1.0000 0.34927  0.41577  0.50152  Biso   1.000  O
  C328     1.0000 0.37303  0.38273  0.78351  Biso   1.000  C
  H324     1.0000 0.51021  0.45581  0.84665  Biso   1.000  H
  N244     1.0000 0.28556  0.39042  0.83567  Biso   1.000  N
  O118     1.0000 0.19260  0.47628  0.89006  Biso   1.000  O
  H325     1.0000 0.84198  0.76822  0.28748  Biso   1.000  H
  C329     1.0000 0.79061  0.66185  0.15348  Biso   1.000  C
  C330     1.0000 0.70763  0.69509  0.38579  Biso   1.000  C
  C331     1.0000 0.29241  0.30491  0.61425  Biso   1.000  C
  H326     1.0000 0.43029  0.34949  0.82203  Biso   1.000  H
  C332     1.0000 0.20934  0.33815  0.84656  Biso   1.000  C
  N245     1.0000 0.71447  0.60958  0.16437  Biso   1.000  N
  H327     1.0000 0.82260  0.64809  0.09720  Biso   1.000  H
  H328     1.0000 0.74244  0.70101  0.12714  Biso   1.000  H
  N246     1.0000 0.67750  0.62876  0.33990  Biso   1.000  N
  H329     1.0000 0.69040  0.69879  0.45520  Biso   1.000  H
  H330     1.0000 0.65694  0.72670  0.32634  Biso   1.000  H
  N247     1.0000 0.16845  0.28805  0.58371  Biso   1.000  N
  H331     1.0000 0.30963  0.30121  0.54485  Biso   1.000  H
  H332     1.0000 0.34309  0.27330  0.67370  Biso   1.000  H
  N248     1.0000 0.11075  0.32266  0.74062  Biso   1.000  N
  H333     1.0000 0.17744  0.35191  0.90284  Biso   1.000  H
  H334     1.0000 0.25759  0.29899  0.87290  Biso   1.000  H
  C333     1.0000 0.73266  0.54507  0.14498  Biso   1.000  C
  C334     1.0000 0.62701  0.61727  0.21653  Biso   1.000  C
  C335     1.0000 0.63766  0.58250  0.39746  Biso   1.000  C
  C336     1.0000 0.08826  0.28716  0.47235  Biso   1.000  C
  C337     1.0000 0.11615  0.26945  0.66555  Biso   1.000  C
  C338     1.0000 0.99618  0.34190  0.72088  Biso   1.000  C
  N249     1.0000 0.64894  0.50789  0.16669  Biso   1.000  N
  O119     1.0000 0.80743  0.52372  0.10998  Biso   1.000  O
  C339     1.0000 0.57143  0.54729  0.20606  Biso   1.000  C
  H335     1.0000 0.56975  0.65051  0.17801  Biso   1.000  H
  N250     1.0000 0.57897  0.53373  0.32119  Biso   1.000  N
  O120     1.0000 0.65068  0.58423  0.49852  Biso   1.000  O
  O121     1.0000 0.10942  0.29909  0.38708  Biso   1.000  O
  N251     1.0000 0.97980  0.26763  0.47407  Biso   1.000  N
  C340     1.0000 0.98260  0.25732  0.58851  Biso   1.000  C
  H336     1.0000 0.15805  0.23178  0.71256  Biso   1.000  H
  N252     1.0000 0.92044  0.30718  0.62823  Biso   1.000  N
  O122     1.0000 0.96580  0.38179  0.77768  Biso   1.000  O
  C341     1.0000 0.63523  0.43821  0.14087  Biso   1.000  C
  H337     1.0000 0.48982  0.54419  0.15339  Biso   1.000  H
  C342     1.0000 0.52622  0.47692  0.35371  Biso   1.000  C
  C343     1.0000 0.87580  0.25791  0.37035  Biso   1.000  C
  H338     1.0000 0.95164  0.21338  0.59795  Biso   1.000  H
  C344     1.0000 0.79242  0.30703  0.59829  Biso   1.000  C
  N253     1.0000 0.68664  0.39669  0.24090  Biso   1.000  N
  H339     1.0000 0.67637  0.42968  0.08999  Biso   1.000  H
  H340     1.0000 0.54835  0.42790  0.10235  Biso   1.000  H
  N254     1.0000 0.60484  0.42031  0.38699  Biso   1.000  N
  H341     1.0000 0.50601  0.48950  0.41805  Biso   1.000  H
  H342     1.0000 0.45443  0.46528  0.28791  Biso   1.000  H
  N255     1.0000 0.79106  0.31177  0.34084  Biso   1.000  N
  H343     1.0000 0.90562  0.25471  0.30961  Biso   1.000  H
  H344     1.0000 0.83448  0.21792  0.37867  Biso   1.000  H
  N256     1.0000 0.72660  0.34426  0.49612  Biso   1.000  N
  H345     1.0000 0.77879  0.32691  0.66083  Biso   1.000  H
  H346     1.0000 0.76423  0.26038  0.58825  Biso   1.000  H
  C345     1.0000 0.78220  0.35600  0.25496  Biso   1.000  C
  C346     1.0000 0.61644  0.37371  0.30498  Biso   1.000  C
  C347     1.0000 0.66603  0.40127  0.49800  Biso   1.000  C
  C348     1.0000 0.69427  0.31798  0.38107  Biso   1.000  C
  O123     1.0000 0.84678  0.35783  0.20057  Biso   1.000  O
  H347     1.0000 0.54004  0.35960  0.25333  Biso   1.000  H
  O124     1.0000 0.66508  0.42894  0.58439  Biso   1.000  O
  H348     1.0000 0.65310  0.27631  0.37421  Biso   1.000  H
  C349     1.0000 0.30573  0.68202  0.61888  Biso   1.000  C
  C350     1.0000 0.38359  0.62629  0.69506  Biso   1.000  C
  N257     1.0000 0.27335  0.65574  0.50392  Biso   1.000  N
  N258     1.0000 0.20897  0.68823  0.65920  Biso   1.000  N
  H349     1.0000 0.34694  0.72369  0.62583  Biso   1.000  H
  N259     1.0000 0.39519  0.57969  0.61305  Biso   1.000  N
  N260     1.0000 0.31339  0.60331  0.75915  Biso   1.000  N
  H350     1.0000 0.45999  0.64040  0.74671  Biso   1.000  H
  C351     1.0000 0.33400  0.59873  0.50204  Biso   1.000  C
  C352     1.0000 0.20761  0.69297  0.40175  Biso   1.000  C
  C353     1.0000 0.21783  0.64400  0.74508  Biso   1.000  C
  C354     1.0000 0.12423  0.74209  0.62969  Biso   1.000  C
  C355     1.0000 0.47381  0.52308  0.64633  Biso   1.000  C
  C356     1.0000 0.36480  0.56179  0.85918  Biso   1.000  C
  O125     1.0000 0.33495  0.57106  0.41565  Biso   1.000  O
  N261     1.0000 0.07959  0.69282  0.37181  Biso   1.000  N
  H351     1.0000 0.22116  0.67309  0.33921  Biso   1.000  H
  H352     1.0000 0.23580  0.73962  0.41179  Biso   1.000  H
  O126     1.0000 0.15325  0.64217  0.79947  Biso   1.000  O
  N262     1.0000 0.02023  0.73237  0.52597  Biso   1.000  N
  H353     1.0000 0.09441  0.74529  0.69043  Biso   1.000  H
  H354     1.0000 0.16552  0.78208  0.62128  Biso   1.000  H
  N263     1.0000 0.42107  0.46627  0.67885  Biso   1.000  N
  H355     1.0000 0.49402  0.51050  0.58199  Biso   1.000  H
  H356     1.0000 0.54561  0.53472  0.71213  Biso   1.000  H
  N264     1.0000 0.35109  0.49211  0.83335  Biso   1.000  N
  H357     1.0000 0.32366  0.57032  0.91005  Biso   1.000  H
  H358     1.0000 0.45168  0.57210  0.89770  Biso   1.000  H
  C357     1.0000 0.01743  0.74268  0.41153  Biso   1.000  C
  C358     1.0000 0.00386  0.65810  0.27916  Biso   1.000  C
  C359     1.0000 0.91177  0.71284  0.52769  Biso   1.000  C
  C360     1.0000 0.36237  0.41750  0.60258  Biso   1.000  C
  C361     1.0000 0.42861  0.45271  0.79398  Biso   1.000  C
  C362     1.0000 0.26737  0.45493  0.85506  Biso   1.000  C
  C363     1.0000 0.88388  0.73055  0.33449  Biso   1.000  C
  H359     1.0000 0.04839  0.78662  0.40209  Biso   1.000  H
  N265     1.0000 0.88928  0.67734  0.25943  Biso   1.000  N
  O127     1.0000 0.03423  0.61821  0.22236  Biso   1.000  O
  N266     1.0000 0.83158  0.71195  0.41633  Biso   1.000  N
  O128     1.0000 0.89061  0.70091  0.61296  Biso   1.000  O
  N267     1.0000 0.32253  0.37124  0.66015  Biso   1.000  N
  O129     1.0000 0.34927  0.41577  0.50152  Biso   1.000  O
  C364     1.0000 0.37303  0.38273  0.78351  Biso   1.000  C
  H360     1.0000 0.51021  0.45581  0.84665  Biso   1.000  H
  N268     1.0000 0.28556  0.39042  0.83567  Biso   1.000  N
  O130     1.0000 0.19260  0.47628  0.89006  Biso   1.000  O
  H361     1.0000 0.84198  0.76822  0.28748  Biso   1.000  H
  C365     1.0000 0.79061  0.66185  0.15348  Biso   1.000  C
  C366     1.0000 0.70763  0.69509  0.38579  Biso   1.000  C
  C367     1.0000 0.29241  0.30491  0.61425  Biso   1.000  C
  H362     1.0000 0.43029  0.34949  0.82203  Biso   1.000  H
  C368     1.0000 0.20934  0.33815  0.84656  Biso   1.000  C
  N269     1.0000 0.71447  0.60958  0.16437  Biso   1.000  N
  H363     1.0000 0.82260  0.64809  0.09720  Biso   1.000  H
  H364     1.0000 0.74244  0.70101  0.12714  Biso   1.000  H
  N270     1.0000 0.67750  0.62876  0.33990  Biso   1.000  N
  H365     1.0000 0.69040  0.69879  0.45520  Biso   1.000  H
  H366     1.0000 0.65694  0.72670  0.32634  Biso   1.000  H
  N271     1.0000 0.16845  0.28805  0.58371  Biso   1.000  N
  H367     1.0000 0.30963  0.30121  0.54485  Biso   1.000  H
  H368     1.0000 0.34309  0.27330  0.67370  Biso   1.000  H
  N272     1.0000 0.11075  0.32266  0.74062  Biso   1.000  N
  H369     1.0000 0.17744  0.35191  0.90284  Biso   1.000  H
  H370     1.0000 0.25759  0.29899  0.87290  Biso   1.000  H
  C369     1.0000 0.73266  0.54507  0.14498  Biso   1.000  C
  C370     1.0000 0.62701  0.61727  0.21653  Biso   1.000  C
  C371     1.0000 0.63766  0.58250  0.39746  Biso   1.000  C
  C372     1.0000 0.08826  0.28716  0.47235  Biso   1.000  C
  C373     1.0000 0.11615  0.26945  0.66555  Biso   1.000  C
  C374     1.0000 0.99618  0.34190  0.72088  Biso   1.000  C
  N273     1.0000 0.64894  0.50789  0.16669  Biso   1.000  N
  O131     1.0000 0.80743  0.52372  0.10998  Biso   1.000  O
  C375     1.0000 0.57143  0.54729  0.20606  Biso   1.000  C
  H371     1.0000 0.56975  0.65051  0.17801  Biso   1.000  H
  N274     1.0000 0.57897  0.53373  0.32119  Biso   1.000  N
  O132     1.0000 0.65068  0.58423  0.49852  Biso   1.000  O
  O133     1.0000 0.10942  0.29909  0.38708  Biso   1.000  O
  N275     1.0000 0.97980  0.26763  0.47407  Biso   1.000  N
  C376     1.0000 0.98260  0.25732  0.58851  Biso   1.000  C
  H372     1.0000 0.15805  0.23178  0.71256  Biso   1.000  H
  N276     1.0000 0.92044  0.30718  0.62823  Biso   1.000  N
  O134     1.0000 0.96580  0.38179  0.77768  Biso   1.000  O
  C377     1.0000 0.63523  0.43821  0.14087  Biso   1.000  C
  H373     1.0000 0.48982  0.54419  0.15339  Biso   1.000  H
  C378     1.0000 0.52622  0.47692  0.35371  Biso   1.000  C
  C379     1.0000 0.87580  0.25791  0.37035  Biso   1.000  C
  H374     1.0000 0.95164  0.21338  0.59795  Biso   1.000  H
  C380     1.0000 0.79242  0.30703  0.59829  Biso   1.000  C
  N277     1.0000 0.68664  0.39669  0.24090  Biso   1.000  N
  H375     1.0000 0.67637  0.42968  0.08999  Biso   1.000  H
  H376     1.0000 0.54835  0.42790  0.10235  Biso   1.000  H
  N278     1.0000 0.60484  0.42031  0.38699  Biso   1.000  N
  H377     1.0000 0.50601  0.48950  0.41805  Biso   1.000  H
  H378     1.0000 0.45443  0.46528  0.28791  Biso   1.000  H
  N279     1.0000 0.79106  0.31177  0.34084  Biso   1.000  N
  H379     1.0000 0.90562  0.25471  0.30961  Biso   1.000  H
  H380     1.0000 0.83448  0.21792  0.37867  Biso   1.000  H
  N280     1.0000 0.72660  0.34426  0.49612  Biso   1.000  N
  H381     1.0000 0.77879  0.32691  0.66083  Biso   1.000  H
  H382     1.0000 0.76423  0.26038  0.58825  Biso   1.000  H
  C381     1.0000 0.78220  0.35600  0.25496  Biso   1.000  C
  C382     1.0000 0.61644  0.37371  0.30498  Biso   1.000  C
  C383     1.0000 0.66603  0.40127  0.49800  Biso   1.000  C
  C384     1.0000 0.69427  0.31798  0.38107  Biso   1.000  C
  O135     1.0000 0.84678  0.35783  0.20057  Biso   1.000  O
  H383     1.0000 0.54004  0.35960  0.25333  Biso   1.000  H
  O136     1.0000 0.66508  0.42894  0.58439  Biso   1.000  O
  H384     1.0000 0.65310  0.27631  0.37421  Biso   1.000  H
