data_image0
_cell_length_a       15.908
_cell_length_b       11.873
_cell_length_c       14.477
_cell_angle_alpha    90
_cell_angle_beta     90
_cell_angle_gamma    90

_symmetry_space_group_name_H-M    "P 1"
_symmetry_int_tables_number       1

loop_
  _symmetry_equiv_pos_as_xyz
  'x, y, z'

loop_
  _atom_site_label
  _atom_site_occupancy
  _atom_site_fract_x
  _atom_site_fract_y
  _atom_site_fract_z
  _atom_site_thermal_displace_type
  _atom_site_B_iso_or_equiv
  _atom_site_type_symbol
  C1       1.0000 0.17607  0.24863  0.12965  Biso   1.000  C
  N1       1.0000 0.16828  0.18302  0.20626  Biso   1.000  N
  N2       1.0000 0.16828  0.18310  0.20626  Biso   1.000  N
  N3       1.0000 0.24742  0.21781  0.08358  Biso   1.000  N
  N4       1.0000 0.24736  0.21781  0.08358  Biso   1.000  N
  O1       1.0000 0.12899  0.32570  0.10748  Biso   1.000  O
  C2       1.0000 0.24045  0.10966  0.21938  Biso   1.000  C
  C3       1.0000 0.24045  0.10958  0.21938  Biso   1.000  C
  C4       1.0000 0.10642  0.20660  0.27747  Biso   1.000  C
  C5       1.0000 0.24038  0.10958  0.21938  Biso   1.000  C
  C6       1.0000 0.24038  0.10966  0.21938  Biso   1.000  C
  C7       1.0000 0.29212  0.12768  0.12945  Biso   1.000  C
  C8       1.0000 0.29212  0.12777  0.12945  Biso   1.000  C
  C9       1.0000 0.29205  0.12768  0.12945  Biso   1.000  C
  C10      1.0000 0.29205  0.12777  0.12945  Biso   1.000  C
  C11      1.0000 0.27477  0.27280  0.00000  Biso   1.000  C
  H1       1.0000 0.27338  0.13072  0.27561  Biso   1.000  H
  N5       1.0000 0.22159  0.99099  0.21745  Biso   1.000  N
  N6       1.0000 0.22159  0.99107  0.21745  Biso   1.000  N
  N7       1.0000 0.03904  0.12415  0.28010  Biso   1.000  N
  H2       1.0000 0.08197  0.28207  0.26649  Biso   1.000  H
  H3       1.0000 0.13477  0.20812  0.33833  Biso   1.000  H
  N8       1.0000 0.03904  0.12423  0.28010  Biso   1.000  N
  H4       1.0000 0.08197  0.28215  0.26649  Biso   1.000  H
  N9       1.0000 0.28608  0.01929  0.08351  Biso   1.000  N
  H5       1.0000 0.35171  0.14857  0.14299  Biso   1.000  H
  H6       1.0000 0.35171  0.14866  0.14299  Biso   1.000  H
  H7       1.0000 0.35165  0.14857  0.14299  Biso   1.000  H
  H8       1.0000 0.35165  0.14866  0.14299  Biso   1.000  H
  H9       1.0000 0.33700  0.27643  0.00000  Biso   1.000  H
  H10      1.0000 0.25339  0.35113  0.00000  Biso   1.000  H
  N10      1.0000 0.24742  0.21781  0.91642  Biso   1.000  N
  N11      1.0000 0.24736  0.21781  0.91642  Biso   1.000  N
  C12      1.0000 0.24943  0.93970  0.13836  Biso   1.000  C
  C13      1.0000 0.18356  0.92883  0.29219  Biso   1.000  C
  C14      1.0000 0.04526  0.02299  0.33605  Biso   1.000  C
  C15      1.0000 0.04520  0.02299  0.33605  Biso   1.000  C
  C16      1.0000 0.95719  0.15405  0.26483  Biso   1.000  C
  C17      1.0000 0.95713  0.15405  0.26483  Biso   1.000  C
  C18      1.0000 0.33178  0.99208  0.00000  Biso   1.000  C
  C19      1.0000 0.33178  0.99217  0.00000  Biso   1.000  C
  C20      1.0000 0.29212  0.12768  0.87055  Biso   1.000  C
  C21      1.0000 0.17607  0.24863  0.87035  Biso   1.000  C
  C22      1.0000 0.29212  0.12777  0.87055  Biso   1.000  C
  C23      1.0000 0.29205  0.12768  0.87055  Biso   1.000  C
  C24      1.0000 0.29205  0.12777  0.87055  Biso   1.000  C
  O2       1.0000 0.24365  0.83863  0.12123  Biso   1.000  O
  N12      1.0000 0.09329  0.93279  0.29509  Biso   1.000  N
  H11      1.0000 0.20568  0.95848  0.35132  Biso   1.000  H
  H12      1.0000 0.20128  0.84907  0.28728  Biso   1.000  H
  H13      1.0000 0.20568  0.95856  0.35132  Biso   1.000  H
  H14      1.0000 0.20128  0.84915  0.28728  Biso   1.000  H
  H15      1.0000 0.06500  0.04026  0.40001  Biso   1.000  H
  H16      1.0000 0.06500  0.04034  0.40001  Biso   1.000  H
  C25      1.0000 0.95474  0.97701  0.33605  Biso   1.000  C
  O3       1.0000 0.93192  0.24156  0.23092  Biso   1.000  O
  N13      1.0000 0.90671  0.06721  0.29509  Biso   1.000  N
  O4       1.0000 0.93192  0.24164  0.23092  Biso   1.000  O
  N14      1.0000 0.90671  0.06730  0.29509  Biso   1.000  N
  H17      1.0000 0.38572  0.03369  0.00000  Biso   1.000  H
  H18      1.0000 0.38572  0.03377  0.00000  Biso   1.000  H
  H19      1.0000 0.38566  0.03369  0.00000  Biso   1.000  H
  H20      1.0000 0.38566  0.03377  0.00000  Biso   1.000  H
  H21      1.0000 0.34498  0.91064  0.00000  Biso   1.000  H
  N15      1.0000 0.28608  0.01929  0.91649  Biso   1.000  N
  C26      1.0000 0.24045  0.10958  0.78062  Biso   1.000  C
  H22      1.0000 0.35171  0.14857  0.85701  Biso   1.000  H
  C27      1.0000 0.24045  0.10966  0.78062  Biso   1.000  C
  H23      1.0000 0.35171  0.14866  0.85701  Biso   1.000  H
  C28      1.0000 0.24038  0.10958  0.78062  Biso   1.000  C
  H24      1.0000 0.35165  0.14857  0.85701  Biso   1.000  H
  C29      1.0000 0.24038  0.10966  0.78062  Biso   1.000  C
  H25      1.0000 0.35165  0.14866  0.85701  Biso   1.000  H
  O5       1.0000 0.12899  0.32570  0.89252  Biso   1.000  O
  N16      1.0000 0.16828  0.18302  0.79374  Biso   1.000  N
  N17      1.0000 0.16828  0.18310  0.79374  Biso   1.000  N
  C30      1.0000 0.04281  0.84595  0.26483  Biso   1.000  C
  C31      1.0000 0.04281  0.84604  0.26483  Biso   1.000  C
  N18      1.0000 0.96096  0.87585  0.28010  Biso   1.000  N
  H26      1.0000 0.93500  0.95974  0.40001  Biso   1.000  H
  C32      1.0000 0.81644  0.07117  0.29219  Biso   1.000  C
  C33      1.0000 0.81644  0.07125  0.29219  Biso   1.000  C
  C34      1.0000 0.81638  0.07117  0.29219  Biso   1.000  C
  C35      1.0000 0.81638  0.07125  0.29219  Biso   1.000  C
  C36      1.0000 0.24943  0.93970  0.86164  Biso   1.000  C
  N19      1.0000 0.22159  0.99099  0.78255  Biso   1.000  N
  N20      1.0000 0.22159  0.99107  0.78255  Biso   1.000  N
  H27      1.0000 0.27338  0.13072  0.72439  Biso   1.000  H
  C37      1.0000 0.10642  0.20660  0.72253  Biso   1.000  C
  O6       1.0000 0.06808  0.75844  0.23092  Biso   1.000  O
  O7       1.0000 0.06802  0.75844  0.23092  Biso   1.000  O
  C38      1.0000 0.89358  0.79340  0.27747  Biso   1.000  C
  N21      1.0000 0.77841  0.00901  0.21745  Biso   1.000  N
  H28      1.0000 0.79432  0.04152  0.35132  Biso   1.000  H
  H29      1.0000 0.79872  0.15093  0.28728  Biso   1.000  H
  H30      1.0000 0.79425  0.04152  0.35132  Biso   1.000  H
  H31      1.0000 0.79865  0.15093  0.28728  Biso   1.000  H
  O8       1.0000 0.24365  0.83863  0.87877  Biso   1.000  O
  C39      1.0000 0.18356  0.92883  0.70781  Biso   1.000  C
  N22      1.0000 0.03904  0.12415  0.71990  Biso   1.000  N
  H32      1.0000 0.08197  0.28207  0.73351  Biso   1.000  H
  H33      1.0000 0.13477  0.20812  0.66167  Biso   1.000  H
  N23      1.0000 0.03904  0.12423  0.71990  Biso   1.000  N
  H34      1.0000 0.08197  0.28215  0.73351  Biso   1.000  H
  N24      1.0000 0.83172  0.81698  0.20626  Biso   1.000  N
  H35      1.0000 0.91803  0.71793  0.26649  Biso   1.000  H
  H36      1.0000 0.86523  0.79188  0.33833  Biso   1.000  H
  H37      1.0000 0.86523  0.79196  0.33833  Biso   1.000  H
  H38      1.0000 0.91797  0.71793  0.26649  Biso   1.000  H
  H39      1.0000 0.86516  0.79188  0.33833  Biso   1.000  H
  H40      1.0000 0.86516  0.79196  0.33833  Biso   1.000  H
  C40      1.0000 0.75955  0.89042  0.21938  Biso   1.000  C
  C41      1.0000 0.75057  0.06030  0.13836  Biso   1.000  C
  N25      1.0000 0.09329  0.93279  0.70491  Biso   1.000  N
  H41      1.0000 0.20568  0.95848  0.64868  Biso   1.000  H
  H42      1.0000 0.20128  0.84907  0.71272  Biso   1.000  H
  H43      1.0000 0.20568  0.95856  0.64868  Biso   1.000  H
  H44      1.0000 0.20128  0.84915  0.71272  Biso   1.000  H
  C42      1.0000 0.95719  0.15405  0.73517  Biso   1.000  C
  C43      1.0000 0.95713  0.15405  0.73517  Biso   1.000  C
  C44      1.0000 0.04526  0.02299  0.66395  Biso   1.000  C
  C45      1.0000 0.04520  0.02299  0.66395  Biso   1.000  C
  C46      1.0000 0.82393  0.75137  0.12965  Biso   1.000  C
  C47      1.0000 0.82393  0.75145  0.12965  Biso   1.000  C
  C48      1.0000 0.70788  0.87232  0.12945  Biso   1.000  C
  H45      1.0000 0.72662  0.86928  0.27561  Biso   1.000  H
  H46      1.0000 0.72662  0.86937  0.27561  Biso   1.000  H
  N26      1.0000 0.71392  0.98071  0.08351  Biso   1.000  N
  N27      1.0000 0.71392  0.98080  0.08351  Biso   1.000  N
  O9       1.0000 0.75635  0.16137  0.12123  Biso   1.000  O
  O10      1.0000 0.75635  0.16146  0.12123  Biso   1.000  O
  C49      1.0000 0.04281  0.84595  0.73517  Biso   1.000  C
  C50      1.0000 0.04281  0.84604  0.73517  Biso   1.000  C
  N28      1.0000 0.90671  0.06721  0.70491  Biso   1.000  N
  O11      1.0000 0.93192  0.24156  0.76908  Biso   1.000  O
  N29      1.0000 0.90671  0.06730  0.70491  Biso   1.000  N
  O12      1.0000 0.93192  0.24164  0.76908  Biso   1.000  O
  C51      1.0000 0.95474  0.97701  0.66395  Biso   1.000  C
  H47      1.0000 0.06500  0.04026  0.59999  Biso   1.000  H
  H48      1.0000 0.06500  0.04034  0.59999  Biso   1.000  H
  O13      1.0000 0.87101  0.67430  0.10748  Biso   1.000  O
  N30      1.0000 0.75258  0.78219  0.08358  Biso   1.000  N
  N31      1.0000 0.75258  0.78228  0.08358  Biso   1.000  N
  O14      1.0000 0.87095  0.67430  0.10748  Biso   1.000  O
  H49      1.0000 0.64829  0.85143  0.14299  Biso   1.000  H
  C52      1.0000 0.66822  0.00792  0.00000  Biso   1.000  C
  N32      1.0000 0.96096  0.87585  0.71990  Biso   1.000  N
  O15      1.0000 0.06808  0.75844  0.76908  Biso   1.000  O
  O16      1.0000 0.06802  0.75844  0.76908  Biso   1.000  O
  C53      1.0000 0.81644  0.07117  0.70781  Biso   1.000  C
  C54      1.0000 0.81644  0.07125  0.70781  Biso   1.000  C
  C55      1.0000 0.81638  0.07117  0.70781  Biso   1.000  C
  C56      1.0000 0.81638  0.07125  0.70781  Biso   1.000  C
  H50      1.0000 0.93500  0.95974  0.59999  Biso   1.000  H
  C57      1.0000 0.72523  0.72720  0.00000  Biso   1.000  C
  C58      1.0000 0.72517  0.72720  0.00000  Biso   1.000  C
  N33      1.0000 0.71392  0.98071  0.91649  Biso   1.000  N
  N34      1.0000 0.71392  0.98080  0.91649  Biso   1.000  N
  H51      1.0000 0.61428  0.96631  0.00000  Biso   1.000  H
  H52      1.0000 0.65502  0.08936  0.00000  Biso   1.000  H
  H53      1.0000 0.65502  0.08945  0.00000  Biso   1.000  H
  C59      1.0000 0.89358  0.79340  0.72253  Biso   1.000  C
  N35      1.0000 0.77841  0.00901  0.78255  Biso   1.000  N
  H54      1.0000 0.79432  0.04152  0.64868  Biso   1.000  H
  H55      1.0000 0.79872  0.15093  0.71272  Biso   1.000  H
  H56      1.0000 0.79425  0.04152  0.64868  Biso   1.000  H
  H57      1.0000 0.79865  0.15093  0.71272  Biso   1.000  H
  N36      1.0000 0.75258  0.78219  0.91642  Biso   1.000  N
  N37      1.0000 0.75258  0.78228  0.91642  Biso   1.000  N
  H58      1.0000 0.66300  0.72357  0.00000  Biso   1.000  H
  H59      1.0000 0.74661  0.64887  0.00000  Biso   1.000  H
  H60      1.0000 0.66300  0.72366  0.00000  Biso   1.000  H
  H61      1.0000 0.74661  0.64895  0.00000  Biso   1.000  H
  C60      1.0000 0.70788  0.87232  0.87055  Biso   1.000  C
  C61      1.0000 0.75057  0.06030  0.86164  Biso   1.000  C
  N38      1.0000 0.83172  0.81698  0.79374  Biso   1.000  N
  H62      1.0000 0.91803  0.71793  0.73351  Biso   1.000  H
  H63      1.0000 0.86523  0.79188  0.66167  Biso   1.000  H
  H64      1.0000 0.86523  0.79196  0.66167  Biso   1.000  H
  H65      1.0000 0.91797  0.71793  0.73351  Biso   1.000  H
  H66      1.0000 0.86516  0.79188  0.66167  Biso   1.000  H
  H67      1.0000 0.86516  0.79196  0.66167  Biso   1.000  H
  C62      1.0000 0.75955  0.89042  0.78062  Biso   1.000  C
  C63      1.0000 0.82393  0.75137  0.87035  Biso   1.000  C
  C64      1.0000 0.82393  0.75145  0.87035  Biso   1.000  C
  H68      1.0000 0.64829  0.85143  0.85701  Biso   1.000  H
  O17      1.0000 0.75635  0.16137  0.87877  Biso   1.000  O
  O18      1.0000 0.75635  0.16146  0.87877  Biso   1.000  O
  H69      1.0000 0.72662  0.86928  0.72439  Biso   1.000  H
  H70      1.0000 0.72662  0.86937  0.72439  Biso   1.000  H
  O19      1.0000 0.87101  0.67430  0.89252  Biso   1.000  O
  O20      1.0000 0.87095  0.67430  0.89252  Biso   1.000  O
  C65      1.0000 0.17607  0.24863  0.12965  Biso   1.000  C
  N39      1.0000 0.16828  0.18302  0.20626  Biso   1.000  N
  N40      1.0000 0.16828  0.18310  0.20626  Biso   1.000  N
  N41      1.0000 0.24742  0.21781  0.08358  Biso   1.000  N
  N42      1.0000 0.24736  0.21781  0.08358  Biso   1.000  N
  O21      1.0000 0.12899  0.32570  0.10748  Biso   1.000  O
  C66      1.0000 0.24045  0.10966  0.21938  Biso   1.000  C
  C67      1.0000 0.24045  0.10958  0.21938  Biso   1.000  C
  C68      1.0000 0.10642  0.20660  0.27747  Biso   1.000  C
  C69      1.0000 0.24038  0.10958  0.21938  Biso   1.000  C
  C70      1.0000 0.24038  0.10966  0.21938  Biso   1.000  C
  C71      1.0000 0.29212  0.12768  0.12945  Biso   1.000  C
  C72      1.0000 0.29212  0.12777  0.12945  Biso   1.000  C
  C73      1.0000 0.29205  0.12768  0.12945  Biso   1.000  C
  C74      1.0000 0.29205  0.12777  0.12945  Biso   1.000  C
  C75      1.0000 0.27477  0.27280  0.00000  Biso   1.000  C
  H71      1.0000 0.27338  0.13072  0.27561  Biso   1.000  H
  N43      1.0000 0.22159  0.99099  0.21745  Biso   1.000  N
  N44      1.0000 0.22159  0.99107  0.21745  Biso   1.000  N
  N45      1.0000 0.03904  0.12415  0.28010  Biso   1.000  N
  H72      1.0000 0.08197  0.28207  0.26649  Biso   1.000  H
  H73      1.0000 0.13477  0.20812  0.33833  Biso   1.000  H
  N46      1.0000 0.03904  0.12423  0.28010  Biso   1.000  N
  H74      1.0000 0.08197  0.28215  0.26649  Biso   1.000  H
  N47      1.0000 0.28608  0.01929  0.08351  Biso   1.000  N
  H75      1.0000 0.35171  0.14857  0.14299  Biso   1.000  H
  H76      1.0000 0.35171  0.14866  0.14299  Biso   1.000  H
  H77      1.0000 0.35165  0.14857  0.14299  Biso   1.000  H
  H78      1.0000 0.35165  0.14866  0.14299  Biso   1.000  H
  H79      1.0000 0.33700  0.27643  0.00000  Biso   1.000  H
  H80      1.0000 0.25339  0.35113  0.00000  Biso   1.000  H
  N48      1.0000 0.24742  0.21781  0.91642  Biso   1.000  N
  N49      1.0000 0.24736  0.21781  0.91642  Biso   1.000  N
  C76      1.0000 0.24943  0.93970  0.13836  Biso   1.000  C
  C77      1.0000 0.18356  0.92883  0.29219  Biso   1.000  C
  C78      1.0000 0.04526  0.02299  0.33605  Biso   1.000  C
  C79      1.0000 0.04520  0.02299  0.33605  Biso   1.000  C
  C80      1.0000 0.95719  0.15405  0.26483  Biso   1.000  C
  C81      1.0000 0.95713  0.15405  0.26483  Biso   1.000  C
  C82      1.0000 0.33178  0.99208  0.00000  Biso   1.000  C
  C83      1.0000 0.33178  0.99217  0.00000  Biso   1.000  C
  C84      1.0000 0.29212  0.12768  0.87055  Biso   1.000  C
  C85      1.0000 0.17607  0.24863  0.87035  Biso   1.000  C
  C86      1.0000 0.29212  0.12777  0.87055  Biso   1.000  C
  C87      1.0000 0.29205  0.12768  0.87055  Biso   1.000  C
  C88      1.0000 0.29205  0.12777  0.87055  Biso   1.000  C
  O22      1.0000 0.24365  0.83863  0.12123  Biso   1.000  O
  N50      1.0000 0.09329  0.93279  0.29509  Biso   1.000  N
  H81      1.0000 0.20568  0.95848  0.35132  Biso   1.000  H
  H82      1.0000 0.20128  0.84907  0.28728  Biso   1.000  H
  H83      1.0000 0.20568  0.95856  0.35132  Biso   1.000  H
  H84      1.0000 0.20128  0.84915  0.28728  Biso   1.000  H
  H85      1.0000 0.06500  0.04026  0.40001  Biso   1.000  H
  H86      1.0000 0.06500  0.04034  0.40001  Biso   1.000  H
  C89      1.0000 0.95474  0.97701  0.33605  Biso   1.000  C
  O23      1.0000 0.93192  0.24156  0.23092  Biso   1.000  O
  N51      1.0000 0.90671  0.06721  0.29509  Biso   1.000  N
  O24      1.0000 0.93192  0.24164  0.23092  Biso   1.000  O
  N52      1.0000 0.90671  0.06730  0.29509  Biso   1.000  N
  H87      1.0000 0.38572  0.03369  0.00000  Biso   1.000  H
  H88      1.0000 0.38572  0.03377  0.00000  Biso   1.000  H
  H89      1.0000 0.38566  0.03369  0.00000  Biso   1.000  H
  H90      1.0000 0.38566  0.03377  0.00000  Biso   1.000  H
  H91      1.0000 0.34498  0.91064  0.00000  Biso   1.000  H
  N53      1.0000 0.28608  0.01929  0.91649  Biso   1.000  N
  C90      1.0000 0.24045  0.10958  0.78062  Biso   1.000  C
  H92      1.0000 0.35171  0.14857  0.85701  Biso   1.000  H
  C91      1.0000 0.24045  0.10966  0.78062  Biso   1.000  C
  H93      1.0000 0.35171  0.14866  0.85701  Biso   1.000  H
  C92      1.0000 0.24038  0.10958  0.78062  Biso   1.000  C
  H94      1.0000 0.35165  0.14857  0.85701  Biso   1.000  H
  C93      1.0000 0.24038  0.10966  0.78062  Biso   1.000  C
  H95      1.0000 0.35165  0.14866  0.85701  Biso   1.000  H
  O25      1.0000 0.12899  0.32570  0.89252  Biso   1.000  O
  N54      1.0000 0.16828  0.18302  0.79374  Biso   1.000  N
  N55      1.0000 0.16828  0.18310  0.79374  Biso   1.000  N
  C94      1.0000 0.04281  0.84595  0.26483  Biso   1.000  C
  C95      1.0000 0.04281  0.84604  0.26483  Biso   1.000  C
  N56      1.0000 0.96096  0.87585  0.28010  Biso   1.000  N
  H96      1.0000 0.93500  0.95974  0.40001  Biso   1.000  H
  C96      1.0000 0.81644  0.07117  0.29219  Biso   1.000  C
  C97      1.0000 0.81644  0.07125  0.29219  Biso   1.000  C
  C98      1.0000 0.81638  0.07117  0.29219  Biso   1.000  C
  C99      1.0000 0.81638  0.07125  0.29219  Biso   1.000  C
  C100     1.0000 0.24943  0.93970  0.86164  Biso   1.000  C
  N57      1.0000 0.22159  0.99099  0.78255  Biso   1.000  N
  N58      1.0000 0.22159  0.99107  0.78255  Biso   1.000  N
  H97      1.0000 0.27338  0.13072  0.72439  Biso   1.000  H
  C101     1.0000 0.10642  0.20660  0.72253  Biso   1.000  C
  O26      1.0000 0.06808  0.75844  0.23092  Biso   1.000  O
  O27      1.0000 0.06802  0.75844  0.23092  Biso   1.000  O
  C102     1.0000 0.89358  0.79340  0.27747  Biso   1.000  C
  N59      1.0000 0.77841  0.00901  0.21745  Biso   1.000  N
  H98      1.0000 0.79432  0.04152  0.35132  Biso   1.000  H
  H99      1.0000 0.79872  0.15093  0.28728  Biso   1.000  H
  H100     1.0000 0.79425  0.04152  0.35132  Biso   1.000  H
  H101     1.0000 0.79865  0.15093  0.28728  Biso   1.000  H
  O28      1.0000 0.24365  0.83863  0.87877  Biso   1.000  O
  C103     1.0000 0.18356  0.92883  0.70781  Biso   1.000  C
  N60      1.0000 0.03904  0.12415  0.71990  Biso   1.000  N
  H102     1.0000 0.08197  0.28207  0.73351  Biso   1.000  H
  H103     1.0000 0.13477  0.20812  0.66167  Biso   1.000  H
  N61      1.0000 0.03904  0.12423  0.71990  Biso   1.000  N
  H104     1.0000 0.08197  0.28215  0.73351  Biso   1.000  H
  N62      1.0000 0.83172  0.81698  0.20626  Biso   1.000  N
  H105     1.0000 0.91803  0.71793  0.26649  Biso   1.000  H
  H106     1.0000 0.86523  0.79188  0.33833  Biso   1.000  H
  H107     1.0000 0.86523  0.79196  0.33833  Biso   1.000  H
  H108     1.0000 0.91797  0.71793  0.26649  Biso   1.000  H
  H109     1.0000 0.86516  0.79188  0.33833  Biso   1.000  H
  H110     1.0000 0.86516  0.79196  0.33833  Biso   1.000  H
  C104     1.0000 0.75955  0.89042  0.21938  Biso   1.000  C
  C105     1.0000 0.75057  0.06030  0.13836  Biso   1.000  C
  N63      1.0000 0.09329  0.93279  0.70491  Biso   1.000  N
  H111     1.0000 0.20568  0.95848  0.64868  Biso   1.000  H
  H112     1.0000 0.20128  0.84907  0.71272  Biso   1.000  H
  H113     1.0000 0.20568  0.95856  0.64868  Biso   1.000  H
  H114     1.0000 0.20128  0.84915  0.71272  Biso   1.000  H
  C106     1.0000 0.95719  0.15405  0.73517  Biso   1.000  C
  C107     1.0000 0.95713  0.15405  0.73517  Biso   1.000  C
  C108     1.0000 0.04526  0.02299  0.66395  Biso   1.000  C
  C109     1.0000 0.04520  0.02299  0.66395  Biso   1.000  C
  C110     1.0000 0.82393  0.75137  0.12965  Biso   1.000  C
  C111     1.0000 0.82393  0.75145  0.12965  Biso   1.000  C
  C112     1.0000 0.70788  0.87232  0.12945  Biso   1.000  C
  H115     1.0000 0.72662  0.86928  0.27561  Biso   1.000  H
  H116     1.0000 0.72662  0.86937  0.27561  Biso   1.000  H
  N64      1.0000 0.71392  0.98071  0.08351  Biso   1.000  N
  N65      1.0000 0.71392  0.98080  0.08351  Biso   1.000  N
  O29      1.0000 0.75635  0.16137  0.12123  Biso   1.000  O
  O30      1.0000 0.75635  0.16146  0.12123  Biso   1.000  O
  C113     1.0000 0.04281  0.84595  0.73517  Biso   1.000  C
  C114     1.0000 0.04281  0.84604  0.73517  Biso   1.000  C
  N66      1.0000 0.90671  0.06721  0.70491  Biso   1.000  N
  O31      1.0000 0.93192  0.24156  0.76908  Biso   1.000  O
  N67      1.0000 0.90671  0.06730  0.70491  Biso   1.000  N
  O32      1.0000 0.93192  0.24164  0.76908  Biso   1.000  O
  C115     1.0000 0.95474  0.97701  0.66395  Biso   1.000  C
  H117     1.0000 0.06500  0.04026  0.59999  Biso   1.000  H
  H118     1.0000 0.06500  0.04034  0.59999  Biso   1.000  H
  O33      1.0000 0.87101  0.67430  0.10748  Biso   1.000  O
  N68      1.0000 0.75258  0.78219  0.08358  Biso   1.000  N
  N69      1.0000 0.75258  0.78228  0.08358  Biso   1.000  N
  O34      1.0000 0.87095  0.67430  0.10748  Biso   1.000  O
  H119     1.0000 0.64829  0.85143  0.14299  Biso   1.000  H
  C116     1.0000 0.66822  0.00792  0.00000  Biso   1.000  C
  N70      1.0000 0.96096  0.87585  0.71990  Biso   1.000  N
  O35      1.0000 0.06808  0.75844  0.76908  Biso   1.000  O
  O36      1.0000 0.06802  0.75844  0.76908  Biso   1.000  O
  C117     1.0000 0.81644  0.07117  0.70781  Biso   1.000  C
  C118     1.0000 0.81644  0.07125  0.70781  Biso   1.000  C
  C119     1.0000 0.81638  0.07117  0.70781  Biso   1.000  C
  C120     1.0000 0.81638  0.07125  0.70781  Biso   1.000  C
  H120     1.0000 0.93500  0.95974  0.59999  Biso   1.000  H
  C121     1.0000 0.72523  0.72720  0.00000  Biso   1.000  C
  C122     1.0000 0.72517  0.72720  0.00000  Biso   1.000  C
  N71      1.0000 0.71392  0.98071  0.91649  Biso   1.000  N
  N72      1.0000 0.71392  0.98080  0.91649  Biso   1.000  N
  H121     1.0000 0.61428  0.96631  0.00000  Biso   1.000  H
  H122     1.0000 0.65502  0.08936  0.00000  Biso   1.000  H
  H123     1.0000 0.65502  0.08945  0.00000  Biso   1.000  H
  C123     1.0000 0.89358  0.79340  0.72253  Biso   1.000  C
  N73      1.0000 0.77841  0.00901  0.78255  Biso   1.000  N
  H124     1.0000 0.79432  0.04152  0.64868  Biso   1.000  H
  H125     1.0000 0.79872  0.15093  0.71272  Biso   1.000  H
  H126     1.0000 0.79425  0.04152  0.64868  Biso   1.000  H
  H127     1.0000 0.79865  0.15093  0.71272  Biso   1.000  H
  N74      1.0000 0.75258  0.78219  0.91642  Biso   1.000  N
  N75      1.0000 0.75258  0.78228  0.91642  Biso   1.000  N
  H128     1.0000 0.66300  0.72357  0.00000  Biso   1.000  H
  H129     1.0000 0.74661  0.64887  0.00000  Biso   1.000  H
  H130     1.0000 0.66300  0.72366  0.00000  Biso   1.000  H
  H131     1.0000 0.74661  0.64895  0.00000  Biso   1.000  H
  C124     1.0000 0.70788  0.87232  0.87055  Biso   1.000  C
  C125     1.0000 0.75057  0.06030  0.86164  Biso   1.000  C
  N76      1.0000 0.83172  0.81698  0.79374  Biso   1.000  N
  H132     1.0000 0.91803  0.71793  0.73351  Biso   1.000  H
  H133     1.0000 0.86523  0.79188  0.66167  Biso   1.000  H
  H134     1.0000 0.86523  0.79196  0.66167  Biso   1.000  H
  H135     1.0000 0.91797  0.71793  0.73351  Biso   1.000  H
  H136     1.0000 0.86516  0.79188  0.66167  Biso   1.000  H
  H137     1.0000 0.86516  0.79196  0.66167  Biso   1.000  H
  C126     1.0000 0.75955  0.89042  0.78062  Biso   1.000  C
  C127     1.0000 0.82393  0.75137  0.87035  Biso   1.000  C
  C128     1.0000 0.82393  0.75145  0.87035  Biso   1.000  C
  H138     1.0000 0.64829  0.85143  0.85701  Biso   1.000  H
  O37      1.0000 0.75635  0.16137  0.87877  Biso   1.000  O
  O38      1.0000 0.75635  0.16146  0.87877  Biso   1.000  O
  H139     1.0000 0.72662  0.86928  0.72439  Biso   1.000  H
  H140     1.0000 0.72662  0.86937  0.72439  Biso   1.000  H
  O39      1.0000 0.87101  0.67430  0.89252  Biso   1.000  O
  O40      1.0000 0.87095  0.67430  0.89252  Biso   1.000  O
  C129     1.0000 0.17607  0.24863  0.12965  Biso   1.000  C
  N77      1.0000 0.16828  0.18310  0.20626  Biso   1.000  N
  O41      1.0000 0.12899  0.32570  0.10748  Biso   1.000  O
  N78      1.0000 0.24742  0.21781  0.08358  Biso   1.000  N
  N79      1.0000 0.16828  0.18302  0.20626  Biso   1.000  N
  N80      1.0000 0.24736  0.21781  0.08358  Biso   1.000  N
  C130     1.0000 0.10642  0.20660  0.27747  Biso   1.000  C
  C131     1.0000 0.24045  0.10958  0.21938  Biso   1.000  C
  C132     1.0000 0.24045  0.10966  0.21938  Biso   1.000  C
  C133     1.0000 0.24038  0.10958  0.21938  Biso   1.000  C
  C134     1.0000 0.24038  0.10966  0.21938  Biso   1.000  C
  C135     1.0000 0.29212  0.12768  0.12945  Biso   1.000  C
  C136     1.0000 0.29212  0.12777  0.12945  Biso   1.000  C
  C137     1.0000 0.29205  0.12768  0.12945  Biso   1.000  C
  C138     1.0000 0.29205  0.12777  0.12945  Biso   1.000  C
  C139     1.0000 0.27477  0.27280  0.00000  Biso   1.000  C
  H141     1.0000 0.13477  0.20812  0.33833  Biso   1.000  H
  N81      1.0000 0.03904  0.12415  0.28010  Biso   1.000  N
  H142     1.0000 0.08197  0.28207  0.26649  Biso   1.000  H
  N82      1.0000 0.03904  0.12423  0.28010  Biso   1.000  N
  H143     1.0000 0.08197  0.28215  0.26649  Biso   1.000  H
  H144     1.0000 0.27338  0.13072  0.27561  Biso   1.000  H
  N83      1.0000 0.22159  0.99099  0.21745  Biso   1.000  N
  N84      1.0000 0.22159  0.99107  0.21745  Biso   1.000  N
  N85      1.0000 0.28608  0.01929  0.08351  Biso   1.000  N
  H145     1.0000 0.35171  0.14857  0.14299  Biso   1.000  H
  H146     1.0000 0.35171  0.14866  0.14299  Biso   1.000  H
  H147     1.0000 0.35165  0.14857  0.14299  Biso   1.000  H
  H148     1.0000 0.35165  0.14866  0.14299  Biso   1.000  H
  H149     1.0000 0.33700  0.27643  0.00000  Biso   1.000  H
  H150     1.0000 0.25339  0.35113  0.00000  Biso   1.000  H
  N86      1.0000 0.24742  0.21781  0.91642  Biso   1.000  N
  N87      1.0000 0.24736  0.21781  0.91642  Biso   1.000  N
  C140     1.0000 0.04526  0.02299  0.33605  Biso   1.000  C
  C141     1.0000 0.04520  0.02299  0.33605  Biso   1.000  C
  C142     1.0000 0.95719  0.15405  0.26483  Biso   1.000  C
  C143     1.0000 0.95713  0.15405  0.26483  Biso   1.000  C
  C144     1.0000 0.24943  0.93970  0.13836  Biso   1.000  C
  C145     1.0000 0.18356  0.92883  0.29219  Biso   1.000  C
  C146     1.0000 0.33178  0.99208  0.00000  Biso   1.000  C
  C147     1.0000 0.33178  0.99217  0.00000  Biso   1.000  C
  C148     1.0000 0.29212  0.12768  0.87055  Biso   1.000  C
  C149     1.0000 0.17607  0.24863  0.87035  Biso   1.000  C
  C150     1.0000 0.29212  0.12777  0.87055  Biso   1.000  C
  C151     1.0000 0.29205  0.12768  0.87055  Biso   1.000  C
  C152     1.0000 0.29205  0.12777  0.87055  Biso   1.000  C
  H151     1.0000 0.06500  0.04026  0.40001  Biso   1.000  H
  H152     1.0000 0.06500  0.04034  0.40001  Biso   1.000  H
  C153     1.0000 0.95474  0.97701  0.33605  Biso   1.000  C
  N88      1.0000 0.09329  0.93279  0.29509  Biso   1.000  N
  O42      1.0000 0.93192  0.24156  0.23092  Biso   1.000  O
  N89      1.0000 0.90671  0.06721  0.29509  Biso   1.000  N
  O43      1.0000 0.93192  0.24164  0.23092  Biso   1.000  O
  N90      1.0000 0.90671  0.06730  0.29509  Biso   1.000  N
  O44      1.0000 0.24365  0.83863  0.12123  Biso   1.000  O
  H153     1.0000 0.20568  0.95848  0.35132  Biso   1.000  H
  H154     1.0000 0.20128  0.84907  0.28728  Biso   1.000  H
  H155     1.0000 0.20568  0.95856  0.35132  Biso   1.000  H
  H156     1.0000 0.20128  0.84915  0.28728  Biso   1.000  H
  H157     1.0000 0.34498  0.91064  0.00000  Biso   1.000  H
  N91      1.0000 0.28608  0.01929  0.91649  Biso   1.000  N
  H158     1.0000 0.38572  0.03369  0.00000  Biso   1.000  H
  H159     1.0000 0.38572  0.03377  0.00000  Biso   1.000  H
  H160     1.0000 0.38566  0.03369  0.00000  Biso   1.000  H
  H161     1.0000 0.38566  0.03377  0.00000  Biso   1.000  H
  C154     1.0000 0.24045  0.10958  0.78062  Biso   1.000  C
  H162     1.0000 0.35171  0.14857  0.85701  Biso   1.000  H
  C155     1.0000 0.24045  0.10966  0.78062  Biso   1.000  C
  H163     1.0000 0.35171  0.14866  0.85701  Biso   1.000  H
  C156     1.0000 0.24038  0.10958  0.78062  Biso   1.000  C
  H164     1.0000 0.35165  0.14857  0.85701  Biso   1.000  H
  C157     1.0000 0.24038  0.10966  0.78062  Biso   1.000  C
  H165     1.0000 0.35165  0.14866  0.85701  Biso   1.000  H
  O45      1.0000 0.12899  0.32570  0.89252  Biso   1.000  O
  N92      1.0000 0.16828  0.18302  0.79374  Biso   1.000  N
  N93      1.0000 0.16828  0.18310  0.79374  Biso   1.000  N
  N94      1.0000 0.96096  0.87585  0.28010  Biso   1.000  N
  H166     1.0000 0.93500  0.95974  0.40001  Biso   1.000  H
  C158     1.0000 0.04281  0.84595  0.26483  Biso   1.000  C
  C159     1.0000 0.04281  0.84604  0.26483  Biso   1.000  C
  C160     1.0000 0.81644  0.07117  0.29219  Biso   1.000  C
  C161     1.0000 0.81644  0.07125  0.29219  Biso   1.000  C
  C162     1.0000 0.81638  0.07117  0.29219  Biso   1.000  C
  C163     1.0000 0.81638  0.07125  0.29219  Biso   1.000  C
  C164     1.0000 0.24943  0.93970  0.86164  Biso   1.000  C
  N95      1.0000 0.22159  0.99099  0.78255  Biso   1.000  N
  N96      1.0000 0.22159  0.99107  0.78255  Biso   1.000  N
  H167     1.0000 0.27338  0.13072  0.72439  Biso   1.000  H
  C165     1.0000 0.10642  0.20660  0.72253  Biso   1.000  C
  C166     1.0000 0.89358  0.79340  0.27747  Biso   1.000  C
  O46      1.0000 0.06808  0.75844  0.23092  Biso   1.000  O
  O47      1.0000 0.06802  0.75844  0.23092  Biso   1.000  O
  N97      1.0000 0.77841  0.00901  0.21745  Biso   1.000  N
  H168     1.0000 0.79432  0.04152  0.35132  Biso   1.000  H
  H169     1.0000 0.79872  0.15093  0.28728  Biso   1.000  H
  H170     1.0000 0.79425  0.04152  0.35132  Biso   1.000  H
  H171     1.0000 0.79865  0.15093  0.28728  Biso   1.000  H
  O48      1.0000 0.24365  0.83863  0.87877  Biso   1.000  O
  C167     1.0000 0.18356  0.92883  0.70781  Biso   1.000  C
  N98      1.0000 0.03904  0.12415  0.71990  Biso   1.000  N
  H172     1.0000 0.08197  0.28207  0.73351  Biso   1.000  H
  H173     1.0000 0.13477  0.20812  0.66167  Biso   1.000  H
  N99      1.0000 0.03904  0.12423  0.71990  Biso   1.000  N
  H174     1.0000 0.08197  0.28215  0.73351  Biso   1.000  H
  N100     1.0000 0.83172  0.81698  0.20626  Biso   1.000  N
  H175     1.0000 0.91803  0.71793  0.26649  Biso   1.000  H
  H176     1.0000 0.86523  0.79188  0.33833  Biso   1.000  H
  H177     1.0000 0.86523  0.79196  0.33833  Biso   1.000  H
  H178     1.0000 0.91797  0.71793  0.26649  Biso   1.000  H
  H179     1.0000 0.86516  0.79188  0.33833  Biso   1.000  H
  H180     1.0000 0.86516  0.79196  0.33833  Biso   1.000  H
  C168     1.0000 0.75955  0.89042  0.21938  Biso   1.000  C
  C169     1.0000 0.75057  0.06030  0.13836  Biso   1.000  C
  N101     1.0000 0.09329  0.93279  0.70491  Biso   1.000  N
  H181     1.0000 0.20568  0.95848  0.64868  Biso   1.000  H
  H182     1.0000 0.20128  0.84907  0.71272  Biso   1.000  H
  H183     1.0000 0.20568  0.95856  0.64868  Biso   1.000  H
  H184     1.0000 0.20128  0.84915  0.71272  Biso   1.000  H
  C170     1.0000 0.95719  0.15405  0.73517  Biso   1.000  C
  C171     1.0000 0.95713  0.15405  0.73517  Biso   1.000  C
  C172     1.0000 0.04526  0.02299  0.66395  Biso   1.000  C
  C173     1.0000 0.04520  0.02299  0.66395  Biso   1.000  C
  C174     1.0000 0.82393  0.75137  0.12965  Biso   1.000  C
  C175     1.0000 0.82393  0.75145  0.12965  Biso   1.000  C
  C176     1.0000 0.70788  0.87232  0.12945  Biso   1.000  C
  H185     1.0000 0.72662  0.86928  0.27561  Biso   1.000  H
  H186     1.0000 0.72662  0.86937  0.27561  Biso   1.000  H
  N102     1.0000 0.71392  0.98071  0.08351  Biso   1.000  N
  N103     1.0000 0.71392  0.98080  0.08351  Biso   1.000  N
  O49      1.0000 0.75635  0.16137  0.12123  Biso   1.000  O
  O50      1.0000 0.75635  0.16146  0.12123  Biso   1.000  O
  C177     1.0000 0.04281  0.84595  0.73517  Biso   1.000  C
  C178     1.0000 0.04281  0.84604  0.73517  Biso   1.000  C
  N104     1.0000 0.90671  0.06721  0.70491  Biso   1.000  N
  O51      1.0000 0.93192  0.24156  0.76908  Biso   1.000  O
  N105     1.0000 0.90671  0.06730  0.70491  Biso   1.000  N
  O52      1.0000 0.93192  0.24164  0.76908  Biso   1.000  O
  C179     1.0000 0.95474  0.97701  0.66395  Biso   1.000  C
  H187     1.0000 0.06500  0.04026  0.59999  Biso   1.000  H
  H188     1.0000 0.06500  0.04034  0.59999  Biso   1.000  H
  O53      1.0000 0.87101  0.67430  0.10748  Biso   1.000  O
  N106     1.0000 0.75258  0.78219  0.08358  Biso   1.000  N
  N107     1.0000 0.75258  0.78228  0.08358  Biso   1.000  N
  O54      1.0000 0.87095  0.67430  0.10748  Biso   1.000  O
  H189     1.0000 0.64829  0.85143  0.14299  Biso   1.000  H
  C180     1.0000 0.66822  0.00792  0.00000  Biso   1.000  C
  N108     1.0000 0.96096  0.87585  0.71990  Biso   1.000  N
  O55      1.0000 0.06808  0.75844  0.76908  Biso   1.000  O
  O56      1.0000 0.06802  0.75844  0.76908  Biso   1.000  O
  C181     1.0000 0.81644  0.07117  0.70781  Biso   1.000  C
  C182     1.0000 0.81644  0.07125  0.70781  Biso   1.000  C
  C183     1.0000 0.81638  0.07117  0.70781  Biso   1.000  C
  C184     1.0000 0.81638  0.07125  0.70781  Biso   1.000  C
  H190     1.0000 0.93500  0.95974  0.59999  Biso   1.000  H
  C185     1.0000 0.72523  0.72720  0.00000  Biso   1.000  C
  C186     1.0000 0.72517  0.72720  0.00000  Biso   1.000  C
  N109     1.0000 0.71392  0.98071  0.91649  Biso   1.000  N
  N110     1.0000 0.71392  0.98080  0.91649  Biso   1.000  N
  H191     1.0000 0.61428  0.96631  0.00000  Biso   1.000  H
  H192     1.0000 0.65502  0.08936  0.00000  Biso   1.000  H
  H193     1.0000 0.65502  0.08945  0.00000  Biso   1.000  H
  C187     1.0000 0.89358  0.79340  0.72253  Biso   1.000  C
  N111     1.0000 0.77841  0.00901  0.78255  Biso   1.000  N
  H194     1.0000 0.79432  0.04152  0.64868  Biso   1.000  H
  H195     1.0000 0.79872  0.15093  0.71272  Biso   1.000  H
  H196     1.0000 0.79425  0.04152  0.64868  Biso   1.000  H
  H197     1.0000 0.79865  0.15093  0.71272  Biso   1.000  H
  N112     1.0000 0.75258  0.78219  0.91642  Biso   1.000  N
  N113     1.0000 0.75258  0.78228  0.91642  Biso   1.000  N
  H198     1.0000 0.66300  0.72357  0.00000  Biso   1.000  H
  H199     1.0000 0.74661  0.64887  0.00000  Biso   1.000  H
  H200     1.0000 0.66300  0.72366  0.00000  Biso   1.000  H
  H201     1.0000 0.74661  0.64895  0.00000  Biso   1.000  H
  C188     1.0000 0.70788  0.87232  0.87055  Biso   1.000  C
  C189     1.0000 0.75057  0.06030  0.86164  Biso   1.000  C
  N114     1.0000 0.83172  0.81698  0.79374  Biso   1.000  N
  H202     1.0000 0.91803  0.71793  0.73351  Biso   1.000  H
  H203     1.0000 0.86523  0.79188  0.66167  Biso   1.000  H
  H204     1.0000 0.86523  0.79196  0.66167  Biso   1.000  H
  H205     1.0000 0.91797  0.71793  0.73351  Biso   1.000  H
  H206     1.0000 0.86516  0.79188  0.66167  Biso   1.000  H
  H207     1.0000 0.86516  0.79196  0.66167  Biso   1.000  H
  C190     1.0000 0.75955  0.89042  0.78062  Biso   1.000  C
  C191     1.0000 0.82393  0.75137  0.87035  Biso   1.000  C
  C192     1.0000 0.82393  0.75145  0.87035  Biso   1.000  C
  H208     1.0000 0.64829  0.85143  0.85701  Biso   1.000  H
  O57      1.0000 0.75635  0.16137  0.87877  Biso   1.000  O
  O58      1.0000 0.75635  0.16146  0.87877  Biso   1.000  O
  H209     1.0000 0.72662  0.86928  0.72439  Biso   1.000  H
  H210     1.0000 0.72662  0.86937  0.72439  Biso   1.000  H
  O59      1.0000 0.87101  0.67430  0.89252  Biso   1.000  O
  O60      1.0000 0.87095  0.67430  0.89252  Biso   1.000  O
  C193     1.0000 0.17607  0.24863  0.12965  Biso   1.000  C
  N115     1.0000 0.16828  0.18310  0.20626  Biso   1.000  N
  O61      1.0000 0.12899  0.32570  0.10748  Biso   1.000  O
  N116     1.0000 0.24742  0.21781  0.08358  Biso   1.000  N
  N117     1.0000 0.16828  0.18302  0.20626  Biso   1.000  N
  N118     1.0000 0.24736  0.21781  0.08358  Biso   1.000  N
  C194     1.0000 0.10642  0.20660  0.27747  Biso   1.000  C
  C195     1.0000 0.24045  0.10958  0.21938  Biso   1.000  C
  C196     1.0000 0.24045  0.10966  0.21938  Biso   1.000  C
  C197     1.0000 0.24038  0.10958  0.21938  Biso   1.000  C
  C198     1.0000 0.24038  0.10966  0.21938  Biso   1.000  C
  C199     1.0000 0.29212  0.12768  0.12945  Biso   1.000  C
  C200     1.0000 0.29212  0.12777  0.12945  Biso   1.000  C
  C201     1.0000 0.29205  0.12768  0.12945  Biso   1.000  C
  C202     1.0000 0.29205  0.12777  0.12945  Biso   1.000  C
  C203     1.0000 0.27477  0.27280  0.00000  Biso   1.000  C
  H211     1.0000 0.13477  0.20812  0.33833  Biso   1.000  H
  N119     1.0000 0.03904  0.12415  0.28010  Biso   1.000  N
  H212     1.0000 0.08197  0.28207  0.26649  Biso   1.000  H
  N120     1.0000 0.03904  0.12423  0.28010  Biso   1.000  N
  H213     1.0000 0.08197  0.28215  0.26649  Biso   1.000  H
  H214     1.0000 0.27338  0.13072  0.27561  Biso   1.000  H
  N121     1.0000 0.22159  0.99099  0.21745  Biso   1.000  N
  N122     1.0000 0.22159  0.99107  0.21745  Biso   1.000  N
  N123     1.0000 0.28608  0.01929  0.08351  Biso   1.000  N
  H215     1.0000 0.35171  0.14857  0.14299  Biso   1.000  H
  H216     1.0000 0.35171  0.14866  0.14299  Biso   1.000  H
  H217     1.0000 0.35165  0.14857  0.14299  Biso   1.000  H
  H218     1.0000 0.35165  0.14866  0.14299  Biso   1.000  H
  H219     1.0000 0.33700  0.27643  0.00000  Biso   1.000  H
  H220     1.0000 0.25339  0.35113  0.00000  Biso   1.000  H
  N124     1.0000 0.24742  0.21781  0.91642  Biso   1.000  N
  N125     1.0000 0.24736  0.21781  0.91642  Biso   1.000  N
  C204     1.0000 0.04526  0.02299  0.33605  Biso   1.000  C
  C205     1.0000 0.04520  0.02299  0.33605  Biso   1.000  C
  C206     1.0000 0.95719  0.15405  0.26483  Biso   1.000  C
  C207     1.0000 0.95713  0.15405  0.26483  Biso   1.000  C
  C208     1.0000 0.24943  0.93970  0.13836  Biso   1.000  C
  C209     1.0000 0.18356  0.92883  0.29219  Biso   1.000  C
  C210     1.0000 0.33178  0.99208  0.00000  Biso   1.000  C
  C211     1.0000 0.33178  0.99217  0.00000  Biso   1.000  C
  C212     1.0000 0.29212  0.12768  0.87055  Biso   1.000  C
  C213     1.0000 0.17607  0.24863  0.87035  Biso   1.000  C
  C214     1.0000 0.29212  0.12777  0.87055  Biso   1.000  C
  C215     1.0000 0.29205  0.12768  0.87055  Biso   1.000  C
  C216     1.0000 0.29205  0.12777  0.87055  Biso   1.000  C
  H221     1.0000 0.06500  0.04026  0.40001  Biso   1.000  H
  H222     1.0000 0.06500  0.04034  0.40001  Biso   1.000  H
  C217     1.0000 0.95474  0.97701  0.33605  Biso   1.000  C
  N126     1.0000 0.09329  0.93279  0.29509  Biso   1.000  N
  O62      1.0000 0.93192  0.24156  0.23092  Biso   1.000  O
  N127     1.0000 0.90671  0.06721  0.29509  Biso   1.000  N
  O63      1.0000 0.93192  0.24164  0.23092  Biso   1.000  O
  N128     1.0000 0.90671  0.06730  0.29509  Biso   1.000  N
  O64      1.0000 0.24365  0.83863  0.12123  Biso   1.000  O
  H223     1.0000 0.20568  0.95848  0.35132  Biso   1.000  H
  H224     1.0000 0.20128  0.84907  0.28728  Biso   1.000  H
  H225     1.0000 0.20568  0.95856  0.35132  Biso   1.000  H
  H226     1.0000 0.20128  0.84915  0.28728  Biso   1.000  H
  H227     1.0000 0.34498  0.91064  0.00000  Biso   1.000  H
  N129     1.0000 0.28608  0.01929  0.91649  Biso   1.000  N
  H228     1.0000 0.38572  0.03369  0.00000  Biso   1.000  H
  H229     1.0000 0.38572  0.03377  0.00000  Biso   1.000  H
  H230     1.0000 0.38566  0.03369  0.00000  Biso   1.000  H
  H231     1.0000 0.38566  0.03377  0.00000  Biso   1.000  H
  C218     1.0000 0.24045  0.10958  0.78062  Biso   1.000  C
  H232     1.0000 0.35171  0.14857  0.85701  Biso   1.000  H
  C219     1.0000 0.24045  0.10966  0.78062  Biso   1.000  C
  H233     1.0000 0.35171  0.14866  0.85701  Biso   1.000  H
  C220     1.0000 0.24038  0.10958  0.78062  Biso   1.000  C
  H234     1.0000 0.35165  0.14857  0.85701  Biso   1.000  H
  C221     1.0000 0.24038  0.10966  0.78062  Biso   1.000  C
  H235     1.0000 0.35165  0.14866  0.85701  Biso   1.000  H
  O65      1.0000 0.12899  0.32570  0.89252  Biso   1.000  O
  N130     1.0000 0.16828  0.18302  0.79374  Biso   1.000  N
  N131     1.0000 0.16828  0.18310  0.79374  Biso   1.000  N
  N132     1.0000 0.96096  0.87585  0.28010  Biso   1.000  N
  H236     1.0000 0.93500  0.95974  0.40001  Biso   1.000  H
  C222     1.0000 0.04281  0.84595  0.26483  Biso   1.000  C
  C223     1.0000 0.04281  0.84604  0.26483  Biso   1.000  C
  C224     1.0000 0.81644  0.07117  0.29219  Biso   1.000  C
  C225     1.0000 0.81644  0.07125  0.29219  Biso   1.000  C
  C226     1.0000 0.81638  0.07117  0.29219  Biso   1.000  C
  C227     1.0000 0.81638  0.07125  0.29219  Biso   1.000  C
  C228     1.0000 0.24943  0.93970  0.86164  Biso   1.000  C
  N133     1.0000 0.22159  0.99099  0.78255  Biso   1.000  N
  N134     1.0000 0.22159  0.99107  0.78255  Biso   1.000  N
  H237     1.0000 0.27338  0.13072  0.72439  Biso   1.000  H
  C229     1.0000 0.10642  0.20660  0.72253  Biso   1.000  C
  C230     1.0000 0.89358  0.79340  0.27747  Biso   1.000  C
  O66      1.0000 0.06808  0.75844  0.23092  Biso   1.000  O
  O67      1.0000 0.06802  0.75844  0.23092  Biso   1.000  O
  N135     1.0000 0.77841  0.00901  0.21745  Biso   1.000  N
  H238     1.0000 0.79432  0.04152  0.35132  Biso   1.000  H
  H239     1.0000 0.79872  0.15093  0.28728  Biso   1.000  H
  H240     1.0000 0.79425  0.04152  0.35132  Biso   1.000  H
  H241     1.0000 0.79865  0.15093  0.28728  Biso   1.000  H
  O68      1.0000 0.24365  0.83863  0.87877  Biso   1.000  O
  C231     1.0000 0.18356  0.92883  0.70781  Biso   1.000  C
  N136     1.0000 0.03904  0.12415  0.71990  Biso   1.000  N
  H242     1.0000 0.08197  0.28207  0.73351  Biso   1.000  H
  H243     1.0000 0.13477  0.20812  0.66167  Biso   1.000  H
  N137     1.0000 0.03904  0.12423  0.71990  Biso   1.000  N
  H244     1.0000 0.08197  0.28215  0.73351  Biso   1.000  H
  N138     1.0000 0.83172  0.81698  0.20626  Biso   1.000  N
  H245     1.0000 0.91803  0.71793  0.26649  Biso   1.000  H
  H246     1.0000 0.86523  0.79188  0.33833  Biso   1.000  H
  H247     1.0000 0.86523  0.79196  0.33833  Biso   1.000  H
  H248     1.0000 0.91797  0.71793  0.26649  Biso   1.000  H
  H249     1.0000 0.86516  0.79188  0.33833  Biso   1.000  H
  H250     1.0000 0.86516  0.79196  0.33833  Biso   1.000  H
  C232     1.0000 0.75955  0.89042  0.21938  Biso   1.000  C
  C233     1.0000 0.75057  0.06030  0.13836  Biso   1.000  C
  N139     1.0000 0.09329  0.93279  0.70491  Biso   1.000  N
  H251     1.0000 0.20568  0.95848  0.64868  Biso   1.000  H
  H252     1.0000 0.20128  0.84907  0.71272  Biso   1.000  H
  H253     1.0000 0.20568  0.95856  0.64868  Biso   1.000  H
  H254     1.0000 0.20128  0.84915  0.71272  Biso   1.000  H
  C234     1.0000 0.95719  0.15405  0.73517  Biso   1.000  C
  C235     1.0000 0.95713  0.15405  0.73517  Biso   1.000  C
  C236     1.0000 0.04526  0.02299  0.66395  Biso   1.000  C
  C237     1.0000 0.04520  0.02299  0.66395  Biso   1.000  C
  C238     1.0000 0.82393  0.75137  0.12965  Biso   1.000  C
  C239     1.0000 0.82393  0.75145  0.12965  Biso   1.000  C
  C240     1.0000 0.70788  0.87232  0.12945  Biso   1.000  C
  H255     1.0000 0.72662  0.86928  0.27561  Biso   1.000  H
  H256     1.0000 0.72662  0.86937  0.27561  Biso   1.000  H
  N140     1.0000 0.71392  0.98071  0.08351  Biso   1.000  N
  N141     1.0000 0.71392  0.98080  0.08351  Biso   1.000  N
  O69      1.0000 0.75635  0.16137  0.12123  Biso   1.000  O
  O70      1.0000 0.75635  0.16146  0.12123  Biso   1.000  O
  C241     1.0000 0.04281  0.84595  0.73517  Biso   1.000  C
  C242     1.0000 0.04281  0.84604  0.73517  Biso   1.000  C
  N142     1.0000 0.90671  0.06721  0.70491  Biso   1.000  N
  O71      1.0000 0.93192  0.24156  0.76908  Biso   1.000  O
  N143     1.0000 0.90671  0.06730  0.70491  Biso   1.000  N
  O72      1.0000 0.93192  0.24164  0.76908  Biso   1.000  O
  C243     1.0000 0.95474  0.97701  0.66395  Biso   1.000  C
  H257     1.0000 0.06500  0.04026  0.59999  Biso   1.000  H
  H258     1.0000 0.06500  0.04034  0.59999  Biso   1.000  H
  O73      1.0000 0.87101  0.67430  0.10748  Biso   1.000  O
  N144     1.0000 0.75258  0.78219  0.08358  Biso   1.000  N
  N145     1.0000 0.75258  0.78228  0.08358  Biso   1.000  N
  O74      1.0000 0.87095  0.67430  0.10748  Biso   1.000  O
  H259     1.0000 0.64829  0.85143  0.14299  Biso   1.000  H
  C244     1.0000 0.66822  0.00792  0.00000  Biso   1.000  C
  N146     1.0000 0.96096  0.87585  0.71990  Biso   1.000  N
  O75      1.0000 0.06808  0.75844  0.76908  Biso   1.000  O
  O76      1.0000 0.06802  0.75844  0.76908  Biso   1.000  O
  C245     1.0000 0.81644  0.07117  0.70781  Biso   1.000  C
  C246     1.0000 0.81644  0.07125  0.70781  Biso   1.000  C
  C247     1.0000 0.81638  0.07117  0.70781  Biso   1.000  C
  C248     1.0000 0.81638  0.07125  0.70781  Biso   1.000  C
  H260     1.0000 0.93500  0.95974  0.59999  Biso   1.000  H
  C249     1.0000 0.72523  0.72720  0.00000  Biso   1.000  C
  C250     1.0000 0.72517  0.72720  0.00000  Biso   1.000  C
  N147     1.0000 0.71392  0.98071  0.91649  Biso   1.000  N
  N148     1.0000 0.71392  0.98080  0.91649  Biso   1.000  N
  H261     1.0000 0.61428  0.96631  0.00000  Biso   1.000  H
  H262     1.0000 0.65502  0.08936  0.00000  Biso   1.000  H
  H263     1.0000 0.65502  0.08945  0.00000  Biso   1.000  H
  C251     1.0000 0.89358  0.79340  0.72253  Biso   1.000  C
  N149     1.0000 0.77841  0.00901  0.78255  Biso   1.000  N
  H264     1.0000 0.79432  0.04152  0.64868  Biso   1.000  H
  H265     1.0000 0.79872  0.15093  0.71272  Biso   1.000  H
  H266     1.0000 0.79425  0.04152  0.64868  Biso   1.000  H
  H267     1.0000 0.79865  0.15093  0.71272  Biso   1.000  H
  N150     1.0000 0.75258  0.78219  0.91642  Biso   1.000  N
  N151     1.0000 0.75258  0.78228  0.91642  Biso   1.000  N
  H268     1.0000 0.66300  0.72357  0.00000  Biso   1.000  H
  H269     1.0000 0.74661  0.64887  0.00000  Biso   1.000  H
  H270     1.0000 0.66300  0.72366  0.00000  Biso   1.000  H
  H271     1.0000 0.74661  0.64895  0.00000  Biso   1.000  H
  C252     1.0000 0.70788  0.87232  0.87055  Biso   1.000  C
  C253     1.0000 0.75057  0.06030  0.86164  Biso   1.000  C
  N152     1.0000 0.83172  0.81698  0.79374  Biso   1.000  N
  H272     1.0000 0.91803  0.71793  0.73351  Biso   1.000  H
  H273     1.0000 0.86523  0.79188  0.66167  Biso   1.000  H
  H274     1.0000 0.86523  0.79196  0.66167  Biso   1.000  H
  H275     1.0000 0.91797  0.71793  0.73351  Biso   1.000  H
  H276     1.0000 0.86516  0.79188  0.66167  Biso   1.000  H
  H277     1.0000 0.86516  0.79196  0.66167  Biso   1.000  H
  C254     1.0000 0.75955  0.89042  0.78062  Biso   1.000  C
  C255     1.0000 0.82393  0.75137  0.87035  Biso   1.000  C
  C256     1.0000 0.82393  0.75145  0.87035  Biso   1.000  C
  H278     1.0000 0.64829  0.85143  0.85701  Biso   1.000  H
  O77      1.0000 0.75635  0.16137  0.87877  Biso   1.000  O
  O78      1.0000 0.75635  0.16146  0.87877  Biso   1.000  O
  H279     1.0000 0.72662  0.86928  0.72439  Biso   1.000  H
  H280     1.0000 0.72662  0.86937  0.72439  Biso   1.000  H
  O79      1.0000 0.87101  0.67430  0.89252  Biso   1.000  O
  O80      1.0000 0.87095  0.67430  0.89252  Biso   1.000  O
  C257     1.0000 0.17607  0.24863  0.12965  Biso   1.000  C
  O81      1.0000 0.12899  0.32570  0.10748  Biso   1.000  O
  N153     1.0000 0.24742  0.21781  0.08358  Biso   1.000  N
  N154     1.0000 0.16828  0.18302  0.20626  Biso   1.000  N
  N155     1.0000 0.16828  0.18310  0.20626  Biso   1.000  N
  N156     1.0000 0.24736  0.21781  0.08358  Biso   1.000  N
  C258     1.0000 0.27477  0.27280  0.00000  Biso   1.000  C
  C259     1.0000 0.29212  0.12768  0.12945  Biso   1.000  C
  C260     1.0000 0.29212  0.12777  0.12945  Biso   1.000  C
  C261     1.0000 0.29205  0.12768  0.12945  Biso   1.000  C
  C262     1.0000 0.29205  0.12777  0.12945  Biso   1.000  C
  C263     1.0000 0.10642  0.20660  0.27747  Biso   1.000  C
  C264     1.0000 0.24045  0.10958  0.21938  Biso   1.000  C
  C265     1.0000 0.24045  0.10966  0.21938  Biso   1.000  C
  C266     1.0000 0.24038  0.10958  0.21938  Biso   1.000  C
  C267     1.0000 0.24038  0.10966  0.21938  Biso   1.000  C
  H281     1.0000 0.33700  0.27643  0.00000  Biso   1.000  H
  H282     1.0000 0.25339  0.35113  0.00000  Biso   1.000  H
  N157     1.0000 0.24742  0.21781  0.91642  Biso   1.000  N
  N158     1.0000 0.24736  0.21781  0.91642  Biso   1.000  N
  N159     1.0000 0.28608  0.01929  0.08351  Biso   1.000  N
  H283     1.0000 0.35171  0.14857  0.14299  Biso   1.000  H
  H284     1.0000 0.35171  0.14866  0.14299  Biso   1.000  H
  H285     1.0000 0.35165  0.14857  0.14299  Biso   1.000  H
  H286     1.0000 0.35165  0.14866  0.14299  Biso   1.000  H
  H287     1.0000 0.13477  0.20812  0.33833  Biso   1.000  H
  N160     1.0000 0.03904  0.12415  0.28010  Biso   1.000  N
  H288     1.0000 0.08197  0.28207  0.26649  Biso   1.000  H
  N161     1.0000 0.03904  0.12423  0.28010  Biso   1.000  N
  H289     1.0000 0.08197  0.28215  0.26649  Biso   1.000  H
  H290     1.0000 0.27338  0.13072  0.27561  Biso   1.000  H
  N162     1.0000 0.22159  0.99099  0.21745  Biso   1.000  N
  N163     1.0000 0.22159  0.99107  0.21745  Biso   1.000  N
  C268     1.0000 0.29212  0.12768  0.87055  Biso   1.000  C
  C269     1.0000 0.17607  0.24863  0.87035  Biso   1.000  C
  C270     1.0000 0.29212  0.12777  0.87055  Biso   1.000  C
  C271     1.0000 0.29205  0.12768  0.87055  Biso   1.000  C
  C272     1.0000 0.29205  0.12777  0.87055  Biso   1.000  C
  C273     1.0000 0.24943  0.93970  0.13836  Biso   1.000  C
  C274     1.0000 0.33178  0.99208  0.00000  Biso   1.000  C
  C275     1.0000 0.33178  0.99217  0.00000  Biso   1.000  C
  C276     1.0000 0.95719  0.15405  0.26483  Biso   1.000  C
  C277     1.0000 0.95713  0.15405  0.26483  Biso   1.000  C
  C278     1.0000 0.04526  0.02299  0.33605  Biso   1.000  C
  C279     1.0000 0.04520  0.02299  0.33605  Biso   1.000  C
  C280     1.0000 0.18356  0.92883  0.29219  Biso   1.000  C
  N164     1.0000 0.28608  0.01929  0.91649  Biso   1.000  N
  C281     1.0000 0.24045  0.10958  0.78062  Biso   1.000  C
  H291     1.0000 0.35171  0.14857  0.85701  Biso   1.000  H
  C282     1.0000 0.24045  0.10966  0.78062  Biso   1.000  C
  H292     1.0000 0.35171  0.14866  0.85701  Biso   1.000  H
  C283     1.0000 0.24038  0.10958  0.78062  Biso   1.000  C
  H293     1.0000 0.35165  0.14857  0.85701  Biso   1.000  H
  C284     1.0000 0.24038  0.10966  0.78062  Biso   1.000  C
  H294     1.0000 0.35165  0.14866  0.85701  Biso   1.000  H
  O82      1.0000 0.12899  0.32570  0.89252  Biso   1.000  O
  N165     1.0000 0.16828  0.18302  0.79374  Biso   1.000  N
  N166     1.0000 0.16828  0.18310  0.79374  Biso   1.000  N
  O83      1.0000 0.24365  0.83863  0.12123  Biso   1.000  O
  H295     1.0000 0.34498  0.91064  0.00000  Biso   1.000  H
  H296     1.0000 0.38572  0.03369  0.00000  Biso   1.000  H
  H297     1.0000 0.38572  0.03377  0.00000  Biso   1.000  H
  H298     1.0000 0.38566  0.03369  0.00000  Biso   1.000  H
  H299     1.0000 0.38566  0.03377  0.00000  Biso   1.000  H
  O84      1.0000 0.93192  0.24156  0.23092  Biso   1.000  O
  N167     1.0000 0.90671  0.06721  0.29509  Biso   1.000  N
  O85      1.0000 0.93192  0.24164  0.23092  Biso   1.000  O
  N168     1.0000 0.90671  0.06730  0.29509  Biso   1.000  N
  C285     1.0000 0.95474  0.97701  0.33605  Biso   1.000  C
  N169     1.0000 0.09329  0.93279  0.29509  Biso   1.000  N
  H300     1.0000 0.06500  0.04026  0.40001  Biso   1.000  H
  H301     1.0000 0.06500  0.04034  0.40001  Biso   1.000  H
  H302     1.0000 0.20568  0.95848  0.35132  Biso   1.000  H
  H303     1.0000 0.20128  0.84907  0.28728  Biso   1.000  H
  H304     1.0000 0.20568  0.95856  0.35132  Biso   1.000  H
  H305     1.0000 0.20128  0.84915  0.28728  Biso   1.000  H
  C286     1.0000 0.24943  0.93970  0.86164  Biso   1.000  C
  N170     1.0000 0.22159  0.99099  0.78255  Biso   1.000  N
  N171     1.0000 0.22159  0.99107  0.78255  Biso   1.000  N
  H306     1.0000 0.27338  0.13072  0.72439  Biso   1.000  H
  C287     1.0000 0.10642  0.20660  0.72253  Biso   1.000  C
  C288     1.0000 0.81644  0.07117  0.29219  Biso   1.000  C
  C289     1.0000 0.81644  0.07125  0.29219  Biso   1.000  C
  C290     1.0000 0.81638  0.07117  0.29219  Biso   1.000  C
  C291     1.0000 0.81638  0.07125  0.29219  Biso   1.000  C
  N172     1.0000 0.96096  0.87585  0.28010  Biso   1.000  N
  H307     1.0000 0.93500  0.95974  0.40001  Biso   1.000  H
  C292     1.0000 0.04281  0.84595  0.26483  Biso   1.000  C
  C293     1.0000 0.04281  0.84604  0.26483  Biso   1.000  C
  O86      1.0000 0.24365  0.83863  0.87877  Biso   1.000  O
  C294     1.0000 0.18356  0.92883  0.70781  Biso   1.000  C
  N173     1.0000 0.03904  0.12415  0.71990  Biso   1.000  N
  H308     1.0000 0.08197  0.28207  0.73351  Biso   1.000  H
  H309     1.0000 0.13477  0.20812  0.66167  Biso   1.000  H
  N174     1.0000 0.03904  0.12423  0.71990  Biso   1.000  N
  H310     1.0000 0.08197  0.28215  0.73351  Biso   1.000  H
  N175     1.0000 0.77841  0.00901  0.21745  Biso   1.000  N
  H311     1.0000 0.79432  0.04152  0.35132  Biso   1.000  H
  H312     1.0000 0.79872  0.15093  0.28728  Biso   1.000  H
  H313     1.0000 0.79425  0.04152  0.35132  Biso   1.000  H
  H314     1.0000 0.79865  0.15093  0.28728  Biso   1.000  H
  C295     1.0000 0.89358  0.79340  0.27747  Biso   1.000  C
  O87      1.0000 0.06808  0.75844  0.23092  Biso   1.000  O
  O88      1.0000 0.06802  0.75844  0.23092  Biso   1.000  O
  N176     1.0000 0.09329  0.93279  0.70491  Biso   1.000  N
  H315     1.0000 0.20568  0.95848  0.64868  Biso   1.000  H
  H316     1.0000 0.20128  0.84907  0.71272  Biso   1.000  H
  H317     1.0000 0.20568  0.95856  0.64868  Biso   1.000  H
  H318     1.0000 0.20128  0.84915  0.71272  Biso   1.000  H
  C296     1.0000 0.95719  0.15405  0.73517  Biso   1.000  C
  C297     1.0000 0.95713  0.15405  0.73517  Biso   1.000  C
  C298     1.0000 0.04526  0.02299  0.66395  Biso   1.000  C
  C299     1.0000 0.04520  0.02299  0.66395  Biso   1.000  C
  C300     1.0000 0.75955  0.89042  0.21938  Biso   1.000  C
  C301     1.0000 0.75057  0.06030  0.13836  Biso   1.000  C
  N177     1.0000 0.83172  0.81698  0.20626  Biso   1.000  N
  H319     1.0000 0.91803  0.71793  0.26649  Biso   1.000  H
  H320     1.0000 0.86523  0.79188  0.33833  Biso   1.000  H
  H321     1.0000 0.86523  0.79196  0.33833  Biso   1.000  H
  H322     1.0000 0.91797  0.71793  0.26649  Biso   1.000  H
  H323     1.0000 0.86516  0.79188  0.33833  Biso   1.000  H
  H324     1.0000 0.86516  0.79196  0.33833  Biso   1.000  H
  C302     1.0000 0.04281  0.84595  0.73517  Biso   1.000  C
  C303     1.0000 0.04281  0.84604  0.73517  Biso   1.000  C
  N178     1.0000 0.90671  0.06721  0.70491  Biso   1.000  N
  O89      1.0000 0.93192  0.24156  0.76908  Biso   1.000  O
  N179     1.0000 0.90671  0.06730  0.70491  Biso   1.000  N
  O90      1.0000 0.93192  0.24164  0.76908  Biso   1.000  O
  C304     1.0000 0.95474  0.97701  0.66395  Biso   1.000  C
  H325     1.0000 0.06500  0.04026  0.59999  Biso   1.000  H
  H326     1.0000 0.06500  0.04034  0.59999  Biso   1.000  H
  C305     1.0000 0.70788  0.87232  0.12945  Biso   1.000  C
  H327     1.0000 0.72662  0.86928  0.27561  Biso   1.000  H
  H328     1.0000 0.72662  0.86937  0.27561  Biso   1.000  H
  N180     1.0000 0.71392  0.98071  0.08351  Biso   1.000  N
  N181     1.0000 0.71392  0.98080  0.08351  Biso   1.000  N
  O91      1.0000 0.75635  0.16137  0.12123  Biso   1.000  O
  O92      1.0000 0.75635  0.16146  0.12123  Biso   1.000  O
  C306     1.0000 0.82393  0.75137  0.12965  Biso   1.000  C
  C307     1.0000 0.82393  0.75145  0.12965  Biso   1.000  C
  N182     1.0000 0.96096  0.87585  0.71990  Biso   1.000  N
  O93      1.0000 0.06808  0.75844  0.76908  Biso   1.000  O
  O94      1.0000 0.06802  0.75844  0.76908  Biso   1.000  O
  C308     1.0000 0.81644  0.07117  0.70781  Biso   1.000  C
  C309     1.0000 0.81644  0.07125  0.70781  Biso   1.000  C
  C310     1.0000 0.81638  0.07117  0.70781  Biso   1.000  C
  C311     1.0000 0.81638  0.07125  0.70781  Biso   1.000  C
  H329     1.0000 0.93500  0.95974  0.59999  Biso   1.000  H
  N183     1.0000 0.75258  0.78219  0.08358  Biso   1.000  N
  H330     1.0000 0.64829  0.85143  0.14299  Biso   1.000  H
  N184     1.0000 0.75258  0.78228  0.08358  Biso   1.000  N
  C312     1.0000 0.66822  0.00792  0.00000  Biso   1.000  C
  O95      1.0000 0.87101  0.67430  0.10748  Biso   1.000  O
  O96      1.0000 0.87095  0.67430  0.10748  Biso   1.000  O
  C313     1.0000 0.89358  0.79340  0.72253  Biso   1.000  C
  N185     1.0000 0.77841  0.00901  0.78255  Biso   1.000  N
  H331     1.0000 0.79432  0.04152  0.64868  Biso   1.000  H
  H332     1.0000 0.79872  0.15093  0.71272  Biso   1.000  H
  H333     1.0000 0.79425  0.04152  0.64868  Biso   1.000  H
  H334     1.0000 0.79865  0.15093  0.71272  Biso   1.000  H
  C314     1.0000 0.72523  0.72720  0.00000  Biso   1.000  C
  C315     1.0000 0.72517  0.72720  0.00000  Biso   1.000  C
  N186     1.0000 0.71392  0.98071  0.91649  Biso   1.000  N
  N187     1.0000 0.71392  0.98080  0.91649  Biso   1.000  N
  H335     1.0000 0.61428  0.96631  0.00000  Biso   1.000  H
  H336     1.0000 0.65502  0.08936  0.00000  Biso   1.000  H
  H337     1.0000 0.65502  0.08945  0.00000  Biso   1.000  H
  N188     1.0000 0.83172  0.81698  0.79374  Biso   1.000  N
  H338     1.0000 0.91803  0.71793  0.73351  Biso   1.000  H
  H339     1.0000 0.86523  0.79188  0.66167  Biso   1.000  H
  H340     1.0000 0.86523  0.79196  0.66167  Biso   1.000  H
  H341     1.0000 0.91797  0.71793  0.73351  Biso   1.000  H
  H342     1.0000 0.86516  0.79188  0.66167  Biso   1.000  H
  H343     1.0000 0.86516  0.79196  0.66167  Biso   1.000  H
  C316     1.0000 0.75955  0.89042  0.78062  Biso   1.000  C
  C317     1.0000 0.75057  0.06030  0.86164  Biso   1.000  C
  N189     1.0000 0.75258  0.78219  0.91642  Biso   1.000  N
  N190     1.0000 0.75258  0.78228  0.91642  Biso   1.000  N
  H344     1.0000 0.66300  0.72357  0.00000  Biso   1.000  H
  H345     1.0000 0.74661  0.64887  0.00000  Biso   1.000  H
  H346     1.0000 0.66300  0.72366  0.00000  Biso   1.000  H
  H347     1.0000 0.74661  0.64895  0.00000  Biso   1.000  H
  C318     1.0000 0.70788  0.87232  0.87055  Biso   1.000  C
  C319     1.0000 0.82393  0.75137  0.87035  Biso   1.000  C
  C320     1.0000 0.82393  0.75145  0.87035  Biso   1.000  C
  H348     1.0000 0.72662  0.86928  0.72439  Biso   1.000  H
  H349     1.0000 0.72662  0.86937  0.72439  Biso   1.000  H
  O97      1.0000 0.75635  0.16137  0.87877  Biso   1.000  O
  O98      1.0000 0.75635  0.16146  0.87877  Biso   1.000  O
  H350     1.0000 0.64829  0.85143  0.85701  Biso   1.000  H
  O99      1.0000 0.87101  0.67430  0.89252  Biso   1.000  O
  O100     1.0000 0.87095  0.67430  0.89252  Biso   1.000  O
  C321     1.0000 0.17607  0.24863  0.12965  Biso   1.000  C
  O101     1.0000 0.12899  0.32570  0.10748  Biso   1.000  O
  N191     1.0000 0.24742  0.21781  0.08358  Biso   1.000  N
  N192     1.0000 0.16828  0.18302  0.20626  Biso   1.000  N
  N193     1.0000 0.16828  0.18310  0.20626  Biso   1.000  N
  N194     1.0000 0.24736  0.21781  0.08358  Biso   1.000  N
  C322     1.0000 0.27477  0.27280  0.00000  Biso   1.000  C
  C323     1.0000 0.29212  0.12768  0.12945  Biso   1.000  C
  C324     1.0000 0.29212  0.12777  0.12945  Biso   1.000  C
  C325     1.0000 0.29205  0.12768  0.12945  Biso   1.000  C
  C326     1.0000 0.29205  0.12777  0.12945  Biso   1.000  C
  C327     1.0000 0.10642  0.20660  0.27747  Biso   1.000  C
  C328     1.0000 0.24045  0.10958  0.21938  Biso   1.000  C
  C329     1.0000 0.24045  0.10966  0.21938  Biso   1.000  C
  C330     1.0000 0.24038  0.10958  0.21938  Biso   1.000  C
  C331     1.0000 0.24038  0.10966  0.21938  Biso   1.000  C
  H351     1.0000 0.33700  0.27643  0.00000  Biso   1.000  H
  H352     1.0000 0.25339  0.35113  0.00000  Biso   1.000  H
  N195     1.0000 0.24742  0.21781  0.91642  Biso   1.000  N
  N196     1.0000 0.24736  0.21781  0.91642  Biso   1.000  N
  N197     1.0000 0.28608  0.01929  0.08351  Biso   1.000  N
  H353     1.0000 0.35171  0.14857  0.14299  Biso   1.000  H
  H354     1.0000 0.35171  0.14866  0.14299  Biso   1.000  H
  H355     1.0000 0.35165  0.14857  0.14299  Biso   1.000  H
  H356     1.0000 0.35165  0.14866  0.14299  Biso   1.000  H
  H357     1.0000 0.13477  0.20812  0.33833  Biso   1.000  H
  N198     1.0000 0.03904  0.12415  0.28010  Biso   1.000  N
  H358     1.0000 0.08197  0.28207  0.26649  Biso   1.000  H
  N199     1.0000 0.03904  0.12423  0.28010  Biso   1.000  N
  H359     1.0000 0.08197  0.28215  0.26649  Biso   1.000  H
  H360     1.0000 0.27338  0.13072  0.27561  Biso   1.000  H
  N200     1.0000 0.22159  0.99099  0.21745  Biso   1.000  N
  N201     1.0000 0.22159  0.99107  0.21745  Biso   1.000  N
  C332     1.0000 0.29212  0.12768  0.87055  Biso   1.000  C
  C333     1.0000 0.17607  0.24863  0.87035  Biso   1.000  C
  C334     1.0000 0.29212  0.12777  0.87055  Biso   1.000  C
  C335     1.0000 0.29205  0.12768  0.87055  Biso   1.000  C
  C336     1.0000 0.29205  0.12777  0.87055  Biso   1.000  C
  C337     1.0000 0.24943  0.93970  0.13836  Biso   1.000  C
  C338     1.0000 0.33178  0.99208  0.00000  Biso   1.000  C
  C339     1.0000 0.33178  0.99217  0.00000  Biso   1.000  C
  C340     1.0000 0.95719  0.15405  0.26483  Biso   1.000  C
  C341     1.0000 0.95713  0.15405  0.26483  Biso   1.000  C
  C342     1.0000 0.04526  0.02299  0.33605  Biso   1.000  C
  C343     1.0000 0.04520  0.02299  0.33605  Biso   1.000  C
  C344     1.0000 0.18356  0.92883  0.29219  Biso   1.000  C
  N202     1.0000 0.28608  0.01929  0.91649  Biso   1.000  N
  C345     1.0000 0.24045  0.10958  0.78062  Biso   1.000  C
  H361     1.0000 0.35171  0.14857  0.85701  Biso   1.000  H
  C346     1.0000 0.24045  0.10966  0.78062  Biso   1.000  C
  H362     1.0000 0.35171  0.14866  0.85701  Biso   1.000  H
  C347     1.0000 0.24038  0.10958  0.78062  Biso   1.000  C
  H363     1.0000 0.35165  0.14857  0.85701  Biso   1.000  H
  C348     1.0000 0.24038  0.10966  0.78062  Biso   1.000  C
  H364     1.0000 0.35165  0.14866  0.85701  Biso   1.000  H
  O102     1.0000 0.12899  0.32570  0.89252  Biso   1.000  O
  N203     1.0000 0.16828  0.18302  0.79374  Biso   1.000  N
  N204     1.0000 0.16828  0.18310  0.79374  Biso   1.000  N
  O103     1.0000 0.24365  0.83863  0.12123  Biso   1.000  O
  H365     1.0000 0.34498  0.91064  0.00000  Biso   1.000  H
  H366     1.0000 0.38572  0.03369  0.00000  Biso   1.000  H
  H367     1.0000 0.38572  0.03377  0.00000  Biso   1.000  H
  H368     1.0000 0.38566  0.03369  0.00000  Biso   1.000  H
  H369     1.0000 0.38566  0.03377  0.00000  Biso   1.000  H
  O104     1.0000 0.93192  0.24156  0.23092  Biso   1.000  O
  N205     1.0000 0.90671  0.06721  0.29509  Biso   1.000  N
  O105     1.0000 0.93192  0.24164  0.23092  Biso   1.000  O
  N206     1.0000 0.90671  0.06730  0.29509  Biso   1.000  N
  C349     1.0000 0.95474  0.97701  0.33605  Biso   1.000  C
  N207     1.0000 0.09329  0.93279  0.29509  Biso   1.000  N
  H370     1.0000 0.06500  0.04026  0.40001  Biso   1.000  H
  H371     1.0000 0.06500  0.04034  0.40001  Biso   1.000  H
  H372     1.0000 0.20568  0.95848  0.35132  Biso   1.000  H
  H373     1.0000 0.20128  0.84907  0.28728  Biso   1.000  H
  H374     1.0000 0.20568  0.95856  0.35132  Biso   1.000  H
  H375     1.0000 0.20128  0.84915  0.28728  Biso   1.000  H
  C350     1.0000 0.24943  0.93970  0.86164  Biso   1.000  C
  N208     1.0000 0.22159  0.99099  0.78255  Biso   1.000  N
  N209     1.0000 0.22159  0.99107  0.78255  Biso   1.000  N
  H376     1.0000 0.27338  0.13072  0.72439  Biso   1.000  H
  C351     1.0000 0.10642  0.20660  0.72253  Biso   1.000  C
  C352     1.0000 0.81644  0.07117  0.29219  Biso   1.000  C
  C353     1.0000 0.81644  0.07125  0.29219  Biso   1.000  C
  C354     1.0000 0.81638  0.07117  0.29219  Biso   1.000  C
  C355     1.0000 0.81638  0.07125  0.29219  Biso   1.000  C
  N210     1.0000 0.96096  0.87585  0.28010  Biso   1.000  N
  H377     1.0000 0.93500  0.95974  0.40001  Biso   1.000  H
  C356     1.0000 0.04281  0.84595  0.26483  Biso   1.000  C
  C357     1.0000 0.04281  0.84604  0.26483  Biso   1.000  C
  O106     1.0000 0.24365  0.83863  0.87877  Biso   1.000  O
  C358     1.0000 0.18356  0.92883  0.70781  Biso   1.000  C
  N211     1.0000 0.03904  0.12415  0.71990  Biso   1.000  N
  H378     1.0000 0.08197  0.28207  0.73351  Biso   1.000  H
  H379     1.0000 0.13477  0.20812  0.66167  Biso   1.000  H
  N212     1.0000 0.03904  0.12423  0.71990  Biso   1.000  N
  H380     1.0000 0.08197  0.28215  0.73351  Biso   1.000  H
  N213     1.0000 0.77841  0.00901  0.21745  Biso   1.000  N
  H381     1.0000 0.79432  0.04152  0.35132  Biso   1.000  H
  H382     1.0000 0.79872  0.15093  0.28728  Biso   1.000  H
  H383     1.0000 0.79425  0.04152  0.35132  Biso   1.000  H
  H384     1.0000 0.79865  0.15093  0.28728  Biso   1.000  H
  C359     1.0000 0.89358  0.79340  0.27747  Biso   1.000  C
  O107     1.0000 0.06808  0.75844  0.23092  Biso   1.000  O
  O108     1.0000 0.06802  0.75844  0.23092  Biso   1.000  O
  N214     1.0000 0.09329  0.93279  0.70491  Biso   1.000  N
  H385     1.0000 0.20568  0.95848  0.64868  Biso   1.000  H
  H386     1.0000 0.20128  0.84907  0.71272  Biso   1.000  H
  H387     1.0000 0.20568  0.95856  0.64868  Biso   1.000  H
  H388     1.0000 0.20128  0.84915  0.71272  Biso   1.000  H
  C360     1.0000 0.95719  0.15405  0.73517  Biso   1.000  C
  C361     1.0000 0.95713  0.15405  0.73517  Biso   1.000  C
  C362     1.0000 0.04526  0.02299  0.66395  Biso   1.000  C
  C363     1.0000 0.04520  0.02299  0.66395  Biso   1.000  C
  C364     1.0000 0.75955  0.89042  0.21938  Biso   1.000  C
  C365     1.0000 0.75057  0.06030  0.13836  Biso   1.000  C
  N215     1.0000 0.83172  0.81698  0.20626  Biso   1.000  N
  H389     1.0000 0.91803  0.71793  0.26649  Biso   1.000  H
  H390     1.0000 0.86523  0.79188  0.33833  Biso   1.000  H
  H391     1.0000 0.86523  0.79196  0.33833  Biso   1.000  H
  H392     1.0000 0.91797  0.71793  0.26649  Biso   1.000  H
  H393     1.0000 0.86516  0.79188  0.33833  Biso   1.000  H
  H394     1.0000 0.86516  0.79196  0.33833  Biso   1.000  H
  C366     1.0000 0.04281  0.84595  0.73517  Biso   1.000  C
  C367     1.0000 0.04281  0.84604  0.73517  Biso   1.000  C
  N216     1.0000 0.90671  0.06721  0.70491  Biso   1.000  N
  O109     1.0000 0.93192  0.24156  0.76908  Biso   1.000  O
  N217     1.0000 0.90671  0.06730  0.70491  Biso   1.000  N
  O110     1.0000 0.93192  0.24164  0.76908  Biso   1.000  O
  C368     1.0000 0.95474  0.97701  0.66395  Biso   1.000  C
  H395     1.0000 0.06500  0.04026  0.59999  Biso   1.000  H
  H396     1.0000 0.06500  0.04034  0.59999  Biso   1.000  H
  C369     1.0000 0.70788  0.87232  0.12945  Biso   1.000  C
  H397     1.0000 0.72662  0.86928  0.27561  Biso   1.000  H
  H398     1.0000 0.72662  0.86937  0.27561  Biso   1.000  H
  N218     1.0000 0.71392  0.98071  0.08351  Biso   1.000  N
  N219     1.0000 0.71392  0.98080  0.08351  Biso   1.000  N
  O111     1.0000 0.75635  0.16137  0.12123  Biso   1.000  O
  O112     1.0000 0.75635  0.16146  0.12123  Biso   1.000  O
  C370     1.0000 0.82393  0.75137  0.12965  Biso   1.000  C
  C371     1.0000 0.82393  0.75145  0.12965  Biso   1.000  C
  N220     1.0000 0.96096  0.87585  0.71990  Biso   1.000  N
  O113     1.0000 0.06808  0.75844  0.76908  Biso   1.000  O
  O114     1.0000 0.06802  0.75844  0.76908  Biso   1.000  O
  C372     1.0000 0.81644  0.07117  0.70781  Biso   1.000  C
  C373     1.0000 0.81644  0.07125  0.70781  Biso   1.000  C
  C374     1.0000 0.81638  0.07117  0.70781  Biso   1.000  C
  C375     1.0000 0.81638  0.07125  0.70781  Biso   1.000  C
  H399     1.0000 0.93500  0.95974  0.59999  Biso   1.000  H
  N221     1.0000 0.75258  0.78219  0.08358  Biso   1.000  N
  H400     1.0000 0.64829  0.85143  0.14299  Biso   1.000  H
  N222     1.0000 0.75258  0.78228  0.08358  Biso   1.000  N
  C376     1.0000 0.66822  0.00792  0.00000  Biso   1.000  C
  O115     1.0000 0.87101  0.67430  0.10748  Biso   1.000  O
  O116     1.0000 0.87095  0.67430  0.10748  Biso   1.000  O
  C377     1.0000 0.89358  0.79340  0.72253  Biso   1.000  C
  N223     1.0000 0.77841  0.00901  0.78255  Biso   1.000  N
  H401     1.0000 0.79432  0.04152  0.64868  Biso   1.000  H
  H402     1.0000 0.79872  0.15093  0.71272  Biso   1.000  H
  H403     1.0000 0.79425  0.04152  0.64868  Biso   1.000  H
  H404     1.0000 0.79865  0.15093  0.71272  Biso   1.000  H
  C378     1.0000 0.72523  0.72720  0.00000  Biso   1.000  C
  C379     1.0000 0.72517  0.72720  0.00000  Biso   1.000  C
  N224     1.0000 0.71392  0.98071  0.91649  Biso   1.000  N
  N225     1.0000 0.71392  0.98080  0.91649  Biso   1.000  N
  H405     1.0000 0.61428  0.96631  0.00000  Biso   1.000  H
  H406     1.0000 0.65502  0.08936  0.00000  Biso   1.000  H
  H407     1.0000 0.65502  0.08945  0.00000  Biso   1.000  H
  N226     1.0000 0.83172  0.81698  0.79374  Biso   1.000  N
  H408     1.0000 0.91803  0.71793  0.73351  Biso   1.000  H
  H409     1.0000 0.86523  0.79188  0.66167  Biso   1.000  H
  H410     1.0000 0.86523  0.79196  0.66167  Biso   1.000  H
  H411     1.0000 0.91797  0.71793  0.73351  Biso   1.000  H
  H412     1.0000 0.86516  0.79188  0.66167  Biso   1.000  H
  H413     1.0000 0.86516  0.79196  0.66167  Biso   1.000  H
  C380     1.0000 0.75955  0.89042  0.78062  Biso   1.000  C
  C381     1.0000 0.75057  0.06030  0.86164  Biso   1.000  C
  N227     1.0000 0.75258  0.78219  0.91642  Biso   1.000  N
  N228     1.0000 0.75258  0.78228  0.91642  Biso   1.000  N
  H414     1.0000 0.66300  0.72357  0.00000  Biso   1.000  H
  H415     1.0000 0.74661  0.64887  0.00000  Biso   1.000  H
  H416     1.0000 0.66300  0.72366  0.00000  Biso   1.000  H
  H417     1.0000 0.74661  0.64895  0.00000  Biso   1.000  H
  C382     1.0000 0.70788  0.87232  0.87055  Biso   1.000  C
  C383     1.0000 0.82393  0.75137  0.87035  Biso   1.000  C
  C384     1.0000 0.82393  0.75145  0.87035  Biso   1.000  C
  H418     1.0000 0.72662  0.86928  0.72439  Biso   1.000  H
  H419     1.0000 0.72662  0.86937  0.72439  Biso   1.000  H
  O117     1.0000 0.75635  0.16137  0.87877  Biso   1.000  O
  O118     1.0000 0.75635  0.16146  0.87877  Biso   1.000  O
  H420     1.0000 0.64829  0.85143  0.85701  Biso   1.000  H
  O119     1.0000 0.87101  0.67430  0.89252  Biso   1.000  O
  O120     1.0000 0.87095  0.67430  0.89252  Biso   1.000  O
  C385     1.0000 0.17607  0.24863  0.12965  Biso   1.000  C
  O121     1.0000 0.12899  0.32570  0.10748  Biso   1.000  O
  N229     1.0000 0.24742  0.21781  0.08358  Biso   1.000  N
  N230     1.0000 0.16828  0.18302  0.20626  Biso   1.000  N
  N231     1.0000 0.16828  0.18310  0.20626  Biso   1.000  N
  N232     1.0000 0.24736  0.21781  0.08358  Biso   1.000  N
  C386     1.0000 0.27477  0.27280  0.00000  Biso   1.000  C
  C387     1.0000 0.29212  0.12768  0.12945  Biso   1.000  C
  C388     1.0000 0.29212  0.12777  0.12945  Biso   1.000  C
  C389     1.0000 0.29205  0.12768  0.12945  Biso   1.000  C
  C390     1.0000 0.29205  0.12777  0.12945  Biso   1.000  C
  C391     1.0000 0.10642  0.20660  0.27747  Biso   1.000  C
  C392     1.0000 0.24045  0.10958  0.21938  Biso   1.000  C
  C393     1.0000 0.24045  0.10966  0.21938  Biso   1.000  C
  C394     1.0000 0.24038  0.10958  0.21938  Biso   1.000  C
  C395     1.0000 0.24038  0.10966  0.21938  Biso   1.000  C
  H421     1.0000 0.33700  0.27643  0.00000  Biso   1.000  H
  H422     1.0000 0.25339  0.35113  0.00000  Biso   1.000  H
  N233     1.0000 0.24742  0.21781  0.91642  Biso   1.000  N
  N234     1.0000 0.24736  0.21781  0.91642  Biso   1.000  N
  N235     1.0000 0.28608  0.01929  0.08351  Biso   1.000  N
  H423     1.0000 0.35171  0.14857  0.14299  Biso   1.000  H
  H424     1.0000 0.35171  0.14866  0.14299  Biso   1.000  H
  H425     1.0000 0.35165  0.14857  0.14299  Biso   1.000  H
  H426     1.0000 0.35165  0.14866  0.14299  Biso   1.000  H
  H427     1.0000 0.13477  0.20812  0.33833  Biso   1.000  H
  N236     1.0000 0.03904  0.12415  0.28010  Biso   1.000  N
  H428     1.0000 0.08197  0.28207  0.26649  Biso   1.000  H
  N237     1.0000 0.03904  0.12423  0.28010  Biso   1.000  N
  H429     1.0000 0.08197  0.28215  0.26649  Biso   1.000  H
  H430     1.0000 0.27338  0.13072  0.27561  Biso   1.000  H
  N238     1.0000 0.22159  0.99099  0.21745  Biso   1.000  N
  N239     1.0000 0.22159  0.99107  0.21745  Biso   1.000  N
  C396     1.0000 0.29212  0.12768  0.87055  Biso   1.000  C
  C397     1.0000 0.17607  0.24863  0.87035  Biso   1.000  C
  C398     1.0000 0.29212  0.12777  0.87055  Biso   1.000  C
  C399     1.0000 0.29205  0.12768  0.87055  Biso   1.000  C
  C400     1.0000 0.29205  0.12777  0.87055  Biso   1.000  C
  C401     1.0000 0.24943  0.93970  0.13836  Biso   1.000  C
  C402     1.0000 0.33178  0.99208  0.00000  Biso   1.000  C
  C403     1.0000 0.33178  0.99217  0.00000  Biso   1.000  C
  C404     1.0000 0.95719  0.15405  0.26483  Biso   1.000  C
  C405     1.0000 0.95713  0.15405  0.26483  Biso   1.000  C
  C406     1.0000 0.04526  0.02299  0.33605  Biso   1.000  C
  C407     1.0000 0.04520  0.02299  0.33605  Biso   1.000  C
  C408     1.0000 0.18356  0.92883  0.29219  Biso   1.000  C
  N240     1.0000 0.28608  0.01929  0.91649  Biso   1.000  N
  C409     1.0000 0.24045  0.10958  0.78062  Biso   1.000  C
  H431     1.0000 0.35171  0.14857  0.85701  Biso   1.000  H
  C410     1.0000 0.24045  0.10966  0.78062  Biso   1.000  C
  H432     1.0000 0.35171  0.14866  0.85701  Biso   1.000  H
  C411     1.0000 0.24038  0.10958  0.78062  Biso   1.000  C
  H433     1.0000 0.35165  0.14857  0.85701  Biso   1.000  H
  C412     1.0000 0.24038  0.10966  0.78062  Biso   1.000  C
  H434     1.0000 0.35165  0.14866  0.85701  Biso   1.000  H
  O122     1.0000 0.12899  0.32570  0.89252  Biso   1.000  O
  N241     1.0000 0.16828  0.18302  0.79374  Biso   1.000  N
  N242     1.0000 0.16828  0.18310  0.79374  Biso   1.000  N
  O123     1.0000 0.24365  0.83863  0.12123  Biso   1.000  O
  H435     1.0000 0.34498  0.91064  0.00000  Biso   1.000  H
  H436     1.0000 0.38572  0.03369  0.00000  Biso   1.000  H
  H437     1.0000 0.38572  0.03377  0.00000  Biso   1.000  H
  H438     1.0000 0.38566  0.03369  0.00000  Biso   1.000  H
  H439     1.0000 0.38566  0.03377  0.00000  Biso   1.000  H
  O124     1.0000 0.93192  0.24156  0.23092  Biso   1.000  O
  N243     1.0000 0.90671  0.06721  0.29509  Biso   1.000  N
  O125     1.0000 0.93192  0.24164  0.23092  Biso   1.000  O
  N244     1.0000 0.90671  0.06730  0.29509  Biso   1.000  N
  C413     1.0000 0.95474  0.97701  0.33605  Biso   1.000  C
  N245     1.0000 0.09329  0.93279  0.29509  Biso   1.000  N
  H440     1.0000 0.06500  0.04026  0.40001  Biso   1.000  H
  H441     1.0000 0.06500  0.04034  0.40001  Biso   1.000  H
  H442     1.0000 0.20568  0.95848  0.35132  Biso   1.000  H
  H443     1.0000 0.20128  0.84907  0.28728  Biso   1.000  H
  H444     1.0000 0.20568  0.95856  0.35132  Biso   1.000  H
  H445     1.0000 0.20128  0.84915  0.28728  Biso   1.000  H
  C414     1.0000 0.24943  0.93970  0.86164  Biso   1.000  C
  N246     1.0000 0.22159  0.99099  0.78255  Biso   1.000  N
  N247     1.0000 0.22159  0.99107  0.78255  Biso   1.000  N
  H446     1.0000 0.27338  0.13072  0.72439  Biso   1.000  H
  C415     1.0000 0.10642  0.20660  0.72253  Biso   1.000  C
  C416     1.0000 0.81644  0.07117  0.29219  Biso   1.000  C
  C417     1.0000 0.81644  0.07125  0.29219  Biso   1.000  C
  C418     1.0000 0.81638  0.07117  0.29219  Biso   1.000  C
  C419     1.0000 0.81638  0.07125  0.29219  Biso   1.000  C
  N248     1.0000 0.96096  0.87585  0.28010  Biso   1.000  N
  H447     1.0000 0.93500  0.95974  0.40001  Biso   1.000  H
  C420     1.0000 0.04281  0.84595  0.26483  Biso   1.000  C
  C421     1.0000 0.04281  0.84604  0.26483  Biso   1.000  C
  O126     1.0000 0.24365  0.83863  0.87877  Biso   1.000  O
  C422     1.0000 0.18356  0.92883  0.70781  Biso   1.000  C
  N249     1.0000 0.03904  0.12415  0.71990  Biso   1.000  N
  H448     1.0000 0.08197  0.28207  0.73351  Biso   1.000  H
  H449     1.0000 0.13477  0.20812  0.66167  Biso   1.000  H
  N250     1.0000 0.03904  0.12423  0.71990  Biso   1.000  N
  H450     1.0000 0.08197  0.28215  0.73351  Biso   1.000  H
  N251     1.0000 0.77841  0.00901  0.21745  Biso   1.000  N
  H451     1.0000 0.79432  0.04152  0.35132  Biso   1.000  H
  H452     1.0000 0.79872  0.15093  0.28728  Biso   1.000  H
  H453     1.0000 0.79425  0.04152  0.35132  Biso   1.000  H
  H454     1.0000 0.79865  0.15093  0.28728  Biso   1.000  H
  C423     1.0000 0.89358  0.79340  0.27747  Biso   1.000  C
  O127     1.0000 0.06808  0.75844  0.23092  Biso   1.000  O
  O128     1.0000 0.06802  0.75844  0.23092  Biso   1.000  O
  N252     1.0000 0.09329  0.93279  0.70491  Biso   1.000  N
  H455     1.0000 0.20568  0.95848  0.64868  Biso   1.000  H
  H456     1.0000 0.20128  0.84907  0.71272  Biso   1.000  H
  H457     1.0000 0.20568  0.95856  0.64868  Biso   1.000  H
  H458     1.0000 0.20128  0.84915  0.71272  Biso   1.000  H
  C424     1.0000 0.95719  0.15405  0.73517  Biso   1.000  C
  C425     1.0000 0.95713  0.15405  0.73517  Biso   1.000  C
  C426     1.0000 0.04526  0.02299  0.66395  Biso   1.000  C
  C427     1.0000 0.04520  0.02299  0.66395  Biso   1.000  C
  C428     1.0000 0.75955  0.89042  0.21938  Biso   1.000  C
  C429     1.0000 0.75057  0.06030  0.13836  Biso   1.000  C
  N253     1.0000 0.83172  0.81698  0.20626  Biso   1.000  N
  H459     1.0000 0.91803  0.71793  0.26649  Biso   1.000  H
  H460     1.0000 0.86523  0.79188  0.33833  Biso   1.000  H
  H461     1.0000 0.86523  0.79196  0.33833  Biso   1.000  H
  H462     1.0000 0.91797  0.71793  0.26649  Biso   1.000  H
  H463     1.0000 0.86516  0.79188  0.33833  Biso   1.000  H
  H464     1.0000 0.86516  0.79196  0.33833  Biso   1.000  H
  C430     1.0000 0.04281  0.84595  0.73517  Biso   1.000  C
  C431     1.0000 0.04281  0.84604  0.73517  Biso   1.000  C
  N254     1.0000 0.90671  0.06721  0.70491  Biso   1.000  N
  O129     1.0000 0.93192  0.24156  0.76908  Biso   1.000  O
  N255     1.0000 0.90671  0.06730  0.70491  Biso   1.000  N
  O130     1.0000 0.93192  0.24164  0.76908  Biso   1.000  O
  C432     1.0000 0.95474  0.97701  0.66395  Biso   1.000  C
  H465     1.0000 0.06500  0.04026  0.59999  Biso   1.000  H
  H466     1.0000 0.06500  0.04034  0.59999  Biso   1.000  H
  C433     1.0000 0.70788  0.87232  0.12945  Biso   1.000  C
  H467     1.0000 0.72662  0.86928  0.27561  Biso   1.000  H
  H468     1.0000 0.72662  0.86937  0.27561  Biso   1.000  H
  N256     1.0000 0.71392  0.98071  0.08351  Biso   1.000  N
  N257     1.0000 0.71392  0.98080  0.08351  Biso   1.000  N
  O131     1.0000 0.75635  0.16137  0.12123  Biso   1.000  O
  O132     1.0000 0.75635  0.16146  0.12123  Biso   1.000  O
  C434     1.0000 0.82393  0.75137  0.12965  Biso   1.000  C
  C435     1.0000 0.82393  0.75145  0.12965  Biso   1.000  C
  N258     1.0000 0.96096  0.87585  0.71990  Biso   1.000  N
  O133     1.0000 0.06808  0.75844  0.76908  Biso   1.000  O
  O134     1.0000 0.06802  0.75844  0.76908  Biso   1.000  O
  C436     1.0000 0.81644  0.07117  0.70781  Biso   1.000  C
  C437     1.0000 0.81644  0.07125  0.70781  Biso   1.000  C
  C438     1.0000 0.81638  0.07117  0.70781  Biso   1.000  C
  C439     1.0000 0.81638  0.07125  0.70781  Biso   1.000  C
  H469     1.0000 0.93500  0.95974  0.59999  Biso   1.000  H
  N259     1.0000 0.75258  0.78219  0.08358  Biso   1.000  N
  H470     1.0000 0.64829  0.85143  0.14299  Biso   1.000  H
  N260     1.0000 0.75258  0.78228  0.08358  Biso   1.000  N
  C440     1.0000 0.66822  0.00792  0.00000  Biso   1.000  C
  O135     1.0000 0.87101  0.67430  0.10748  Biso   1.000  O
  O136     1.0000 0.87095  0.67430  0.10748  Biso   1.000  O
  C441     1.0000 0.89358  0.79340  0.72253  Biso   1.000  C
  N261     1.0000 0.77841  0.00901  0.78255  Biso   1.000  N
  H471     1.0000 0.79432  0.04152  0.64868  Biso   1.000  H
  H472     1.0000 0.79872  0.15093  0.71272  Biso   1.000  H
  H473     1.0000 0.79425  0.04152  0.64868  Biso   1.000  H
  H474     1.0000 0.79865  0.15093  0.71272  Biso   1.000  H
  C442     1.0000 0.72523  0.72720  0.00000  Biso   1.000  C
  C443     1.0000 0.72517  0.72720  0.00000  Biso   1.000  C
  N262     1.0000 0.71392  0.98071  0.91649  Biso   1.000  N
  N263     1.0000 0.71392  0.98080  0.91649  Biso   1.000  N
  H475     1.0000 0.61428  0.96631  0.00000  Biso   1.000  H
  H476     1.0000 0.65502  0.08936  0.00000  Biso   1.000  H
  H477     1.0000 0.65502  0.08945  0.00000  Biso   1.000  H
  N264     1.0000 0.83172  0.81698  0.79374  Biso   1.000  N
  H478     1.0000 0.91803  0.71793  0.73351  Biso   1.000  H
  H479     1.0000 0.86523  0.79188  0.66167  Biso   1.000  H
  H480     1.0000 0.86523  0.79196  0.66167  Biso   1.000  H
  H481     1.0000 0.91797  0.71793  0.73351  Biso   1.000  H
  H482     1.0000 0.86516  0.79188  0.66167  Biso   1.000  H
  H483     1.0000 0.86516  0.79196  0.66167  Biso   1.000  H
  C444     1.0000 0.75955  0.89042  0.78062  Biso   1.000  C
  C445     1.0000 0.75057  0.06030  0.86164  Biso   1.000  C
  N265     1.0000 0.75258  0.78219  0.91642  Biso   1.000  N
  N266     1.0000 0.75258  0.78228  0.91642  Biso   1.000  N
  H484     1.0000 0.66300  0.72357  0.00000  Biso   1.000  H
  H485     1.0000 0.74661  0.64887  0.00000  Biso   1.000  H
  H486     1.0000 0.66300  0.72366  0.00000  Biso   1.000  H
  H487     1.0000 0.74661  0.64895  0.00000  Biso   1.000  H
  C446     1.0000 0.70788  0.87232  0.87055  Biso   1.000  C
  C447     1.0000 0.82393  0.75137  0.87035  Biso   1.000  C
  C448     1.0000 0.82393  0.75145  0.87035  Biso   1.000  C
  H488     1.0000 0.72662  0.86928  0.72439  Biso   1.000  H
  H489     1.0000 0.72662  0.86937  0.72439  Biso   1.000  H
  O137     1.0000 0.75635  0.16137  0.87877  Biso   1.000  O
  O138     1.0000 0.75635  0.16146  0.87877  Biso   1.000  O
  H490     1.0000 0.64829  0.85143  0.85701  Biso   1.000  H
  O139     1.0000 0.87101  0.67430  0.89252  Biso   1.000  O
  O140     1.0000 0.87095  0.67430  0.89252  Biso   1.000  O
  C449     1.0000 0.17607  0.24863  0.12965  Biso   1.000  C
  O141     1.0000 0.12899  0.32570  0.10748  Biso   1.000  O
  N267     1.0000 0.24742  0.21781  0.08358  Biso   1.000  N
  N268     1.0000 0.16828  0.18302  0.20626  Biso   1.000  N
  N269     1.0000 0.16828  0.18310  0.20626  Biso   1.000  N
  N270     1.0000 0.24736  0.21781  0.08358  Biso   1.000  N
  C450     1.0000 0.27477  0.27280  0.00000  Biso   1.000  C
  C451     1.0000 0.29212  0.12768  0.12945  Biso   1.000  C
  C452     1.0000 0.29212  0.12777  0.12945  Biso   1.000  C
  C453     1.0000 0.29205  0.12768  0.12945  Biso   1.000  C
  C454     1.0000 0.29205  0.12777  0.12945  Biso   1.000  C
  C455     1.0000 0.10642  0.20660  0.27747  Biso   1.000  C
  C456     1.0000 0.24045  0.10958  0.21938  Biso   1.000  C
  C457     1.0000 0.24045  0.10966  0.21938  Biso   1.000  C
  C458     1.0000 0.24038  0.10958  0.21938  Biso   1.000  C
  C459     1.0000 0.24038  0.10966  0.21938  Biso   1.000  C
  H491     1.0000 0.33700  0.27643  0.00000  Biso   1.000  H
  H492     1.0000 0.25339  0.35113  0.00000  Biso   1.000  H
  N271     1.0000 0.24742  0.21781  0.91642  Biso   1.000  N
  N272     1.0000 0.24736  0.21781  0.91642  Biso   1.000  N
  N273     1.0000 0.28608  0.01929  0.08351  Biso   1.000  N
  H493     1.0000 0.35171  0.14857  0.14299  Biso   1.000  H
  H494     1.0000 0.35171  0.14866  0.14299  Biso   1.000  H
  H495     1.0000 0.35165  0.14857  0.14299  Biso   1.000  H
  H496     1.0000 0.35165  0.14866  0.14299  Biso   1.000  H
  H497     1.0000 0.13477  0.20812  0.33833  Biso   1.000  H
  N274     1.0000 0.03904  0.12415  0.28010  Biso   1.000  N
  H498     1.0000 0.08197  0.28207  0.26649  Biso   1.000  H
  N275     1.0000 0.03904  0.12423  0.28010  Biso   1.000  N
  H499     1.0000 0.08197  0.28215  0.26649  Biso   1.000  H
  H500     1.0000 0.27338  0.13072  0.27561  Biso   1.000  H
  N276     1.0000 0.22159  0.99099  0.21745  Biso   1.000  N
  N277     1.0000 0.22159  0.99107  0.21745  Biso   1.000  N
  C460     1.0000 0.29212  0.12768  0.87055  Biso   1.000  C
  C461     1.0000 0.17607  0.24863  0.87035  Biso   1.000  C
  C462     1.0000 0.29212  0.12777  0.87055  Biso   1.000  C
  C463     1.0000 0.29205  0.12768  0.87055  Biso   1.000  C
  C464     1.0000 0.29205  0.12777  0.87055  Biso   1.000  C
  C465     1.0000 0.24943  0.93970  0.13836  Biso   1.000  C
  C466     1.0000 0.33178  0.99208  0.00000  Biso   1.000  C
  C467     1.0000 0.33178  0.99217  0.00000  Biso   1.000  C
  C468     1.0000 0.95719  0.15405  0.26483  Biso   1.000  C
  C469     1.0000 0.95713  0.15405  0.26483  Biso   1.000  C
  C470     1.0000 0.04526  0.02299  0.33605  Biso   1.000  C
  C471     1.0000 0.04520  0.02299  0.33605  Biso   1.000  C
  C472     1.0000 0.18356  0.92883  0.29219  Biso   1.000  C
  N278     1.0000 0.28608  0.01929  0.91649  Biso   1.000  N
  C473     1.0000 0.24045  0.10958  0.78062  Biso   1.000  C
  H501     1.0000 0.35171  0.14857  0.85701  Biso   1.000  H
  C474     1.0000 0.24045  0.10966  0.78062  Biso   1.000  C
  H502     1.0000 0.35171  0.14866  0.85701  Biso   1.000  H
  C475     1.0000 0.24038  0.10958  0.78062  Biso   1.000  C
  H503     1.0000 0.35165  0.14857  0.85701  Biso   1.000  H
  C476     1.0000 0.24038  0.10966  0.78062  Biso   1.000  C
  H504     1.0000 0.35165  0.14866  0.85701  Biso   1.000  H
  O142     1.0000 0.12899  0.32570  0.89252  Biso   1.000  O
  N279     1.0000 0.16828  0.18302  0.79374  Biso   1.000  N
  N280     1.0000 0.16828  0.18310  0.79374  Biso   1.000  N
  O143     1.0000 0.24365  0.83863  0.12123  Biso   1.000  O
  H505     1.0000 0.34498  0.91064  0.00000  Biso   1.000  H
  H506     1.0000 0.38572  0.03369  0.00000  Biso   1.000  H
  H507     1.0000 0.38572  0.03377  0.00000  Biso   1.000  H
  H508     1.0000 0.38566  0.03369  0.00000  Biso   1.000  H
  H509     1.0000 0.38566  0.03377  0.00000  Biso   1.000  H
  O144     1.0000 0.93192  0.24156  0.23092  Biso   1.000  O
  N281     1.0000 0.90671  0.06721  0.29509  Biso   1.000  N
  O145     1.0000 0.93192  0.24164  0.23092  Biso   1.000  O
  N282     1.0000 0.90671  0.06730  0.29509  Biso   1.000  N
  C477     1.0000 0.95474  0.97701  0.33605  Biso   1.000  C
  N283     1.0000 0.09329  0.93279  0.29509  Biso   1.000  N
  H510     1.0000 0.06500  0.04026  0.40001  Biso   1.000  H
  H511     1.0000 0.06500  0.04034  0.40001  Biso   1.000  H
  H512     1.0000 0.20568  0.95848  0.35132  Biso   1.000  H
  H513     1.0000 0.20128  0.84907  0.28728  Biso   1.000  H
  H514     1.0000 0.20568  0.95856  0.35132  Biso   1.000  H
  H515     1.0000 0.20128  0.84915  0.28728  Biso   1.000  H
  C478     1.0000 0.24943  0.93970  0.86164  Biso   1.000  C
  N284     1.0000 0.22159  0.99099  0.78255  Biso   1.000  N
  N285     1.0000 0.22159  0.99107  0.78255  Biso   1.000  N
  H516     1.0000 0.27338  0.13072  0.72439  Biso   1.000  H
  C479     1.0000 0.10642  0.20660  0.72253  Biso   1.000  C
  C480     1.0000 0.81644  0.07117  0.29219  Biso   1.000  C
  C481     1.0000 0.81644  0.07125  0.29219  Biso   1.000  C
  C482     1.0000 0.81638  0.07117  0.29219  Biso   1.000  C
  C483     1.0000 0.81638  0.07125  0.29219  Biso   1.000  C
  N286     1.0000 0.96096  0.87585  0.28010  Biso   1.000  N
  H517     1.0000 0.93500  0.95974  0.40001  Biso   1.000  H
  C484     1.0000 0.04281  0.84595  0.26483  Biso   1.000  C
  C485     1.0000 0.04281  0.84604  0.26483  Biso   1.000  C
  O146     1.0000 0.24365  0.83863  0.87877  Biso   1.000  O
  C486     1.0000 0.18356  0.92883  0.70781  Biso   1.000  C
  N287     1.0000 0.03904  0.12415  0.71990  Biso   1.000  N
  H518     1.0000 0.08197  0.28207  0.73351  Biso   1.000  H
  H519     1.0000 0.13477  0.20812  0.66167  Biso   1.000  H
  N288     1.0000 0.03904  0.12423  0.71990  Biso   1.000  N
  H520     1.0000 0.08197  0.28215  0.73351  Biso   1.000  H
  N289     1.0000 0.77841  0.00901  0.21745  Biso   1.000  N
  H521     1.0000 0.79432  0.04152  0.35132  Biso   1.000  H
  H522     1.0000 0.79872  0.15093  0.28728  Biso   1.000  H
  H523     1.0000 0.79425  0.04152  0.35132  Biso   1.000  H
  H524     1.0000 0.79865  0.15093  0.28728  Biso   1.000  H
  C487     1.0000 0.89358  0.79340  0.27747  Biso   1.000  C
  O147     1.0000 0.06808  0.75844  0.23092  Biso   1.000  O
  O148     1.0000 0.06802  0.75844  0.23092  Biso   1.000  O
  N290     1.0000 0.09329  0.93279  0.70491  Biso   1.000  N
  H525     1.0000 0.20568  0.95848  0.64868  Biso   1.000  H
  H526     1.0000 0.20128  0.84907  0.71272  Biso   1.000  H
  H527     1.0000 0.20568  0.95856  0.64868  Biso   1.000  H
  H528     1.0000 0.20128  0.84915  0.71272  Biso   1.000  H
  C488     1.0000 0.95719  0.15405  0.73517  Biso   1.000  C
  C489     1.0000 0.95713  0.15405  0.73517  Biso   1.000  C
  C490     1.0000 0.04526  0.02299  0.66395  Biso   1.000  C
  C491     1.0000 0.04520  0.02299  0.66395  Biso   1.000  C
  C492     1.0000 0.75955  0.89042  0.21938  Biso   1.000  C
  C493     1.0000 0.75057  0.06030  0.13836  Biso   1.000  C
  N291     1.0000 0.83172  0.81698  0.20626  Biso   1.000  N
  H529     1.0000 0.91803  0.71793  0.26649  Biso   1.000  H
  H530     1.0000 0.86523  0.79188  0.33833  Biso   1.000  H
  H531     1.0000 0.86523  0.79196  0.33833  Biso   1.000  H
  H532     1.0000 0.91797  0.71793  0.26649  Biso   1.000  H
  H533     1.0000 0.86516  0.79188  0.33833  Biso   1.000  H
  H534     1.0000 0.86516  0.79196  0.33833  Biso   1.000  H
  C494     1.0000 0.04281  0.84595  0.73517  Biso   1.000  C
  C495     1.0000 0.04281  0.84604  0.73517  Biso   1.000  C
  N292     1.0000 0.90671  0.06721  0.70491  Biso   1.000  N
  O149     1.0000 0.93192  0.24156  0.76908  Biso   1.000  O
  N293     1.0000 0.90671  0.06730  0.70491  Biso   1.000  N
  O150     1.0000 0.93192  0.24164  0.76908  Biso   1.000  O
  C496     1.0000 0.95474  0.97701  0.66395  Biso   1.000  C
  H535     1.0000 0.06500  0.04026  0.59999  Biso   1.000  H
  H536     1.0000 0.06500  0.04034  0.59999  Biso   1.000  H
  C497     1.0000 0.70788  0.87232  0.12945  Biso   1.000  C
  H537     1.0000 0.72662  0.86928  0.27561  Biso   1.000  H
  H538     1.0000 0.72662  0.86937  0.27561  Biso   1.000  H
  N294     1.0000 0.71392  0.98071  0.08351  Biso   1.000  N
  N295     1.0000 0.71392  0.98080  0.08351  Biso   1.000  N
  O151     1.0000 0.75635  0.16137  0.12123  Biso   1.000  O
  O152     1.0000 0.75635  0.16146  0.12123  Biso   1.000  O
  C498     1.0000 0.82393  0.75137  0.12965  Biso   1.000  C
  C499     1.0000 0.82393  0.75145  0.12965  Biso   1.000  C
  N296     1.0000 0.96096  0.87585  0.71990  Biso   1.000  N
  O153     1.0000 0.06808  0.75844  0.76908  Biso   1.000  O
  O154     1.0000 0.06802  0.75844  0.76908  Biso   1.000  O
  C500     1.0000 0.81644  0.07117  0.70781  Biso   1.000  C
  C501     1.0000 0.81644  0.07125  0.70781  Biso   1.000  C
  C502     1.0000 0.81638  0.07117  0.70781  Biso   1.000  C
  C503     1.0000 0.81638  0.07125  0.70781  Biso   1.000  C
  H539     1.0000 0.93500  0.95974  0.59999  Biso   1.000  H
  N297     1.0000 0.75258  0.78219  0.08358  Biso   1.000  N
  H540     1.0000 0.64829  0.85143  0.14299  Biso   1.000  H
  N298     1.0000 0.75258  0.78228  0.08358  Biso   1.000  N
  C504     1.0000 0.66822  0.00792  0.00000  Biso   1.000  C
  O155     1.0000 0.87101  0.67430  0.10748  Biso   1.000  O
  O156     1.0000 0.87095  0.67430  0.10748  Biso   1.000  O
  C505     1.0000 0.89358  0.79340  0.72253  Biso   1.000  C
  N299     1.0000 0.77841  0.00901  0.78255  Biso   1.000  N
  H541     1.0000 0.79432  0.04152  0.64868  Biso   1.000  H
  H542     1.0000 0.79872  0.15093  0.71272  Biso   1.000  H
  H543     1.0000 0.79425  0.04152  0.64868  Biso   1.000  H
  H544     1.0000 0.79865  0.15093  0.71272  Biso   1.000  H
  C506     1.0000 0.72523  0.72720  0.00000  Biso   1.000  C
  C507     1.0000 0.72517  0.72720  0.00000  Biso   1.000  C
  N300     1.0000 0.71392  0.98071  0.91649  Biso   1.000  N
  N301     1.0000 0.71392  0.98080  0.91649  Biso   1.000  N
  H545     1.0000 0.61428  0.96631  0.00000  Biso   1.000  H
  H546     1.0000 0.65502  0.08936  0.00000  Biso   1.000  H
  H547     1.0000 0.65502  0.08945  0.00000  Biso   1.000  H
  N302     1.0000 0.83172  0.81698  0.79374  Biso   1.000  N
  H548     1.0000 0.91803  0.71793  0.73351  Biso   1.000  H
  H549     1.0000 0.86523  0.79188  0.66167  Biso   1.000  H
  H550     1.0000 0.86523  0.79196  0.66167  Biso   1.000  H
  H551     1.0000 0.91797  0.71793  0.73351  Biso   1.000  H
  H552     1.0000 0.86516  0.79188  0.66167  Biso   1.000  H
  H553     1.0000 0.86516  0.79196  0.66167  Biso   1.000  H
  C508     1.0000 0.75955  0.89042  0.78062  Biso   1.000  C
  C509     1.0000 0.75057  0.06030  0.86164  Biso   1.000  C
  N303     1.0000 0.75258  0.78219  0.91642  Biso   1.000  N
  N304     1.0000 0.75258  0.78228  0.91642  Biso   1.000  N
  H554     1.0000 0.66300  0.72357  0.00000  Biso   1.000  H
  H555     1.0000 0.74661  0.64887  0.00000  Biso   1.000  H
  H556     1.0000 0.66300  0.72366  0.00000  Biso   1.000  H
  H557     1.0000 0.74661  0.64895  0.00000  Biso   1.000  H
  C510     1.0000 0.70788  0.87232  0.87055  Biso   1.000  C
  C511     1.0000 0.82393  0.75137  0.87035  Biso   1.000  C
  C512     1.0000 0.82393  0.75145  0.87035  Biso   1.000  C
  H558     1.0000 0.72662  0.86928  0.72439  Biso   1.000  H
  H559     1.0000 0.72662  0.86937  0.72439  Biso   1.000  H
  O157     1.0000 0.75635  0.16137  0.87877  Biso   1.000  O
  O158     1.0000 0.75635  0.16146  0.87877  Biso   1.000  O
  H560     1.0000 0.64829  0.85143  0.85701  Biso   1.000  H
  O159     1.0000 0.87101  0.67430  0.89252  Biso   1.000  O
  O160     1.0000 0.87095  0.67430  0.89252  Biso   1.000  O
  C513     1.0000 0.31638  0.42879  0.20785  Biso   1.000  C
  N305     1.0000 0.27841  0.49103  0.28259  Biso   1.000  N
  N306     1.0000 0.40671  0.43283  0.20488  Biso   1.000  N
  H561     1.0000 0.29432  0.45852  0.14872  Biso   1.000  H
  H562     1.0000 0.29872  0.34911  0.21268  Biso   1.000  H
  C514     1.0000 0.25057  0.43974  0.36161  Biso   1.000  C
  C515     1.0000 0.25955  0.60962  0.28065  Biso   1.000  C
  C516     1.0000 0.45474  0.52304  0.16398  Biso   1.000  C
  C517     1.0000 0.45713  0.34600  0.23520  Biso   1.000  C
  O161     1.0000 0.25635  0.33858  0.37874  Biso   1.000  O
  N307     1.0000 0.21392  0.51925  0.41652  Biso   1.000  N
  C518     1.0000 0.20788  0.62773  0.37052  Biso   1.000  C
  N308     1.0000 0.33172  0.68306  0.29378  Biso   1.000  N
  H563     1.0000 0.22662  0.63076  0.22442  Biso   1.000  H
  N309     1.0000 0.46096  0.62419  0.21987  Biso   1.000  N
  C519     1.0000 0.54526  0.47705  0.16398  Biso   1.000  C
  H564     1.0000 0.43500  0.54030  0.10002  Biso   1.000  H
  O162     1.0000 0.43192  0.25849  0.26912  Biso   1.000  O
  N310     1.0000 0.53904  0.37581  0.21987  Biso   1.000  N
  C520     1.0000 0.16822  0.49212  0.50003  Biso   1.000  C
  N311     1.0000 0.25258  0.71776  0.41638  Biso   1.000  N
  H565     1.0000 0.14829  0.64861  0.35698  Biso   1.000  H
  C521     1.0000 0.32393  0.74859  0.37031  Biso   1.000  C
  C522     1.0000 0.39358  0.70665  0.22249  Biso   1.000  C
  C523     1.0000 0.54281  0.65400  0.23520  Biso   1.000  C
  N312     1.0000 0.59329  0.56725  0.20488  Biso   1.000  N
  H566     1.0000 0.56500  0.45970  0.10002  Biso   1.000  H
  C524     1.0000 0.60642  0.29344  0.22249  Biso   1.000  C
  N313     1.0000 0.21392  0.51925  0.58348  Biso   1.000  N
  H567     1.0000 0.15502  0.41060  0.50003  Biso   1.000  H
  H568     1.0000 0.11428  0.53373  0.50003  Biso   1.000  H
  C525     1.0000 0.22517  0.77285  0.50003  Biso   1.000  C
  O163     1.0000 0.37101  0.82574  0.39255  Biso   1.000  O
  H569     1.0000 0.41797  0.78211  0.23347  Biso   1.000  H
  H570     1.0000 0.36516  0.70816  0.16170  Biso   1.000  H
  O164     1.0000 0.56808  0.74160  0.26912  Biso   1.000  O
  C526     1.0000 0.68356  0.57121  0.20785  Biso   1.000  C
  N314     1.0000 0.66828  0.31694  0.29378  Biso   1.000  N
  H571     1.0000 0.58197  0.21789  0.23347  Biso   1.000  H
  H572     1.0000 0.63477  0.29192  0.16170  Biso   1.000  H
  C527     1.0000 0.20788  0.62773  0.62948  Biso   1.000  C
  C528     1.0000 0.25057  0.43974  0.63839  Biso   1.000  C
  N315     1.0000 0.25258  0.71776  0.58362  Biso   1.000  N
  H573     1.0000 0.16300  0.77647  0.50003  Biso   1.000  H
  H574     1.0000 0.24661  0.85109  0.50003  Biso   1.000  H
  N316     1.0000 0.72159  0.50897  0.28259  Biso   1.000  N
  H575     1.0000 0.70568  0.54148  0.14872  Biso   1.000  H
  H576     1.0000 0.70128  0.65089  0.21268  Biso   1.000  H
  C529     1.0000 0.74045  0.39038  0.28065  Biso   1.000  C
  C530     1.0000 0.67607  0.25141  0.37031  Biso   1.000  C
  C531     1.0000 0.25955  0.60962  0.71935  Biso   1.000  C
  H577     1.0000 0.14829  0.64861  0.64302  Biso   1.000  H
  O165     1.0000 0.25635  0.33858  0.62126  Biso   1.000  O
  N317     1.0000 0.27841  0.49103  0.71741  Biso   1.000  N
  C532     1.0000 0.32393  0.74859  0.62969  Biso   1.000  C
  C533     1.0000 0.74943  0.56035  0.36161  Biso   1.000  C
  C534     1.0000 0.79212  0.37227  0.37052  Biso   1.000  C
  H578     1.0000 0.77338  0.36933  0.22442  Biso   1.000  H
  O166     1.0000 0.62899  0.17435  0.39255  Biso   1.000  O
  N318     1.0000 0.74736  0.28224  0.41638  Biso   1.000  N
  N319     1.0000 0.33172  0.68306  0.70622  Biso   1.000  N
  H579     1.0000 0.22662  0.63076  0.77558  Biso   1.000  H
  C535     1.0000 0.31638  0.42879  0.79215  Biso   1.000  C
  O167     1.0000 0.37101  0.82574  0.60745  Biso   1.000  O
  O168     1.0000 0.74365  0.66142  0.37874  Biso   1.000  O
  N320     1.0000 0.78608  0.48075  0.41652  Biso   1.000  N
  H580     1.0000 0.85171  0.35139  0.35698  Biso   1.000  H
  C536     1.0000 0.77477  0.22724  0.50003  Biso   1.000  C
  C537     1.0000 0.39358  0.70665  0.77751  Biso   1.000  C
  N321     1.0000 0.40671  0.43283  0.79512  Biso   1.000  N
  H581     1.0000 0.29432  0.45852  0.85128  Biso   1.000  H
  H582     1.0000 0.29872  0.34911  0.78732  Biso   1.000  H
  C538     1.0000 0.83178  0.50788  0.50003  Biso   1.000  C
  N322     1.0000 0.74736  0.28224  0.58362  Biso   1.000  N
  H583     1.0000 0.83700  0.22362  0.50003  Biso   1.000  H
  H584     1.0000 0.75339  0.14891  0.50003  Biso   1.000  H
  N323     1.0000 0.46096  0.62419  0.78013  Biso   1.000  N
  H585     1.0000 0.41797  0.78211  0.76653  Biso   1.000  H
  H586     1.0000 0.36516  0.70816  0.83830  Biso   1.000  H
  C539     1.0000 0.45474  0.52304  0.83602  Biso   1.000  C
  C540     1.0000 0.45713  0.34600  0.76480  Biso   1.000  C
  N324     1.0000 0.78608  0.48075  0.58348  Biso   1.000  N
  H587     1.0000 0.84498  0.58940  0.50003  Biso   1.000  H
  H588     1.0000 0.88566  0.46635  0.50003  Biso   1.000  H
  C541     1.0000 0.67607  0.25141  0.62969  Biso   1.000  C
  C542     1.0000 0.79212  0.37227  0.62948  Biso   1.000  C
  C543     1.0000 0.54281  0.65400  0.76480  Biso   1.000  C
  H589     1.0000 0.43500  0.54030  0.89998  Biso   1.000  H
  C544     1.0000 0.54526  0.47705  0.83602  Biso   1.000  C
  O169     1.0000 0.43192  0.25849  0.73088  Biso   1.000  O
  N325     1.0000 0.53904  0.37581  0.78013  Biso   1.000  N
  C545     1.0000 0.74943  0.56035  0.63839  Biso   1.000  C
  N326     1.0000 0.66828  0.31694  0.70622  Biso   1.000  N
  O170     1.0000 0.62899  0.17435  0.60745  Biso   1.000  O
  C546     1.0000 0.74045  0.39038  0.71935  Biso   1.000  C
  H590     1.0000 0.85171  0.35139  0.64302  Biso   1.000  H
  O171     1.0000 0.56808  0.74160  0.73088  Biso   1.000  O
  N327     1.0000 0.59329  0.56725  0.79512  Biso   1.000  N
  H591     1.0000 0.56500  0.45970  0.89998  Biso   1.000  H
  C547     1.0000 0.60642  0.29344  0.77751  Biso   1.000  C
  N328     1.0000 0.72159  0.50897  0.71741  Biso   1.000  N
  O172     1.0000 0.74365  0.66142  0.62126  Biso   1.000  O
  H592     1.0000 0.77338  0.36933  0.77558  Biso   1.000  H
  C548     1.0000 0.68356  0.57121  0.79215  Biso   1.000  C
  H593     1.0000 0.58197  0.21789  0.76653  Biso   1.000  H
  H594     1.0000 0.63477  0.29192  0.83830  Biso   1.000  H
  H595     1.0000 0.70568  0.54148  0.85128  Biso   1.000  H
  H596     1.0000 0.70128  0.65089  0.78732  Biso   1.000  H
