data_image0
_cell_length_a       15.251
_cell_length_b       23.286
_cell_length_c       28.731
_cell_angle_alpha    90
_cell_angle_beta     104.6
_cell_angle_gamma    90

_symmetry_space_group_name_H-M    "P 1"
_symmetry_int_tables_number       1

loop_
  _symmetry_equiv_pos_as_xyz
  'x, y, z'

loop_
  _atom_site_label
  _atom_site_occupancy
  _atom_site_fract_x
  _atom_site_fract_y
  _atom_site_fract_z
  _atom_site_thermal_displace_type
  _atom_site_B_iso_or_equiv
  _atom_site_type_symbol
  C1       1.0000 0.66222  0.33252  0.67722  Biso   1.000  C
  N1       1.0000 0.68297  0.31319  0.63392  Biso   1.000  N
  H1       1.0000 0.60200  0.31749  0.67812  Biso   1.000  H
  H2       1.0000 0.70739  0.31628  0.70510  Biso   1.000  H
  N2       1.0000 0.66179  0.39440  0.68183  Biso   1.000  N
  C2       1.0000 0.62459  0.27978  0.59989  Biso   1.000  C
  C3       1.0000 0.77532  0.30800  0.62831  Biso   1.000  C
  C4       1.0000 0.58658  0.42369  0.68762  Biso   1.000  C
  C5       1.0000 0.74503  0.42579  0.69970  Biso   1.000  C
  N3       1.0000 0.66618  0.25552  0.57040  Biso   1.000  N
  O1       1.0000 0.54202  0.27291  0.59932  Biso   1.000  O
  C6       1.0000 0.76221  0.26900  0.58331  Biso   1.000  C
  H3       1.0000 0.81600  0.28932  0.65723  Biso   1.000  H
  N4       1.0000 0.81269  0.36060  0.61741  Biso   1.000  N
  N5       1.0000 0.61641  0.47788  0.70391  Biso   1.000  N
  O2       1.0000 0.51036  0.40720  0.67970  Biso   1.000  O
  N6       1.0000 0.78933  0.43971  0.66431  Biso   1.000  N
  C7       1.0000 0.71181  0.48428  0.71481  Biso   1.000  C
  H4       1.0000 0.78628  0.40578  0.72761  Biso   1.000  H
  C8       1.0000 0.62551  0.21459  0.53501  Biso   1.000  C
  N7       1.0000 0.78978  0.30838  0.54900  Biso   1.000  N
  H5       1.0000 0.80078  0.23370  0.58982  Biso   1.000  H
  C9       1.0000 0.82327  0.35811  0.57231  Biso   1.000  C
  C10      1.0000 0.85649  0.40222  0.65000  Biso   1.000  C
  C11      1.0000 0.55809  0.51589  0.72222  Biso   1.000  C
  C12      1.0000 0.79536  0.49858  0.65920  Biso   1.000  C
  H6       1.0000 0.73761  0.49188  0.74980  Biso   1.000  H
  N8       1.0000 0.74443  0.52521  0.68560  Biso   1.000  N
  N9       1.0000 0.60309  0.23491  0.48491  Biso   1.000  N
  H7       1.0000 0.56910  0.20072  0.54242  Biso   1.000  H
  H8       1.0000 0.66685  0.18131  0.53771  Biso   1.000  H
  C13      1.0000 0.80587  0.29009  0.50473  Biso   1.000  C
  O3       1.0000 0.86039  0.39530  0.55271  Biso   1.000  O
  H9       1.0000 0.89482  0.38319  0.67891  Biso   1.000  H
  H10      1.0000 0.89623  0.42571  0.63521  Biso   1.000  H
  H11      1.0000 0.49920  0.49661  0.71930  Biso   1.000  H
  H12      1.0000 0.58573  0.52272  0.75682  Biso   1.000  H
  N10      1.0000 0.54148  0.57112  0.69801  Biso   1.000  N
  O4       1.0000 0.84013  0.52242  0.63431  Biso   1.000  O
  C14      1.0000 0.75580  0.58439  0.69672  Biso   1.000  C
  C15      1.0000 0.51549  0.24659  0.45962  Biso   1.000  C
  C16      1.0000 0.66557  0.23688  0.45671  Biso   1.000  C
  N11      1.0000 0.72566  0.28640  0.46451  Biso   1.000  N
  H13      1.0000 0.83508  0.25178  0.50962  Biso   1.000  H
  H14      1.0000 0.84935  0.31701  0.49591  Biso   1.000  H
  C17      1.0000 0.45328  0.59229  0.67881  Biso   1.000  C
  C18      1.0000 0.60382  0.61780  0.70751  Biso   1.000  C
  H15      1.0000 0.78139  0.58872  0.73182  Biso   1.000  H
  H16      1.0000 0.80039  0.60040  0.68042  Biso   1.000  H
  N12      1.0000 0.67213  0.61831  0.68262  Biso   1.000  N
  N13      1.0000 0.51953  0.25801  0.41290  Biso   1.000  N
  O5       1.0000 0.44855  0.24839  0.47581  Biso   1.000  O
  C19      1.0000 0.60677  0.24671  0.40510  Biso   1.000  C
  H17      1.0000 0.70056  0.20021  0.45901  Biso   1.000  H
  C20      1.0000 0.71899  0.31581  0.42312  Biso   1.000  C
  N14      1.0000 0.45729  0.64781  0.67150  Biso   1.000  N
  O6       1.0000 0.38509  0.56081  0.67093  Biso   1.000  O
  C21      1.0000 0.54582  0.67191  0.68740  Biso   1.000  C
  H18      1.0000 0.63079  0.62179  0.74290  Biso   1.000  H
  C22      1.0000 0.66028  0.66078  0.64690  Biso   1.000  C
  C23      1.0000 0.43838  0.25410  0.37470  Biso   1.000  C
  H19      1.0000 0.60594  0.21210  0.38431  Biso   1.000  H
  N15      1.0000 0.65034  0.29550  0.38819  Biso   1.000  N
  O7       1.0000 0.77134  0.35601  0.41751  Biso   1.000  O
  C24      1.0000 0.37311  0.68380  0.65812  Biso   1.000  C
  H20      1.0000 0.54868  0.70171  0.71290  Biso   1.000  H
  N16      1.0000 0.58700  0.69170  0.65000  Biso   1.000  N
  O8       1.0000 0.71100  0.66972  0.62101  Biso   1.000  O
  N17      1.0000 0.41314  0.30830  0.35000  Biso   1.000  N
  H21      1.0000 0.38810  0.24092  0.38812  Biso   1.000  H
  H22      1.0000 0.44717  0.22511  0.35111  Biso   1.000  H
  C25      1.0000 0.62705  0.31620  0.34190  Biso   1.000  C
  N18      1.0000 0.34980  0.70450  0.61180  Biso   1.000  N
  H23      1.0000 0.38091  0.71678  0.68050  Biso   1.000  H
  H24      1.0000 0.32188  0.66061  0.66320  Biso   1.000  H
  C26      1.0000 0.56178  0.74590  0.62532  Biso   1.000  C
  C27      1.0000 0.33987  0.33922  0.35312  Biso   1.000  C
  C28      1.0000 0.45432  0.32809  0.31259  Biso   1.000  C
  N19      1.0000 0.54286  0.35219  0.32852  Biso   1.000  N
  H25      1.0000 0.61923  0.28322  0.31949  Biso   1.000  H
  H26      1.0000 0.67826  0.33939  0.33680  Biso   1.000  H
  C29      1.0000 0.28117  0.68419  0.57691  Biso   1.000  C
  C30      1.0000 0.39337  0.75329  0.59489  Biso   1.000  C
  N20      1.0000 0.48056  0.74199  0.58713  Biso   1.000  N
  H27      1.0000 0.61206  0.75908  0.61191  Biso   1.000  H
  H28      1.0000 0.55299  0.77489  0.64892  Biso   1.000  H
  N21      1.0000 0.32803  0.38169  0.31741  Biso   1.000  N
  O9       1.0000 0.28916  0.33028  0.37902  Biso   1.000  O
  H29      1.0000 0.45146  0.29829  0.28709  Biso   1.000  H
  C31      1.0000 0.39633  0.38220  0.29252  Biso   1.000  C
  C32      1.0000 0.54687  0.40771  0.32122  Biso   1.000  C
  N22      1.0000 0.27449  0.71360  0.53551  Biso   1.000  N
  O10      1.0000 0.22875  0.64399  0.58252  Biso   1.000  O
  C33      1.0000 0.33459  0.76312  0.54332  Biso   1.000  C
  H30      1.0000 0.39421  0.78790  0.61572  Biso   1.000  H
  C34      1.0000 0.48467  0.75341  0.54040  Biso   1.000  C
  C35      1.0000 0.24435  0.41561  0.30331  Biso   1.000  C
  H31      1.0000 0.36935  0.37821  0.25709  Biso   1.000  H
  N23      1.0000 0.45868  0.42888  0.30202  Biso   1.000  N
  O11      1.0000 0.61507  0.43919  0.32910  Biso   1.000  O
  C36      1.0000 0.19429  0.70991  0.49530  Biso   1.000  C
  N24      1.0000 0.39706  0.76509  0.51512  Biso   1.000  N
  H32      1.0000 0.29960  0.79979  0.54102  Biso   1.000  H
  O12      1.0000 0.55160  0.75161  0.52422  Biso   1.000  O
  H33      1.0000 0.21877  0.41132  0.26821  Biso   1.000  H
  H34      1.0000 0.19977  0.39960  0.31960  Biso   1.000  H
  N25      1.0000 0.25573  0.47479  0.31442  Biso   1.000  N
  C37      1.0000 0.44207  0.48411  0.27781  Biso   1.000  C
  N26      1.0000 0.21036  0.69162  0.45099  Biso   1.000  N
  H35      1.0000 0.16508  0.74822  0.49041  Biso   1.000  H
  H36      1.0000 0.15080  0.68299  0.50411  Biso   1.000  H
  C38      1.0000 0.37465  0.78541  0.46502  Biso   1.000  C
  C39      1.0000 0.20473  0.50142  0.34082  Biso   1.000  C
  C40      1.0000 0.28835  0.51572  0.28522  Biso   1.000  C
  H37      1.0000 0.50095  0.50339  0.28072  Biso   1.000  H
  H38      1.0000 0.41442  0.47728  0.24321  Biso   1.000  H
  N27      1.0000 0.38375  0.52212  0.29612  Biso   1.000  N
  C41      1.0000 0.17688  0.64189  0.42772  Biso   1.000  C
  C42      1.0000 0.23795  0.73100  0.41671  Biso   1.000  C
  N28      1.0000 0.33396  0.74452  0.42959  Biso   1.000  N
  H39      1.0000 0.43106  0.79932  0.45761  Biso   1.000  H
  H40      1.0000 0.33330  0.81869  0.46232  Biso   1.000  H
  N29      1.0000 0.21083  0.56029  0.33572  Biso   1.000  N
  O13      1.0000 0.16003  0.47758  0.36571  Biso   1.000  O
  H41      1.0000 0.26255  0.50812  0.25022  Biso   1.000  H
  C43      1.0000 0.25511  0.57421  0.30029  Biso   1.000  C
  C44      1.0000 0.41358  0.57631  0.31241  Biso   1.000  C
  N30      1.0000 0.18746  0.63940  0.38262  Biso   1.000  N
  O14      1.0000 0.13977  0.60470  0.44732  Biso   1.000  O
  C45      1.0000 0.22484  0.69200  0.37172  Biso   1.000  C
  H42      1.0000 0.19938  0.76630  0.41020  Biso   1.000  H
  C46      1.0000 0.37555  0.72022  0.40010  Biso   1.000  C
  C47      1.0000 0.14365  0.59778  0.35000  Biso   1.000  C
  H43      1.0000 0.21381  0.59422  0.27241  Biso   1.000  H
  N31      1.0000 0.33837  0.60560  0.31820  Biso   1.000  N
  O15      1.0000 0.48973  0.59280  0.32032  Biso   1.000  O
  N32      1.0000 0.31712  0.68681  0.36611  Biso   1.000  N
  H44      1.0000 0.18416  0.71068  0.34280  Biso   1.000  H
  O16      1.0000 0.45813  0.72709  0.40071  Biso   1.000  O
  H45      1.0000 0.10534  0.61681  0.32111  Biso   1.000  H
  H46      1.0000 0.10393  0.57429  0.36481  Biso   1.000  H
  C48      1.0000 0.33793  0.66748  0.32280  Biso   1.000  C
  H47      1.0000 0.39816  0.68251  0.32190  Biso   1.000  H
  H48      1.0000 0.29275  0.68372  0.29489  Biso   1.000  H
  N33      1.0000 0.91318  0.19170  0.85001  Biso   1.000  N
  C49      1.0000 0.83992  0.16078  0.85314  Biso   1.000  C
  C50      1.0000 0.83990  0.16078  0.85310  Biso   1.000  C
  C51      1.0000 0.83992  0.16083  0.85314  Biso   1.000  C
  C52      1.0000 0.83990  0.16083  0.85310  Biso   1.000  C
  C53      1.0000 0.83998  0.16078  0.85314  Biso   1.000  C
  C54      1.0000 0.83998  0.16083  0.85314  Biso   1.000  C
  C55      1.0000 0.95445  0.17191  0.81264  Biso   1.000  C
  C56      1.0000 0.95443  0.17191  0.81260  Biso   1.000  C
  C57      1.0000 0.93842  0.24590  0.87472  Biso   1.000  C
  N34      1.0000 0.82814  0.11831  0.81742  Biso   1.000  N
  N35      1.0000 0.91325  0.19170  0.85001  Biso   1.000  N
  O17      1.0000 0.78927  0.16972  0.87903  Biso   1.000  O
  O18      1.0000 0.78920  0.16972  0.87903  Biso   1.000  O
  C58      1.0000 0.89645  0.11780  0.79253  Biso   1.000  C
  C59      1.0000 0.89643  0.11780  0.79250  Biso   1.000  C
  H49      1.0000 0.95152  0.20171  0.78714  Biso   1.000  H
  H50      1.0000 0.95150  0.20171  0.78710  Biso   1.000  H
  N36      1.0000 0.04291  0.14781  0.82854  Biso   1.000  N
  N37      1.0000 0.04289  0.14781  0.82850  Biso   1.000  N
  N38      1.0000 0.04298  0.14781  0.82854  Biso   1.000  N
  H51      1.0000 0.88814  0.25908  0.88813  Biso   1.000  H
  H52      1.0000 0.94722  0.27489  0.85112  Biso   1.000  H
  H53      1.0000 0.88814  0.25913  0.88813  Biso   1.000  H
  N39      1.0000 0.01964  0.24199  0.91291  Biso   1.000  N
  C60      1.0000 0.74440  0.08439  0.80332  Biso   1.000  C
  C61      1.0000 0.74446  0.08439  0.80332  Biso   1.000  C
  H54      1.0000 0.86939  0.12179  0.75711  Biso   1.000  H
  N40      1.0000 0.95872  0.07112  0.80203  Biso   1.000  N
  H55      1.0000 0.86946  0.12179  0.75711  Biso   1.000  H
  C62      1.0000 0.04692  0.09229  0.82123  Biso   1.000  C
  C63      1.0000 0.04690  0.09229  0.82120  Biso   1.000  C
  C64      1.0000 0.04698  0.09229  0.82123  Biso   1.000  C
  C65      1.0000 0.12716  0.18380  0.84192  Biso   1.000  C
  C66      1.0000 0.12710  0.18380  0.84192  Biso   1.000  C
  C67      1.0000 0.01553  0.25341  0.95964  Biso   1.000  C
  C68      1.0000 0.10681  0.25329  0.90511  Biso   1.000  C
  C69      1.0000 0.01552  0.25341  0.95960  Biso   1.000  C
  C70      1.0000 0.01560  0.25341  0.95964  Biso   1.000  C
  C71      1.0000 0.10688  0.25329  0.90511  Biso   1.000  C
  H56      1.0000 0.71881  0.08868  0.76822  Biso   1.000  H
  H57      1.0000 0.69981  0.10040  0.81962  Biso   1.000  H
  N41      1.0000 0.75584  0.02521  0.81444  Biso   1.000  N
  N42      1.0000 0.75582  0.02521  0.81440  Biso   1.000  N
  H58      1.0000 0.71881  0.08872  0.76822  Biso   1.000  H
  C72      1.0000 0.94211  0.01589  0.77782  Biso   1.000  C
  O19      1.0000 0.11511  0.06081  0.82911  Biso   1.000  O
  H59      1.0000 0.11934  0.21678  0.81951  Biso   1.000  H
  H60      1.0000 0.17831  0.16061  0.83681  Biso   1.000  H
  N43      1.0000 0.15047  0.20450  0.88824  Biso   1.000  N
  N44      1.0000 0.15039  0.20450  0.88821  Biso   1.000  N
  H61      1.0000 0.11934  0.21683  0.81951  Biso   1.000  H
  H62      1.0000 0.17837  0.16061  0.83681  Biso   1.000  H
  N45      1.0000 0.15045  0.20450  0.88821  Biso   1.000  N
  O20      1.0000 0.94867  0.25161  0.97582  Biso   1.000  O
  N46      1.0000 0.10314  0.26509  0.98492  Biso   1.000  N
  C73      1.0000 0.16568  0.26312  0.95672  Biso   1.000  C
  H63      1.0000 0.10605  0.28790  0.88432  Biso   1.000  H
  C74      1.0000 0.16561  0.26312  0.95672  Biso   1.000  C
  C75      1.0000 0.70484  0.99858  0.84084  Biso   1.000  C
  C76      1.0000 0.78846  0.98428  0.78523  Biso   1.000  C
  C77      1.0000 0.70482  0.99858  0.84080  Biso   1.000  C
  C78      1.0000 0.78839  0.98428  0.78523  Biso   1.000  C
  C79      1.0000 0.78846  0.98433  0.78523  Biso   1.000  C
  C80      1.0000 0.78839  0.98433  0.78523  Biso   1.000  C
  N47      1.0000 0.88386  0.97788  0.79613  Biso   1.000  N
  N48      1.0000 0.88379  0.97788  0.79613  Biso   1.000  N
  H64      1.0000 0.91453  0.02272  0.74322  Biso   1.000  H
  H65      1.0000 0.00107  0.99661  0.78074  Biso   1.000  H
  H66      1.0000 0.00098  0.99661  0.78070  Biso   1.000  H
  C81      1.0000 0.21903  0.18419  0.92313  Biso   1.000  C
  C82      1.0000 0.12541  0.28541  0.03499  Biso   1.000  C
  H67      1.0000 0.20067  0.29979  0.95902  Biso   1.000  H
  N49      1.0000 0.22578  0.21360  0.96453  Biso   1.000  N
  H68      1.0000 0.20061  0.29979  0.95902  Biso   1.000  H
  N50      1.0000 0.22571  0.21360  0.96453  Biso   1.000  N
  O21      1.0000 0.66014  0.02242  0.86573  Biso   1.000  O
  N51      1.0000 0.71094  0.93971  0.83573  Biso   1.000  N
  H69      1.0000 0.76260  0.99188  0.75024  Biso   1.000  H
  C83      1.0000 0.75524  0.92579  0.80034  Biso   1.000  C
  H70      1.0000 0.76258  0.99188  0.75020  Biso   1.000  H
  C84      1.0000 0.75523  0.92579  0.80030  Biso   1.000  C
  H71      1.0000 0.76266  0.99188  0.75024  Biso   1.000  H
  C85      1.0000 0.91363  0.92369  0.81242  Biso   1.000  C
  O22      1.0000 0.27145  0.14399  0.91752  Biso   1.000  O
  N52      1.0000 0.16615  0.24448  0.07038  Biso   1.000  N
  H72      1.0000 0.06900  0.29932  0.04240  Biso   1.000  H
  H73      1.0000 0.16682  0.31869  0.03768  Biso   1.000  H
  N53      1.0000 0.16608  0.24448  0.07038  Biso   1.000  N
  N54      1.0000 0.16615  0.24452  0.07038  Biso   1.000  N
  N55      1.0000 0.16608  0.24452  0.07038  Biso   1.000  N
  H74      1.0000 0.06906  0.29932  0.04240  Biso   1.000  H
  C86      1.0000 0.30583  0.20991  0.00470  Biso   1.000  C
  C87      1.0000 0.30582  0.20991  0.00467  Biso   1.000  C
  C88      1.0000 0.64376  0.90222  0.85001  Biso   1.000  C
  C89      1.0000 0.64369  0.90222  0.85001  Biso   1.000  C
  H75      1.0000 0.71393  0.90578  0.77243  Biso   1.000  H
  N56      1.0000 0.83842  0.89440  0.81821  Biso   1.000  N
  H76      1.0000 0.71393  0.90582  0.77243  Biso   1.000  H
  O23      1.0000 0.98984  0.90720  0.82034  Biso   1.000  O
  O24      1.0000 0.98982  0.90720  0.82030  Biso   1.000  O
  C90      1.0000 0.12450  0.22022  0.09991  Biso   1.000  C
  C91      1.0000 0.26211  0.23100  0.08329  Biso   1.000  C
  C92      1.0000 0.12448  0.22022  0.09987  Biso   1.000  C
  C93      1.0000 0.12457  0.22022  0.09991  Biso   1.000  C
  H77      1.0000 0.34947  0.18299  0.99593  Biso   1.000  H
  N57      1.0000 0.28968  0.19162  0.04898  Biso   1.000  N
  H78      1.0000 0.33504  0.24822  0.00959  Biso   1.000  H
  H79      1.0000 0.33497  0.24822  0.00959  Biso   1.000  H
  N58      1.0000 0.28975  0.19162  0.04898  Biso   1.000  N
  H80      1.0000 0.60545  0.88319  0.82113  Biso   1.000  H
  H81      1.0000 0.60404  0.92571  0.86483  Biso   1.000  H
  N59      1.0000 0.68751  0.86060  0.88263  Biso   1.000  N
  H82      1.0000 0.60539  0.88319  0.82113  Biso   1.000  H
  N60      1.0000 0.68757  0.86060  0.88263  Biso   1.000  N
  C94      1.0000 0.83804  0.83252  0.82282  Biso   1.000  C
  C95      1.0000 0.83798  0.83252  0.82282  Biso   1.000  C
  N61      1.0000 0.18293  0.18681  0.13390  Biso   1.000  N
  O25      1.0000 0.04192  0.22709  0.09930  Biso   1.000  O
  C96      1.0000 0.27521  0.19200  0.12829  Biso   1.000  C
  H83      1.0000 0.30074  0.26630  0.08980  Biso   1.000  H
  C97      1.0000 0.32324  0.14189  0.07228  Biso   1.000  C
  C98      1.0000 0.32317  0.14189  0.07228  Biso   1.000  C
  C99      1.0000 0.67693  0.85811  0.92773  Biso   1.000  C
  C100     1.0000 0.72495  0.80800  0.87173  Biso   1.000  C
  H84      1.0000 0.89820  0.81749  0.82192  Biso   1.000  H
  H85      1.0000 0.79279  0.81628  0.79491  Biso   1.000  H
  N62      1.0000 0.81723  0.81319  0.86612  Biso   1.000  N
  H86      1.0000 0.89827  0.81749  0.82192  Biso   1.000  H
  H87      1.0000 0.79286  0.81628  0.79491  Biso   1.000  H
  C101     1.0000 0.16212  0.16748  0.17720  Biso   1.000  C
  C102     1.0000 0.16212  0.16753  0.17720  Biso   1.000  C
  H88      1.0000 0.31596  0.21068  0.15720  Biso   1.000  H
  N63      1.0000 0.31266  0.13940  0.11739  Biso   1.000  N
  H89      1.0000 0.31589  0.21068  0.15720  Biso   1.000  H
  N64      1.0000 0.31259  0.13940  0.11739  Biso   1.000  N
  O26      1.0000 0.36029  0.10470  0.05268  Biso   1.000  O
  O27      1.0000 0.36035  0.10470  0.05268  Biso   1.000  O
  N65      1.0000 0.71049  0.80838  0.95104  Biso   1.000  N
  O28      1.0000 0.63988  0.89530  0.94734  Biso   1.000  O
  N66      1.0000 0.71040  0.80838  0.95100  Biso   1.000  N
  O29      1.0000 0.63980  0.89530  0.94730  Biso   1.000  O
  H90      1.0000 0.68421  0.78932  0.84282  Biso   1.000  H
  C103     1.0000 0.73806  0.76900  0.91673  Biso   1.000  C
  H91      1.0000 0.68427  0.78932  0.84282  Biso   1.000  H
  C104     1.0000 0.87567  0.77978  0.90011  Biso   1.000  C
  C105     1.0000 0.87560  0.77978  0.90011  Biso   1.000  C
  C106     1.0000 0.87567  0.77982  0.90011  Biso   1.000  C
  C107     1.0000 0.87560  0.77982  0.90011  Biso   1.000  C
  H92      1.0000 0.10196  0.18251  0.17810  Biso   1.000  H
  H93      1.0000 0.20737  0.18372  0.20511  Biso   1.000  H
  N67      1.0000 0.16175  0.10560  0.18180  Biso   1.000  N
  H94      1.0000 0.10190  0.18251  0.17810  Biso   1.000  H
  H95      1.0000 0.20729  0.18372  0.20507  Biso   1.000  H
  N68      1.0000 0.16173  0.10560  0.18177  Biso   1.000  N
  H96      1.0000 0.20736  0.18372  0.20507  Biso   1.000  H
  C108     1.0000 0.35641  0.09778  0.15001  Biso   1.000  C
  C109     1.0000 0.35639  0.09778  0.14997  Biso   1.000  C
  C110     1.0000 0.35648  0.09778  0.15001  Biso   1.000  C
  C111     1.0000 0.69433  0.79009  0.99532  Biso   1.000  C
  H97      1.0000 0.69943  0.73370  0.91022  Biso   1.000  H
  N69      1.0000 0.83402  0.75552  0.92964  Biso   1.000  N
  N70      1.0000 0.83400  0.75552  0.92960  Biso   1.000  N
  N71      1.0000 0.83409  0.75552  0.92964  Biso   1.000  N
  O30      1.0000 0.95825  0.77291  0.90072  Biso   1.000  O
  C112     1.0000 0.08654  0.07631  0.18759  Biso   1.000  C
  C113     1.0000 0.24492  0.07421  0.19968  Biso   1.000  C
  H98      1.0000 0.39471  0.11681  0.17889  Biso   1.000  H
  H99      1.0000 0.39612  0.07429  0.13519  Biso   1.000  H
  N72      1.0000 0.28923  0.06029  0.16429  Biso   1.000  N
  H100     1.0000 0.39478  0.11681  0.17889  Biso   1.000  H
  H101     1.0000 0.66513  0.75178  0.99042  Biso   1.000  H
  H102     1.0000 0.66519  0.75178  0.99042  Biso   1.000  H
  H103     1.0000 0.65070  0.81701  0.00409  Biso   1.000  H
  N73      1.0000 0.77439  0.78640  0.03549  Biso   1.000  N
  C114     1.0000 0.87476  0.71459  0.96503  Biso   1.000  C
  N74      1.0000 0.11631  0.02212  0.20389  Biso   1.000  N
  O31      1.0000 0.01033  0.09280  0.17968  Biso   1.000  O
  N75      1.0000 0.11637  0.02212  0.20389  Biso   1.000  N
  C115     1.0000 0.21171  0.01572  0.21479  Biso   1.000  C
  H104     1.0000 0.28624  0.09422  0.22759  Biso   1.000  H
  C116     1.0000 0.21177  0.01572  0.21479  Biso   1.000  C
  C117     1.0000 0.29533  0.00142  0.15918  Biso   1.000  C
  C118     1.0000 0.78113  0.81581  0.07689  Biso   1.000  C
  C119     1.0000 0.83449  0.73688  0.04330  Biso   1.000  C
  C120     1.0000 0.78107  0.81581  0.07689  Biso   1.000  C
  C121     1.0000 0.83449  0.73692  0.04330  Biso   1.000  C
  C122     1.0000 0.83455  0.73688  0.04330  Biso   1.000  C
  C123     1.0000 0.83455  0.73692  0.04330  Biso   1.000  C
  H105     1.0000 0.93117  0.70068  0.95762  Biso   1.000  H
  H106     1.0000 0.83335  0.68131  0.96233  Biso   1.000  H
  H107     1.0000 0.93111  0.70068  0.95762  Biso   1.000  H
  H108     1.0000 0.93117  0.70072  0.95762  Biso   1.000  H
  H109     1.0000 0.93111  0.70072  0.95762  Biso   1.000  H
  N76      1.0000 0.89703  0.73491  0.01510  Biso   1.000  N
  C124     1.0000 0.05805  0.98411  0.22220  Biso   1.000  C
  N77      1.0000 0.24433  0.97479  0.18558  Biso   1.000  N
  H110     1.0000 0.23757  0.00812  0.24978  Biso   1.000  H
  H111     1.0000 0.23750  0.00812  0.24978  Biso   1.000  H
  O32      1.0000 0.34003  0.97758  0.13429  Biso   1.000  O
  N78      1.0000 0.84970  0.79550  0.11178  Biso   1.000  N
  O33      1.0000 0.72872  0.85601  0.08250  Biso   1.000  O
  H112     1.0000 0.79949  0.70021  0.04099  Biso   1.000  H
  C125     1.0000 0.89335  0.74671  0.09491  Biso   1.000  C
  C126     1.0000 0.89327  0.74671  0.09487  Biso   1.000  C
  C127     1.0000 0.89334  0.74671  0.09487  Biso   1.000  C
  C128     1.0000 0.98463  0.74659  0.04038  Biso   1.000  C
  C129     1.0000 0.98457  0.74659  0.04038  Biso   1.000  C
  N79      1.0000 0.04145  0.92888  0.19799  Biso   1.000  N
  H113     1.0000 0.99910  0.00339  0.21928  Biso   1.000  H
  H114     1.0000 0.99917  0.00339  0.21928  Biso   1.000  H
  H115     1.0000 0.08563  0.97728  0.25680  Biso   1.000  H
  H116     1.0000 0.08563  0.97733  0.25680  Biso   1.000  H
  C130     1.0000 0.25577  0.91561  0.19669  Biso   1.000  C
  C131     1.0000 0.25570  0.91561  0.19669  Biso   1.000  C
  C132     1.0000 0.87301  0.81620  0.15810  Biso   1.000  C
  C133     1.0000 0.87307  0.81620  0.15810  Biso   1.000  C
  H117     1.0000 0.89411  0.71210  0.11570  Biso   1.000  H
  N80      1.0000 0.98053  0.75801  0.08710  Biso   1.000  N
  N81      1.0000 0.98051  0.75801  0.08707  Biso   1.000  N
  O34      1.0000 0.05150  0.74839  0.02420  Biso   1.000  O
  C134     1.0000 0.95325  0.90771  0.17878  Biso   1.000  C
  C135     1.0000 0.95318  0.90771  0.17878  Biso   1.000  C
  C136     1.0000 0.10372  0.88220  0.20748  Biso   1.000  C
  N82      1.0000 0.17203  0.88169  0.18260  Biso   1.000  N
  H118     1.0000 0.28135  0.91132  0.23180  Biso   1.000  H
  H119     1.0000 0.30035  0.89960  0.18040  Biso   1.000  H
  H120     1.0000 0.88083  0.78322  0.18051  Biso   1.000  H
  H121     1.0000 0.82186  0.83939  0.16321  Biso   1.000  H
  N83      1.0000 0.95726  0.85219  0.17148  Biso   1.000  N
  H122     1.0000 0.88081  0.78322  0.18047  Biso   1.000  H
  H123     1.0000 0.82178  0.83939  0.16317  Biso   1.000  H
  N84      1.0000 0.95719  0.85219  0.17148  Biso   1.000  N
  H124     1.0000 0.82184  0.83939  0.16317  Biso   1.000  H
  C137     1.0000 0.06174  0.75410  0.12530  Biso   1.000  C
  O35      1.0000 0.88505  0.93919  0.17091  Biso   1.000  O
  O36      1.0000 0.88497  0.93919  0.17087  Biso   1.000  O
  O37      1.0000 0.88504  0.93919  0.17087  Biso   1.000  O
  C138     1.0000 0.04572  0.82809  0.18738  Biso   1.000  C
  H125     1.0000 0.13077  0.87821  0.24291  Biso   1.000  H
  H126     1.0000 0.13069  0.87821  0.24288  Biso   1.000  H
  H127     1.0000 0.13076  0.87821  0.24288  Biso   1.000  H
  C139     1.0000 0.16025  0.83922  0.14688  Biso   1.000  C
  C140     1.0000 0.16018  0.83922  0.14688  Biso   1.000  C
  H128     1.0000 0.11203  0.74092  0.11188  Biso   1.000  H
  H129     1.0000 0.05295  0.72511  0.14889  Biso   1.000  H
  N85      1.0000 0.08692  0.80830  0.15001  Biso   1.000  N
  H130     1.0000 0.05288  0.72511  0.14889  Biso   1.000  H
  N86      1.0000 0.08690  0.80830  0.14997  Biso   1.000  N
  H131     1.0000 0.04865  0.79829  0.21288  Biso   1.000  H
  H132     1.0000 0.04858  0.79829  0.21288  Biso   1.000  H
  O38      1.0000 0.21090  0.83028  0.12098  Biso   1.000  O
  O39      1.0000 0.21096  0.83028  0.12098  Biso   1.000  O
  N87      1.0000 0.91318  0.19170  0.85001  Biso   1.000  N
  C141     1.0000 0.83990  0.16078  0.85310  Biso   1.000  C
  C142     1.0000 0.83990  0.16083  0.85310  Biso   1.000  C
  C143     1.0000 0.83992  0.16078  0.85314  Biso   1.000  C
  C144     1.0000 0.83992  0.16083  0.85314  Biso   1.000  C
  C145     1.0000 0.83998  0.16078  0.85314  Biso   1.000  C
  C146     1.0000 0.83998  0.16083  0.85314  Biso   1.000  C
  C147     1.0000 0.95445  0.17191  0.81264  Biso   1.000  C
  C148     1.0000 0.95443  0.17191  0.81260  Biso   1.000  C
  C149     1.0000 0.93842  0.24590  0.87472  Biso   1.000  C
  N88      1.0000 0.82814  0.11831  0.81742  Biso   1.000  N
  N89      1.0000 0.91325  0.19170  0.85001  Biso   1.000  N
  O40      1.0000 0.78927  0.16972  0.87903  Biso   1.000  O
  O41      1.0000 0.78920  0.16972  0.87903  Biso   1.000  O
  C150     1.0000 0.89645  0.11780  0.79253  Biso   1.000  C
  C151     1.0000 0.89643  0.11780  0.79250  Biso   1.000  C
  H133     1.0000 0.95152  0.20171  0.78714  Biso   1.000  H
  H134     1.0000 0.95150  0.20171  0.78710  Biso   1.000  H
  N90      1.0000 0.04291  0.14781  0.82854  Biso   1.000  N
  N91      1.0000 0.04289  0.14781  0.82850  Biso   1.000  N
  N92      1.0000 0.04298  0.14781  0.82854  Biso   1.000  N
  H135     1.0000 0.88814  0.25908  0.88813  Biso   1.000  H
  H136     1.0000 0.94722  0.27489  0.85112  Biso   1.000  H
  H137     1.0000 0.88814  0.25913  0.88813  Biso   1.000  H
  N93      1.0000 0.01964  0.24199  0.91291  Biso   1.000  N
  C152     1.0000 0.74440  0.08439  0.80332  Biso   1.000  C
  C153     1.0000 0.74446  0.08439  0.80332  Biso   1.000  C
  H138     1.0000 0.86939  0.12179  0.75711  Biso   1.000  H
  N94      1.0000 0.95872  0.07112  0.80203  Biso   1.000  N
  H139     1.0000 0.86946  0.12179  0.75711  Biso   1.000  H
  C154     1.0000 0.04692  0.09229  0.82123  Biso   1.000  C
  C155     1.0000 0.04690  0.09229  0.82120  Biso   1.000  C
  C156     1.0000 0.04698  0.09229  0.82123  Biso   1.000  C
  C157     1.0000 0.12716  0.18380  0.84192  Biso   1.000  C
  C158     1.0000 0.12710  0.18380  0.84192  Biso   1.000  C
  C159     1.0000 0.01553  0.25341  0.95964  Biso   1.000  C
  C160     1.0000 0.10681  0.25329  0.90511  Biso   1.000  C
  C161     1.0000 0.01552  0.25341  0.95960  Biso   1.000  C
  C162     1.0000 0.01560  0.25341  0.95964  Biso   1.000  C
  C163     1.0000 0.10688  0.25329  0.90511  Biso   1.000  C
  H140     1.0000 0.71881  0.08868  0.76822  Biso   1.000  H
  H141     1.0000 0.69981  0.10040  0.81962  Biso   1.000  H
  N95      1.0000 0.75584  0.02521  0.81444  Biso   1.000  N
  H142     1.0000 0.71881  0.08872  0.76822  Biso   1.000  H
  N96      1.0000 0.75582  0.02521  0.81440  Biso   1.000  N
  C164     1.0000 0.94211  0.01589  0.77782  Biso   1.000  C
  O42      1.0000 0.11511  0.06081  0.82911  Biso   1.000  O
  H143     1.0000 0.11934  0.21678  0.81951  Biso   1.000  H
  H144     1.0000 0.17831  0.16061  0.83681  Biso   1.000  H
  N97      1.0000 0.15047  0.20450  0.88824  Biso   1.000  N
  N98      1.0000 0.15039  0.20450  0.88821  Biso   1.000  N
  H145     1.0000 0.11934  0.21683  0.81951  Biso   1.000  H
  H146     1.0000 0.17837  0.16061  0.83681  Biso   1.000  H
  N99      1.0000 0.15045  0.20450  0.88821  Biso   1.000  N
  O43      1.0000 0.94867  0.25161  0.97582  Biso   1.000  O
  N100     1.0000 0.10314  0.26509  0.98492  Biso   1.000  N
  C165     1.0000 0.16568  0.26312  0.95672  Biso   1.000  C
  H147     1.0000 0.10605  0.28790  0.88432  Biso   1.000  H
  C166     1.0000 0.16561  0.26312  0.95672  Biso   1.000  C
  C167     1.0000 0.70484  0.99858  0.84084  Biso   1.000  C
  C168     1.0000 0.78846  0.98428  0.78523  Biso   1.000  C
  C169     1.0000 0.70482  0.99858  0.84080  Biso   1.000  C
  C170     1.0000 0.78839  0.98428  0.78523  Biso   1.000  C
  C171     1.0000 0.78846  0.98433  0.78523  Biso   1.000  C
  C172     1.0000 0.78839  0.98433  0.78523  Biso   1.000  C
  N101     1.0000 0.88386  0.97788  0.79613  Biso   1.000  N
  N102     1.0000 0.88379  0.97788  0.79613  Biso   1.000  N
  H148     1.0000 0.91453  0.02272  0.74322  Biso   1.000  H
  H149     1.0000 0.00107  0.99661  0.78074  Biso   1.000  H
  H150     1.0000 0.00098  0.99661  0.78070  Biso   1.000  H
  C173     1.0000 0.21903  0.18419  0.92313  Biso   1.000  C
  C174     1.0000 0.12541  0.28541  0.03499  Biso   1.000  C
  N103     1.0000 0.22578  0.21360  0.96453  Biso   1.000  N
  N104     1.0000 0.22571  0.21360  0.96453  Biso   1.000  N
  H151     1.0000 0.20067  0.29979  0.95902  Biso   1.000  H
  H152     1.0000 0.20061  0.29979  0.95902  Biso   1.000  H
  O44      1.0000 0.66014  0.02242  0.86573  Biso   1.000  O
  N105     1.0000 0.71094  0.93971  0.83573  Biso   1.000  N
  H153     1.0000 0.76260  0.99188  0.75024  Biso   1.000  H
  C175     1.0000 0.75524  0.92579  0.80034  Biso   1.000  C
  H154     1.0000 0.76258  0.99188  0.75020  Biso   1.000  H
  C176     1.0000 0.75523  0.92579  0.80030  Biso   1.000  C
  H155     1.0000 0.76266  0.99188  0.75024  Biso   1.000  H
  C177     1.0000 0.91363  0.92369  0.81242  Biso   1.000  C
  O45      1.0000 0.27145  0.14399  0.91752  Biso   1.000  O
  N106     1.0000 0.16615  0.24448  0.07038  Biso   1.000  N
  H156     1.0000 0.06900  0.29932  0.04240  Biso   1.000  H
  H157     1.0000 0.16682  0.31869  0.03768  Biso   1.000  H
  N107     1.0000 0.16608  0.24448  0.07038  Biso   1.000  N
  N108     1.0000 0.16615  0.24452  0.07038  Biso   1.000  N
  N109     1.0000 0.16608  0.24452  0.07038  Biso   1.000  N
  H158     1.0000 0.06906  0.29932  0.04240  Biso   1.000  H
  C178     1.0000 0.30583  0.20991  0.00470  Biso   1.000  C
  C179     1.0000 0.30582  0.20991  0.00467  Biso   1.000  C
  C180     1.0000 0.64376  0.90222  0.85001  Biso   1.000  C
  C181     1.0000 0.64369  0.90222  0.85001  Biso   1.000  C
  H159     1.0000 0.71393  0.90578  0.77243  Biso   1.000  H
  N110     1.0000 0.83842  0.89440  0.81821  Biso   1.000  N
  H160     1.0000 0.71393  0.90582  0.77243  Biso   1.000  H
  O46      1.0000 0.98984  0.90720  0.82034  Biso   1.000  O
  O47      1.0000 0.98982  0.90720  0.82030  Biso   1.000  O
  C182     1.0000 0.12450  0.22022  0.09991  Biso   1.000  C
  C183     1.0000 0.26211  0.23100  0.08329  Biso   1.000  C
  C184     1.0000 0.12448  0.22022  0.09987  Biso   1.000  C
  C185     1.0000 0.12457  0.22022  0.09991  Biso   1.000  C
  H161     1.0000 0.34947  0.18299  0.99593  Biso   1.000  H
  N111     1.0000 0.28968  0.19162  0.04898  Biso   1.000  N
  H162     1.0000 0.33504  0.24822  0.00959  Biso   1.000  H
  H163     1.0000 0.33497  0.24822  0.00959  Biso   1.000  H
  N112     1.0000 0.28975  0.19162  0.04898  Biso   1.000  N
  H164     1.0000 0.60545  0.88319  0.82113  Biso   1.000  H
  H165     1.0000 0.60404  0.92571  0.86483  Biso   1.000  H
  N113     1.0000 0.68751  0.86060  0.88263  Biso   1.000  N
  H166     1.0000 0.60539  0.88319  0.82113  Biso   1.000  H
  N114     1.0000 0.68757  0.86060  0.88263  Biso   1.000  N
  C186     1.0000 0.83804  0.83252  0.82282  Biso   1.000  C
  C187     1.0000 0.83798  0.83252  0.82282  Biso   1.000  C
  N115     1.0000 0.18293  0.18681  0.13390  Biso   1.000  N
  O48      1.0000 0.04192  0.22709  0.09930  Biso   1.000  O
  C188     1.0000 0.27521  0.19200  0.12829  Biso   1.000  C
  H167     1.0000 0.30074  0.26630  0.08980  Biso   1.000  H
  C189     1.0000 0.32324  0.14189  0.07228  Biso   1.000  C
  C190     1.0000 0.32317  0.14189  0.07228  Biso   1.000  C
  C191     1.0000 0.67693  0.85811  0.92773  Biso   1.000  C
  C192     1.0000 0.72495  0.80800  0.87173  Biso   1.000  C
  H168     1.0000 0.89820  0.81749  0.82192  Biso   1.000  H
  H169     1.0000 0.79279  0.81628  0.79491  Biso   1.000  H
  N116     1.0000 0.81723  0.81319  0.86612  Biso   1.000  N
  H170     1.0000 0.89827  0.81749  0.82192  Biso   1.000  H
  H171     1.0000 0.79286  0.81628  0.79491  Biso   1.000  H
  C193     1.0000 0.16212  0.16748  0.17720  Biso   1.000  C
  C194     1.0000 0.16212  0.16753  0.17720  Biso   1.000  C
  N117     1.0000 0.31266  0.13940  0.11739  Biso   1.000  N
  N118     1.0000 0.31259  0.13940  0.11739  Biso   1.000  N
  H172     1.0000 0.31596  0.21068  0.15720  Biso   1.000  H
  H173     1.0000 0.31589  0.21068  0.15720  Biso   1.000  H
  O49      1.0000 0.36029  0.10470  0.05268  Biso   1.000  O
  O50      1.0000 0.36035  0.10470  0.05268  Biso   1.000  O
  N119     1.0000 0.71049  0.80838  0.95104  Biso   1.000  N
  O51      1.0000 0.63988  0.89530  0.94734  Biso   1.000  O
  N120     1.0000 0.71040  0.80838  0.95100  Biso   1.000  N
  O52      1.0000 0.63980  0.89530  0.94730  Biso   1.000  O
  H174     1.0000 0.68421  0.78932  0.84282  Biso   1.000  H
  C195     1.0000 0.73806  0.76900  0.91673  Biso   1.000  C
  H175     1.0000 0.68427  0.78932  0.84282  Biso   1.000  H
  C196     1.0000 0.87567  0.77978  0.90011  Biso   1.000  C
  C197     1.0000 0.87560  0.77978  0.90011  Biso   1.000  C
  C198     1.0000 0.87567  0.77982  0.90011  Biso   1.000  C
  C199     1.0000 0.87560  0.77982  0.90011  Biso   1.000  C
  H176     1.0000 0.10196  0.18251  0.17810  Biso   1.000  H
  H177     1.0000 0.20737  0.18372  0.20511  Biso   1.000  H
  N121     1.0000 0.16175  0.10560  0.18180  Biso   1.000  N
  H178     1.0000 0.10190  0.18251  0.17810  Biso   1.000  H
  H179     1.0000 0.20729  0.18372  0.20507  Biso   1.000  H
  N122     1.0000 0.16173  0.10560  0.18177  Biso   1.000  N
  H180     1.0000 0.20736  0.18372  0.20507  Biso   1.000  H
  C200     1.0000 0.35641  0.09778  0.15001  Biso   1.000  C
  C201     1.0000 0.35639  0.09778  0.14997  Biso   1.000  C
  C202     1.0000 0.35648  0.09778  0.15001  Biso   1.000  C
  C203     1.0000 0.69433  0.79009  0.99532  Biso   1.000  C
  H181     1.0000 0.69943  0.73370  0.91022  Biso   1.000  H
  N123     1.0000 0.83402  0.75552  0.92964  Biso   1.000  N
  N124     1.0000 0.83400  0.75552  0.92960  Biso   1.000  N
  N125     1.0000 0.83409  0.75552  0.92964  Biso   1.000  N
  O53      1.0000 0.95825  0.77291  0.90072  Biso   1.000  O
  C204     1.0000 0.08654  0.07631  0.18759  Biso   1.000  C
  C205     1.0000 0.24492  0.07421  0.19968  Biso   1.000  C
  H182     1.0000 0.39471  0.11681  0.17889  Biso   1.000  H
  H183     1.0000 0.39612  0.07429  0.13519  Biso   1.000  H
  N126     1.0000 0.28923  0.06029  0.16429  Biso   1.000  N
  H184     1.0000 0.39478  0.11681  0.17889  Biso   1.000  H
  H185     1.0000 0.66513  0.75178  0.99042  Biso   1.000  H
  H186     1.0000 0.66519  0.75178  0.99042  Biso   1.000  H
  H187     1.0000 0.65070  0.81701  0.00409  Biso   1.000  H
  N127     1.0000 0.77439  0.78640  0.03549  Biso   1.000  N
  C206     1.0000 0.87476  0.71459  0.96503  Biso   1.000  C
  N128     1.0000 0.11631  0.02212  0.20389  Biso   1.000  N
  O54      1.0000 0.01033  0.09280  0.17968  Biso   1.000  O
  N129     1.0000 0.11637  0.02212  0.20389  Biso   1.000  N
  C207     1.0000 0.21171  0.01572  0.21479  Biso   1.000  C
  H188     1.0000 0.28624  0.09422  0.22759  Biso   1.000  H
  C208     1.0000 0.21177  0.01572  0.21479  Biso   1.000  C
  C209     1.0000 0.29533  0.00142  0.15918  Biso   1.000  C
  C210     1.0000 0.78113  0.81581  0.07689  Biso   1.000  C
  C211     1.0000 0.83449  0.73688  0.04330  Biso   1.000  C
  C212     1.0000 0.78107  0.81581  0.07689  Biso   1.000  C
  C213     1.0000 0.83449  0.73692  0.04330  Biso   1.000  C
  C214     1.0000 0.83455  0.73688  0.04330  Biso   1.000  C
  C215     1.0000 0.83455  0.73692  0.04330  Biso   1.000  C
  H189     1.0000 0.93117  0.70068  0.95762  Biso   1.000  H
  H190     1.0000 0.83335  0.68131  0.96233  Biso   1.000  H
  H191     1.0000 0.93111  0.70068  0.95762  Biso   1.000  H
  H192     1.0000 0.93117  0.70072  0.95762  Biso   1.000  H
  H193     1.0000 0.93111  0.70072  0.95762  Biso   1.000  H
  N130     1.0000 0.89703  0.73491  0.01510  Biso   1.000  N
  C216     1.0000 0.05805  0.98411  0.22220  Biso   1.000  C
  N131     1.0000 0.24433  0.97479  0.18558  Biso   1.000  N
  H194     1.0000 0.23757  0.00812  0.24978  Biso   1.000  H
  H195     1.0000 0.23750  0.00812  0.24978  Biso   1.000  H
  O55      1.0000 0.34003  0.97758  0.13429  Biso   1.000  O
  N132     1.0000 0.84970  0.79550  0.11178  Biso   1.000  N
  O56      1.0000 0.72872  0.85601  0.08250  Biso   1.000  O
  H196     1.0000 0.79949  0.70021  0.04099  Biso   1.000  H
  C217     1.0000 0.89335  0.74671  0.09491  Biso   1.000  C
  C218     1.0000 0.89327  0.74671  0.09487  Biso   1.000  C
  C219     1.0000 0.89334  0.74671  0.09487  Biso   1.000  C
  C220     1.0000 0.98463  0.74659  0.04038  Biso   1.000  C
  C221     1.0000 0.98457  0.74659  0.04038  Biso   1.000  C
  N133     1.0000 0.04145  0.92888  0.19799  Biso   1.000  N
  H197     1.0000 0.99910  0.00339  0.21928  Biso   1.000  H
  H198     1.0000 0.99917  0.00339  0.21928  Biso   1.000  H
  H199     1.0000 0.08563  0.97728  0.25680  Biso   1.000  H
  H200     1.0000 0.08563  0.97733  0.25680  Biso   1.000  H
  C222     1.0000 0.25577  0.91561  0.19669  Biso   1.000  C
  C223     1.0000 0.25570  0.91561  0.19669  Biso   1.000  C
  C224     1.0000 0.87301  0.81620  0.15810  Biso   1.000  C
  C225     1.0000 0.87307  0.81620  0.15810  Biso   1.000  C
  H201     1.0000 0.89411  0.71210  0.11570  Biso   1.000  H
  N134     1.0000 0.98053  0.75801  0.08710  Biso   1.000  N
  N135     1.0000 0.98051  0.75801  0.08707  Biso   1.000  N
  O57      1.0000 0.05150  0.74839  0.02420  Biso   1.000  O
  C226     1.0000 0.95325  0.90771  0.17878  Biso   1.000  C
  C227     1.0000 0.95318  0.90771  0.17878  Biso   1.000  C
  C228     1.0000 0.10372  0.88220  0.20748  Biso   1.000  C
  N136     1.0000 0.17203  0.88169  0.18260  Biso   1.000  N
  H202     1.0000 0.28135  0.91132  0.23180  Biso   1.000  H
  H203     1.0000 0.30035  0.89960  0.18040  Biso   1.000  H
  H204     1.0000 0.88083  0.78322  0.18051  Biso   1.000  H
  H205     1.0000 0.82186  0.83939  0.16321  Biso   1.000  H
  N137     1.0000 0.95726  0.85219  0.17148  Biso   1.000  N
  H206     1.0000 0.88081  0.78322  0.18047  Biso   1.000  H
  H207     1.0000 0.82178  0.83939  0.16317  Biso   1.000  H
  N138     1.0000 0.95719  0.85219  0.17148  Biso   1.000  N
  H208     1.0000 0.82184  0.83939  0.16317  Biso   1.000  H
  C229     1.0000 0.06174  0.75410  0.12530  Biso   1.000  C
  O58      1.0000 0.88505  0.93919  0.17091  Biso   1.000  O
  O59      1.0000 0.88497  0.93919  0.17087  Biso   1.000  O
  O60      1.0000 0.88504  0.93919  0.17087  Biso   1.000  O
  C230     1.0000 0.04572  0.82809  0.18738  Biso   1.000  C
  H209     1.0000 0.13077  0.87821  0.24291  Biso   1.000  H
  H210     1.0000 0.13069  0.87821  0.24288  Biso   1.000  H
  H211     1.0000 0.13076  0.87821  0.24288  Biso   1.000  H
  C231     1.0000 0.16025  0.83922  0.14688  Biso   1.000  C
  C232     1.0000 0.16018  0.83922  0.14688  Biso   1.000  C
  H212     1.0000 0.11203  0.74092  0.11188  Biso   1.000  H
  H213     1.0000 0.05295  0.72511  0.14889  Biso   1.000  H
  N139     1.0000 0.08692  0.80830  0.15001  Biso   1.000  N
  H214     1.0000 0.05288  0.72511  0.14889  Biso   1.000  H
  N140     1.0000 0.08690  0.80830  0.14997  Biso   1.000  N
  H215     1.0000 0.04865  0.79829  0.21288  Biso   1.000  H
  H216     1.0000 0.04858  0.79829  0.21288  Biso   1.000  H
  O61      1.0000 0.21090  0.83028  0.12098  Biso   1.000  O
  O62      1.0000 0.21096  0.83028  0.12098  Biso   1.000  O
  N141     1.0000 0.91318  0.19170  0.85001  Biso   1.000  N
  C233     1.0000 0.83992  0.16078  0.85314  Biso   1.000  C
  C234     1.0000 0.83990  0.16078  0.85310  Biso   1.000  C
  C235     1.0000 0.83992  0.16083  0.85314  Biso   1.000  C
  C236     1.0000 0.83990  0.16083  0.85310  Biso   1.000  C
  C237     1.0000 0.83998  0.16078  0.85314  Biso   1.000  C
  C238     1.0000 0.83998  0.16083  0.85314  Biso   1.000  C
  C239     1.0000 0.95445  0.17191  0.81264  Biso   1.000  C
  C240     1.0000 0.95443  0.17191  0.81260  Biso   1.000  C
  C241     1.0000 0.93842  0.24590  0.87472  Biso   1.000  C
  N142     1.0000 0.82814  0.11831  0.81742  Biso   1.000  N
  N143     1.0000 0.91325  0.19170  0.85001  Biso   1.000  N
  O63      1.0000 0.78927  0.16972  0.87903  Biso   1.000  O
  O64      1.0000 0.78920  0.16972  0.87903  Biso   1.000  O
  C242     1.0000 0.89645  0.11780  0.79253  Biso   1.000  C
  C243     1.0000 0.89643  0.11780  0.79250  Biso   1.000  C
  H217     1.0000 0.95152  0.20171  0.78714  Biso   1.000  H
  H218     1.0000 0.95150  0.20171  0.78710  Biso   1.000  H
  N144     1.0000 0.04291  0.14781  0.82854  Biso   1.000  N
  N145     1.0000 0.04289  0.14781  0.82850  Biso   1.000  N
  N146     1.0000 0.04298  0.14781  0.82854  Biso   1.000  N
  H219     1.0000 0.94722  0.27489  0.85112  Biso   1.000  H
  H220     1.0000 0.88814  0.25908  0.88813  Biso   1.000  H
  H221     1.0000 0.88814  0.25913  0.88813  Biso   1.000  H
  N147     1.0000 0.01964  0.24199  0.91291  Biso   1.000  N
  C244     1.0000 0.74440  0.08439  0.80332  Biso   1.000  C
  C245     1.0000 0.74446  0.08439  0.80332  Biso   1.000  C
  H222     1.0000 0.86939  0.12179  0.75711  Biso   1.000  H
  N148     1.0000 0.95872  0.07112  0.80203  Biso   1.000  N
  H223     1.0000 0.86946  0.12179  0.75711  Biso   1.000  H
  C246     1.0000 0.04692  0.09229  0.82123  Biso   1.000  C
  C247     1.0000 0.04690  0.09229  0.82120  Biso   1.000  C
  C248     1.0000 0.04698  0.09229  0.82123  Biso   1.000  C
  C249     1.0000 0.12716  0.18380  0.84192  Biso   1.000  C
  C250     1.0000 0.12710  0.18380  0.84192  Biso   1.000  C
  C251     1.0000 0.01553  0.25341  0.95964  Biso   1.000  C
  C252     1.0000 0.10681  0.25329  0.90511  Biso   1.000  C
  C253     1.0000 0.01552  0.25341  0.95960  Biso   1.000  C
  C254     1.0000 0.01560  0.25341  0.95964  Biso   1.000  C
  C255     1.0000 0.10688  0.25329  0.90511  Biso   1.000  C
  H224     1.0000 0.69981  0.10040  0.81962  Biso   1.000  H
  H225     1.0000 0.71881  0.08868  0.76822  Biso   1.000  H
  N149     1.0000 0.75584  0.02521  0.81444  Biso   1.000  N
  N150     1.0000 0.75582  0.02521  0.81440  Biso   1.000  N
  H226     1.0000 0.71881  0.08872  0.76822  Biso   1.000  H
  C256     1.0000 0.94211  0.01589  0.77782  Biso   1.000  C
  O65      1.0000 0.11511  0.06081  0.82911  Biso   1.000  O
  H227     1.0000 0.11934  0.21678  0.81951  Biso   1.000  H
  H228     1.0000 0.17831  0.16061  0.83681  Biso   1.000  H
  N151     1.0000 0.15047  0.20450  0.88824  Biso   1.000  N
  N152     1.0000 0.15039  0.20450  0.88821  Biso   1.000  N
  H229     1.0000 0.11934  0.21683  0.81951  Biso   1.000  H
  H230     1.0000 0.17837  0.16061  0.83681  Biso   1.000  H
  N153     1.0000 0.15045  0.20450  0.88821  Biso   1.000  N
  O66      1.0000 0.94867  0.25161  0.97582  Biso   1.000  O
  N154     1.0000 0.10314  0.26509  0.98492  Biso   1.000  N
  C257     1.0000 0.16568  0.26312  0.95672  Biso   1.000  C
  H231     1.0000 0.10605  0.28790  0.88432  Biso   1.000  H
  C258     1.0000 0.16561  0.26312  0.95672  Biso   1.000  C
  C259     1.0000 0.70484  0.99858  0.84084  Biso   1.000  C
  C260     1.0000 0.78846  0.98428  0.78523  Biso   1.000  C
  C261     1.0000 0.70482  0.99858  0.84080  Biso   1.000  C
  C262     1.0000 0.78839  0.98428  0.78523  Biso   1.000  C
  C263     1.0000 0.78846  0.98433  0.78523  Biso   1.000  C
  C264     1.0000 0.78839  0.98433  0.78523  Biso   1.000  C
  N155     1.0000 0.88386  0.97788  0.79613  Biso   1.000  N
  N156     1.0000 0.88379  0.97788  0.79613  Biso   1.000  N
  H232     1.0000 0.91453  0.02272  0.74322  Biso   1.000  H
  H233     1.0000 0.00107  0.99661  0.78074  Biso   1.000  H
  H234     1.0000 0.00098  0.99661  0.78070  Biso   1.000  H
  C265     1.0000 0.21903  0.18419  0.92313  Biso   1.000  C
  C266     1.0000 0.12541  0.28541  0.03499  Biso   1.000  C
  N157     1.0000 0.22578  0.21360  0.96453  Biso   1.000  N
  N158     1.0000 0.22571  0.21360  0.96453  Biso   1.000  N
  H235     1.0000 0.20067  0.29979  0.95902  Biso   1.000  H
  H236     1.0000 0.20061  0.29979  0.95902  Biso   1.000  H
  O67      1.0000 0.66014  0.02242  0.86573  Biso   1.000  O
  N159     1.0000 0.71094  0.93971  0.83573  Biso   1.000  N
  H237     1.0000 0.76260  0.99188  0.75024  Biso   1.000  H
  C267     1.0000 0.75524  0.92579  0.80034  Biso   1.000  C
  H238     1.0000 0.76258  0.99188  0.75020  Biso   1.000  H
  C268     1.0000 0.75523  0.92579  0.80030  Biso   1.000  C
  H239     1.0000 0.76266  0.99188  0.75024  Biso   1.000  H
  C269     1.0000 0.91363  0.92369  0.81242  Biso   1.000  C
  O68      1.0000 0.27145  0.14399  0.91752  Biso   1.000  O
  N160     1.0000 0.16615  0.24448  0.07038  Biso   1.000  N
  H240     1.0000 0.06900  0.29932  0.04240  Biso   1.000  H
  H241     1.0000 0.16682  0.31869  0.03768  Biso   1.000  H
  N161     1.0000 0.16608  0.24448  0.07038  Biso   1.000  N
  N162     1.0000 0.16615  0.24452  0.07038  Biso   1.000  N
  N163     1.0000 0.16608  0.24452  0.07038  Biso   1.000  N
  H242     1.0000 0.06906  0.29932  0.04240  Biso   1.000  H
  C270     1.0000 0.30583  0.20991  0.00470  Biso   1.000  C
  C271     1.0000 0.30582  0.20991  0.00467  Biso   1.000  C
  C272     1.0000 0.64376  0.90222  0.85001  Biso   1.000  C
  C273     1.0000 0.64369  0.90222  0.85001  Biso   1.000  C
  H243     1.0000 0.71393  0.90578  0.77243  Biso   1.000  H
  N164     1.0000 0.83842  0.89440  0.81821  Biso   1.000  N
  H244     1.0000 0.71393  0.90582  0.77243  Biso   1.000  H
  O69      1.0000 0.98984  0.90720  0.82034  Biso   1.000  O
  O70      1.0000 0.98982  0.90720  0.82030  Biso   1.000  O
  C274     1.0000 0.12450  0.22022  0.09991  Biso   1.000  C
  C275     1.0000 0.26211  0.23100  0.08329  Biso   1.000  C
  C276     1.0000 0.12448  0.22022  0.09987  Biso   1.000  C
  C277     1.0000 0.12457  0.22022  0.09991  Biso   1.000  C
  H245     1.0000 0.34947  0.18299  0.99593  Biso   1.000  H
  N165     1.0000 0.28968  0.19162  0.04898  Biso   1.000  N
  H246     1.0000 0.33504  0.24822  0.00959  Biso   1.000  H
  H247     1.0000 0.33497  0.24822  0.00959  Biso   1.000  H
  N166     1.0000 0.28975  0.19162  0.04898  Biso   1.000  N
  H248     1.0000 0.60545  0.88319  0.82113  Biso   1.000  H
  H249     1.0000 0.60404  0.92571  0.86483  Biso   1.000  H
  N167     1.0000 0.68751  0.86060  0.88263  Biso   1.000  N
  H250     1.0000 0.60539  0.88319  0.82113  Biso   1.000  H
  N168     1.0000 0.68757  0.86060  0.88263  Biso   1.000  N
  C278     1.0000 0.83804  0.83252  0.82282  Biso   1.000  C
  C279     1.0000 0.83798  0.83252  0.82282  Biso   1.000  C
  N169     1.0000 0.18293  0.18681  0.13390  Biso   1.000  N
  O71      1.0000 0.04192  0.22709  0.09930  Biso   1.000  O
  C280     1.0000 0.27521  0.19200  0.12829  Biso   1.000  C
  H251     1.0000 0.30074  0.26630  0.08980  Biso   1.000  H
  C281     1.0000 0.32324  0.14189  0.07228  Biso   1.000  C
  C282     1.0000 0.32317  0.14189  0.07228  Biso   1.000  C
  C283     1.0000 0.67693  0.85811  0.92773  Biso   1.000  C
  C284     1.0000 0.72495  0.80800  0.87173  Biso   1.000  C
  H252     1.0000 0.89820  0.81749  0.82192  Biso   1.000  H
  H253     1.0000 0.79279  0.81628  0.79491  Biso   1.000  H
  N170     1.0000 0.81723  0.81319  0.86612  Biso   1.000  N
  H254     1.0000 0.89827  0.81749  0.82192  Biso   1.000  H
  H255     1.0000 0.79286  0.81628  0.79491  Biso   1.000  H
  C285     1.0000 0.16212  0.16748  0.17720  Biso   1.000  C
  C286     1.0000 0.16212  0.16753  0.17720  Biso   1.000  C
  N171     1.0000 0.31266  0.13940  0.11739  Biso   1.000  N
  N172     1.0000 0.31259  0.13940  0.11739  Biso   1.000  N
  H256     1.0000 0.31596  0.21068  0.15720  Biso   1.000  H
  H257     1.0000 0.31589  0.21068  0.15720  Biso   1.000  H
  O72      1.0000 0.36029  0.10470  0.05268  Biso   1.000  O
  O73      1.0000 0.36035  0.10470  0.05268  Biso   1.000  O
  N173     1.0000 0.71049  0.80838  0.95104  Biso   1.000  N
  O74      1.0000 0.63988  0.89530  0.94734  Biso   1.000  O
  N174     1.0000 0.71040  0.80838  0.95100  Biso   1.000  N
  O75      1.0000 0.63980  0.89530  0.94730  Biso   1.000  O
  H258     1.0000 0.68421  0.78932  0.84282  Biso   1.000  H
  C287     1.0000 0.73806  0.76900  0.91673  Biso   1.000  C
  H259     1.0000 0.68427  0.78932  0.84282  Biso   1.000  H
  C288     1.0000 0.87567  0.77978  0.90011  Biso   1.000  C
  C289     1.0000 0.87560  0.77978  0.90011  Biso   1.000  C
  C290     1.0000 0.87567  0.77982  0.90011  Biso   1.000  C
  C291     1.0000 0.87560  0.77982  0.90011  Biso   1.000  C
  H260     1.0000 0.10196  0.18251  0.17810  Biso   1.000  H
  H261     1.0000 0.20737  0.18372  0.20511  Biso   1.000  H
  N175     1.0000 0.16175  0.10560  0.18180  Biso   1.000  N
  H262     1.0000 0.10190  0.18251  0.17810  Biso   1.000  H
  H263     1.0000 0.20729  0.18372  0.20507  Biso   1.000  H
  N176     1.0000 0.16173  0.10560  0.18177  Biso   1.000  N
  H264     1.0000 0.20736  0.18372  0.20507  Biso   1.000  H
  C292     1.0000 0.35641  0.09778  0.15001  Biso   1.000  C
  C293     1.0000 0.35639  0.09778  0.14997  Biso   1.000  C
  C294     1.0000 0.35648  0.09778  0.15001  Biso   1.000  C
  C295     1.0000 0.69433  0.79009  0.99532  Biso   1.000  C
  H265     1.0000 0.69943  0.73370  0.91022  Biso   1.000  H
  N177     1.0000 0.83402  0.75552  0.92964  Biso   1.000  N
  N178     1.0000 0.83400  0.75552  0.92960  Biso   1.000  N
  N179     1.0000 0.83409  0.75552  0.92964  Biso   1.000  N
  O76      1.0000 0.95825  0.77291  0.90072  Biso   1.000  O
  C296     1.0000 0.08654  0.07631  0.18759  Biso   1.000  C
  C297     1.0000 0.24492  0.07421  0.19968  Biso   1.000  C
  H266     1.0000 0.39471  0.11681  0.17889  Biso   1.000  H
  H267     1.0000 0.39612  0.07429  0.13519  Biso   1.000  H
  N180     1.0000 0.28923  0.06029  0.16429  Biso   1.000  N
  H268     1.0000 0.39478  0.11681  0.17889  Biso   1.000  H
  H269     1.0000 0.66513  0.75178  0.99042  Biso   1.000  H
  H270     1.0000 0.66519  0.75178  0.99042  Biso   1.000  H
  H271     1.0000 0.65070  0.81701  0.00409  Biso   1.000  H
  N181     1.0000 0.77439  0.78640  0.03549  Biso   1.000  N
  C298     1.0000 0.87476  0.71459  0.96503  Biso   1.000  C
  N182     1.0000 0.11631  0.02212  0.20389  Biso   1.000  N
  O77      1.0000 0.01033  0.09280  0.17968  Biso   1.000  O
  N183     1.0000 0.11637  0.02212  0.20389  Biso   1.000  N
  C299     1.0000 0.21171  0.01572  0.21479  Biso   1.000  C
  H272     1.0000 0.28624  0.09422  0.22759  Biso   1.000  H
  C300     1.0000 0.21177  0.01572  0.21479  Biso   1.000  C
  C301     1.0000 0.29533  0.00142  0.15918  Biso   1.000  C
  C302     1.0000 0.78113  0.81581  0.07689  Biso   1.000  C
  C303     1.0000 0.83449  0.73688  0.04330  Biso   1.000  C
  C304     1.0000 0.78107  0.81581  0.07689  Biso   1.000  C
  C305     1.0000 0.83449  0.73692  0.04330  Biso   1.000  C
  C306     1.0000 0.83455  0.73688  0.04330  Biso   1.000  C
  C307     1.0000 0.83455  0.73692  0.04330  Biso   1.000  C
  H273     1.0000 0.93117  0.70068  0.95762  Biso   1.000  H
  H274     1.0000 0.83335  0.68131  0.96233  Biso   1.000  H
  H275     1.0000 0.93111  0.70068  0.95762  Biso   1.000  H
  H276     1.0000 0.93117  0.70072  0.95762  Biso   1.000  H
  H277     1.0000 0.93111  0.70072  0.95762  Biso   1.000  H
  N184     1.0000 0.89703  0.73491  0.01510  Biso   1.000  N
  C308     1.0000 0.05805  0.98411  0.22220  Biso   1.000  C
  N185     1.0000 0.24433  0.97479  0.18558  Biso   1.000  N
  H278     1.0000 0.23757  0.00812  0.24978  Biso   1.000  H
  H279     1.0000 0.23750  0.00812  0.24978  Biso   1.000  H
  O78      1.0000 0.34003  0.97758  0.13429  Biso   1.000  O
  N186     1.0000 0.84970  0.79550  0.11178  Biso   1.000  N
  O79      1.0000 0.72872  0.85601  0.08250  Biso   1.000  O
  H280     1.0000 0.79949  0.70021  0.04099  Biso   1.000  H
  C309     1.0000 0.89335  0.74671  0.09491  Biso   1.000  C
  C310     1.0000 0.89327  0.74671  0.09487  Biso   1.000  C
  C311     1.0000 0.89334  0.74671  0.09487  Biso   1.000  C
  C312     1.0000 0.98463  0.74659  0.04038  Biso   1.000  C
  C313     1.0000 0.98457  0.74659  0.04038  Biso   1.000  C
  N187     1.0000 0.04145  0.92888  0.19799  Biso   1.000  N
  H281     1.0000 0.99910  0.00339  0.21928  Biso   1.000  H
  H282     1.0000 0.99917  0.00339  0.21928  Biso   1.000  H
  H283     1.0000 0.08563  0.97728  0.25680  Biso   1.000  H
  H284     1.0000 0.08563  0.97733  0.25680  Biso   1.000  H
  C314     1.0000 0.25577  0.91561  0.19669  Biso   1.000  C
  C315     1.0000 0.25570  0.91561  0.19669  Biso   1.000  C
  C316     1.0000 0.87301  0.81620  0.15810  Biso   1.000  C
  C317     1.0000 0.87307  0.81620  0.15810  Biso   1.000  C
  H285     1.0000 0.89411  0.71210  0.11570  Biso   1.000  H
  N188     1.0000 0.98053  0.75801  0.08710  Biso   1.000  N
  N189     1.0000 0.98051  0.75801  0.08707  Biso   1.000  N
  O80      1.0000 0.05150  0.74839  0.02420  Biso   1.000  O
  C318     1.0000 0.95325  0.90771  0.17878  Biso   1.000  C
  C319     1.0000 0.95318  0.90771  0.17878  Biso   1.000  C
  C320     1.0000 0.10372  0.88220  0.20748  Biso   1.000  C
  N190     1.0000 0.17203  0.88169  0.18260  Biso   1.000  N
  H286     1.0000 0.28135  0.91132  0.23180  Biso   1.000  H
  H287     1.0000 0.30035  0.89960  0.18040  Biso   1.000  H
  H288     1.0000 0.88083  0.78322  0.18051  Biso   1.000  H
  H289     1.0000 0.82186  0.83939  0.16321  Biso   1.000  H
  N191     1.0000 0.95726  0.85219  0.17148  Biso   1.000  N
  H290     1.0000 0.88081  0.78322  0.18047  Biso   1.000  H
  H291     1.0000 0.82178  0.83939  0.16317  Biso   1.000  H
  N192     1.0000 0.95719  0.85219  0.17148  Biso   1.000  N
  H292     1.0000 0.82184  0.83939  0.16317  Biso   1.000  H
  C321     1.0000 0.06174  0.75410  0.12530  Biso   1.000  C
  O81      1.0000 0.88505  0.93919  0.17091  Biso   1.000  O
  O82      1.0000 0.88497  0.93919  0.17087  Biso   1.000  O
  O83      1.0000 0.88504  0.93919  0.17087  Biso   1.000  O
  C322     1.0000 0.04572  0.82809  0.18738  Biso   1.000  C
  H293     1.0000 0.13077  0.87821  0.24291  Biso   1.000  H
  H294     1.0000 0.13069  0.87821  0.24288  Biso   1.000  H
  H295     1.0000 0.13076  0.87821  0.24288  Biso   1.000  H
  C323     1.0000 0.16025  0.83922  0.14688  Biso   1.000  C
  C324     1.0000 0.16018  0.83922  0.14688  Biso   1.000  C
  H296     1.0000 0.11203  0.74092  0.11188  Biso   1.000  H
  H297     1.0000 0.05295  0.72511  0.14889  Biso   1.000  H
  N193     1.0000 0.08692  0.80830  0.15001  Biso   1.000  N
  H298     1.0000 0.05288  0.72511  0.14889  Biso   1.000  H
  N194     1.0000 0.08690  0.80830  0.14997  Biso   1.000  N
  H299     1.0000 0.04865  0.79829  0.21288  Biso   1.000  H
  H300     1.0000 0.04858  0.79829  0.21288  Biso   1.000  H
  O84      1.0000 0.21090  0.83028  0.12098  Biso   1.000  O
  O85      1.0000 0.21096  0.83028  0.12098  Biso   1.000  O
  N195     1.0000 0.91318  0.19170  0.85001  Biso   1.000  N
  C325     1.0000 0.83992  0.16078  0.85314  Biso   1.000  C
  C326     1.0000 0.83990  0.16078  0.85310  Biso   1.000  C
  C327     1.0000 0.83992  0.16083  0.85314  Biso   1.000  C
  C328     1.0000 0.83990  0.16083  0.85310  Biso   1.000  C
  C329     1.0000 0.83998  0.16078  0.85314  Biso   1.000  C
  C330     1.0000 0.83998  0.16083  0.85314  Biso   1.000  C
  C331     1.0000 0.95445  0.17191  0.81264  Biso   1.000  C
  C332     1.0000 0.95443  0.17191  0.81260  Biso   1.000  C
  C333     1.0000 0.93842  0.24590  0.87472  Biso   1.000  C
  N196     1.0000 0.82814  0.11831  0.81742  Biso   1.000  N
  N197     1.0000 0.91325  0.19170  0.85001  Biso   1.000  N
  O86      1.0000 0.78927  0.16972  0.87903  Biso   1.000  O
  O87      1.0000 0.78920  0.16972  0.87903  Biso   1.000  O
  C334     1.0000 0.89645  0.11780  0.79253  Biso   1.000  C
  C335     1.0000 0.89643  0.11780  0.79250  Biso   1.000  C
  H301     1.0000 0.95152  0.20171  0.78714  Biso   1.000  H
  H302     1.0000 0.95150  0.20171  0.78710  Biso   1.000  H
  N198     1.0000 0.04291  0.14781  0.82854  Biso   1.000  N
  N199     1.0000 0.04289  0.14781  0.82850  Biso   1.000  N
  N200     1.0000 0.04298  0.14781  0.82854  Biso   1.000  N
  H303     1.0000 0.94722  0.27489  0.85112  Biso   1.000  H
  H304     1.0000 0.88814  0.25908  0.88813  Biso   1.000  H
  H305     1.0000 0.88814  0.25913  0.88813  Biso   1.000  H
  N201     1.0000 0.01964  0.24199  0.91291  Biso   1.000  N
  C336     1.0000 0.74440  0.08439  0.80332  Biso   1.000  C
  C337     1.0000 0.74446  0.08439  0.80332  Biso   1.000  C
  H306     1.0000 0.86939  0.12179  0.75711  Biso   1.000  H
  N202     1.0000 0.95872  0.07112  0.80203  Biso   1.000  N
  H307     1.0000 0.86946  0.12179  0.75711  Biso   1.000  H
  C338     1.0000 0.04692  0.09229  0.82123  Biso   1.000  C
  C339     1.0000 0.04690  0.09229  0.82120  Biso   1.000  C
  C340     1.0000 0.04698  0.09229  0.82123  Biso   1.000  C
  C341     1.0000 0.12716  0.18380  0.84192  Biso   1.000  C
  C342     1.0000 0.12710  0.18380  0.84192  Biso   1.000  C
  C343     1.0000 0.01553  0.25341  0.95964  Biso   1.000  C
  C344     1.0000 0.10681  0.25329  0.90511  Biso   1.000  C
  C345     1.0000 0.01552  0.25341  0.95960  Biso   1.000  C
  C346     1.0000 0.01560  0.25341  0.95964  Biso   1.000  C
  C347     1.0000 0.10688  0.25329  0.90511  Biso   1.000  C
  H308     1.0000 0.69981  0.10040  0.81962  Biso   1.000  H
  H309     1.0000 0.71881  0.08868  0.76822  Biso   1.000  H
  N203     1.0000 0.75584  0.02521  0.81444  Biso   1.000  N
  H310     1.0000 0.71881  0.08872  0.76822  Biso   1.000  H
  N204     1.0000 0.75582  0.02521  0.81440  Biso   1.000  N
  C348     1.0000 0.94211  0.01589  0.77782  Biso   1.000  C
  O88      1.0000 0.11511  0.06081  0.82911  Biso   1.000  O
  H311     1.0000 0.11934  0.21678  0.81951  Biso   1.000  H
  H312     1.0000 0.17831  0.16061  0.83681  Biso   1.000  H
  N205     1.0000 0.15047  0.20450  0.88824  Biso   1.000  N
  N206     1.0000 0.15039  0.20450  0.88821  Biso   1.000  N
  H313     1.0000 0.11934  0.21683  0.81951  Biso   1.000  H
  H314     1.0000 0.17837  0.16061  0.83681  Biso   1.000  H
  N207     1.0000 0.15045  0.20450  0.88821  Biso   1.000  N
  O89      1.0000 0.94867  0.25161  0.97582  Biso   1.000  O
  N208     1.0000 0.10314  0.26509  0.98492  Biso   1.000  N
  C349     1.0000 0.16568  0.26312  0.95672  Biso   1.000  C
  H315     1.0000 0.10605  0.28790  0.88432  Biso   1.000  H
  C350     1.0000 0.16561  0.26312  0.95672  Biso   1.000  C
  C351     1.0000 0.70484  0.99858  0.84084  Biso   1.000  C
  C352     1.0000 0.78846  0.98428  0.78523  Biso   1.000  C
  C353     1.0000 0.70482  0.99858  0.84080  Biso   1.000  C
  C354     1.0000 0.78839  0.98428  0.78523  Biso   1.000  C
  C355     1.0000 0.78846  0.98433  0.78523  Biso   1.000  C
  C356     1.0000 0.78839  0.98433  0.78523  Biso   1.000  C
  N209     1.0000 0.88386  0.97788  0.79613  Biso   1.000  N
  N210     1.0000 0.88379  0.97788  0.79613  Biso   1.000  N
  H316     1.0000 0.91453  0.02272  0.74322  Biso   1.000  H
  H317     1.0000 0.00107  0.99661  0.78074  Biso   1.000  H
  H318     1.0000 0.00098  0.99661  0.78070  Biso   1.000  H
  C357     1.0000 0.21903  0.18419  0.92313  Biso   1.000  C
  C358     1.0000 0.12541  0.28541  0.03499  Biso   1.000  C
  N211     1.0000 0.22578  0.21360  0.96453  Biso   1.000  N
  N212     1.0000 0.22571  0.21360  0.96453  Biso   1.000  N
  H319     1.0000 0.20067  0.29979  0.95902  Biso   1.000  H
  H320     1.0000 0.20061  0.29979  0.95902  Biso   1.000  H
  O90      1.0000 0.66014  0.02242  0.86573  Biso   1.000  O
  N213     1.0000 0.71094  0.93971  0.83573  Biso   1.000  N
  H321     1.0000 0.76260  0.99188  0.75024  Biso   1.000  H
  C359     1.0000 0.75524  0.92579  0.80034  Biso   1.000  C
  H322     1.0000 0.76258  0.99188  0.75020  Biso   1.000  H
  C360     1.0000 0.75523  0.92579  0.80030  Biso   1.000  C
  H323     1.0000 0.76266  0.99188  0.75024  Biso   1.000  H
  C361     1.0000 0.91363  0.92369  0.81242  Biso   1.000  C
  O91      1.0000 0.27145  0.14399  0.91752  Biso   1.000  O
  N214     1.0000 0.16615  0.24448  0.07038  Biso   1.000  N
  H324     1.0000 0.06900  0.29932  0.04240  Biso   1.000  H
  H325     1.0000 0.16682  0.31869  0.03768  Biso   1.000  H
  N215     1.0000 0.16608  0.24448  0.07038  Biso   1.000  N
  N216     1.0000 0.16615  0.24452  0.07038  Biso   1.000  N
  N217     1.0000 0.16608  0.24452  0.07038  Biso   1.000  N
  H326     1.0000 0.06906  0.29932  0.04240  Biso   1.000  H
  C362     1.0000 0.30583  0.20991  0.00470  Biso   1.000  C
  C363     1.0000 0.30582  0.20991  0.00467  Biso   1.000  C
  C364     1.0000 0.64376  0.90222  0.85001  Biso   1.000  C
  C365     1.0000 0.64369  0.90222  0.85001  Biso   1.000  C
  H327     1.0000 0.71393  0.90578  0.77243  Biso   1.000  H
  N218     1.0000 0.83842  0.89440  0.81821  Biso   1.000  N
  H328     1.0000 0.71393  0.90582  0.77243  Biso   1.000  H
  O92      1.0000 0.98984  0.90720  0.82034  Biso   1.000  O
  O93      1.0000 0.98982  0.90720  0.82030  Biso   1.000  O
  C366     1.0000 0.12450  0.22022  0.09991  Biso   1.000  C
  C367     1.0000 0.26211  0.23100  0.08329  Biso   1.000  C
  C368     1.0000 0.12448  0.22022  0.09987  Biso   1.000  C
  C369     1.0000 0.12457  0.22022  0.09991  Biso   1.000  C
  H329     1.0000 0.34947  0.18299  0.99593  Biso   1.000  H
  N219     1.0000 0.28968  0.19162  0.04898  Biso   1.000  N
  H330     1.0000 0.33504  0.24822  0.00959  Biso   1.000  H
  H331     1.0000 0.33497  0.24822  0.00959  Biso   1.000  H
  N220     1.0000 0.28975  0.19162  0.04898  Biso   1.000  N
  H332     1.0000 0.60545  0.88319  0.82113  Biso   1.000  H
  H333     1.0000 0.60404  0.92571  0.86483  Biso   1.000  H
  N221     1.0000 0.68751  0.86060  0.88263  Biso   1.000  N
  H334     1.0000 0.60539  0.88319  0.82113  Biso   1.000  H
  N222     1.0000 0.68757  0.86060  0.88263  Biso   1.000  N
  C370     1.0000 0.83804  0.83252  0.82282  Biso   1.000  C
  C371     1.0000 0.83798  0.83252  0.82282  Biso   1.000  C
  N223     1.0000 0.18293  0.18681  0.13390  Biso   1.000  N
  O94      1.0000 0.04192  0.22709  0.09930  Biso   1.000  O
  C372     1.0000 0.27521  0.19200  0.12829  Biso   1.000  C
  H335     1.0000 0.30074  0.26630  0.08980  Biso   1.000  H
  C373     1.0000 0.32324  0.14189  0.07228  Biso   1.000  C
  C374     1.0000 0.32317  0.14189  0.07228  Biso   1.000  C
  C375     1.0000 0.67693  0.85811  0.92773  Biso   1.000  C
  C376     1.0000 0.72495  0.80800  0.87173  Biso   1.000  C
  H336     1.0000 0.89820  0.81749  0.82192  Biso   1.000  H
  H337     1.0000 0.79279  0.81628  0.79491  Biso   1.000  H
  N224     1.0000 0.81723  0.81319  0.86612  Biso   1.000  N
  H338     1.0000 0.89827  0.81749  0.82192  Biso   1.000  H
  H339     1.0000 0.79286  0.81628  0.79491  Biso   1.000  H
  C377     1.0000 0.16212  0.16748  0.17720  Biso   1.000  C
  C378     1.0000 0.16212  0.16753  0.17720  Biso   1.000  C
  N225     1.0000 0.31266  0.13940  0.11739  Biso   1.000  N
  N226     1.0000 0.31259  0.13940  0.11739  Biso   1.000  N
  H340     1.0000 0.31596  0.21068  0.15720  Biso   1.000  H
  H341     1.0000 0.31589  0.21068  0.15720  Biso   1.000  H
  O95      1.0000 0.36029  0.10470  0.05268  Biso   1.000  O
  O96      1.0000 0.36035  0.10470  0.05268  Biso   1.000  O
  N227     1.0000 0.71049  0.80838  0.95104  Biso   1.000  N
  O97      1.0000 0.63988  0.89530  0.94734  Biso   1.000  O
  N228     1.0000 0.71040  0.80838  0.95100  Biso   1.000  N
  O98      1.0000 0.63980  0.89530  0.94730  Biso   1.000  O
  H342     1.0000 0.68421  0.78932  0.84282  Biso   1.000  H
  C379     1.0000 0.73806  0.76900  0.91673  Biso   1.000  C
  H343     1.0000 0.68427  0.78932  0.84282  Biso   1.000  H
  C380     1.0000 0.87567  0.77978  0.90011  Biso   1.000  C
  C381     1.0000 0.87560  0.77978  0.90011  Biso   1.000  C
  C382     1.0000 0.87567  0.77982  0.90011  Biso   1.000  C
  C383     1.0000 0.87560  0.77982  0.90011  Biso   1.000  C
  H344     1.0000 0.10196  0.18251  0.17810  Biso   1.000  H
  H345     1.0000 0.20737  0.18372  0.20511  Biso   1.000  H
  N229     1.0000 0.16175  0.10560  0.18180  Biso   1.000  N
  H346     1.0000 0.10190  0.18251  0.17810  Biso   1.000  H
  H347     1.0000 0.20729  0.18372  0.20507  Biso   1.000  H
  N230     1.0000 0.16173  0.10560  0.18177  Biso   1.000  N
  H348     1.0000 0.20736  0.18372  0.20507  Biso   1.000  H
  C384     1.0000 0.35641  0.09778  0.15001  Biso   1.000  C
  C385     1.0000 0.35639  0.09778  0.14997  Biso   1.000  C
  C386     1.0000 0.35648  0.09778  0.15001  Biso   1.000  C
  C387     1.0000 0.69433  0.79009  0.99532  Biso   1.000  C
  H349     1.0000 0.69943  0.73370  0.91022  Biso   1.000  H
  N231     1.0000 0.83402  0.75552  0.92964  Biso   1.000  N
  N232     1.0000 0.83400  0.75552  0.92960  Biso   1.000  N
  N233     1.0000 0.83409  0.75552  0.92964  Biso   1.000  N
  O99      1.0000 0.95825  0.77291  0.90072  Biso   1.000  O
  C388     1.0000 0.08654  0.07631  0.18759  Biso   1.000  C
  C389     1.0000 0.24492  0.07421  0.19968  Biso   1.000  C
  H350     1.0000 0.39471  0.11681  0.17889  Biso   1.000  H
  H351     1.0000 0.39612  0.07429  0.13519  Biso   1.000  H
  N234     1.0000 0.28923  0.06029  0.16429  Biso   1.000  N
  H352     1.0000 0.39478  0.11681  0.17889  Biso   1.000  H
  H353     1.0000 0.66513  0.75178  0.99042  Biso   1.000  H
  H354     1.0000 0.66519  0.75178  0.99042  Biso   1.000  H
  H355     1.0000 0.65070  0.81701  0.00409  Biso   1.000  H
  N235     1.0000 0.77439  0.78640  0.03549  Biso   1.000  N
  C390     1.0000 0.87476  0.71459  0.96503  Biso   1.000  C
  N236     1.0000 0.11631  0.02212  0.20389  Biso   1.000  N
  O100     1.0000 0.01033  0.09280  0.17968  Biso   1.000  O
  N237     1.0000 0.11637  0.02212  0.20389  Biso   1.000  N
  C391     1.0000 0.21171  0.01572  0.21479  Biso   1.000  C
  H356     1.0000 0.28624  0.09422  0.22759  Biso   1.000  H
  C392     1.0000 0.21177  0.01572  0.21479  Biso   1.000  C
  C393     1.0000 0.29533  0.00142  0.15918  Biso   1.000  C
  C394     1.0000 0.78113  0.81581  0.07689  Biso   1.000  C
  C395     1.0000 0.83449  0.73688  0.04330  Biso   1.000  C
  C396     1.0000 0.78107  0.81581  0.07689  Biso   1.000  C
  C397     1.0000 0.83449  0.73692  0.04330  Biso   1.000  C
  C398     1.0000 0.83455  0.73688  0.04330  Biso   1.000  C
  C399     1.0000 0.83455  0.73692  0.04330  Biso   1.000  C
  H357     1.0000 0.93117  0.70068  0.95762  Biso   1.000  H
  H358     1.0000 0.83335  0.68131  0.96233  Biso   1.000  H
  H359     1.0000 0.93111  0.70068  0.95762  Biso   1.000  H
  H360     1.0000 0.93117  0.70072  0.95762  Biso   1.000  H
  H361     1.0000 0.93111  0.70072  0.95762  Biso   1.000  H
  N238     1.0000 0.89703  0.73491  0.01510  Biso   1.000  N
  C400     1.0000 0.05805  0.98411  0.22220  Biso   1.000  C
  N239     1.0000 0.24433  0.97479  0.18558  Biso   1.000  N
  H362     1.0000 0.23757  0.00812  0.24978  Biso   1.000  H
  H363     1.0000 0.23750  0.00812  0.24978  Biso   1.000  H
  O101     1.0000 0.34003  0.97758  0.13429  Biso   1.000  O
  N240     1.0000 0.84970  0.79550  0.11178  Biso   1.000  N
  O102     1.0000 0.72872  0.85601  0.08250  Biso   1.000  O
  H364     1.0000 0.79949  0.70021  0.04099  Biso   1.000  H
  C401     1.0000 0.89335  0.74671  0.09491  Biso   1.000  C
  C402     1.0000 0.89327  0.74671  0.09487  Biso   1.000  C
  C403     1.0000 0.89334  0.74671  0.09487  Biso   1.000  C
  C404     1.0000 0.98463  0.74659  0.04038  Biso   1.000  C
  C405     1.0000 0.98457  0.74659  0.04038  Biso   1.000  C
  N241     1.0000 0.04145  0.92888  0.19799  Biso   1.000  N
  H365     1.0000 0.99910  0.00339  0.21928  Biso   1.000  H
  H366     1.0000 0.99917  0.00339  0.21928  Biso   1.000  H
  H367     1.0000 0.08563  0.97728  0.25680  Biso   1.000  H
  H368     1.0000 0.08563  0.97733  0.25680  Biso   1.000  H
  C406     1.0000 0.25577  0.91561  0.19669  Biso   1.000  C
  C407     1.0000 0.25570  0.91561  0.19669  Biso   1.000  C
  C408     1.0000 0.87301  0.81620  0.15810  Biso   1.000  C
  C409     1.0000 0.87307  0.81620  0.15810  Biso   1.000  C
  H369     1.0000 0.89411  0.71210  0.11570  Biso   1.000  H
  N242     1.0000 0.98053  0.75801  0.08710  Biso   1.000  N
  N243     1.0000 0.98051  0.75801  0.08707  Biso   1.000  N
  O103     1.0000 0.05150  0.74839  0.02420  Biso   1.000  O
  C410     1.0000 0.95325  0.90771  0.17878  Biso   1.000  C
  C411     1.0000 0.95318  0.90771  0.17878  Biso   1.000  C
  C412     1.0000 0.10372  0.88220  0.20748  Biso   1.000  C
  N244     1.0000 0.17203  0.88169  0.18260  Biso   1.000  N
  H370     1.0000 0.28135  0.91132  0.23180  Biso   1.000  H
  H371     1.0000 0.30035  0.89960  0.18040  Biso   1.000  H
  H372     1.0000 0.88083  0.78322  0.18051  Biso   1.000  H
  H373     1.0000 0.82186  0.83939  0.16321  Biso   1.000  H
  N245     1.0000 0.95726  0.85219  0.17148  Biso   1.000  N
  H374     1.0000 0.88081  0.78322  0.18047  Biso   1.000  H
  H375     1.0000 0.82178  0.83939  0.16317  Biso   1.000  H
  N246     1.0000 0.95719  0.85219  0.17148  Biso   1.000  N
  H376     1.0000 0.82184  0.83939  0.16317  Biso   1.000  H
  C413     1.0000 0.06174  0.75410  0.12530  Biso   1.000  C
  O104     1.0000 0.88505  0.93919  0.17091  Biso   1.000  O
  O105     1.0000 0.88497  0.93919  0.17087  Biso   1.000  O
  O106     1.0000 0.88504  0.93919  0.17087  Biso   1.000  O
  C414     1.0000 0.04572  0.82809  0.18738  Biso   1.000  C
  H377     1.0000 0.13077  0.87821  0.24291  Biso   1.000  H
  H378     1.0000 0.13069  0.87821  0.24288  Biso   1.000  H
  H379     1.0000 0.13076  0.87821  0.24288  Biso   1.000  H
  C415     1.0000 0.16025  0.83922  0.14688  Biso   1.000  C
  C416     1.0000 0.16018  0.83922  0.14688  Biso   1.000  C
  H380     1.0000 0.11203  0.74092  0.11188  Biso   1.000  H
  H381     1.0000 0.05295  0.72511  0.14889  Biso   1.000  H
  N247     1.0000 0.08692  0.80830  0.15001  Biso   1.000  N
  H382     1.0000 0.05288  0.72511  0.14889  Biso   1.000  H
  N248     1.0000 0.08690  0.80830  0.14997  Biso   1.000  N
  H383     1.0000 0.04865  0.79829  0.21288  Biso   1.000  H
  H384     1.0000 0.04858  0.79829  0.21288  Biso   1.000  H
  O107     1.0000 0.21090  0.83028  0.12098  Biso   1.000  O
  O108     1.0000 0.21096  0.83028  0.12098  Biso   1.000  O
  N249     1.0000 0.91318  0.19170  0.85001  Biso   1.000  N
  C417     1.0000 0.83992  0.16078  0.85314  Biso   1.000  C
  C418     1.0000 0.83990  0.16078  0.85310  Biso   1.000  C
  C419     1.0000 0.83992  0.16083  0.85314  Biso   1.000  C
  C420     1.0000 0.83990  0.16083  0.85310  Biso   1.000  C
  C421     1.0000 0.83998  0.16078  0.85314  Biso   1.000  C
  C422     1.0000 0.83998  0.16083  0.85314  Biso   1.000  C
  C423     1.0000 0.95445  0.17191  0.81264  Biso   1.000  C
  C424     1.0000 0.95443  0.17191  0.81260  Biso   1.000  C
  C425     1.0000 0.93842  0.24590  0.87472  Biso   1.000  C
  N250     1.0000 0.82814  0.11831  0.81742  Biso   1.000  N
  N251     1.0000 0.91325  0.19170  0.85001  Biso   1.000  N
  O109     1.0000 0.78927  0.16972  0.87903  Biso   1.000  O
  O110     1.0000 0.78920  0.16972  0.87903  Biso   1.000  O
  C426     1.0000 0.89645  0.11780  0.79253  Biso   1.000  C
  C427     1.0000 0.89643  0.11780  0.79250  Biso   1.000  C
  H385     1.0000 0.95152  0.20171  0.78714  Biso   1.000  H
  H386     1.0000 0.95150  0.20171  0.78710  Biso   1.000  H
  N252     1.0000 0.04291  0.14781  0.82854  Biso   1.000  N
  N253     1.0000 0.04289  0.14781  0.82850  Biso   1.000  N
  N254     1.0000 0.04298  0.14781  0.82854  Biso   1.000  N
  H387     1.0000 0.94722  0.27489  0.85112  Biso   1.000  H
  H388     1.0000 0.88814  0.25908  0.88813  Biso   1.000  H
  H389     1.0000 0.88814  0.25913  0.88813  Biso   1.000  H
  N255     1.0000 0.01964  0.24199  0.91291  Biso   1.000  N
  C428     1.0000 0.74440  0.08439  0.80332  Biso   1.000  C
  C429     1.0000 0.74446  0.08439  0.80332  Biso   1.000  C
  N256     1.0000 0.95872  0.07112  0.80203  Biso   1.000  N
  H390     1.0000 0.86939  0.12179  0.75711  Biso   1.000  H
  H391     1.0000 0.86946  0.12179  0.75711  Biso   1.000  H
  C430     1.0000 0.04692  0.09229  0.82123  Biso   1.000  C
  C431     1.0000 0.04690  0.09229  0.82120  Biso   1.000  C
  C432     1.0000 0.04698  0.09229  0.82123  Biso   1.000  C
  C433     1.0000 0.12716  0.18380  0.84192  Biso   1.000  C
  C434     1.0000 0.12710  0.18380  0.84192  Biso   1.000  C
  C435     1.0000 0.01553  0.25341  0.95964  Biso   1.000  C
  C436     1.0000 0.10681  0.25329  0.90511  Biso   1.000  C
  C437     1.0000 0.01552  0.25341  0.95960  Biso   1.000  C
  C438     1.0000 0.01560  0.25341  0.95964  Biso   1.000  C
  C439     1.0000 0.10688  0.25329  0.90511  Biso   1.000  C
  H392     1.0000 0.69981  0.10040  0.81962  Biso   1.000  H
  H393     1.0000 0.71881  0.08868  0.76822  Biso   1.000  H
  N257     1.0000 0.75584  0.02521  0.81444  Biso   1.000  N
  N258     1.0000 0.75582  0.02521  0.81440  Biso   1.000  N
  H394     1.0000 0.71881  0.08872  0.76822  Biso   1.000  H
  C440     1.0000 0.94211  0.01589  0.77782  Biso   1.000  C
  O111     1.0000 0.11511  0.06081  0.82911  Biso   1.000  O
  H395     1.0000 0.11934  0.21678  0.81951  Biso   1.000  H
  H396     1.0000 0.17831  0.16061  0.83681  Biso   1.000  H
  N259     1.0000 0.15047  0.20450  0.88824  Biso   1.000  N
  N260     1.0000 0.15039  0.20450  0.88821  Biso   1.000  N
  H397     1.0000 0.11934  0.21683  0.81951  Biso   1.000  H
  H398     1.0000 0.17837  0.16061  0.83681  Biso   1.000  H
  N261     1.0000 0.15045  0.20450  0.88821  Biso   1.000  N
  O112     1.0000 0.94867  0.25161  0.97582  Biso   1.000  O
  N262     1.0000 0.10314  0.26509  0.98492  Biso   1.000  N
  C441     1.0000 0.16568  0.26312  0.95672  Biso   1.000  C
  H399     1.0000 0.10605  0.28790  0.88432  Biso   1.000  H
  C442     1.0000 0.16561  0.26312  0.95672  Biso   1.000  C
  C443     1.0000 0.70484  0.99858  0.84084  Biso   1.000  C
  C444     1.0000 0.78846  0.98428  0.78523  Biso   1.000  C
  C445     1.0000 0.70482  0.99858  0.84080  Biso   1.000  C
  C446     1.0000 0.78839  0.98428  0.78523  Biso   1.000  C
  C447     1.0000 0.78846  0.98433  0.78523  Biso   1.000  C
  C448     1.0000 0.78839  0.98433  0.78523  Biso   1.000  C
  N263     1.0000 0.88386  0.97788  0.79613  Biso   1.000  N
  N264     1.0000 0.88379  0.97788  0.79613  Biso   1.000  N
  H400     1.0000 0.91453  0.02272  0.74322  Biso   1.000  H
  H401     1.0000 0.00107  0.99661  0.78074  Biso   1.000  H
  H402     1.0000 0.00098  0.99661  0.78070  Biso   1.000  H
  C449     1.0000 0.21903  0.18419  0.92313  Biso   1.000  C
  C450     1.0000 0.12541  0.28541  0.03499  Biso   1.000  C
  H403     1.0000 0.20067  0.29979  0.95902  Biso   1.000  H
  N265     1.0000 0.22578  0.21360  0.96453  Biso   1.000  N
  H404     1.0000 0.20061  0.29979  0.95902  Biso   1.000  H
  N266     1.0000 0.22571  0.21360  0.96453  Biso   1.000  N
  O113     1.0000 0.66014  0.02242  0.86573  Biso   1.000  O
  N267     1.0000 0.71094  0.93971  0.83573  Biso   1.000  N
  H405     1.0000 0.76260  0.99188  0.75024  Biso   1.000  H
  C451     1.0000 0.75524  0.92579  0.80034  Biso   1.000  C
  H406     1.0000 0.76258  0.99188  0.75020  Biso   1.000  H
  C452     1.0000 0.75523  0.92579  0.80030  Biso   1.000  C
  H407     1.0000 0.76266  0.99188  0.75024  Biso   1.000  H
  C453     1.0000 0.91363  0.92369  0.81242  Biso   1.000  C
  O114     1.0000 0.27145  0.14399  0.91752  Biso   1.000  O
  N268     1.0000 0.16615  0.24448  0.07038  Biso   1.000  N
  H408     1.0000 0.06900  0.29932  0.04240  Biso   1.000  H
  H409     1.0000 0.16682  0.31869  0.03768  Biso   1.000  H
  N269     1.0000 0.16608  0.24448  0.07038  Biso   1.000  N
  N270     1.0000 0.16615  0.24452  0.07038  Biso   1.000  N
  N271     1.0000 0.16608  0.24452  0.07038  Biso   1.000  N
  H410     1.0000 0.06906  0.29932  0.04240  Biso   1.000  H
  C454     1.0000 0.30583  0.20991  0.00470  Biso   1.000  C
  C455     1.0000 0.30582  0.20991  0.00467  Biso   1.000  C
  C456     1.0000 0.64376  0.90222  0.85001  Biso   1.000  C
  C457     1.0000 0.64369  0.90222  0.85001  Biso   1.000  C
  H411     1.0000 0.71393  0.90578  0.77243  Biso   1.000  H
  N272     1.0000 0.83842  0.89440  0.81821  Biso   1.000  N
  H412     1.0000 0.71393  0.90582  0.77243  Biso   1.000  H
  O115     1.0000 0.98984  0.90720  0.82034  Biso   1.000  O
  O116     1.0000 0.98982  0.90720  0.82030  Biso   1.000  O
  C458     1.0000 0.12450  0.22022  0.09991  Biso   1.000  C
  C459     1.0000 0.26211  0.23100  0.08329  Biso   1.000  C
  C460     1.0000 0.12448  0.22022  0.09987  Biso   1.000  C
  C461     1.0000 0.12457  0.22022  0.09991  Biso   1.000  C
  H413     1.0000 0.34947  0.18299  0.99593  Biso   1.000  H
  N273     1.0000 0.28968  0.19162  0.04898  Biso   1.000  N
  H414     1.0000 0.33504  0.24822  0.00959  Biso   1.000  H
  H415     1.0000 0.33497  0.24822  0.00959  Biso   1.000  H
  N274     1.0000 0.28975  0.19162  0.04898  Biso   1.000  N
  H416     1.0000 0.60545  0.88319  0.82113  Biso   1.000  H
  H417     1.0000 0.60404  0.92571  0.86483  Biso   1.000  H
  N275     1.0000 0.68751  0.86060  0.88263  Biso   1.000  N
  H418     1.0000 0.60539  0.88319  0.82113  Biso   1.000  H
  N276     1.0000 0.68757  0.86060  0.88263  Biso   1.000  N
  C462     1.0000 0.83804  0.83252  0.82282  Biso   1.000  C
  C463     1.0000 0.83798  0.83252  0.82282  Biso   1.000  C
  N277     1.0000 0.18293  0.18681  0.13390  Biso   1.000  N
  O117     1.0000 0.04192  0.22709  0.09930  Biso   1.000  O
  C464     1.0000 0.27521  0.19200  0.12829  Biso   1.000  C
  H419     1.0000 0.30074  0.26630  0.08980  Biso   1.000  H
  C465     1.0000 0.32324  0.14189  0.07228  Biso   1.000  C
  C466     1.0000 0.32317  0.14189  0.07228  Biso   1.000  C
  C467     1.0000 0.67693  0.85811  0.92773  Biso   1.000  C
  C468     1.0000 0.72495  0.80800  0.87173  Biso   1.000  C
  H420     1.0000 0.89820  0.81749  0.82192  Biso   1.000  H
  H421     1.0000 0.79279  0.81628  0.79491  Biso   1.000  H
  N278     1.0000 0.81723  0.81319  0.86612  Biso   1.000  N
  H422     1.0000 0.89827  0.81749  0.82192  Biso   1.000  H
  H423     1.0000 0.79286  0.81628  0.79491  Biso   1.000  H
  C469     1.0000 0.16212  0.16748  0.17720  Biso   1.000  C
  C470     1.0000 0.16212  0.16753  0.17720  Biso   1.000  C
  H424     1.0000 0.31596  0.21068  0.15720  Biso   1.000  H
  N279     1.0000 0.31266  0.13940  0.11739  Biso   1.000  N
  H425     1.0000 0.31589  0.21068  0.15720  Biso   1.000  H
  N280     1.0000 0.31259  0.13940  0.11739  Biso   1.000  N
  O118     1.0000 0.36029  0.10470  0.05268  Biso   1.000  O
  O119     1.0000 0.36035  0.10470  0.05268  Biso   1.000  O
  N281     1.0000 0.71049  0.80838  0.95104  Biso   1.000  N
  O120     1.0000 0.63988  0.89530  0.94734  Biso   1.000  O
  N282     1.0000 0.71040  0.80838  0.95100  Biso   1.000  N
  O121     1.0000 0.63980  0.89530  0.94730  Biso   1.000  O
  H426     1.0000 0.68421  0.78932  0.84282  Biso   1.000  H
  C471     1.0000 0.73806  0.76900  0.91673  Biso   1.000  C
  H427     1.0000 0.68427  0.78932  0.84282  Biso   1.000  H
  C472     1.0000 0.87567  0.77978  0.90011  Biso   1.000  C
  C473     1.0000 0.87560  0.77978  0.90011  Biso   1.000  C
  C474     1.0000 0.87567  0.77982  0.90011  Biso   1.000  C
  C475     1.0000 0.87560  0.77982  0.90011  Biso   1.000  C
  H428     1.0000 0.10196  0.18251  0.17810  Biso   1.000  H
  H429     1.0000 0.20737  0.18372  0.20511  Biso   1.000  H
  N283     1.0000 0.16175  0.10560  0.18180  Biso   1.000  N
  H430     1.0000 0.10190  0.18251  0.17810  Biso   1.000  H
  H431     1.0000 0.20729  0.18372  0.20507  Biso   1.000  H
  N284     1.0000 0.16173  0.10560  0.18177  Biso   1.000  N
  H432     1.0000 0.20736  0.18372  0.20507  Biso   1.000  H
  C476     1.0000 0.35641  0.09778  0.15001  Biso   1.000  C
  C477     1.0000 0.35639  0.09778  0.14997  Biso   1.000  C
  C478     1.0000 0.35648  0.09778  0.15001  Biso   1.000  C
  C479     1.0000 0.69433  0.79009  0.99532  Biso   1.000  C
  H433     1.0000 0.69943  0.73370  0.91022  Biso   1.000  H
  N285     1.0000 0.83402  0.75552  0.92964  Biso   1.000  N
  N286     1.0000 0.83400  0.75552  0.92960  Biso   1.000  N
  N287     1.0000 0.83409  0.75552  0.92964  Biso   1.000  N
  O122     1.0000 0.95825  0.77291  0.90072  Biso   1.000  O
  C480     1.0000 0.08654  0.07631  0.18759  Biso   1.000  C
  C481     1.0000 0.24492  0.07421  0.19968  Biso   1.000  C
  H434     1.0000 0.39471  0.11681  0.17889  Biso   1.000  H
  H435     1.0000 0.39612  0.07429  0.13519  Biso   1.000  H
  N288     1.0000 0.28923  0.06029  0.16429  Biso   1.000  N
  H436     1.0000 0.39478  0.11681  0.17889  Biso   1.000  H
  H437     1.0000 0.66513  0.75178  0.99042  Biso   1.000  H
  H438     1.0000 0.66519  0.75178  0.99042  Biso   1.000  H
  H439     1.0000 0.65070  0.81701  0.00409  Biso   1.000  H
  N289     1.0000 0.77439  0.78640  0.03549  Biso   1.000  N
  C482     1.0000 0.87476  0.71459  0.96503  Biso   1.000  C
  N290     1.0000 0.11631  0.02212  0.20389  Biso   1.000  N
  O123     1.0000 0.01033  0.09280  0.17968  Biso   1.000  O
  N291     1.0000 0.11637  0.02212  0.20389  Biso   1.000  N
  C483     1.0000 0.21171  0.01572  0.21479  Biso   1.000  C
  H440     1.0000 0.28624  0.09422  0.22759  Biso   1.000  H
  C484     1.0000 0.21177  0.01572  0.21479  Biso   1.000  C
  C485     1.0000 0.29533  0.00142  0.15918  Biso   1.000  C
  C486     1.0000 0.78113  0.81581  0.07689  Biso   1.000  C
  C487     1.0000 0.83449  0.73688  0.04330  Biso   1.000  C
  C488     1.0000 0.78107  0.81581  0.07689  Biso   1.000  C
  C489     1.0000 0.83449  0.73692  0.04330  Biso   1.000  C
  C490     1.0000 0.83455  0.73688  0.04330  Biso   1.000  C
  C491     1.0000 0.83455  0.73692  0.04330  Biso   1.000  C
  H441     1.0000 0.93117  0.70068  0.95762  Biso   1.000  H
  H442     1.0000 0.83335  0.68131  0.96233  Biso   1.000  H
  H443     1.0000 0.93111  0.70068  0.95762  Biso   1.000  H
  H444     1.0000 0.93117  0.70072  0.95762  Biso   1.000  H
  H445     1.0000 0.93111  0.70072  0.95762  Biso   1.000  H
  N292     1.0000 0.89703  0.73491  0.01510  Biso   1.000  N
  C492     1.0000 0.05805  0.98411  0.22220  Biso   1.000  C
  N293     1.0000 0.24433  0.97479  0.18558  Biso   1.000  N
  H446     1.0000 0.23757  0.00812  0.24978  Biso   1.000  H
  H447     1.0000 0.23750  0.00812  0.24978  Biso   1.000  H
  O124     1.0000 0.34003  0.97758  0.13429  Biso   1.000  O
  N294     1.0000 0.84970  0.79550  0.11178  Biso   1.000  N
  O125     1.0000 0.72872  0.85601  0.08250  Biso   1.000  O
  H448     1.0000 0.79949  0.70021  0.04099  Biso   1.000  H
  C493     1.0000 0.89335  0.74671  0.09491  Biso   1.000  C
  C494     1.0000 0.89327  0.74671  0.09487  Biso   1.000  C
  C495     1.0000 0.89334  0.74671  0.09487  Biso   1.000  C
  C496     1.0000 0.98463  0.74659  0.04038  Biso   1.000  C
  C497     1.0000 0.98457  0.74659  0.04038  Biso   1.000  C
  N295     1.0000 0.04145  0.92888  0.19799  Biso   1.000  N
  H449     1.0000 0.99910  0.00339  0.21928  Biso   1.000  H
  H450     1.0000 0.99917  0.00339  0.21928  Biso   1.000  H
  H451     1.0000 0.08563  0.97728  0.25680  Biso   1.000  H
  H452     1.0000 0.08563  0.97733  0.25680  Biso   1.000  H
  C498     1.0000 0.25577  0.91561  0.19669  Biso   1.000  C
  C499     1.0000 0.25570  0.91561  0.19669  Biso   1.000  C
  C500     1.0000 0.87301  0.81620  0.15810  Biso   1.000  C
  C501     1.0000 0.87307  0.81620  0.15810  Biso   1.000  C
  H453     1.0000 0.89411  0.71210  0.11570  Biso   1.000  H
  N296     1.0000 0.98053  0.75801  0.08710  Biso   1.000  N
  N297     1.0000 0.98051  0.75801  0.08707  Biso   1.000  N
  O126     1.0000 0.05150  0.74839  0.02420  Biso   1.000  O
  C502     1.0000 0.95325  0.90771  0.17878  Biso   1.000  C
  C503     1.0000 0.95318  0.90771  0.17878  Biso   1.000  C
  C504     1.0000 0.10372  0.88220  0.20748  Biso   1.000  C
  N298     1.0000 0.17203  0.88169  0.18260  Biso   1.000  N
  H454     1.0000 0.28135  0.91132  0.23180  Biso   1.000  H
  H455     1.0000 0.30035  0.89960  0.18040  Biso   1.000  H
  H456     1.0000 0.88083  0.78322  0.18051  Biso   1.000  H
  H457     1.0000 0.82186  0.83939  0.16321  Biso   1.000  H
  N299     1.0000 0.95726  0.85219  0.17148  Biso   1.000  N
  H458     1.0000 0.88081  0.78322  0.18047  Biso   1.000  H
  H459     1.0000 0.82178  0.83939  0.16317  Biso   1.000  H
  N300     1.0000 0.95719  0.85219  0.17148  Biso   1.000  N
  H460     1.0000 0.82184  0.83939  0.16317  Biso   1.000  H
  C505     1.0000 0.06174  0.75410  0.12530  Biso   1.000  C
  O127     1.0000 0.88505  0.93919  0.17091  Biso   1.000  O
  O128     1.0000 0.88497  0.93919  0.17087  Biso   1.000  O
  O129     1.0000 0.88504  0.93919  0.17087  Biso   1.000  O
  C506     1.0000 0.04572  0.82809  0.18738  Biso   1.000  C
  H461     1.0000 0.13077  0.87821  0.24291  Biso   1.000  H
  H462     1.0000 0.13069  0.87821  0.24288  Biso   1.000  H
  H463     1.0000 0.13076  0.87821  0.24288  Biso   1.000  H
  C507     1.0000 0.16025  0.83922  0.14688  Biso   1.000  C
  C508     1.0000 0.16018  0.83922  0.14688  Biso   1.000  C
  H464     1.0000 0.11203  0.74092  0.11188  Biso   1.000  H
  H465     1.0000 0.05295  0.72511  0.14889  Biso   1.000  H
  N301     1.0000 0.08692  0.80830  0.15001  Biso   1.000  N
  H466     1.0000 0.05288  0.72511  0.14889  Biso   1.000  H
  N302     1.0000 0.08690  0.80830  0.14997  Biso   1.000  N
  H467     1.0000 0.04865  0.79829  0.21288  Biso   1.000  H
  H468     1.0000 0.04858  0.79829  0.21288  Biso   1.000  H
  O130     1.0000 0.21090  0.83028  0.12098  Biso   1.000  O
  O131     1.0000 0.21096  0.83028  0.12098  Biso   1.000  O
  N303     1.0000 0.91318  0.19170  0.85001  Biso   1.000  N
  C509     1.0000 0.83992  0.16078  0.85314  Biso   1.000  C
  C510     1.0000 0.83990  0.16078  0.85310  Biso   1.000  C
  C511     1.0000 0.83992  0.16083  0.85314  Biso   1.000  C
  C512     1.0000 0.83990  0.16083  0.85310  Biso   1.000  C
  C513     1.0000 0.83998  0.16078  0.85314  Biso   1.000  C
  C514     1.0000 0.83998  0.16083  0.85314  Biso   1.000  C
  C515     1.0000 0.95445  0.17191  0.81264  Biso   1.000  C
  C516     1.0000 0.95443  0.17191  0.81260  Biso   1.000  C
  C517     1.0000 0.93842  0.24590  0.87472  Biso   1.000  C
  N304     1.0000 0.82814  0.11831  0.81742  Biso   1.000  N
  N305     1.0000 0.91325  0.19170  0.85001  Biso   1.000  N
  O132     1.0000 0.78927  0.16972  0.87903  Biso   1.000  O
  O133     1.0000 0.78920  0.16972  0.87903  Biso   1.000  O
  C518     1.0000 0.89645  0.11780  0.79253  Biso   1.000  C
  C519     1.0000 0.89643  0.11780  0.79250  Biso   1.000  C
  H469     1.0000 0.95152  0.20171  0.78714  Biso   1.000  H
  H470     1.0000 0.95150  0.20171  0.78710  Biso   1.000  H
  N306     1.0000 0.04291  0.14781  0.82854  Biso   1.000  N
  N307     1.0000 0.04289  0.14781  0.82850  Biso   1.000  N
  N308     1.0000 0.04298  0.14781  0.82854  Biso   1.000  N
  H471     1.0000 0.94722  0.27489  0.85112  Biso   1.000  H
  H472     1.0000 0.88814  0.25908  0.88813  Biso   1.000  H
  H473     1.0000 0.88814  0.25913  0.88813  Biso   1.000  H
  N309     1.0000 0.01964  0.24199  0.91291  Biso   1.000  N
  C520     1.0000 0.74440  0.08439  0.80332  Biso   1.000  C
  C521     1.0000 0.74446  0.08439  0.80332  Biso   1.000  C
  N310     1.0000 0.95872  0.07112  0.80203  Biso   1.000  N
  H474     1.0000 0.86939  0.12179  0.75711  Biso   1.000  H
  H475     1.0000 0.86946  0.12179  0.75711  Biso   1.000  H
  C522     1.0000 0.04692  0.09229  0.82123  Biso   1.000  C
  C523     1.0000 0.04690  0.09229  0.82120  Biso   1.000  C
  C524     1.0000 0.04698  0.09229  0.82123  Biso   1.000  C
  C525     1.0000 0.12716  0.18380  0.84192  Biso   1.000  C
  C526     1.0000 0.12710  0.18380  0.84192  Biso   1.000  C
  C527     1.0000 0.01553  0.25341  0.95964  Biso   1.000  C
  C528     1.0000 0.10681  0.25329  0.90511  Biso   1.000  C
  C529     1.0000 0.01552  0.25341  0.95960  Biso   1.000  C
  C530     1.0000 0.01560  0.25341  0.95964  Biso   1.000  C
  C531     1.0000 0.10688  0.25329  0.90511  Biso   1.000  C
  H476     1.0000 0.69981  0.10040  0.81962  Biso   1.000  H
  H477     1.0000 0.71881  0.08868  0.76822  Biso   1.000  H
  N311     1.0000 0.75584  0.02521  0.81444  Biso   1.000  N
  N312     1.0000 0.75582  0.02521  0.81440  Biso   1.000  N
  H478     1.0000 0.71881  0.08872  0.76822  Biso   1.000  H
  C532     1.0000 0.94211  0.01589  0.77782  Biso   1.000  C
  O134     1.0000 0.11511  0.06081  0.82911  Biso   1.000  O
  H479     1.0000 0.11934  0.21678  0.81951  Biso   1.000  H
  H480     1.0000 0.17831  0.16061  0.83681  Biso   1.000  H
  N313     1.0000 0.15047  0.20450  0.88824  Biso   1.000  N
  N314     1.0000 0.15039  0.20450  0.88821  Biso   1.000  N
  H481     1.0000 0.11934  0.21683  0.81951  Biso   1.000  H
  H482     1.0000 0.17837  0.16061  0.83681  Biso   1.000  H
  N315     1.0000 0.15045  0.20450  0.88821  Biso   1.000  N
  O135     1.0000 0.94867  0.25161  0.97582  Biso   1.000  O
  N316     1.0000 0.10314  0.26509  0.98492  Biso   1.000  N
  C533     1.0000 0.16568  0.26312  0.95672  Biso   1.000  C
  H483     1.0000 0.10605  0.28790  0.88432  Biso   1.000  H
  C534     1.0000 0.16561  0.26312  0.95672  Biso   1.000  C
  C535     1.0000 0.70484  0.99858  0.84084  Biso   1.000  C
  C536     1.0000 0.78846  0.98428  0.78523  Biso   1.000  C
  C537     1.0000 0.70482  0.99858  0.84080  Biso   1.000  C
  C538     1.0000 0.78839  0.98428  0.78523  Biso   1.000  C
  C539     1.0000 0.78846  0.98433  0.78523  Biso   1.000  C
  C540     1.0000 0.78839  0.98433  0.78523  Biso   1.000  C
  N317     1.0000 0.88386  0.97788  0.79613  Biso   1.000  N
  N318     1.0000 0.88379  0.97788  0.79613  Biso   1.000  N
  H484     1.0000 0.91453  0.02272  0.74322  Biso   1.000  H
  H485     1.0000 0.00107  0.99661  0.78074  Biso   1.000  H
  H486     1.0000 0.00098  0.99661  0.78070  Biso   1.000  H
  C541     1.0000 0.21903  0.18419  0.92313  Biso   1.000  C
  C542     1.0000 0.12541  0.28541  0.03499  Biso   1.000  C
  H487     1.0000 0.20067  0.29979  0.95902  Biso   1.000  H
  N319     1.0000 0.22578  0.21360  0.96453  Biso   1.000  N
  H488     1.0000 0.20061  0.29979  0.95902  Biso   1.000  H
  N320     1.0000 0.22571  0.21360  0.96453  Biso   1.000  N
  O136     1.0000 0.66014  0.02242  0.86573  Biso   1.000  O
  N321     1.0000 0.71094  0.93971  0.83573  Biso   1.000  N
  H489     1.0000 0.76260  0.99188  0.75024  Biso   1.000  H
  C543     1.0000 0.75524  0.92579  0.80034  Biso   1.000  C
  H490     1.0000 0.76258  0.99188  0.75020  Biso   1.000  H
  C544     1.0000 0.75523  0.92579  0.80030  Biso   1.000  C
  H491     1.0000 0.76266  0.99188  0.75024  Biso   1.000  H
  C545     1.0000 0.91363  0.92369  0.81242  Biso   1.000  C
  O137     1.0000 0.27145  0.14399  0.91752  Biso   1.000  O
  N322     1.0000 0.16615  0.24448  0.07038  Biso   1.000  N
  H492     1.0000 0.06900  0.29932  0.04240  Biso   1.000  H
  H493     1.0000 0.16682  0.31869  0.03768  Biso   1.000  H
  N323     1.0000 0.16608  0.24448  0.07038  Biso   1.000  N
  N324     1.0000 0.16615  0.24452  0.07038  Biso   1.000  N
  N325     1.0000 0.16608  0.24452  0.07038  Biso   1.000  N
  H494     1.0000 0.06906  0.29932  0.04240  Biso   1.000  H
  C546     1.0000 0.30583  0.20991  0.00470  Biso   1.000  C
  C547     1.0000 0.30582  0.20991  0.00467  Biso   1.000  C
  C548     1.0000 0.64376  0.90222  0.85001  Biso   1.000  C
  C549     1.0000 0.64369  0.90222  0.85001  Biso   1.000  C
  H495     1.0000 0.71393  0.90578  0.77243  Biso   1.000  H
  N326     1.0000 0.83842  0.89440  0.81821  Biso   1.000  N
  H496     1.0000 0.71393  0.90582  0.77243  Biso   1.000  H
  O138     1.0000 0.98984  0.90720  0.82034  Biso   1.000  O
  O139     1.0000 0.98982  0.90720  0.82030  Biso   1.000  O
  C550     1.0000 0.12450  0.22022  0.09991  Biso   1.000  C
  C551     1.0000 0.26211  0.23100  0.08329  Biso   1.000  C
  C552     1.0000 0.12448  0.22022  0.09987  Biso   1.000  C
  C553     1.0000 0.12457  0.22022  0.09991  Biso   1.000  C
  H497     1.0000 0.34947  0.18299  0.99593  Biso   1.000  H
  N327     1.0000 0.28968  0.19162  0.04898  Biso   1.000  N
  H498     1.0000 0.33504  0.24822  0.00959  Biso   1.000  H
  H499     1.0000 0.33497  0.24822  0.00959  Biso   1.000  H
  N328     1.0000 0.28975  0.19162  0.04898  Biso   1.000  N
  H500     1.0000 0.60545  0.88319  0.82113  Biso   1.000  H
  H501     1.0000 0.60404  0.92571  0.86483  Biso   1.000  H
  N329     1.0000 0.68751  0.86060  0.88263  Biso   1.000  N
  H502     1.0000 0.60539  0.88319  0.82113  Biso   1.000  H
  N330     1.0000 0.68757  0.86060  0.88263  Biso   1.000  N
  C554     1.0000 0.83804  0.83252  0.82282  Biso   1.000  C
  C555     1.0000 0.83798  0.83252  0.82282  Biso   1.000  C
  N331     1.0000 0.18293  0.18681  0.13390  Biso   1.000  N
  O140     1.0000 0.04192  0.22709  0.09930  Biso   1.000  O
  C556     1.0000 0.27521  0.19200  0.12829  Biso   1.000  C
  H503     1.0000 0.30074  0.26630  0.08980  Biso   1.000  H
  C557     1.0000 0.32324  0.14189  0.07228  Biso   1.000  C
  C558     1.0000 0.32317  0.14189  0.07228  Biso   1.000  C
  C559     1.0000 0.67693  0.85811  0.92773  Biso   1.000  C
  C560     1.0000 0.72495  0.80800  0.87173  Biso   1.000  C
  H504     1.0000 0.89820  0.81749  0.82192  Biso   1.000  H
  H505     1.0000 0.79279  0.81628  0.79491  Biso   1.000  H
  N332     1.0000 0.81723  0.81319  0.86612  Biso   1.000  N
  H506     1.0000 0.89827  0.81749  0.82192  Biso   1.000  H
  H507     1.0000 0.79286  0.81628  0.79491  Biso   1.000  H
  C561     1.0000 0.16212  0.16748  0.17720  Biso   1.000  C
  C562     1.0000 0.16212  0.16753  0.17720  Biso   1.000  C
  H508     1.0000 0.31596  0.21068  0.15720  Biso   1.000  H
  N333     1.0000 0.31266  0.13940  0.11739  Biso   1.000  N
  H509     1.0000 0.31589  0.21068  0.15720  Biso   1.000  H
  N334     1.0000 0.31259  0.13940  0.11739  Biso   1.000  N
  O141     1.0000 0.36029  0.10470  0.05268  Biso   1.000  O
  O142     1.0000 0.36035  0.10470  0.05268  Biso   1.000  O
  N335     1.0000 0.71049  0.80838  0.95104  Biso   1.000  N
  O143     1.0000 0.63988  0.89530  0.94734  Biso   1.000  O
  N336     1.0000 0.71040  0.80838  0.95100  Biso   1.000  N
  O144     1.0000 0.63980  0.89530  0.94730  Biso   1.000  O
  H510     1.0000 0.68421  0.78932  0.84282  Biso   1.000  H
  C563     1.0000 0.73806  0.76900  0.91673  Biso   1.000  C
  H511     1.0000 0.68427  0.78932  0.84282  Biso   1.000  H
  C564     1.0000 0.87567  0.77978  0.90011  Biso   1.000  C
  C565     1.0000 0.87560  0.77978  0.90011  Biso   1.000  C
  C566     1.0000 0.87567  0.77982  0.90011  Biso   1.000  C
  C567     1.0000 0.87560  0.77982  0.90011  Biso   1.000  C
  H512     1.0000 0.10196  0.18251  0.17810  Biso   1.000  H
  H513     1.0000 0.20737  0.18372  0.20511  Biso   1.000  H
  N337     1.0000 0.16175  0.10560  0.18180  Biso   1.000  N
  H514     1.0000 0.10190  0.18251  0.17810  Biso   1.000  H
  H515     1.0000 0.20729  0.18372  0.20507  Biso   1.000  H
  N338     1.0000 0.16173  0.10560  0.18177  Biso   1.000  N
  H516     1.0000 0.20736  0.18372  0.20507  Biso   1.000  H
  C568     1.0000 0.35641  0.09778  0.15001  Biso   1.000  C
  C569     1.0000 0.35639  0.09778  0.14997  Biso   1.000  C
  C570     1.0000 0.35648  0.09778  0.15001  Biso   1.000  C
  C571     1.0000 0.69433  0.79009  0.99532  Biso   1.000  C
  H517     1.0000 0.69943  0.73370  0.91022  Biso   1.000  H
  N339     1.0000 0.83402  0.75552  0.92964  Biso   1.000  N
  N340     1.0000 0.83400  0.75552  0.92960  Biso   1.000  N
  N341     1.0000 0.83409  0.75552  0.92964  Biso   1.000  N
  O145     1.0000 0.95825  0.77291  0.90072  Biso   1.000  O
  C572     1.0000 0.08654  0.07631  0.18759  Biso   1.000  C
  C573     1.0000 0.24492  0.07421  0.19968  Biso   1.000  C
  H518     1.0000 0.39471  0.11681  0.17889  Biso   1.000  H
  H519     1.0000 0.39612  0.07429  0.13519  Biso   1.000  H
  N342     1.0000 0.28923  0.06029  0.16429  Biso   1.000  N
  H520     1.0000 0.39478  0.11681  0.17889  Biso   1.000  H
  H521     1.0000 0.66513  0.75178  0.99042  Biso   1.000  H
  H522     1.0000 0.66519  0.75178  0.99042  Biso   1.000  H
  H523     1.0000 0.65070  0.81701  0.00409  Biso   1.000  H
  N343     1.0000 0.77439  0.78640  0.03549  Biso   1.000  N
  C574     1.0000 0.87476  0.71459  0.96503  Biso   1.000  C
  N344     1.0000 0.11631  0.02212  0.20389  Biso   1.000  N
  O146     1.0000 0.01033  0.09280  0.17968  Biso   1.000  O
  N345     1.0000 0.11637  0.02212  0.20389  Biso   1.000  N
  C575     1.0000 0.21171  0.01572  0.21479  Biso   1.000  C
  H524     1.0000 0.28624  0.09422  0.22759  Biso   1.000  H
  C576     1.0000 0.21177  0.01572  0.21479  Biso   1.000  C
  C577     1.0000 0.29533  0.00142  0.15918  Biso   1.000  C
  C578     1.0000 0.78113  0.81581  0.07689  Biso   1.000  C
  C579     1.0000 0.83449  0.73688  0.04330  Biso   1.000  C
  C580     1.0000 0.78107  0.81581  0.07689  Biso   1.000  C
  C581     1.0000 0.83449  0.73692  0.04330  Biso   1.000  C
  C582     1.0000 0.83455  0.73688  0.04330  Biso   1.000  C
  C583     1.0000 0.83455  0.73692  0.04330  Biso   1.000  C
  H525     1.0000 0.93117  0.70068  0.95762  Biso   1.000  H
  H526     1.0000 0.83335  0.68131  0.96233  Biso   1.000  H
  H527     1.0000 0.93111  0.70068  0.95762  Biso   1.000  H
  H528     1.0000 0.93117  0.70072  0.95762  Biso   1.000  H
  H529     1.0000 0.93111  0.70072  0.95762  Biso   1.000  H
  N346     1.0000 0.89703  0.73491  0.01510  Biso   1.000  N
  C584     1.0000 0.05805  0.98411  0.22220  Biso   1.000  C
  N347     1.0000 0.24433  0.97479  0.18558  Biso   1.000  N
  H530     1.0000 0.23757  0.00812  0.24978  Biso   1.000  H
  H531     1.0000 0.23750  0.00812  0.24978  Biso   1.000  H
  O147     1.0000 0.34003  0.97758  0.13429  Biso   1.000  O
  N348     1.0000 0.84970  0.79550  0.11178  Biso   1.000  N
  O148     1.0000 0.72872  0.85601  0.08250  Biso   1.000  O
  H532     1.0000 0.79949  0.70021  0.04099  Biso   1.000  H
  C585     1.0000 0.89335  0.74671  0.09491  Biso   1.000  C
  C586     1.0000 0.89327  0.74671  0.09487  Biso   1.000  C
  C587     1.0000 0.89334  0.74671  0.09487  Biso   1.000  C
  C588     1.0000 0.98463  0.74659  0.04038  Biso   1.000  C
  C589     1.0000 0.98457  0.74659  0.04038  Biso   1.000  C
  N349     1.0000 0.04145  0.92888  0.19799  Biso   1.000  N
  H533     1.0000 0.99910  0.00339  0.21928  Biso   1.000  H
  H534     1.0000 0.99917  0.00339  0.21928  Biso   1.000  H
  H535     1.0000 0.08563  0.97728  0.25680  Biso   1.000  H
  H536     1.0000 0.08563  0.97733  0.25680  Biso   1.000  H
  C590     1.0000 0.25577  0.91561  0.19669  Biso   1.000  C
  C591     1.0000 0.25570  0.91561  0.19669  Biso   1.000  C
  C592     1.0000 0.87301  0.81620  0.15810  Biso   1.000  C
  C593     1.0000 0.87307  0.81620  0.15810  Biso   1.000  C
  H537     1.0000 0.89411  0.71210  0.11570  Biso   1.000  H
  N350     1.0000 0.98053  0.75801  0.08710  Biso   1.000  N
  N351     1.0000 0.98051  0.75801  0.08707  Biso   1.000  N
  O149     1.0000 0.05150  0.74839  0.02420  Biso   1.000  O
  C594     1.0000 0.95325  0.90771  0.17878  Biso   1.000  C
  C595     1.0000 0.95318  0.90771  0.17878  Biso   1.000  C
  C596     1.0000 0.10372  0.88220  0.20748  Biso   1.000  C
  N352     1.0000 0.17203  0.88169  0.18260  Biso   1.000  N
  H538     1.0000 0.28135  0.91132  0.23180  Biso   1.000  H
  H539     1.0000 0.30035  0.89960  0.18040  Biso   1.000  H
  H540     1.0000 0.88083  0.78322  0.18051  Biso   1.000  H
  H541     1.0000 0.82186  0.83939  0.16321  Biso   1.000  H
  N353     1.0000 0.95726  0.85219  0.17148  Biso   1.000  N
  H542     1.0000 0.88081  0.78322  0.18047  Biso   1.000  H
  H543     1.0000 0.82178  0.83939  0.16317  Biso   1.000  H
  N354     1.0000 0.95719  0.85219  0.17148  Biso   1.000  N
  H544     1.0000 0.82184  0.83939  0.16317  Biso   1.000  H
  C597     1.0000 0.06174  0.75410  0.12530  Biso   1.000  C
  O150     1.0000 0.88505  0.93919  0.17091  Biso   1.000  O
  O151     1.0000 0.88497  0.93919  0.17087  Biso   1.000  O
  O152     1.0000 0.88504  0.93919  0.17087  Biso   1.000  O
  C598     1.0000 0.04572  0.82809  0.18738  Biso   1.000  C
  H545     1.0000 0.13077  0.87821  0.24291  Biso   1.000  H
  H546     1.0000 0.13069  0.87821  0.24288  Biso   1.000  H
  H547     1.0000 0.13076  0.87821  0.24288  Biso   1.000  H
  C599     1.0000 0.16025  0.83922  0.14688  Biso   1.000  C
  C600     1.0000 0.16018  0.83922  0.14688  Biso   1.000  C
  H548     1.0000 0.11203  0.74092  0.11188  Biso   1.000  H
  H549     1.0000 0.05295  0.72511  0.14889  Biso   1.000  H
  N355     1.0000 0.08692  0.80830  0.15001  Biso   1.000  N
  H550     1.0000 0.05288  0.72511  0.14889  Biso   1.000  H
  N356     1.0000 0.08690  0.80830  0.14997  Biso   1.000  N
  H551     1.0000 0.04865  0.79829  0.21288  Biso   1.000  H
  H552     1.0000 0.04858  0.79829  0.21288  Biso   1.000  H
  O153     1.0000 0.21090  0.83028  0.12098  Biso   1.000  O
  O154     1.0000 0.21096  0.83028  0.12098  Biso   1.000  O
  N357     1.0000 0.91318  0.19170  0.85001  Biso   1.000  N
  C601     1.0000 0.83992  0.16078  0.85314  Biso   1.000  C
  C602     1.0000 0.83990  0.16078  0.85310  Biso   1.000  C
  C603     1.0000 0.83992  0.16083  0.85314  Biso   1.000  C
  C604     1.0000 0.83990  0.16083  0.85310  Biso   1.000  C
  C605     1.0000 0.83998  0.16078  0.85314  Biso   1.000  C
  C606     1.0000 0.83998  0.16083  0.85314  Biso   1.000  C
  C607     1.0000 0.95445  0.17191  0.81264  Biso   1.000  C
  C608     1.0000 0.95443  0.17191  0.81260  Biso   1.000  C
  C609     1.0000 0.93842  0.24590  0.87472  Biso   1.000  C
  N358     1.0000 0.82814  0.11831  0.81742  Biso   1.000  N
  N359     1.0000 0.91325  0.19170  0.85001  Biso   1.000  N
  O155     1.0000 0.78927  0.16972  0.87903  Biso   1.000  O
  O156     1.0000 0.78920  0.16972  0.87903  Biso   1.000  O
  C610     1.0000 0.89645  0.11780  0.79253  Biso   1.000  C
  C611     1.0000 0.89643  0.11780  0.79250  Biso   1.000  C
  H553     1.0000 0.95152  0.20171  0.78714  Biso   1.000  H
  H554     1.0000 0.95150  0.20171  0.78710  Biso   1.000  H
  N360     1.0000 0.04291  0.14781  0.82854  Biso   1.000  N
  N361     1.0000 0.04289  0.14781  0.82850  Biso   1.000  N
  N362     1.0000 0.04298  0.14781  0.82854  Biso   1.000  N
  H555     1.0000 0.94722  0.27489  0.85112  Biso   1.000  H
  H556     1.0000 0.88814  0.25908  0.88813  Biso   1.000  H
  H557     1.0000 0.88814  0.25913  0.88813  Biso   1.000  H
  N363     1.0000 0.01964  0.24199  0.91291  Biso   1.000  N
  C612     1.0000 0.74440  0.08439  0.80332  Biso   1.000  C
  C613     1.0000 0.74446  0.08439  0.80332  Biso   1.000  C
  N364     1.0000 0.95872  0.07112  0.80203  Biso   1.000  N
  H558     1.0000 0.86939  0.12179  0.75711  Biso   1.000  H
  H559     1.0000 0.86946  0.12179  0.75711  Biso   1.000  H
  C614     1.0000 0.04692  0.09229  0.82123  Biso   1.000  C
  C615     1.0000 0.04690  0.09229  0.82120  Biso   1.000  C
  C616     1.0000 0.04698  0.09229  0.82123  Biso   1.000  C
  C617     1.0000 0.12716  0.18380  0.84192  Biso   1.000  C
  C618     1.0000 0.12710  0.18380  0.84192  Biso   1.000  C
  C619     1.0000 0.01553  0.25341  0.95964  Biso   1.000  C
  C620     1.0000 0.10681  0.25329  0.90511  Biso   1.000  C
  C621     1.0000 0.01552  0.25341  0.95960  Biso   1.000  C
  C622     1.0000 0.01560  0.25341  0.95964  Biso   1.000  C
  C623     1.0000 0.10688  0.25329  0.90511  Biso   1.000  C
  H560     1.0000 0.69981  0.10040  0.81962  Biso   1.000  H
  H561     1.0000 0.71881  0.08868  0.76822  Biso   1.000  H
  N365     1.0000 0.75584  0.02521  0.81444  Biso   1.000  N
  N366     1.0000 0.75582  0.02521  0.81440  Biso   1.000  N
  H562     1.0000 0.71881  0.08872  0.76822  Biso   1.000  H
  C624     1.0000 0.94211  0.01589  0.77782  Biso   1.000  C
  O157     1.0000 0.11511  0.06081  0.82911  Biso   1.000  O
  H563     1.0000 0.11934  0.21678  0.81951  Biso   1.000  H
  H564     1.0000 0.17831  0.16061  0.83681  Biso   1.000  H
  N367     1.0000 0.15047  0.20450  0.88824  Biso   1.000  N
  N368     1.0000 0.15039  0.20450  0.88821  Biso   1.000  N
  H565     1.0000 0.11934  0.21683  0.81951  Biso   1.000  H
  H566     1.0000 0.17837  0.16061  0.83681  Biso   1.000  H
  N369     1.0000 0.15045  0.20450  0.88821  Biso   1.000  N
  O158     1.0000 0.94867  0.25161  0.97582  Biso   1.000  O
  N370     1.0000 0.10314  0.26509  0.98492  Biso   1.000  N
  C625     1.0000 0.16568  0.26312  0.95672  Biso   1.000  C
  H567     1.0000 0.10605  0.28790  0.88432  Biso   1.000  H
  C626     1.0000 0.16561  0.26312  0.95672  Biso   1.000  C
  C627     1.0000 0.70484  0.99858  0.84084  Biso   1.000  C
  C628     1.0000 0.78846  0.98428  0.78523  Biso   1.000  C
  C629     1.0000 0.70482  0.99858  0.84080  Biso   1.000  C
  C630     1.0000 0.78839  0.98428  0.78523  Biso   1.000  C
  C631     1.0000 0.78846  0.98433  0.78523  Biso   1.000  C
  C632     1.0000 0.78839  0.98433  0.78523  Biso   1.000  C
  N371     1.0000 0.88386  0.97788  0.79613  Biso   1.000  N
  N372     1.0000 0.88379  0.97788  0.79613  Biso   1.000  N
  H568     1.0000 0.91453  0.02272  0.74322  Biso   1.000  H
  H569     1.0000 0.00107  0.99661  0.78074  Biso   1.000  H
  H570     1.0000 0.00098  0.99661  0.78070  Biso   1.000  H
  C633     1.0000 0.21903  0.18419  0.92313  Biso   1.000  C
  C634     1.0000 0.12541  0.28541  0.03499  Biso   1.000  C
  H571     1.0000 0.20067  0.29979  0.95902  Biso   1.000  H
  N373     1.0000 0.22578  0.21360  0.96453  Biso   1.000  N
  H572     1.0000 0.20061  0.29979  0.95902  Biso   1.000  H
  N374     1.0000 0.22571  0.21360  0.96453  Biso   1.000  N
  O159     1.0000 0.66014  0.02242  0.86573  Biso   1.000  O
  N375     1.0000 0.71094  0.93971  0.83573  Biso   1.000  N
  H573     1.0000 0.76260  0.99188  0.75024  Biso   1.000  H
  C635     1.0000 0.75524  0.92579  0.80034  Biso   1.000  C
  H574     1.0000 0.76258  0.99188  0.75020  Biso   1.000  H
  C636     1.0000 0.75523  0.92579  0.80030  Biso   1.000  C
  H575     1.0000 0.76266  0.99188  0.75024  Biso   1.000  H
  C637     1.0000 0.91363  0.92369  0.81242  Biso   1.000  C
  O160     1.0000 0.27145  0.14399  0.91752  Biso   1.000  O
  N376     1.0000 0.16615  0.24448  0.07038  Biso   1.000  N
  H576     1.0000 0.06900  0.29932  0.04240  Biso   1.000  H
  H577     1.0000 0.16682  0.31869  0.03768  Biso   1.000  H
  N377     1.0000 0.16608  0.24448  0.07038  Biso   1.000  N
  N378     1.0000 0.16615  0.24452  0.07038  Biso   1.000  N
  N379     1.0000 0.16608  0.24452  0.07038  Biso   1.000  N
  H578     1.0000 0.06906  0.29932  0.04240  Biso   1.000  H
  C638     1.0000 0.30583  0.20991  0.00470  Biso   1.000  C
  C639     1.0000 0.30582  0.20991  0.00467  Biso   1.000  C
  C640     1.0000 0.64376  0.90222  0.85001  Biso   1.000  C
  C641     1.0000 0.64369  0.90222  0.85001  Biso   1.000  C
  H579     1.0000 0.71393  0.90578  0.77243  Biso   1.000  H
  N380     1.0000 0.83842  0.89440  0.81821  Biso   1.000  N
  H580     1.0000 0.71393  0.90582  0.77243  Biso   1.000  H
  O161     1.0000 0.98984  0.90720  0.82034  Biso   1.000  O
  O162     1.0000 0.98982  0.90720  0.82030  Biso   1.000  O
  C642     1.0000 0.12450  0.22022  0.09991  Biso   1.000  C
  C643     1.0000 0.26211  0.23100  0.08329  Biso   1.000  C
  C644     1.0000 0.12448  0.22022  0.09987  Biso   1.000  C
  C645     1.0000 0.12457  0.22022  0.09991  Biso   1.000  C
  H581     1.0000 0.34947  0.18299  0.99593  Biso   1.000  H
  N381     1.0000 0.28968  0.19162  0.04898  Biso   1.000  N
  H582     1.0000 0.33504  0.24822  0.00959  Biso   1.000  H
  H583     1.0000 0.33497  0.24822  0.00959  Biso   1.000  H
  N382     1.0000 0.28975  0.19162  0.04898  Biso   1.000  N
  H584     1.0000 0.60545  0.88319  0.82113  Biso   1.000  H
  H585     1.0000 0.60404  0.92571  0.86483  Biso   1.000  H
  N383     1.0000 0.68751  0.86060  0.88263  Biso   1.000  N
  H586     1.0000 0.60539  0.88319  0.82113  Biso   1.000  H
  N384     1.0000 0.68757  0.86060  0.88263  Biso   1.000  N
  C646     1.0000 0.83804  0.83252  0.82282  Biso   1.000  C
  C647     1.0000 0.83798  0.83252  0.82282  Biso   1.000  C
  N385     1.0000 0.18293  0.18681  0.13390  Biso   1.000  N
  O163     1.0000 0.04192  0.22709  0.09930  Biso   1.000  O
  C648     1.0000 0.27521  0.19200  0.12829  Biso   1.000  C
  H587     1.0000 0.30074  0.26630  0.08980  Biso   1.000  H
  C649     1.0000 0.32324  0.14189  0.07228  Biso   1.000  C
  C650     1.0000 0.32317  0.14189  0.07228  Biso   1.000  C
  C651     1.0000 0.67693  0.85811  0.92773  Biso   1.000  C
  C652     1.0000 0.72495  0.80800  0.87173  Biso   1.000  C
  H588     1.0000 0.89820  0.81749  0.82192  Biso   1.000  H
  H589     1.0000 0.79279  0.81628  0.79491  Biso   1.000  H
  N386     1.0000 0.81723  0.81319  0.86612  Biso   1.000  N
  H590     1.0000 0.89827  0.81749  0.82192  Biso   1.000  H
  H591     1.0000 0.79286  0.81628  0.79491  Biso   1.000  H
  C653     1.0000 0.16212  0.16748  0.17720  Biso   1.000  C
  C654     1.0000 0.16212  0.16753  0.17720  Biso   1.000  C
  H592     1.0000 0.31596  0.21068  0.15720  Biso   1.000  H
  N387     1.0000 0.31266  0.13940  0.11739  Biso   1.000  N
  H593     1.0000 0.31589  0.21068  0.15720  Biso   1.000  H
  N388     1.0000 0.31259  0.13940  0.11739  Biso   1.000  N
  O164     1.0000 0.36029  0.10470  0.05268  Biso   1.000  O
  O165     1.0000 0.36035  0.10470  0.05268  Biso   1.000  O
  N389     1.0000 0.71049  0.80838  0.95104  Biso   1.000  N
  O166     1.0000 0.63988  0.89530  0.94734  Biso   1.000  O
  N390     1.0000 0.71040  0.80838  0.95100  Biso   1.000  N
  O167     1.0000 0.63980  0.89530  0.94730  Biso   1.000  O
  H594     1.0000 0.68421  0.78932  0.84282  Biso   1.000  H
  C655     1.0000 0.73806  0.76900  0.91673  Biso   1.000  C
  H595     1.0000 0.68427  0.78932  0.84282  Biso   1.000  H
  C656     1.0000 0.87567  0.77978  0.90011  Biso   1.000  C
  C657     1.0000 0.87560  0.77978  0.90011  Biso   1.000  C
  C658     1.0000 0.87567  0.77982  0.90011  Biso   1.000  C
  C659     1.0000 0.87560  0.77982  0.90011  Biso   1.000  C
  H596     1.0000 0.10196  0.18251  0.17810  Biso   1.000  H
  H597     1.0000 0.20737  0.18372  0.20511  Biso   1.000  H
  N391     1.0000 0.16175  0.10560  0.18180  Biso   1.000  N
  H598     1.0000 0.10190  0.18251  0.17810  Biso   1.000  H
  H599     1.0000 0.20729  0.18372  0.20507  Biso   1.000  H
  N392     1.0000 0.16173  0.10560  0.18177  Biso   1.000  N
  H600     1.0000 0.20736  0.18372  0.20507  Biso   1.000  H
  C660     1.0000 0.35641  0.09778  0.15001  Biso   1.000  C
  C661     1.0000 0.35639  0.09778  0.14997  Biso   1.000  C
  C662     1.0000 0.35648  0.09778  0.15001  Biso   1.000  C
  C663     1.0000 0.69433  0.79009  0.99532  Biso   1.000  C
  H601     1.0000 0.69943  0.73370  0.91022  Biso   1.000  H
  N393     1.0000 0.83402  0.75552  0.92964  Biso   1.000  N
  N394     1.0000 0.83400  0.75552  0.92960  Biso   1.000  N
  N395     1.0000 0.83409  0.75552  0.92964  Biso   1.000  N
  O168     1.0000 0.95825  0.77291  0.90072  Biso   1.000  O
  C664     1.0000 0.08654  0.07631  0.18759  Biso   1.000  C
  C665     1.0000 0.24492  0.07421  0.19968  Biso   1.000  C
  H602     1.0000 0.39471  0.11681  0.17889  Biso   1.000  H
  H603     1.0000 0.39612  0.07429  0.13519  Biso   1.000  H
  N396     1.0000 0.28923  0.06029  0.16429  Biso   1.000  N
  H604     1.0000 0.39478  0.11681  0.17889  Biso   1.000  H
  H605     1.0000 0.66513  0.75178  0.99042  Biso   1.000  H
  H606     1.0000 0.66519  0.75178  0.99042  Biso   1.000  H
  H607     1.0000 0.65070  0.81701  0.00409  Biso   1.000  H
  N397     1.0000 0.77439  0.78640  0.03549  Biso   1.000  N
  C666     1.0000 0.87476  0.71459  0.96503  Biso   1.000  C
  N398     1.0000 0.11631  0.02212  0.20389  Biso   1.000  N
  O169     1.0000 0.01033  0.09280  0.17968  Biso   1.000  O
  N399     1.0000 0.11637  0.02212  0.20389  Biso   1.000  N
  C667     1.0000 0.21171  0.01572  0.21479  Biso   1.000  C
  H608     1.0000 0.28624  0.09422  0.22759  Biso   1.000  H
  C668     1.0000 0.21177  0.01572  0.21479  Biso   1.000  C
  C669     1.0000 0.29533  0.00142  0.15918  Biso   1.000  C
  C670     1.0000 0.78113  0.81581  0.07689  Biso   1.000  C
  C671     1.0000 0.83449  0.73688  0.04330  Biso   1.000  C
  C672     1.0000 0.78107  0.81581  0.07689  Biso   1.000  C
  C673     1.0000 0.83449  0.73692  0.04330  Biso   1.000  C
  C674     1.0000 0.83455  0.73688  0.04330  Biso   1.000  C
  C675     1.0000 0.83455  0.73692  0.04330  Biso   1.000  C
  H609     1.0000 0.93117  0.70068  0.95762  Biso   1.000  H
  H610     1.0000 0.83335  0.68131  0.96233  Biso   1.000  H
  H611     1.0000 0.93111  0.70068  0.95762  Biso   1.000  H
  H612     1.0000 0.93117  0.70072  0.95762  Biso   1.000  H
  H613     1.0000 0.93111  0.70072  0.95762  Biso   1.000  H
  N400     1.0000 0.89703  0.73491  0.01510  Biso   1.000  N
  C676     1.0000 0.05805  0.98411  0.22220  Biso   1.000  C
  N401     1.0000 0.24433  0.97479  0.18558  Biso   1.000  N
  H614     1.0000 0.23757  0.00812  0.24978  Biso   1.000  H
  H615     1.0000 0.23750  0.00812  0.24978  Biso   1.000  H
  O170     1.0000 0.34003  0.97758  0.13429  Biso   1.000  O
  N402     1.0000 0.84970  0.79550  0.11178  Biso   1.000  N
  O171     1.0000 0.72872  0.85601  0.08250  Biso   1.000  O
  H616     1.0000 0.79949  0.70021  0.04099  Biso   1.000  H
  C677     1.0000 0.89335  0.74671  0.09491  Biso   1.000  C
  C678     1.0000 0.89327  0.74671  0.09487  Biso   1.000  C
  C679     1.0000 0.89334  0.74671  0.09487  Biso   1.000  C
  C680     1.0000 0.98463  0.74659  0.04038  Biso   1.000  C
  C681     1.0000 0.98457  0.74659  0.04038  Biso   1.000  C
  H617     1.0000 0.99910  0.00339  0.21928  Biso   1.000  H
  H618     1.0000 0.99917  0.00339  0.21928  Biso   1.000  H
  H619     1.0000 0.08563  0.97728  0.25680  Biso   1.000  H
  N403     1.0000 0.04145  0.92888  0.19799  Biso   1.000  N
  H620     1.0000 0.08563  0.97733  0.25680  Biso   1.000  H
  C682     1.0000 0.25577  0.91561  0.19669  Biso   1.000  C
  C683     1.0000 0.25570  0.91561  0.19669  Biso   1.000  C
  C684     1.0000 0.87301  0.81620  0.15810  Biso   1.000  C
  C685     1.0000 0.87307  0.81620  0.15810  Biso   1.000  C
  H621     1.0000 0.89411  0.71210  0.11570  Biso   1.000  H
  N404     1.0000 0.98053  0.75801  0.08710  Biso   1.000  N
  N405     1.0000 0.98051  0.75801  0.08707  Biso   1.000  N
  O172     1.0000 0.05150  0.74839  0.02420  Biso   1.000  O
  C686     1.0000 0.95325  0.90771  0.17878  Biso   1.000  C
  C687     1.0000 0.95318  0.90771  0.17878  Biso   1.000  C
  C688     1.0000 0.10372  0.88220  0.20748  Biso   1.000  C
  H622     1.0000 0.28135  0.91132  0.23180  Biso   1.000  H
  H623     1.0000 0.30035  0.89960  0.18040  Biso   1.000  H
  N406     1.0000 0.17203  0.88169  0.18260  Biso   1.000  N
  H624     1.0000 0.88083  0.78322  0.18051  Biso   1.000  H
  H625     1.0000 0.82186  0.83939  0.16321  Biso   1.000  H
  N407     1.0000 0.95726  0.85219  0.17148  Biso   1.000  N
  H626     1.0000 0.88081  0.78322  0.18047  Biso   1.000  H
  H627     1.0000 0.82178  0.83939  0.16317  Biso   1.000  H
  N408     1.0000 0.95719  0.85219  0.17148  Biso   1.000  N
  H628     1.0000 0.82184  0.83939  0.16317  Biso   1.000  H
  C689     1.0000 0.06174  0.75410  0.12530  Biso   1.000  C
  O173     1.0000 0.88505  0.93919  0.17091  Biso   1.000  O
  O174     1.0000 0.88497  0.93919  0.17087  Biso   1.000  O
  O175     1.0000 0.88504  0.93919  0.17087  Biso   1.000  O
  C690     1.0000 0.04572  0.82809  0.18738  Biso   1.000  C
  H629     1.0000 0.13077  0.87821  0.24291  Biso   1.000  H
  H630     1.0000 0.13069  0.87821  0.24288  Biso   1.000  H
  H631     1.0000 0.13076  0.87821  0.24288  Biso   1.000  H
  C691     1.0000 0.16025  0.83922  0.14688  Biso   1.000  C
  C692     1.0000 0.16018  0.83922  0.14688  Biso   1.000  C
  H632     1.0000 0.11203  0.74092  0.11188  Biso   1.000  H
  H633     1.0000 0.05295  0.72511  0.14889  Biso   1.000  H
  N409     1.0000 0.08692  0.80830  0.15001  Biso   1.000  N
  H634     1.0000 0.05288  0.72511  0.14889  Biso   1.000  H
  N410     1.0000 0.08690  0.80830  0.14997  Biso   1.000  N
  H635     1.0000 0.04865  0.79829  0.21288  Biso   1.000  H
  H636     1.0000 0.04858  0.79829  0.21288  Biso   1.000  H
  O176     1.0000 0.21090  0.83028  0.12098  Biso   1.000  O
  O177     1.0000 0.21096  0.83028  0.12098  Biso   1.000  O
  N411     1.0000 0.91318  0.19170  0.85001  Biso   1.000  N
  C693     1.0000 0.83992  0.16078  0.85314  Biso   1.000  C
  C694     1.0000 0.83990  0.16078  0.85310  Biso   1.000  C
  C695     1.0000 0.83992  0.16083  0.85314  Biso   1.000  C
  C696     1.0000 0.83990  0.16083  0.85310  Biso   1.000  C
  C697     1.0000 0.83998  0.16078  0.85314  Biso   1.000  C
  C698     1.0000 0.83998  0.16083  0.85314  Biso   1.000  C
  C699     1.0000 0.95445  0.17191  0.81264  Biso   1.000  C
  C700     1.0000 0.95443  0.17191  0.81260  Biso   1.000  C
  C701     1.0000 0.93842  0.24590  0.87472  Biso   1.000  C
  N412     1.0000 0.82814  0.11831  0.81742  Biso   1.000  N
  N413     1.0000 0.91325  0.19170  0.85001  Biso   1.000  N
  O178     1.0000 0.78927  0.16972  0.87903  Biso   1.000  O
  O179     1.0000 0.78920  0.16972  0.87903  Biso   1.000  O
  C702     1.0000 0.89645  0.11780  0.79253  Biso   1.000  C
  C703     1.0000 0.89643  0.11780  0.79250  Biso   1.000  C
  H637     1.0000 0.95152  0.20171  0.78714  Biso   1.000  H
  H638     1.0000 0.95150  0.20171  0.78710  Biso   1.000  H
  N414     1.0000 0.04291  0.14781  0.82854  Biso   1.000  N
  N415     1.0000 0.04289  0.14781  0.82850  Biso   1.000  N
  N416     1.0000 0.04298  0.14781  0.82854  Biso   1.000  N
  H639     1.0000 0.94722  0.27489  0.85112  Biso   1.000  H
  H640     1.0000 0.88814  0.25908  0.88813  Biso   1.000  H
  H641     1.0000 0.88814  0.25913  0.88813  Biso   1.000  H
  N417     1.0000 0.01964  0.24199  0.91291  Biso   1.000  N
  C704     1.0000 0.74440  0.08439  0.80332  Biso   1.000  C
  C705     1.0000 0.74446  0.08439  0.80332  Biso   1.000  C
  N418     1.0000 0.95872  0.07112  0.80203  Biso   1.000  N
  H642     1.0000 0.86939  0.12179  0.75711  Biso   1.000  H
  H643     1.0000 0.86946  0.12179  0.75711  Biso   1.000  H
  C706     1.0000 0.04692  0.09229  0.82123  Biso   1.000  C
  C707     1.0000 0.04690  0.09229  0.82120  Biso   1.000  C
  C708     1.0000 0.04698  0.09229  0.82123  Biso   1.000  C
  C709     1.0000 0.12716  0.18380  0.84192  Biso   1.000  C
  C710     1.0000 0.12710  0.18380  0.84192  Biso   1.000  C
  C711     1.0000 0.01553  0.25341  0.95964  Biso   1.000  C
  C712     1.0000 0.10681  0.25329  0.90511  Biso   1.000  C
  C713     1.0000 0.01552  0.25341  0.95960  Biso   1.000  C
  C714     1.0000 0.01560  0.25341  0.95964  Biso   1.000  C
  C715     1.0000 0.10688  0.25329  0.90511  Biso   1.000  C
  H644     1.0000 0.69981  0.10040  0.81962  Biso   1.000  H
  H645     1.0000 0.71881  0.08868  0.76822  Biso   1.000  H
  N419     1.0000 0.75584  0.02521  0.81444  Biso   1.000  N
  N420     1.0000 0.75582  0.02521  0.81440  Biso   1.000  N
  H646     1.0000 0.71881  0.08872  0.76822  Biso   1.000  H
  C716     1.0000 0.94211  0.01589  0.77782  Biso   1.000  C
  O180     1.0000 0.11511  0.06081  0.82911  Biso   1.000  O
  H647     1.0000 0.11934  0.21678  0.81951  Biso   1.000  H
  H648     1.0000 0.17831  0.16061  0.83681  Biso   1.000  H
  N421     1.0000 0.15047  0.20450  0.88824  Biso   1.000  N
  N422     1.0000 0.15039  0.20450  0.88821  Biso   1.000  N
  H649     1.0000 0.11934  0.21683  0.81951  Biso   1.000  H
  H650     1.0000 0.17837  0.16061  0.83681  Biso   1.000  H
  N423     1.0000 0.15045  0.20450  0.88821  Biso   1.000  N
  O181     1.0000 0.94867  0.25161  0.97582  Biso   1.000  O
  N424     1.0000 0.10314  0.26509  0.98492  Biso   1.000  N
  C717     1.0000 0.16568  0.26312  0.95672  Biso   1.000  C
  H651     1.0000 0.10605  0.28790  0.88432  Biso   1.000  H
  C718     1.0000 0.16561  0.26312  0.95672  Biso   1.000  C
  C719     1.0000 0.70484  0.99858  0.84084  Biso   1.000  C
  C720     1.0000 0.78846  0.98428  0.78523  Biso   1.000  C
  C721     1.0000 0.70482  0.99858  0.84080  Biso   1.000  C
  C722     1.0000 0.78839  0.98428  0.78523  Biso   1.000  C
  C723     1.0000 0.78846  0.98433  0.78523  Biso   1.000  C
  C724     1.0000 0.78839  0.98433  0.78523  Biso   1.000  C
  N425     1.0000 0.88386  0.97788  0.79613  Biso   1.000  N
  N426     1.0000 0.88379  0.97788  0.79613  Biso   1.000  N
  H652     1.0000 0.91453  0.02272  0.74322  Biso   1.000  H
  H653     1.0000 0.00107  0.99661  0.78074  Biso   1.000  H
  H654     1.0000 0.00098  0.99661  0.78070  Biso   1.000  H
  C725     1.0000 0.21903  0.18419  0.92313  Biso   1.000  C
  C726     1.0000 0.12541  0.28541  0.03499  Biso   1.000  C
  H655     1.0000 0.20067  0.29979  0.95902  Biso   1.000  H
  N427     1.0000 0.22578  0.21360  0.96453  Biso   1.000  N
  H656     1.0000 0.20061  0.29979  0.95902  Biso   1.000  H
  N428     1.0000 0.22571  0.21360  0.96453  Biso   1.000  N
  O182     1.0000 0.66014  0.02242  0.86573  Biso   1.000  O
  N429     1.0000 0.71094  0.93971  0.83573  Biso   1.000  N
  H657     1.0000 0.76260  0.99188  0.75024  Biso   1.000  H
  C727     1.0000 0.75524  0.92579  0.80034  Biso   1.000  C
  H658     1.0000 0.76258  0.99188  0.75020  Biso   1.000  H
  C728     1.0000 0.75523  0.92579  0.80030  Biso   1.000  C
  H659     1.0000 0.76266  0.99188  0.75024  Biso   1.000  H
  C729     1.0000 0.91363  0.92369  0.81242  Biso   1.000  C
  O183     1.0000 0.27145  0.14399  0.91752  Biso   1.000  O
  N430     1.0000 0.16615  0.24448  0.07038  Biso   1.000  N
  H660     1.0000 0.06900  0.29932  0.04240  Biso   1.000  H
  H661     1.0000 0.16682  0.31869  0.03768  Biso   1.000  H
  N431     1.0000 0.16608  0.24448  0.07038  Biso   1.000  N
  N432     1.0000 0.16615  0.24452  0.07038  Biso   1.000  N
  N433     1.0000 0.16608  0.24452  0.07038  Biso   1.000  N
  H662     1.0000 0.06906  0.29932  0.04240  Biso   1.000  H
  C730     1.0000 0.30583  0.20991  0.00470  Biso   1.000  C
  C731     1.0000 0.30582  0.20991  0.00467  Biso   1.000  C
  C732     1.0000 0.64376  0.90222  0.85001  Biso   1.000  C
  C733     1.0000 0.64369  0.90222  0.85001  Biso   1.000  C
  H663     1.0000 0.71393  0.90578  0.77243  Biso   1.000  H
  N434     1.0000 0.83842  0.89440  0.81821  Biso   1.000  N
  H664     1.0000 0.71393  0.90582  0.77243  Biso   1.000  H
  O184     1.0000 0.98984  0.90720  0.82034  Biso   1.000  O
  O185     1.0000 0.98982  0.90720  0.82030  Biso   1.000  O
  C734     1.0000 0.12450  0.22022  0.09991  Biso   1.000  C
  C735     1.0000 0.26211  0.23100  0.08329  Biso   1.000  C
  C736     1.0000 0.12448  0.22022  0.09987  Biso   1.000  C
  C737     1.0000 0.12457  0.22022  0.09991  Biso   1.000  C
  H665     1.0000 0.34947  0.18299  0.99593  Biso   1.000  H
  N435     1.0000 0.28968  0.19162  0.04898  Biso   1.000  N
  H666     1.0000 0.33504  0.24822  0.00959  Biso   1.000  H
  H667     1.0000 0.33497  0.24822  0.00959  Biso   1.000  H
  N436     1.0000 0.28975  0.19162  0.04898  Biso   1.000  N
  H668     1.0000 0.60545  0.88319  0.82113  Biso   1.000  H
  H669     1.0000 0.60404  0.92571  0.86483  Biso   1.000  H
  N437     1.0000 0.68751  0.86060  0.88263  Biso   1.000  N
  H670     1.0000 0.60539  0.88319  0.82113  Biso   1.000  H
  N438     1.0000 0.68757  0.86060  0.88263  Biso   1.000  N
  C738     1.0000 0.83804  0.83252  0.82282  Biso   1.000  C
  C739     1.0000 0.83798  0.83252  0.82282  Biso   1.000  C
  N439     1.0000 0.18293  0.18681  0.13390  Biso   1.000  N
  O186     1.0000 0.04192  0.22709  0.09930  Biso   1.000  O
  C740     1.0000 0.27521  0.19200  0.12829  Biso   1.000  C
  H671     1.0000 0.30074  0.26630  0.08980  Biso   1.000  H
  C741     1.0000 0.32324  0.14189  0.07228  Biso   1.000  C
  C742     1.0000 0.32317  0.14189  0.07228  Biso   1.000  C
  C743     1.0000 0.67693  0.85811  0.92773  Biso   1.000  C
  C744     1.0000 0.72495  0.80800  0.87173  Biso   1.000  C
  H672     1.0000 0.89820  0.81749  0.82192  Biso   1.000  H
  H673     1.0000 0.79279  0.81628  0.79491  Biso   1.000  H
  N440     1.0000 0.81723  0.81319  0.86612  Biso   1.000  N
  H674     1.0000 0.89827  0.81749  0.82192  Biso   1.000  H
  H675     1.0000 0.79286  0.81628  0.79491  Biso   1.000  H
  C745     1.0000 0.16212  0.16748  0.17720  Biso   1.000  C
  C746     1.0000 0.16212  0.16753  0.17720  Biso   1.000  C
  H676     1.0000 0.31596  0.21068  0.15720  Biso   1.000  H
  N441     1.0000 0.31266  0.13940  0.11739  Biso   1.000  N
  H677     1.0000 0.31589  0.21068  0.15720  Biso   1.000  H
  N442     1.0000 0.31259  0.13940  0.11739  Biso   1.000  N
  O187     1.0000 0.36029  0.10470  0.05268  Biso   1.000  O
  O188     1.0000 0.36035  0.10470  0.05268  Biso   1.000  O
  N443     1.0000 0.71049  0.80838  0.95104  Biso   1.000  N
  O189     1.0000 0.63988  0.89530  0.94734  Biso   1.000  O
  N444     1.0000 0.71040  0.80838  0.95100  Biso   1.000  N
  O190     1.0000 0.63980  0.89530  0.94730  Biso   1.000  O
  H678     1.0000 0.68421  0.78932  0.84282  Biso   1.000  H
  C747     1.0000 0.73806  0.76900  0.91673  Biso   1.000  C
  H679     1.0000 0.68427  0.78932  0.84282  Biso   1.000  H
  C748     1.0000 0.87567  0.77978  0.90011  Biso   1.000  C
  C749     1.0000 0.87560  0.77978  0.90011  Biso   1.000  C
  C750     1.0000 0.87567  0.77982  0.90011  Biso   1.000  C
  C751     1.0000 0.87560  0.77982  0.90011  Biso   1.000  C
  H680     1.0000 0.10196  0.18251  0.17810  Biso   1.000  H
  H681     1.0000 0.20737  0.18372  0.20511  Biso   1.000  H
  N445     1.0000 0.16175  0.10560  0.18180  Biso   1.000  N
  H682     1.0000 0.10190  0.18251  0.17810  Biso   1.000  H
  H683     1.0000 0.20729  0.18372  0.20507  Biso   1.000  H
  N446     1.0000 0.16173  0.10560  0.18177  Biso   1.000  N
  H684     1.0000 0.20736  0.18372  0.20507  Biso   1.000  H
  C752     1.0000 0.35641  0.09778  0.15001  Biso   1.000  C
  C753     1.0000 0.35639  0.09778  0.14997  Biso   1.000  C
  C754     1.0000 0.35648  0.09778  0.15001  Biso   1.000  C
  C755     1.0000 0.69433  0.79009  0.99532  Biso   1.000  C
  H685     1.0000 0.69943  0.73370  0.91022  Biso   1.000  H
  N447     1.0000 0.83402  0.75552  0.92964  Biso   1.000  N
  N448     1.0000 0.83400  0.75552  0.92960  Biso   1.000  N
  N449     1.0000 0.83409  0.75552  0.92964  Biso   1.000  N
  O191     1.0000 0.95825  0.77291  0.90072  Biso   1.000  O
  C756     1.0000 0.08654  0.07631  0.18759  Biso   1.000  C
  C757     1.0000 0.24492  0.07421  0.19968  Biso   1.000  C
  H686     1.0000 0.39471  0.11681  0.17889  Biso   1.000  H
  H687     1.0000 0.39612  0.07429  0.13519  Biso   1.000  H
  N450     1.0000 0.28923  0.06029  0.16429  Biso   1.000  N
  H688     1.0000 0.39478  0.11681  0.17889  Biso   1.000  H
  H689     1.0000 0.66513  0.75178  0.99042  Biso   1.000  H
  H690     1.0000 0.66519  0.75178  0.99042  Biso   1.000  H
  H691     1.0000 0.65070  0.81701  0.00409  Biso   1.000  H
  N451     1.0000 0.77439  0.78640  0.03549  Biso   1.000  N
  C758     1.0000 0.87476  0.71459  0.96503  Biso   1.000  C
  N452     1.0000 0.11631  0.02212  0.20389  Biso   1.000  N
  O192     1.0000 0.01033  0.09280  0.17968  Biso   1.000  O
  N453     1.0000 0.11637  0.02212  0.20389  Biso   1.000  N
  C759     1.0000 0.21171  0.01572  0.21479  Biso   1.000  C
  H692     1.0000 0.28624  0.09422  0.22759  Biso   1.000  H
  C760     1.0000 0.21177  0.01572  0.21479  Biso   1.000  C
  C761     1.0000 0.29533  0.00142  0.15918  Biso   1.000  C
  C762     1.0000 0.78113  0.81581  0.07689  Biso   1.000  C
  C763     1.0000 0.83449  0.73688  0.04330  Biso   1.000  C
  C764     1.0000 0.78107  0.81581  0.07689  Biso   1.000  C
  C765     1.0000 0.83449  0.73692  0.04330  Biso   1.000  C
  C766     1.0000 0.83455  0.73688  0.04330  Biso   1.000  C
  C767     1.0000 0.83455  0.73692  0.04330  Biso   1.000  C
  H693     1.0000 0.93117  0.70068  0.95762  Biso   1.000  H
  H694     1.0000 0.83335  0.68131  0.96233  Biso   1.000  H
  H695     1.0000 0.93111  0.70068  0.95762  Biso   1.000  H
  H696     1.0000 0.93117  0.70072  0.95762  Biso   1.000  H
  H697     1.0000 0.93111  0.70072  0.95762  Biso   1.000  H
  N454     1.0000 0.89703  0.73491  0.01510  Biso   1.000  N
  C768     1.0000 0.05805  0.98411  0.22220  Biso   1.000  C
  N455     1.0000 0.24433  0.97479  0.18558  Biso   1.000  N
  H698     1.0000 0.23757  0.00812  0.24978  Biso   1.000  H
  H699     1.0000 0.23750  0.00812  0.24978  Biso   1.000  H
  O193     1.0000 0.34003  0.97758  0.13429  Biso   1.000  O
  N456     1.0000 0.84970  0.79550  0.11178  Biso   1.000  N
  O194     1.0000 0.72872  0.85601  0.08250  Biso   1.000  O
  H700     1.0000 0.79949  0.70021  0.04099  Biso   1.000  H
  C769     1.0000 0.89335  0.74671  0.09491  Biso   1.000  C
  C770     1.0000 0.89327  0.74671  0.09487  Biso   1.000  C
  C771     1.0000 0.89334  0.74671  0.09487  Biso   1.000  C
  C772     1.0000 0.98463  0.74659  0.04038  Biso   1.000  C
  C773     1.0000 0.98457  0.74659  0.04038  Biso   1.000  C
  H701     1.0000 0.99910  0.00339  0.21928  Biso   1.000  H
  H702     1.0000 0.99917  0.00339  0.21928  Biso   1.000  H
  H703     1.0000 0.08563  0.97728  0.25680  Biso   1.000  H
  N457     1.0000 0.04145  0.92888  0.19799  Biso   1.000  N
  H704     1.0000 0.08563  0.97733  0.25680  Biso   1.000  H
  C774     1.0000 0.25577  0.91561  0.19669  Biso   1.000  C
  C775     1.0000 0.25570  0.91561  0.19669  Biso   1.000  C
  C776     1.0000 0.87301  0.81620  0.15810  Biso   1.000  C
  C777     1.0000 0.87307  0.81620  0.15810  Biso   1.000  C
  H705     1.0000 0.89411  0.71210  0.11570  Biso   1.000  H
  N458     1.0000 0.98053  0.75801  0.08710  Biso   1.000  N
  N459     1.0000 0.98051  0.75801  0.08707  Biso   1.000  N
  O195     1.0000 0.05150  0.74839  0.02420  Biso   1.000  O
  C778     1.0000 0.95325  0.90771  0.17878  Biso   1.000  C
  C779     1.0000 0.95318  0.90771  0.17878  Biso   1.000  C
  C780     1.0000 0.10372  0.88220  0.20748  Biso   1.000  C
  H706     1.0000 0.28135  0.91132  0.23180  Biso   1.000  H
  H707     1.0000 0.30035  0.89960  0.18040  Biso   1.000  H
  N460     1.0000 0.17203  0.88169  0.18260  Biso   1.000  N
  H708     1.0000 0.88083  0.78322  0.18051  Biso   1.000  H
  H709     1.0000 0.82186  0.83939  0.16321  Biso   1.000  H
  N461     1.0000 0.95726  0.85219  0.17148  Biso   1.000  N
  H710     1.0000 0.88081  0.78322  0.18047  Biso   1.000  H
  H711     1.0000 0.82178  0.83939  0.16317  Biso   1.000  H
  N462     1.0000 0.95719  0.85219  0.17148  Biso   1.000  N
  H712     1.0000 0.82184  0.83939  0.16317  Biso   1.000  H
  C781     1.0000 0.06174  0.75410  0.12530  Biso   1.000  C
  O196     1.0000 0.88505  0.93919  0.17091  Biso   1.000  O
  O197     1.0000 0.88497  0.93919  0.17087  Biso   1.000  O
  O198     1.0000 0.88504  0.93919  0.17087  Biso   1.000  O
  C782     1.0000 0.04572  0.82809  0.18738  Biso   1.000  C
  H713     1.0000 0.13077  0.87821  0.24291  Biso   1.000  H
  H714     1.0000 0.13069  0.87821  0.24288  Biso   1.000  H
  H715     1.0000 0.13076  0.87821  0.24288  Biso   1.000  H
  C783     1.0000 0.16025  0.83922  0.14688  Biso   1.000  C
  C784     1.0000 0.16018  0.83922  0.14688  Biso   1.000  C
  H716     1.0000 0.11203  0.74092  0.11188  Biso   1.000  H
  H717     1.0000 0.05295  0.72511  0.14889  Biso   1.000  H
  N463     1.0000 0.08692  0.80830  0.15001  Biso   1.000  N
  H718     1.0000 0.05288  0.72511  0.14889  Biso   1.000  H
  N464     1.0000 0.08690  0.80830  0.14997  Biso   1.000  N
  H719     1.0000 0.04865  0.79829  0.21288  Biso   1.000  H
  H720     1.0000 0.04858  0.79829  0.21288  Biso   1.000  H
  O199     1.0000 0.21090  0.83028  0.12098  Biso   1.000  O
  O200     1.0000 0.21096  0.83028  0.12098  Biso   1.000  O
  O201     1.0000 0.15072  0.77502  0.57713  Biso   1.000  O
  C785     1.0000 0.10626  0.78081  0.60791  Biso   1.000  C
  C786     1.0000 0.10633  0.78081  0.60791  Biso   1.000  C
  N465     1.0000 0.01898  0.76260  0.60292  Biso   1.000  N
  N466     1.0000 0.13790  0.80679  0.65161  Biso   1.000  N
  O202     1.0000 0.15066  0.77502  0.57713  Biso   1.000  O
  C787     1.0000 0.98015  0.71880  0.56810  Biso   1.000  C
  C788     1.0000 0.99447  0.76750  0.64892  Biso   1.000  C
  C789     1.0000 0.98022  0.71880  0.56810  Biso   1.000  C
  C790     1.0000 0.99453  0.76750  0.64892  Biso   1.000  C
  C791     1.0000 0.22907  0.82449  0.66920  Biso   1.000  C
  C792     1.0000 0.07361  0.80400  0.67931  Biso   1.000  C
  C793     1.0000 0.22913  0.82449  0.66920  Biso   1.000  C
  H721     1.0000 0.02491  0.70729  0.55022  Biso   1.000  H
  H722     1.0000 0.96516  0.68462  0.58500  Biso   1.000  H
  N467     1.0000 0.89880  0.74010  0.53472  Biso   1.000  N
  H723     1.0000 0.98888  0.72928  0.66381  Biso   1.000  H
  N468     1.0000 0.91615  0.80400  0.64611  Biso   1.000  N
  H724     1.0000 0.98888  0.72932  0.66381  Biso   1.000  H
  N469     1.0000 0.91622  0.80400  0.64611  Biso   1.000  N
  H725     1.0000 0.25169  0.81010  0.70262  Biso   1.000  H
  H726     1.0000 0.26597  0.80628  0.64942  Biso   1.000  H
  N470     1.0000 0.24257  0.88560  0.66920  Biso   1.000  N
  H727     1.0000 0.26597  0.80632  0.64942  Biso   1.000  H
  H728     1.0000 0.26603  0.80628  0.64942  Biso   1.000  H
  H729     1.0000 0.26603  0.80632  0.64942  Biso   1.000  H
  H730     1.0000 0.10009  0.78588  0.71132  Biso   1.000  H
  N471     1.0000 0.03008  0.85901  0.68470  Biso   1.000  N
  H731     1.0000 0.10009  0.78592  0.71132  Biso   1.000  H
  C794     1.0000 0.89414  0.74371  0.48721  Biso   1.000  C
  C795     1.0000 0.80989  0.73770  0.54343  Biso   1.000  C
  C796     1.0000 0.89420  0.74371  0.48721  Biso   1.000  C
  C797     1.0000 0.82571  0.78219  0.62673  Biso   1.000  C
  C798     1.0000 0.93532  0.85412  0.66920  Biso   1.000  C
  C799     1.0000 0.29067  0.91080  0.64180  Biso   1.000  C
  C800     1.0000 0.22897  0.92369  0.70531  Biso   1.000  C
  C801     1.0000 0.22904  0.92369  0.70531  Biso   1.000  C
  C802     1.0000 0.07368  0.90320  0.71783  Biso   1.000  C
  C803     1.0000 0.07374  0.90320  0.71783  Biso   1.000  C
  N472     1.0000 0.80673  0.75449  0.46221  Biso   1.000  N
  O203     1.0000 0.95853  0.73830  0.46789  Biso   1.000  O
  N473     1.0000 0.80680  0.75449  0.46221  Biso   1.000  N
  O204     1.0000 0.95860  0.73830  0.46789  Biso   1.000  O
  C804     1.0000 0.74737  0.75440  0.49379  Biso   1.000  C
  H732     1.0000 0.79528  0.69900  0.55450  Biso   1.000  H
  N474     1.0000 0.79450  0.78352  0.57439  Biso   1.000  N
  H733     1.0000 0.82325  0.74212  0.63770  Biso   1.000  H
  H734     1.0000 0.78318  0.80499  0.64032  Biso   1.000  H
  H735     1.0000 0.82331  0.74212  0.63770  Biso   1.000  H
  O205     1.0000 0.88159  0.89109  0.67481  Biso   1.000  O
  N475     1.0000 0.30120  0.96878  0.65223  Biso   1.000  N
  O206     1.0000 0.31857  0.88800  0.60899  Biso   1.000  O
  N476     1.0000 0.30120  0.96882  0.65223  Biso   1.000  N
  H736     1.0000 0.25760  0.90909  0.73840  Biso   1.000  H
  C805     1.0000 0.27070  0.98080  0.69542  Biso   1.000  C
  N477     1.0000 0.13221  0.93889  0.69941  Biso   1.000  N
  H737     1.0000 0.10904  0.88478  0.74783  Biso   1.000  H
  H738     1.0000 0.02651  0.92738  0.72621  Biso   1.000  H
  H739     1.0000 0.10904  0.88482  0.74783  Biso   1.000  H
  H740     1.0000 0.02651  0.92742  0.72621  Biso   1.000  H
  C806     1.0000 0.77518  0.75560  0.41042  Biso   1.000  C
  H741     1.0000 0.69627  0.72670  0.48311  Biso   1.000  H
  N478     1.0000 0.71437  0.81272  0.50300  Biso   1.000  N
  C807     1.0000 0.73875  0.82651  0.55130  Biso   1.000  C
  C808     1.0000 0.73881  0.82651  0.55130  Biso   1.000  C
  C809     1.0000 0.37159  0.00339  0.63892  Biso   1.000  C
  H742     1.0000 0.32220  0.99240  0.72283  Biso   1.000  H
  N479     1.0000 0.19640  0.02220  0.68740  Biso   1.000  N
  C810     1.0000 0.12063  0.99571  0.69312  Biso   1.000  C
  N480     1.0000 0.75434  0.81371  0.39111  Biso   1.000  N
  H743     1.0000 0.82213  0.73860  0.39632  Biso   1.000  H
  H744     1.0000 0.72008  0.73151  0.40042  Biso   1.000  H
  H745     1.0000 0.82219  0.73860  0.39632  Biso   1.000  H
  C811     1.0000 0.63647  0.83591  0.46930  Biso   1.000  C
  O207     1.0000 0.71255  0.86842  0.56849  Biso   1.000  O
  H746     1.0000 0.39638  0.98132  0.61572  Biso   1.000  H
  H747     1.0000 0.42161  0.00971  0.66802  Biso   1.000  H
  N481     1.0000 0.34128  0.05759  0.61831  Biso   1.000  N
  C812     1.0000 0.21128  0.08301  0.69290  Biso   1.000  C
  O208     1.0000 0.04842  0.02109  0.69323  Biso   1.000  O
  C813     1.0000 0.80776  0.84042  0.36661  Biso   1.000  C
  C814     1.0000 0.66957  0.84209  0.38672  Biso   1.000  C
  N482     1.0000 0.65986  0.87018  0.43060  Biso   1.000  N
  H748     1.0000 0.59619  0.80400  0.45462  Biso   1.000  H
  H749     1.0000 0.60256  0.86052  0.48681  Biso   1.000  H
  N483     1.0000 0.65986  0.87022  0.43060  Biso   1.000  N
  C815     1.0000 0.35380  0.06991  0.57411  Biso   1.000  C
  C816     1.0000 0.32681  0.10680  0.64582  Biso   1.000  C
  H750     1.0000 0.25961  0.08988  0.72261  Biso   1.000  H
  H751     1.0000 0.15522  0.10109  0.69733  Biso   1.000  H
  N484     1.0000 0.23602  0.11050  0.65402  Biso   1.000  N
  H752     1.0000 0.25961  0.08993  0.72261  Biso   1.000  H
  N485     1.0000 0.76413  0.88950  0.34600  Biso   1.000  N
  O209     1.0000 0.88195  0.82470  0.36089  Biso   1.000  O
  C817     1.0000 0.67335  0.89320  0.35420  Biso   1.000  C
  H753     1.0000 0.61705  0.81641  0.37262  Biso   1.000  H
  C818     1.0000 0.64636  0.93009  0.42592  Biso   1.000  C
  N486     1.0000 0.34028  0.12982  0.56939  Biso   1.000  N
  O210     1.0000 0.37167  0.03951  0.54422  Biso   1.000  O
  H754     1.0000 0.37473  0.10959  0.67672  Biso   1.000  H
  C819     1.0000 0.33058  0.15791  0.61331  Biso   1.000  C
  C820     1.0000 0.19240  0.15958  0.63342  Biso   1.000  C
  C821     1.0000 0.19240  0.15962  0.63342  Biso   1.000  C
  C822     1.0000 0.78882  0.91699  0.30712  Biso   1.000  C
  C823     1.0000 0.78888  0.91699  0.30712  Biso   1.000  C
  H755     1.0000 0.62543  0.89041  0.32331  Biso   1.000  H
  N487     1.0000 0.65887  0.94241  0.38172  Biso   1.000  N
  O211     1.0000 0.62849  0.96049  0.45581  Biso   1.000  O
  C824     1.0000 0.36367  0.16409  0.53069  Biso   1.000  C
  H756     1.0000 0.38311  0.18359  0.62741  Biso   1.000  H
  N488     1.0000 0.24582  0.18629  0.60892  Biso   1.000  N
  O212     1.0000 0.11819  0.17530  0.63910  Biso   1.000  O
  H757     1.0000 0.74055  0.91012  0.27741  Biso   1.000  H
  H758     1.0000 0.84494  0.89891  0.30270  Biso   1.000  H
  N489     1.0000 0.80374  0.97780  0.31259  Biso   1.000  N
  C825     1.0000 0.62856  0.99661  0.36111  Biso   1.000  C
  H759     1.0000 0.40397  0.19600  0.54540  Biso   1.000  H
  H760     1.0000 0.39760  0.13948  0.51321  Biso   1.000  H
  N490     1.0000 0.28577  0.18728  0.49699  Biso   1.000  N
  H761     1.0000 0.39760  0.13953  0.51321  Biso   1.000  H
  N491     1.0000 0.28577  0.18732  0.49699  Biso   1.000  N
  C826     1.0000 0.22497  0.24440  0.58961  Biso   1.000  C
  C827     1.0000 0.87953  0.00429  0.30691  Biso   1.000  C
  C828     1.0000 0.72946  0.01920  0.30460  Biso   1.000  C
  H762     1.0000 0.57855  0.99029  0.33201  Biso   1.000  H
  H763     1.0000 0.60378  0.01868  0.38431  Biso   1.000  H
  N492     1.0000 0.69896  0.03122  0.34780  Biso   1.000  N
  H764     1.0000 0.60378  0.01872  0.38431  Biso   1.000  H
  C829     1.0000 0.26134  0.17349  0.44872  Biso   1.000  C
  C830     1.0000 0.25277  0.24560  0.50620  Biso   1.000  C
  C831     1.0000 0.26141  0.17349  0.44872  Biso   1.000  C
  H765     1.0000 0.17797  0.26140  0.60371  Biso   1.000  H
  H766     1.0000 0.28008  0.26849  0.59961  Biso   1.000  H
  N493     1.0000 0.19336  0.24551  0.53781  Biso   1.000  N
  O213     1.0000 0.95173  0.97891  0.30680  Biso   1.000  O
  N494     1.0000 0.86795  0.06111  0.30061  Biso   1.000  N
  C832     1.0000 0.77112  0.07631  0.29471  Biso   1.000  C
  H767     1.0000 0.67796  0.00760  0.27720  Biso   1.000  H
  C833     1.0000 0.70947  0.08920  0.35820  Biso   1.000  C
  N495     1.0000 0.20564  0.21648  0.42560  Biso   1.000  N
  O214     1.0000 0.28759  0.13158  0.43150  Biso   1.000  O
  N496     1.0000 0.20564  0.21652  0.42560  Biso   1.000  N
  O215     1.0000 0.28759  0.13162  0.43150  Biso   1.000  O
  H768     1.0000 0.30389  0.27330  0.51692  Biso   1.000  H
  C834     1.0000 0.19027  0.26230  0.45660  Biso   1.000  C
  C835     1.0000 0.10596  0.25629  0.51282  Biso   1.000  C
  C836     1.0000 0.92641  0.09680  0.28220  Biso   1.000  C
  C837     1.0000 0.92648  0.09680  0.28220  Biso   1.000  C
  H769     1.0000 0.74254  0.09091  0.26159  Biso   1.000  H
  N497     1.0000 0.75757  0.11440  0.33079  Biso   1.000  N
  O216     1.0000 0.68157  0.11200  0.39100  Biso   1.000  O
  C838     1.0000 0.17445  0.21781  0.37330  Biso   1.000  C
  H770     1.0000 0.20488  0.30100  0.44552  Biso   1.000  H
  N498     1.0000 0.10136  0.25990  0.46531  Biso   1.000  N
  O217     1.0000 0.04154  0.26170  0.53210  Biso   1.000  O
  O218     1.0000 0.04161  0.26170  0.53210  Biso   1.000  O
  H771     1.0000 0.89112  0.11522  0.25220  Biso   1.000  H
  H772     1.0000 0.97364  0.07262  0.27382  Biso   1.000  H
  N499     1.0000 0.97008  0.14099  0.31532  Biso   1.000  N
  C839     1.0000 0.77101  0.17551  0.33079  Biso   1.000  C
  C840     1.0000 0.77107  0.17551  0.33079  Biso   1.000  C
  H773     1.0000 0.17683  0.25788  0.36230  Biso   1.000  H
  H774     1.0000 0.21697  0.19501  0.35971  Biso   1.000  H
  N500     1.0000 0.08394  0.19600  0.35392  Biso   1.000  N
  H775     1.0000 0.17683  0.25792  0.36230  Biso   1.000  H
  C841     1.0000 0.01992  0.28120  0.43189  Biso   1.000  C
  C842     1.0000 0.01999  0.28120  0.43189  Biso   1.000  C
  C843     1.0000 0.92654  0.19600  0.32072  Biso   1.000  C
  C844     1.0000 0.06482  0.14588  0.33079  Biso   1.000  C
  C845     1.0000 0.06482  0.14592  0.33079  Biso   1.000  C
  H776     1.0000 0.74847  0.18990  0.29741  Biso   1.000  H
  H777     1.0000 0.73413  0.19372  0.35061  Biso   1.000  H
  N501     1.0000 0.86226  0.19321  0.34841  Biso   1.000  N
  C846     1.0000 0.00563  0.23250  0.35111  Biso   1.000  C
  C847     1.0000 0.00569  0.23250  0.35111  Biso   1.000  C
  H778     1.0000 0.97525  0.29271  0.44980  Biso   1.000  H
  N502     1.0000 0.98118  0.23740  0.39711  Biso   1.000  N
  H779     1.0000 0.03499  0.31538  0.41502  Biso   1.000  H
  H780     1.0000 0.03499  0.31543  0.41502  Biso   1.000  H
  H781     1.0000 0.90006  0.21412  0.28871  Biso   1.000  H
  O219     1.0000 0.11857  0.10891  0.32521  Biso   1.000  O
  C848     1.0000 0.89383  0.21919  0.39211  Biso   1.000  C
  C849     1.0000 0.89389  0.21919  0.39211  Biso   1.000  C
  H782     1.0000 0.01128  0.27072  0.33622  Biso   1.000  H
  O220     1.0000 0.84943  0.22498  0.42290  Biso   1.000  O
  O221     1.0000 0.15072  0.77502  0.57713  Biso   1.000  O
  C850     1.0000 0.10626  0.78081  0.60791  Biso   1.000  C
  C851     1.0000 0.10633  0.78081  0.60791  Biso   1.000  C
  N503     1.0000 0.01898  0.76260  0.60292  Biso   1.000  N
  N504     1.0000 0.13790  0.80679  0.65161  Biso   1.000  N
  O222     1.0000 0.15066  0.77502  0.57713  Biso   1.000  O
  C852     1.0000 0.98015  0.71880  0.56810  Biso   1.000  C
  C853     1.0000 0.99447  0.76750  0.64892  Biso   1.000  C
  C854     1.0000 0.98022  0.71880  0.56810  Biso   1.000  C
  C855     1.0000 0.99453  0.76750  0.64892  Biso   1.000  C
  C856     1.0000 0.22907  0.82449  0.66920  Biso   1.000  C
  C857     1.0000 0.07361  0.80400  0.67931  Biso   1.000  C
  C858     1.0000 0.22913  0.82449  0.66920  Biso   1.000  C
  H783     1.0000 0.02491  0.70729  0.55022  Biso   1.000  H
  H784     1.0000 0.96516  0.68462  0.58500  Biso   1.000  H
  N505     1.0000 0.89880  0.74010  0.53472  Biso   1.000  N
  H785     1.0000 0.98888  0.72928  0.66381  Biso   1.000  H
  N506     1.0000 0.91615  0.80400  0.64611  Biso   1.000  N
  H786     1.0000 0.98888  0.72932  0.66381  Biso   1.000  H
  N507     1.0000 0.91622  0.80400  0.64611  Biso   1.000  N
  H787     1.0000 0.25169  0.81010  0.70262  Biso   1.000  H
  N508     1.0000 0.24257  0.88560  0.66920  Biso   1.000  N
  H788     1.0000 0.26597  0.80628  0.64942  Biso   1.000  H
  H789     1.0000 0.26597  0.80632  0.64942  Biso   1.000  H
  H790     1.0000 0.26603  0.80628  0.64942  Biso   1.000  H
  H791     1.0000 0.26603  0.80632  0.64942  Biso   1.000  H
  N509     1.0000 0.03008  0.85901  0.68470  Biso   1.000  N
  H792     1.0000 0.10009  0.78588  0.71132  Biso   1.000  H
  H793     1.0000 0.10009  0.78592  0.71132  Biso   1.000  H
  C859     1.0000 0.89414  0.74371  0.48721  Biso   1.000  C
  C860     1.0000 0.80989  0.73770  0.54343  Biso   1.000  C
  C861     1.0000 0.89420  0.74371  0.48721  Biso   1.000  C
  C862     1.0000 0.82571  0.78219  0.62673  Biso   1.000  C
  C863     1.0000 0.93532  0.85412  0.66920  Biso   1.000  C
  C864     1.0000 0.29067  0.91080  0.64180  Biso   1.000  C
  C865     1.0000 0.22897  0.92369  0.70531  Biso   1.000  C
  C866     1.0000 0.22904  0.92369  0.70531  Biso   1.000  C
  C867     1.0000 0.07368  0.90320  0.71783  Biso   1.000  C
  C868     1.0000 0.07374  0.90320  0.71783  Biso   1.000  C
  N510     1.0000 0.80673  0.75449  0.46221  Biso   1.000  N
  O223     1.0000 0.95853  0.73830  0.46789  Biso   1.000  O
  N511     1.0000 0.80680  0.75449  0.46221  Biso   1.000  N
  O224     1.0000 0.95860  0.73830  0.46789  Biso   1.000  O
  C869     1.0000 0.74737  0.75440  0.49379  Biso   1.000  C
  H794     1.0000 0.79528  0.69900  0.55450  Biso   1.000  H
  N512     1.0000 0.79450  0.78352  0.57439  Biso   1.000  N
  H795     1.0000 0.82325  0.74212  0.63770  Biso   1.000  H
  H796     1.0000 0.78318  0.80499  0.64032  Biso   1.000  H
  H797     1.0000 0.82331  0.74212  0.63770  Biso   1.000  H
  O225     1.0000 0.88159  0.89109  0.67481  Biso   1.000  O
  O226     1.0000 0.31857  0.88800  0.60899  Biso   1.000  O
  N513     1.0000 0.30120  0.96878  0.65223  Biso   1.000  N
  N514     1.0000 0.30120  0.96882  0.65223  Biso   1.000  N
  H798     1.0000 0.25760  0.90909  0.73840  Biso   1.000  H
  C870     1.0000 0.27070  0.98080  0.69542  Biso   1.000  C
  N515     1.0000 0.13221  0.93889  0.69941  Biso   1.000  N
  H799     1.0000 0.10904  0.88478  0.74783  Biso   1.000  H
  H800     1.0000 0.02651  0.92738  0.72621  Biso   1.000  H
  H801     1.0000 0.10904  0.88482  0.74783  Biso   1.000  H
  H802     1.0000 0.02651  0.92742  0.72621  Biso   1.000  H
  C871     1.0000 0.77518  0.75560  0.41042  Biso   1.000  C
  H803     1.0000 0.69627  0.72670  0.48311  Biso   1.000  H
  N516     1.0000 0.71437  0.81272  0.50300  Biso   1.000  N
  C872     1.0000 0.73875  0.82651  0.55130  Biso   1.000  C
  C873     1.0000 0.73881  0.82651  0.55130  Biso   1.000  C
  C874     1.0000 0.37159  0.00339  0.63892  Biso   1.000  C
  H804     1.0000 0.32220  0.99240  0.72283  Biso   1.000  H
  N517     1.0000 0.19640  0.02220  0.68740  Biso   1.000  N
  C875     1.0000 0.12063  0.99571  0.69312  Biso   1.000  C
  N518     1.0000 0.75434  0.81371  0.39111  Biso   1.000  N
  H805     1.0000 0.82213  0.73860  0.39632  Biso   1.000  H
  H806     1.0000 0.72008  0.73151  0.40042  Biso   1.000  H
  H807     1.0000 0.82219  0.73860  0.39632  Biso   1.000  H
  C876     1.0000 0.63647  0.83591  0.46930  Biso   1.000  C
  O227     1.0000 0.71255  0.86842  0.56849  Biso   1.000  O
  H808     1.0000 0.39638  0.98132  0.61572  Biso   1.000  H
  H809     1.0000 0.42161  0.00971  0.66802  Biso   1.000  H
  N519     1.0000 0.34128  0.05759  0.61831  Biso   1.000  N
  C877     1.0000 0.21128  0.08301  0.69290  Biso   1.000  C
  O228     1.0000 0.04842  0.02109  0.69323  Biso   1.000  O
  C878     1.0000 0.80776  0.84042  0.36661  Biso   1.000  C
  C879     1.0000 0.66957  0.84209  0.38672  Biso   1.000  C
  N520     1.0000 0.65986  0.87018  0.43060  Biso   1.000  N
  H810     1.0000 0.59619  0.80400  0.45462  Biso   1.000  H
  H811     1.0000 0.60256  0.86052  0.48681  Biso   1.000  H
  N521     1.0000 0.65986  0.87022  0.43060  Biso   1.000  N
  C880     1.0000 0.35380  0.06991  0.57411  Biso   1.000  C
  C881     1.0000 0.32681  0.10680  0.64582  Biso   1.000  C
  H812     1.0000 0.25961  0.08988  0.72261  Biso   1.000  H
  H813     1.0000 0.15522  0.10109  0.69733  Biso   1.000  H
  N522     1.0000 0.23602  0.11050  0.65402  Biso   1.000  N
  H814     1.0000 0.25961  0.08993  0.72261  Biso   1.000  H
  N523     1.0000 0.76413  0.88950  0.34600  Biso   1.000  N
  O229     1.0000 0.88195  0.82470  0.36089  Biso   1.000  O
  C882     1.0000 0.67335  0.89320  0.35420  Biso   1.000  C
  H815     1.0000 0.61705  0.81641  0.37262  Biso   1.000  H
  C883     1.0000 0.64636  0.93009  0.42592  Biso   1.000  C
  N524     1.0000 0.34028  0.12982  0.56939  Biso   1.000  N
  O230     1.0000 0.37167  0.03951  0.54422  Biso   1.000  O
  H816     1.0000 0.37473  0.10959  0.67672  Biso   1.000  H
  C884     1.0000 0.33058  0.15791  0.61331  Biso   1.000  C
  C885     1.0000 0.19240  0.15958  0.63342  Biso   1.000  C
  C886     1.0000 0.19240  0.15962  0.63342  Biso   1.000  C
  C887     1.0000 0.78882  0.91699  0.30712  Biso   1.000  C
  C888     1.0000 0.78888  0.91699  0.30712  Biso   1.000  C
  H817     1.0000 0.62543  0.89041  0.32331  Biso   1.000  H
  N525     1.0000 0.65887  0.94241  0.38172  Biso   1.000  N
  O231     1.0000 0.62849  0.96049  0.45581  Biso   1.000  O
  C889     1.0000 0.36367  0.16409  0.53069  Biso   1.000  C
  H818     1.0000 0.38311  0.18359  0.62741  Biso   1.000  H
  N526     1.0000 0.24582  0.18629  0.60892  Biso   1.000  N
  O232     1.0000 0.11819  0.17530  0.63910  Biso   1.000  O
  H819     1.0000 0.74055  0.91012  0.27741  Biso   1.000  H
  H820     1.0000 0.84494  0.89891  0.30270  Biso   1.000  H
  N527     1.0000 0.80374  0.97780  0.31259  Biso   1.000  N
  C890     1.0000 0.62856  0.99661  0.36111  Biso   1.000  C
  H821     1.0000 0.40397  0.19600  0.54540  Biso   1.000  H
  H822     1.0000 0.39760  0.13948  0.51321  Biso   1.000  H
  N528     1.0000 0.28577  0.18728  0.49699  Biso   1.000  N
  H823     1.0000 0.39760  0.13953  0.51321  Biso   1.000  H
  N529     1.0000 0.28577  0.18732  0.49699  Biso   1.000  N
  C891     1.0000 0.22497  0.24440  0.58961  Biso   1.000  C
  C892     1.0000 0.87953  0.00429  0.30691  Biso   1.000  C
  C893     1.0000 0.72946  0.01920  0.30460  Biso   1.000  C
  H824     1.0000 0.57855  0.99029  0.33201  Biso   1.000  H
  H825     1.0000 0.60378  0.01868  0.38431  Biso   1.000  H
  N530     1.0000 0.69896  0.03122  0.34780  Biso   1.000  N
  H826     1.0000 0.60378  0.01872  0.38431  Biso   1.000  H
  C894     1.0000 0.26134  0.17349  0.44872  Biso   1.000  C
  C895     1.0000 0.25277  0.24560  0.50620  Biso   1.000  C
  C896     1.0000 0.26141  0.17349  0.44872  Biso   1.000  C
  H827     1.0000 0.17797  0.26140  0.60371  Biso   1.000  H
  H828     1.0000 0.28008  0.26849  0.59961  Biso   1.000  H
  N531     1.0000 0.19336  0.24551  0.53781  Biso   1.000  N
  O233     1.0000 0.95173  0.97891  0.30680  Biso   1.000  O
  N532     1.0000 0.86795  0.06111  0.30061  Biso   1.000  N
  C897     1.0000 0.77112  0.07631  0.29471  Biso   1.000  C
  H829     1.0000 0.67796  0.00760  0.27720  Biso   1.000  H
  C898     1.0000 0.70947  0.08920  0.35820  Biso   1.000  C
  N533     1.0000 0.20564  0.21648  0.42560  Biso   1.000  N
  O234     1.0000 0.28759  0.13158  0.43150  Biso   1.000  O
  N534     1.0000 0.20564  0.21652  0.42560  Biso   1.000  N
  O235     1.0000 0.28759  0.13162  0.43150  Biso   1.000  O
  H830     1.0000 0.30389  0.27330  0.51692  Biso   1.000  H
  C899     1.0000 0.19027  0.26230  0.45660  Biso   1.000  C
  C900     1.0000 0.10596  0.25629  0.51282  Biso   1.000  C
  C901     1.0000 0.92641  0.09680  0.28220  Biso   1.000  C
  C902     1.0000 0.92648  0.09680  0.28220  Biso   1.000  C
  H831     1.0000 0.74254  0.09091  0.26159  Biso   1.000  H
  N535     1.0000 0.75757  0.11440  0.33079  Biso   1.000  N
  O236     1.0000 0.68157  0.11200  0.39100  Biso   1.000  O
  C903     1.0000 0.17445  0.21781  0.37330  Biso   1.000  C
  H832     1.0000 0.20488  0.30100  0.44552  Biso   1.000  H
  N536     1.0000 0.10136  0.25990  0.46531  Biso   1.000  N
  O237     1.0000 0.04154  0.26170  0.53210  Biso   1.000  O
  O238     1.0000 0.04161  0.26170  0.53210  Biso   1.000  O
  H833     1.0000 0.89112  0.11522  0.25220  Biso   1.000  H
  H834     1.0000 0.97364  0.07262  0.27382  Biso   1.000  H
  N537     1.0000 0.97008  0.14099  0.31532  Biso   1.000  N
  C904     1.0000 0.77101  0.17551  0.33079  Biso   1.000  C
  C905     1.0000 0.77107  0.17551  0.33079  Biso   1.000  C
  H835     1.0000 0.17683  0.25788  0.36230  Biso   1.000  H
  H836     1.0000 0.21697  0.19501  0.35971  Biso   1.000  H
  N538     1.0000 0.08394  0.19600  0.35392  Biso   1.000  N
  H837     1.0000 0.17683  0.25792  0.36230  Biso   1.000  H
  C906     1.0000 0.01992  0.28120  0.43189  Biso   1.000  C
  C907     1.0000 0.01999  0.28120  0.43189  Biso   1.000  C
  C908     1.0000 0.92654  0.19600  0.32072  Biso   1.000  C
  C909     1.0000 0.06482  0.14588  0.33079  Biso   1.000  C
  C910     1.0000 0.06482  0.14592  0.33079  Biso   1.000  C
  H838     1.0000 0.74847  0.18990  0.29741  Biso   1.000  H
  H839     1.0000 0.73413  0.19372  0.35061  Biso   1.000  H
  N539     1.0000 0.86226  0.19321  0.34841  Biso   1.000  N
  C911     1.0000 0.00563  0.23250  0.35111  Biso   1.000  C
  C912     1.0000 0.00569  0.23250  0.35111  Biso   1.000  C
  H840     1.0000 0.97525  0.29271  0.44980  Biso   1.000  H
  N540     1.0000 0.98118  0.23740  0.39711  Biso   1.000  N
  H841     1.0000 0.03499  0.31538  0.41502  Biso   1.000  H
  H842     1.0000 0.03499  0.31543  0.41502  Biso   1.000  H
  H843     1.0000 0.90006  0.21412  0.28871  Biso   1.000  H
  O239     1.0000 0.11857  0.10891  0.32521  Biso   1.000  O
  C913     1.0000 0.89383  0.21919  0.39211  Biso   1.000  C
  C914     1.0000 0.89389  0.21919  0.39211  Biso   1.000  C
  H844     1.0000 0.01128  0.27072  0.33622  Biso   1.000  H
  O240     1.0000 0.84943  0.22498  0.42290  Biso   1.000  O
  O241     1.0000 0.15072  0.77502  0.57713  Biso   1.000  O
  C915     1.0000 0.10626  0.78081  0.60791  Biso   1.000  C
  C916     1.0000 0.10633  0.78081  0.60791  Biso   1.000  C
  N541     1.0000 0.01898  0.76260  0.60292  Biso   1.000  N
  N542     1.0000 0.13790  0.80679  0.65161  Biso   1.000  N
  O242     1.0000 0.15066  0.77502  0.57713  Biso   1.000  O
  C917     1.0000 0.98015  0.71880  0.56810  Biso   1.000  C
  C918     1.0000 0.99447  0.76750  0.64892  Biso   1.000  C
  C919     1.0000 0.98022  0.71880  0.56810  Biso   1.000  C
  C920     1.0000 0.99453  0.76750  0.64892  Biso   1.000  C
  C921     1.0000 0.07361  0.80400  0.67931  Biso   1.000  C
  C922     1.0000 0.22907  0.82449  0.66920  Biso   1.000  C
  C923     1.0000 0.22913  0.82449  0.66920  Biso   1.000  C
  H845     1.0000 0.02491  0.70729  0.55022  Biso   1.000  H
  H846     1.0000 0.96516  0.68462  0.58500  Biso   1.000  H
  N543     1.0000 0.89880  0.74010  0.53472  Biso   1.000  N
  H847     1.0000 0.98888  0.72928  0.66381  Biso   1.000  H
  N544     1.0000 0.91615  0.80400  0.64611  Biso   1.000  N
  H848     1.0000 0.98888  0.72932  0.66381  Biso   1.000  H
  N545     1.0000 0.91622  0.80400  0.64611  Biso   1.000  N
  N546     1.0000 0.03008  0.85901  0.68470  Biso   1.000  N
  H849     1.0000 0.10009  0.78588  0.71132  Biso   1.000  H
  H850     1.0000 0.10009  0.78592  0.71132  Biso   1.000  H
  H851     1.0000 0.25169  0.81010  0.70262  Biso   1.000  H
  N547     1.0000 0.24257  0.88560  0.66920  Biso   1.000  N
  H852     1.0000 0.26597  0.80628  0.64942  Biso   1.000  H
  H853     1.0000 0.26597  0.80632  0.64942  Biso   1.000  H
  H854     1.0000 0.26603  0.80628  0.64942  Biso   1.000  H
  H855     1.0000 0.26603  0.80632  0.64942  Biso   1.000  H
  C924     1.0000 0.89414  0.74371  0.48721  Biso   1.000  C
  C925     1.0000 0.80989  0.73770  0.54343  Biso   1.000  C
  C926     1.0000 0.89420  0.74371  0.48721  Biso   1.000  C
  C927     1.0000 0.82571  0.78219  0.62673  Biso   1.000  C
  C928     1.0000 0.93532  0.85412  0.66920  Biso   1.000  C
  C929     1.0000 0.07368  0.90320  0.71783  Biso   1.000  C
  C930     1.0000 0.07374  0.90320  0.71783  Biso   1.000  C
  C931     1.0000 0.29067  0.91080  0.64180  Biso   1.000  C
  C932     1.0000 0.22897  0.92369  0.70531  Biso   1.000  C
  C933     1.0000 0.22904  0.92369  0.70531  Biso   1.000  C
  N548     1.0000 0.80673  0.75449  0.46221  Biso   1.000  N
  O243     1.0000 0.95853  0.73830  0.46789  Biso   1.000  O
  N549     1.0000 0.80680  0.75449  0.46221  Biso   1.000  N
  O244     1.0000 0.95860  0.73830  0.46789  Biso   1.000  O
  C934     1.0000 0.74737  0.75440  0.49379  Biso   1.000  C
  H856     1.0000 0.79528  0.69900  0.55450  Biso   1.000  H
  N550     1.0000 0.79450  0.78352  0.57439  Biso   1.000  N
  H857     1.0000 0.82325  0.74212  0.63770  Biso   1.000  H
  H858     1.0000 0.78318  0.80499  0.64032  Biso   1.000  H
  H859     1.0000 0.82331  0.74212  0.63770  Biso   1.000  H
  O245     1.0000 0.88159  0.89109  0.67481  Biso   1.000  O
  N551     1.0000 0.13221  0.93889  0.69941  Biso   1.000  N
  H860     1.0000 0.10904  0.88478  0.74783  Biso   1.000  H
  H861     1.0000 0.02651  0.92738  0.72621  Biso   1.000  H
  H862     1.0000 0.10904  0.88482  0.74783  Biso   1.000  H
  H863     1.0000 0.02651  0.92742  0.72621  Biso   1.000  H
  O246     1.0000 0.31857  0.88800  0.60899  Biso   1.000  O
  N552     1.0000 0.30120  0.96878  0.65223  Biso   1.000  N
  N553     1.0000 0.30120  0.96882  0.65223  Biso   1.000  N
  H864     1.0000 0.25760  0.90909  0.73840  Biso   1.000  H
  C935     1.0000 0.27070  0.98080  0.69542  Biso   1.000  C
  C936     1.0000 0.77518  0.75560  0.41042  Biso   1.000  C
  H865     1.0000 0.69627  0.72670  0.48311  Biso   1.000  H
  N554     1.0000 0.71437  0.81272  0.50300  Biso   1.000  N
  C937     1.0000 0.73875  0.82651  0.55130  Biso   1.000  C
  C938     1.0000 0.73881  0.82651  0.55130  Biso   1.000  C
  C939     1.0000 0.12063  0.99571  0.69312  Biso   1.000  C
  C940     1.0000 0.37159  0.00339  0.63892  Biso   1.000  C
  N555     1.0000 0.19640  0.02220  0.68740  Biso   1.000  N
  H866     1.0000 0.32220  0.99240  0.72283  Biso   1.000  H
  N556     1.0000 0.75434  0.81371  0.39111  Biso   1.000  N
  H867     1.0000 0.82213  0.73860  0.39632  Biso   1.000  H
  H868     1.0000 0.72008  0.73151  0.40042  Biso   1.000  H
  H869     1.0000 0.82219  0.73860  0.39632  Biso   1.000  H
  C941     1.0000 0.63647  0.83591  0.46930  Biso   1.000  C
  O247     1.0000 0.71255  0.86842  0.56849  Biso   1.000  O
  O248     1.0000 0.04842  0.02109  0.69323  Biso   1.000  O
  H870     1.0000 0.39638  0.98132  0.61572  Biso   1.000  H
  H871     1.0000 0.42161  0.00971  0.66802  Biso   1.000  H
  N557     1.0000 0.34128  0.05759  0.61831  Biso   1.000  N
  C942     1.0000 0.21128  0.08301  0.69290  Biso   1.000  C
  C943     1.0000 0.80776  0.84042  0.36661  Biso   1.000  C
  C944     1.0000 0.66957  0.84209  0.38672  Biso   1.000  C
  N558     1.0000 0.65986  0.87018  0.43060  Biso   1.000  N
  H872     1.0000 0.59619  0.80400  0.45462  Biso   1.000  H
  H873     1.0000 0.60256  0.86052  0.48681  Biso   1.000  H
  N559     1.0000 0.65986  0.87022  0.43060  Biso   1.000  N
  C945     1.0000 0.35380  0.06991  0.57411  Biso   1.000  C
  C946     1.0000 0.32681  0.10680  0.64582  Biso   1.000  C
  H874     1.0000 0.25961  0.08988  0.72261  Biso   1.000  H
  H875     1.0000 0.15522  0.10109  0.69733  Biso   1.000  H
  N560     1.0000 0.23602  0.11050  0.65402  Biso   1.000  N
  H876     1.0000 0.25961  0.08993  0.72261  Biso   1.000  H
  N561     1.0000 0.76413  0.88950  0.34600  Biso   1.000  N
  O249     1.0000 0.88195  0.82470  0.36089  Biso   1.000  O
  C947     1.0000 0.67335  0.89320  0.35420  Biso   1.000  C
  H877     1.0000 0.61705  0.81641  0.37262  Biso   1.000  H
  C948     1.0000 0.64636  0.93009  0.42592  Biso   1.000  C
  N562     1.0000 0.34028  0.12982  0.56939  Biso   1.000  N
  O250     1.0000 0.37167  0.03951  0.54422  Biso   1.000  O
  H878     1.0000 0.37473  0.10959  0.67672  Biso   1.000  H
  C949     1.0000 0.33058  0.15791  0.61331  Biso   1.000  C
  C950     1.0000 0.19240  0.15958  0.63342  Biso   1.000  C
  C951     1.0000 0.19240  0.15962  0.63342  Biso   1.000  C
  C952     1.0000 0.78882  0.91699  0.30712  Biso   1.000  C
  C953     1.0000 0.78888  0.91699  0.30712  Biso   1.000  C
  H879     1.0000 0.62543  0.89041  0.32331  Biso   1.000  H
  N563     1.0000 0.65887  0.94241  0.38172  Biso   1.000  N
  O251     1.0000 0.62849  0.96049  0.45581  Biso   1.000  O
  C954     1.0000 0.36367  0.16409  0.53069  Biso   1.000  C
  N564     1.0000 0.24582  0.18629  0.60892  Biso   1.000  N
  H880     1.0000 0.38311  0.18359  0.62741  Biso   1.000  H
  O252     1.0000 0.11819  0.17530  0.63910  Biso   1.000  O
  H881     1.0000 0.74055  0.91012  0.27741  Biso   1.000  H
  H882     1.0000 0.84494  0.89891  0.30270  Biso   1.000  H
  N565     1.0000 0.80374  0.97780  0.31259  Biso   1.000  N
  C955     1.0000 0.62856  0.99661  0.36111  Biso   1.000  C
  H883     1.0000 0.40397  0.19600  0.54540  Biso   1.000  H
  H884     1.0000 0.39760  0.13948  0.51321  Biso   1.000  H
  N566     1.0000 0.28577  0.18728  0.49699  Biso   1.000  N
  H885     1.0000 0.39760  0.13953  0.51321  Biso   1.000  H
  N567     1.0000 0.28577  0.18732  0.49699  Biso   1.000  N
  C956     1.0000 0.22497  0.24440  0.58961  Biso   1.000  C
  C957     1.0000 0.87953  0.00429  0.30691  Biso   1.000  C
  C958     1.0000 0.72946  0.01920  0.30460  Biso   1.000  C
  H886     1.0000 0.57855  0.99029  0.33201  Biso   1.000  H
  H887     1.0000 0.60378  0.01868  0.38431  Biso   1.000  H
  N568     1.0000 0.69896  0.03122  0.34780  Biso   1.000  N
  H888     1.0000 0.60378  0.01872  0.38431  Biso   1.000  H
  C959     1.0000 0.26134  0.17349  0.44872  Biso   1.000  C
  C960     1.0000 0.25277  0.24560  0.50620  Biso   1.000  C
  C961     1.0000 0.26141  0.17349  0.44872  Biso   1.000  C
  H889     1.0000 0.17797  0.26140  0.60371  Biso   1.000  H
  H890     1.0000 0.28008  0.26849  0.59961  Biso   1.000  H
  N569     1.0000 0.19336  0.24551  0.53781  Biso   1.000  N
  O253     1.0000 0.95173  0.97891  0.30680  Biso   1.000  O
  N570     1.0000 0.86795  0.06111  0.30061  Biso   1.000  N
  C962     1.0000 0.77112  0.07631  0.29471  Biso   1.000  C
  H891     1.0000 0.67796  0.00760  0.27720  Biso   1.000  H
  C963     1.0000 0.70947  0.08920  0.35820  Biso   1.000  C
  N571     1.0000 0.20564  0.21648  0.42560  Biso   1.000  N
  O254     1.0000 0.28759  0.13158  0.43150  Biso   1.000  O
  N572     1.0000 0.20564  0.21652  0.42560  Biso   1.000  N
  O255     1.0000 0.28759  0.13162  0.43150  Biso   1.000  O
  H892     1.0000 0.30389  0.27330  0.51692  Biso   1.000  H
  C964     1.0000 0.19027  0.26230  0.45660  Biso   1.000  C
  C965     1.0000 0.10596  0.25629  0.51282  Biso   1.000  C
  C966     1.0000 0.92641  0.09680  0.28220  Biso   1.000  C
  C967     1.0000 0.92648  0.09680  0.28220  Biso   1.000  C
  H893     1.0000 0.74254  0.09091  0.26159  Biso   1.000  H
  N573     1.0000 0.75757  0.11440  0.33079  Biso   1.000  N
  O256     1.0000 0.68157  0.11200  0.39100  Biso   1.000  O
  C968     1.0000 0.17445  0.21781  0.37330  Biso   1.000  C
  N574     1.0000 0.10136  0.25990  0.46531  Biso   1.000  N
  H894     1.0000 0.20488  0.30100  0.44552  Biso   1.000  H
  O257     1.0000 0.04154  0.26170  0.53210  Biso   1.000  O
  O258     1.0000 0.04161  0.26170  0.53210  Biso   1.000  O
  H895     1.0000 0.89112  0.11522  0.25220  Biso   1.000  H
  H896     1.0000 0.97364  0.07262  0.27382  Biso   1.000  H
  N575     1.0000 0.97008  0.14099  0.31532  Biso   1.000  N
  C969     1.0000 0.77101  0.17551  0.33079  Biso   1.000  C
  C970     1.0000 0.77107  0.17551  0.33079  Biso   1.000  C
  N576     1.0000 0.08394  0.19600  0.35392  Biso   1.000  N
  H897     1.0000 0.17683  0.25788  0.36230  Biso   1.000  H
  H898     1.0000 0.21697  0.19501  0.35971  Biso   1.000  H
  H899     1.0000 0.17683  0.25792  0.36230  Biso   1.000  H
  C971     1.0000 0.01992  0.28120  0.43189  Biso   1.000  C
  C972     1.0000 0.01999  0.28120  0.43189  Biso   1.000  C
  C973     1.0000 0.92654  0.19600  0.32072  Biso   1.000  C
  C974     1.0000 0.06482  0.14588  0.33079  Biso   1.000  C
  C975     1.0000 0.06482  0.14592  0.33079  Biso   1.000  C
  H900     1.0000 0.74847  0.18990  0.29741  Biso   1.000  H
  H901     1.0000 0.73413  0.19372  0.35061  Biso   1.000  H
  N577     1.0000 0.86226  0.19321  0.34841  Biso   1.000  N
  C976     1.0000 0.00563  0.23250  0.35111  Biso   1.000  C
  C977     1.0000 0.00569  0.23250  0.35111  Biso   1.000  C
  N578     1.0000 0.98118  0.23740  0.39711  Biso   1.000  N
  H902     1.0000 0.97525  0.29271  0.44980  Biso   1.000  H
  H903     1.0000 0.03499  0.31538  0.41502  Biso   1.000  H
  H904     1.0000 0.03499  0.31543  0.41502  Biso   1.000  H
  H905     1.0000 0.90006  0.21412  0.28871  Biso   1.000  H
  O259     1.0000 0.11857  0.10891  0.32521  Biso   1.000  O
  C978     1.0000 0.89383  0.21919  0.39211  Biso   1.000  C
  C979     1.0000 0.89389  0.21919  0.39211  Biso   1.000  C
  H906     1.0000 0.01128  0.27072  0.33622  Biso   1.000  H
  O260     1.0000 0.84943  0.22498  0.42290  Biso   1.000  O
  O261     1.0000 0.15072  0.77502  0.57713  Biso   1.000  O
  C980     1.0000 0.10626  0.78081  0.60791  Biso   1.000  C
  C981     1.0000 0.10633  0.78081  0.60791  Biso   1.000  C
  N579     1.0000 0.01898  0.76260  0.60292  Biso   1.000  N
  N580     1.0000 0.13790  0.80679  0.65161  Biso   1.000  N
  O262     1.0000 0.15066  0.77502  0.57713  Biso   1.000  O
  C982     1.0000 0.98015  0.71880  0.56810  Biso   1.000  C
  C983     1.0000 0.99447  0.76750  0.64892  Biso   1.000  C
  C984     1.0000 0.98022  0.71880  0.56810  Biso   1.000  C
  C985     1.0000 0.99453  0.76750  0.64892  Biso   1.000  C
  C986     1.0000 0.07361  0.80400  0.67931  Biso   1.000  C
  C987     1.0000 0.22907  0.82449  0.66920  Biso   1.000  C
  C988     1.0000 0.22913  0.82449  0.66920  Biso   1.000  C
  H907     1.0000 0.02491  0.70729  0.55022  Biso   1.000  H
  H908     1.0000 0.96516  0.68462  0.58500  Biso   1.000  H
  N581     1.0000 0.89880  0.74010  0.53472  Biso   1.000  N
  H909     1.0000 0.98888  0.72928  0.66381  Biso   1.000  H
  N582     1.0000 0.91615  0.80400  0.64611  Biso   1.000  N
  H910     1.0000 0.98888  0.72932  0.66381  Biso   1.000  H
  N583     1.0000 0.91622  0.80400  0.64611  Biso   1.000  N
  N584     1.0000 0.03008  0.85901  0.68470  Biso   1.000  N
  H911     1.0000 0.10009  0.78588  0.71132  Biso   1.000  H
  H912     1.0000 0.10009  0.78592  0.71132  Biso   1.000  H
  H913     1.0000 0.25169  0.81010  0.70262  Biso   1.000  H
  N585     1.0000 0.24257  0.88560  0.66920  Biso   1.000  N
  H914     1.0000 0.26597  0.80628  0.64942  Biso   1.000  H
  H915     1.0000 0.26597  0.80632  0.64942  Biso   1.000  H
  H916     1.0000 0.26603  0.80628  0.64942  Biso   1.000  H
  H917     1.0000 0.26603  0.80632  0.64942  Biso   1.000  H
  C989     1.0000 0.89414  0.74371  0.48721  Biso   1.000  C
  C990     1.0000 0.80989  0.73770  0.54343  Biso   1.000  C
  C991     1.0000 0.89420  0.74371  0.48721  Biso   1.000  C
  C992     1.0000 0.82571  0.78219  0.62673  Biso   1.000  C
  C993     1.0000 0.93532  0.85412  0.66920  Biso   1.000  C
  C994     1.0000 0.07368  0.90320  0.71783  Biso   1.000  C
  C995     1.0000 0.07374  0.90320  0.71783  Biso   1.000  C
  C996     1.0000 0.29067  0.91080  0.64180  Biso   1.000  C
  C997     1.0000 0.22897  0.92369  0.70531  Biso   1.000  C
  C998     1.0000 0.22904  0.92369  0.70531  Biso   1.000  C
  N586     1.0000 0.80673  0.75449  0.46221  Biso   1.000  N
  O263     1.0000 0.95853  0.73830  0.46789  Biso   1.000  O
  N587     1.0000 0.80680  0.75449  0.46221  Biso   1.000  N
  O264     1.0000 0.95860  0.73830  0.46789  Biso   1.000  O
  C999     1.0000 0.74737  0.75440  0.49379  Biso   1.000  C
  H918     1.0000 0.79528  0.69900  0.55450  Biso   1.000  H
  N588     1.0000 0.79450  0.78352  0.57439  Biso   1.000  N
  H919     1.0000 0.82325  0.74212  0.63770  Biso   1.000  H
  H920     1.0000 0.78318  0.80499  0.64032  Biso   1.000  H
  H921     1.0000 0.82331  0.74212  0.63770  Biso   1.000  H
  O265     1.0000 0.88159  0.89109  0.67481  Biso   1.000  O
  N589     1.0000 0.13221  0.93889  0.69941  Biso   1.000  N
  H922     1.0000 0.10904  0.88478  0.74783  Biso   1.000  H
  H923     1.0000 0.02651  0.92738  0.72621  Biso   1.000  H
  H924     1.0000 0.10904  0.88482  0.74783  Biso   1.000  H
  H925     1.0000 0.02651  0.92742  0.72621  Biso   1.000  H
  O266     1.0000 0.31857  0.88800  0.60899  Biso   1.000  O
  N590     1.0000 0.30120  0.96878  0.65223  Biso   1.000  N
  N591     1.0000 0.30120  0.96882  0.65223  Biso   1.000  N
  H926     1.0000 0.25760  0.90909  0.73840  Biso   1.000  H
  C1000    1.0000 0.27070  0.98080  0.69542  Biso   1.000  C
  C1001    1.0000 0.77518  0.75560  0.41042  Biso   1.000  C
  H927     1.0000 0.69627  0.72670  0.48311  Biso   1.000  H
  N592     1.0000 0.71437  0.81272  0.50300  Biso   1.000  N
  C1002    1.0000 0.73875  0.82651  0.55130  Biso   1.000  C
  C1003    1.0000 0.73881  0.82651  0.55130  Biso   1.000  C
  C1004    1.0000 0.12063  0.99571  0.69312  Biso   1.000  C
  C1005    1.0000 0.37159  0.00339  0.63892  Biso   1.000  C
  N593     1.0000 0.19640  0.02220  0.68740  Biso   1.000  N
  H928     1.0000 0.32220  0.99240  0.72283  Biso   1.000  H
  N594     1.0000 0.75434  0.81371  0.39111  Biso   1.000  N
  H929     1.0000 0.82213  0.73860  0.39632  Biso   1.000  H
  H930     1.0000 0.72008  0.73151  0.40042  Biso   1.000  H
  H931     1.0000 0.82219  0.73860  0.39632  Biso   1.000  H
  C1006    1.0000 0.63647  0.83591  0.46930  Biso   1.000  C
  O267     1.0000 0.71255  0.86842  0.56849  Biso   1.000  O
  O268     1.0000 0.04842  0.02109  0.69323  Biso   1.000  O
  H932     1.0000 0.39638  0.98132  0.61572  Biso   1.000  H
  H933     1.0000 0.42161  0.00971  0.66802  Biso   1.000  H
  N595     1.0000 0.34128  0.05759  0.61831  Biso   1.000  N
  C1007    1.0000 0.21128  0.08301  0.69290  Biso   1.000  C
  C1008    1.0000 0.80776  0.84042  0.36661  Biso   1.000  C
  C1009    1.0000 0.66957  0.84209  0.38672  Biso   1.000  C
  N596     1.0000 0.65986  0.87018  0.43060  Biso   1.000  N
  H934     1.0000 0.59619  0.80400  0.45462  Biso   1.000  H
  H935     1.0000 0.60256  0.86052  0.48681  Biso   1.000  H
  N597     1.0000 0.65986  0.87022  0.43060  Biso   1.000  N
  C1010    1.0000 0.35380  0.06991  0.57411  Biso   1.000  C
  C1011    1.0000 0.32681  0.10680  0.64582  Biso   1.000  C
  H936     1.0000 0.25961  0.08988  0.72261  Biso   1.000  H
  H937     1.0000 0.15522  0.10109  0.69733  Biso   1.000  H
  N598     1.0000 0.23602  0.11050  0.65402  Biso   1.000  N
  H938     1.0000 0.25961  0.08993  0.72261  Biso   1.000  H
  N599     1.0000 0.76413  0.88950  0.34600  Biso   1.000  N
  O269     1.0000 0.88195  0.82470  0.36089  Biso   1.000  O
  C1012    1.0000 0.67335  0.89320  0.35420  Biso   1.000  C
  H939     1.0000 0.61705  0.81641  0.37262  Biso   1.000  H
  C1013    1.0000 0.64636  0.93009  0.42592  Biso   1.000  C
  N600     1.0000 0.34028  0.12982  0.56939  Biso   1.000  N
  O270     1.0000 0.37167  0.03951  0.54422  Biso   1.000  O
  H940     1.0000 0.37473  0.10959  0.67672  Biso   1.000  H
  C1014    1.0000 0.33058  0.15791  0.61331  Biso   1.000  C
  C1015    1.0000 0.19240  0.15958  0.63342  Biso   1.000  C
  C1016    1.0000 0.19240  0.15962  0.63342  Biso   1.000  C
  C1017    1.0000 0.78882  0.91699  0.30712  Biso   1.000  C
  C1018    1.0000 0.78888  0.91699  0.30712  Biso   1.000  C
  H941     1.0000 0.62543  0.89041  0.32331  Biso   1.000  H
  N601     1.0000 0.65887  0.94241  0.38172  Biso   1.000  N
  O271     1.0000 0.62849  0.96049  0.45581  Biso   1.000  O
  C1019    1.0000 0.36367  0.16409  0.53069  Biso   1.000  C
  N602     1.0000 0.24582  0.18629  0.60892  Biso   1.000  N
  H942     1.0000 0.38311  0.18359  0.62741  Biso   1.000  H
  O272     1.0000 0.11819  0.17530  0.63910  Biso   1.000  O
  H943     1.0000 0.74055  0.91012  0.27741  Biso   1.000  H
  H944     1.0000 0.84494  0.89891  0.30270  Biso   1.000  H
  N603     1.0000 0.80374  0.97780  0.31259  Biso   1.000  N
  C1020    1.0000 0.62856  0.99661  0.36111  Biso   1.000  C
  H945     1.0000 0.40397  0.19600  0.54540  Biso   1.000  H
  H946     1.0000 0.39760  0.13948  0.51321  Biso   1.000  H
  N604     1.0000 0.28577  0.18728  0.49699  Biso   1.000  N
  H947     1.0000 0.39760  0.13953  0.51321  Biso   1.000  H
  N605     1.0000 0.28577  0.18732  0.49699  Biso   1.000  N
  C1021    1.0000 0.22497  0.24440  0.58961  Biso   1.000  C
  C1022    1.0000 0.87953  0.00429  0.30691  Biso   1.000  C
  C1023    1.0000 0.72946  0.01920  0.30460  Biso   1.000  C
  H948     1.0000 0.57855  0.99029  0.33201  Biso   1.000  H
  H949     1.0000 0.60378  0.01868  0.38431  Biso   1.000  H
  N606     1.0000 0.69896  0.03122  0.34780  Biso   1.000  N
  H950     1.0000 0.60378  0.01872  0.38431  Biso   1.000  H
  C1024    1.0000 0.26134  0.17349  0.44872  Biso   1.000  C
  C1025    1.0000 0.25277  0.24560  0.50620  Biso   1.000  C
  C1026    1.0000 0.26141  0.17349  0.44872  Biso   1.000  C
  H951     1.0000 0.17797  0.26140  0.60371  Biso   1.000  H
  H952     1.0000 0.28008  0.26849  0.59961  Biso   1.000  H
  N607     1.0000 0.19336  0.24551  0.53781  Biso   1.000  N
  O273     1.0000 0.95173  0.97891  0.30680  Biso   1.000  O
  N608     1.0000 0.86795  0.06111  0.30061  Biso   1.000  N
  C1027    1.0000 0.77112  0.07631  0.29471  Biso   1.000  C
  H953     1.0000 0.67796  0.00760  0.27720  Biso   1.000  H
  C1028    1.0000 0.70947  0.08920  0.35820  Biso   1.000  C
  N609     1.0000 0.20564  0.21648  0.42560  Biso   1.000  N
  O274     1.0000 0.28759  0.13158  0.43150  Biso   1.000  O
  N610     1.0000 0.20564  0.21652  0.42560  Biso   1.000  N
  O275     1.0000 0.28759  0.13162  0.43150  Biso   1.000  O
  H954     1.0000 0.30389  0.27330  0.51692  Biso   1.000  H
  C1029    1.0000 0.19027  0.26230  0.45660  Biso   1.000  C
  C1030    1.0000 0.10596  0.25629  0.51282  Biso   1.000  C
  C1031    1.0000 0.92641  0.09680  0.28220  Biso   1.000  C
  C1032    1.0000 0.92648  0.09680  0.28220  Biso   1.000  C
  H955     1.0000 0.74254  0.09091  0.26159  Biso   1.000  H
  N611     1.0000 0.75757  0.11440  0.33079  Biso   1.000  N
  O276     1.0000 0.68157  0.11200  0.39100  Biso   1.000  O
  C1033    1.0000 0.17445  0.21781  0.37330  Biso   1.000  C
  N612     1.0000 0.10136  0.25990  0.46531  Biso   1.000  N
  H956     1.0000 0.20488  0.30100  0.44552  Biso   1.000  H
  O277     1.0000 0.04154  0.26170  0.53210  Biso   1.000  O
  O278     1.0000 0.04161  0.26170  0.53210  Biso   1.000  O
  H957     1.0000 0.89112  0.11522  0.25220  Biso   1.000  H
  H958     1.0000 0.97364  0.07262  0.27382  Biso   1.000  H
  N613     1.0000 0.97008  0.14099  0.31532  Biso   1.000  N
  C1034    1.0000 0.77101  0.17551  0.33079  Biso   1.000  C
  C1035    1.0000 0.77107  0.17551  0.33079  Biso   1.000  C
  N614     1.0000 0.08394  0.19600  0.35392  Biso   1.000  N
  H959     1.0000 0.17683  0.25788  0.36230  Biso   1.000  H
  H960     1.0000 0.21697  0.19501  0.35971  Biso   1.000  H
  H961     1.0000 0.17683  0.25792  0.36230  Biso   1.000  H
  C1036    1.0000 0.01992  0.28120  0.43189  Biso   1.000  C
  C1037    1.0000 0.01999  0.28120  0.43189  Biso   1.000  C
  C1038    1.0000 0.92654  0.19600  0.32072  Biso   1.000  C
  C1039    1.0000 0.06482  0.14588  0.33079  Biso   1.000  C
  C1040    1.0000 0.06482  0.14592  0.33079  Biso   1.000  C
  H962     1.0000 0.74847  0.18990  0.29741  Biso   1.000  H
  H963     1.0000 0.73413  0.19372  0.35061  Biso   1.000  H
  N615     1.0000 0.86226  0.19321  0.34841  Biso   1.000  N
  C1041    1.0000 0.00563  0.23250  0.35111  Biso   1.000  C
  C1042    1.0000 0.00569  0.23250  0.35111  Biso   1.000  C
  N616     1.0000 0.98118  0.23740  0.39711  Biso   1.000  N
  H964     1.0000 0.97525  0.29271  0.44980  Biso   1.000  H
  H965     1.0000 0.03499  0.31538  0.41502  Biso   1.000  H
  H966     1.0000 0.03499  0.31543  0.41502  Biso   1.000  H
  H967     1.0000 0.90006  0.21412  0.28871  Biso   1.000  H
  O279     1.0000 0.11857  0.10891  0.32521  Biso   1.000  O
  C1043    1.0000 0.89383  0.21919  0.39211  Biso   1.000  C
  C1044    1.0000 0.89389  0.21919  0.39211  Biso   1.000  C
  H968     1.0000 0.01128  0.27072  0.33622  Biso   1.000  H
  O280     1.0000 0.84943  0.22498  0.42290  Biso   1.000  O
  O281     1.0000 0.54831  0.47891  0.19321  Biso   1.000  O
  C1045    1.0000 0.62052  0.50429  0.19311  Biso   1.000  C
  N617     1.0000 0.69635  0.47780  0.18739  Biso   1.000  N
  N618     1.0000 0.69629  0.47780  0.18739  Biso   1.000  N
  N619     1.0000 0.63216  0.56111  0.19940  Biso   1.000  N
  N620     1.0000 0.63210  0.56111  0.19940  Biso   1.000  N
  O282     1.0000 0.54829  0.47891  0.19318  Biso   1.000  O
  C1046    1.0000 0.71123  0.41699  0.19289  Biso   1.000  C
  C1047    1.0000 0.77065  0.51920  0.19541  Biso   1.000  C
  C1048    1.0000 0.72892  0.57631  0.20530  Biso   1.000  C
  C1049    1.0000 0.57363  0.59680  0.21782  Biso   1.000  C
  C1050    1.0000 0.57362  0.59680  0.21778  Biso   1.000  C
  N621     1.0000 0.73591  0.38950  0.15401  Biso   1.000  N
  H969     1.0000 0.75956  0.41012  0.22260  Biso   1.000  H
  H970     1.0000 0.65517  0.39891  0.19732  Biso   1.000  H
  H971     1.0000 0.75950  0.41012  0.22260  Biso   1.000  H
  H972     1.0000 0.65509  0.39891  0.19728  Biso   1.000  H
  H973     1.0000 0.82215  0.50760  0.22282  Biso   1.000  H
  N622     1.0000 0.80115  0.53122  0.15221  Biso   1.000  N
  H974     1.0000 0.82214  0.50760  0.22278  Biso   1.000  H
  N623     1.0000 0.80113  0.53122  0.15218  Biso   1.000  N
  H975     1.0000 0.75755  0.59091  0.23839  Biso   1.000  H
  N624     1.0000 0.74253  0.61440  0.16919  Biso   1.000  N
  H976     1.0000 0.75749  0.59091  0.23839  Biso   1.000  H
  H977     1.0000 0.60892  0.61522  0.24781  Biso   1.000  H
  H978     1.0000 0.52640  0.57262  0.22620  Biso   1.000  H
  N625     1.0000 0.53004  0.64099  0.18469  Biso   1.000  N
  C1051    1.0000 0.69236  0.34042  0.13340  Biso   1.000  C
  C1052    1.0000 0.69229  0.34042  0.13340  Biso   1.000  C
  C1053    1.0000 0.82676  0.39320  0.14581  Biso   1.000  C
  C1054    1.0000 0.82670  0.39320  0.14581  Biso   1.000  C
  C1055    1.0000 0.87155  0.49661  0.13890  Biso   1.000  C
  C1056    1.0000 0.87148  0.49661  0.13890  Biso   1.000  C
  C1057    1.0000 0.79064  0.58920  0.14182  Biso   1.000  C
  C1058    1.0000 0.79062  0.58920  0.14178  Biso   1.000  C
  C1059    1.0000 0.72902  0.67551  0.16919  Biso   1.000  C
  C1060    1.0000 0.43520  0.64588  0.16919  Biso   1.000  C
  C1061    1.0000 0.57350  0.69600  0.17930  Biso   1.000  C
  O283     1.0000 0.61808  0.32470  0.13908  Biso   1.000  O
  N626     1.0000 0.74570  0.31371  0.10891  Biso   1.000  N
  O284     1.0000 0.61816  0.32470  0.13912  Biso   1.000  O
  C1062    1.0000 0.83054  0.34209  0.11330  Biso   1.000  C
  H979     1.0000 0.87461  0.39041  0.17671  Biso   1.000  H
  N627     1.0000 0.84124  0.44241  0.11830  Biso   1.000  N
  H980     1.0000 0.89633  0.51872  0.11571  Biso   1.000  H
  H981     1.0000 0.92156  0.49029  0.16800  Biso   1.000  H
  H982     1.0000 0.92149  0.49029  0.16800  Biso   1.000  H
  O285     1.0000 0.81854  0.61200  0.10902  Biso   1.000  O
  O286     1.0000 0.81852  0.61200  0.10898  Biso   1.000  O
  H983     1.0000 0.75164  0.68990  0.20260  Biso   1.000  H
  H984     1.0000 0.76592  0.69372  0.14941  Biso   1.000  H
  N628     1.0000 0.63785  0.69321  0.15160  Biso   1.000  N
  N629     1.0000 0.63779  0.69321  0.15160  Biso   1.000  N
  N630     1.0000 0.41611  0.69600  0.14610  Biso   1.000  N
  O287     1.0000 0.38154  0.60891  0.17480  Biso   1.000  O
  O288     1.0000 0.38148  0.60891  0.17480  Biso   1.000  O
  C1063    1.0000 0.49442  0.73250  0.14890  Biso   1.000  C
  H985     1.0000 0.60005  0.71412  0.21131  Biso   1.000  H
  C1064    1.0000 0.72493  0.25560  0.08959  Biso   1.000  C
  H986     1.0000 0.88300  0.31641  0.12740  Biso   1.000  H
  N631     1.0000 0.84025  0.37022  0.06942  Biso   1.000  N
  N632     1.0000 0.84017  0.37022  0.06938  Biso   1.000  N
  C1065    1.0000 0.85369  0.43009  0.07409  Biso   1.000  C
  C1066    1.0000 0.60622  0.71919  0.10790  Biso   1.000  C
  C1067    1.0000 0.32560  0.71781  0.12671  Biso   1.000  C
  C1068    1.0000 0.32558  0.71781  0.12668  Biso   1.000  C
  H987     1.0000 0.48884  0.77072  0.16379  Biso   1.000  H
  N633     1.0000 0.51893  0.73740  0.10290  Biso   1.000  N
  H988     1.0000 0.67792  0.23860  0.10369  Biso   1.000  H
  H989     1.0000 0.78003  0.23151  0.09959  Biso   1.000  H
  N634     1.0000 0.69332  0.25449  0.03780  Biso   1.000  N
  C1069    1.0000 0.86365  0.33591  0.03072  Biso   1.000  C
  C1070    1.0000 0.86356  0.33591  0.03068  Biso   1.000  C
  O289     1.0000 0.87162  0.46049  0.04420  Biso   1.000  O
  O290     1.0000 0.65061  0.72498  0.07711  Biso   1.000  O
  O291     1.0000 0.65059  0.72498  0.07708  Biso   1.000  O
  H990     1.0000 0.32322  0.75792  0.13772  Biso   1.000  H
  H991     1.0000 0.28314  0.69501  0.14031  Biso   1.000  H
  N635     1.0000 0.29440  0.71648  0.07442  Biso   1.000  N
  H992     1.0000 0.32320  0.75792  0.13768  Biso   1.000  H
  N636     1.0000 0.29439  0.71648  0.07438  Biso   1.000  N
  C1071    1.0000 0.48011  0.78120  0.06809  Biso   1.000  C
  C1072    1.0000 0.60591  0.24371  0.01280  Biso   1.000  C
  C1073    1.0000 0.75272  0.25440  0.00619  Biso   1.000  C
  C1074    1.0000 0.75266  0.25440  0.00619  Biso   1.000  C
  H993     1.0000 0.90392  0.30400  0.04539  Biso   1.000  H
  H994     1.0000 0.89749  0.36052  0.01320  Biso   1.000  H
  N637     1.0000 0.78589  0.31272  0.99705  Biso   1.000  N
  N638     1.0000 0.78581  0.31272  0.99701  Biso   1.000  N
  C1075    1.0000 0.23870  0.67349  0.05129  Biso   1.000  C
  C1076    1.0000 0.30984  0.76230  0.04341  Biso   1.000  C
  C1077    1.0000 0.30976  0.76230  0.04338  Biso   1.000  C
  H995     1.0000 0.52479  0.79271  0.05021  Biso   1.000  H
  H996     1.0000 0.46512  0.81538  0.08499  Biso   1.000  H
  N639     1.0000 0.39869  0.75990  0.03471  Biso   1.000  N
  O292     1.0000 0.54151  0.23830  0.03212  Biso   1.000  O
  O293     1.0000 0.54150  0.23830  0.03208  Biso   1.000  O
  N640     1.0000 0.60146  0.24010  0.96533  Biso   1.000  N
  H997     1.0000 0.80384  0.22670  0.01690  Biso   1.000  H
  H998     1.0000 0.80378  0.22670  0.01690  Biso   1.000  H
  C1078    1.0000 0.69037  0.23770  0.95662  Biso   1.000  C
  C1079    1.0000 0.69031  0.23770  0.95662  Biso   1.000  C
  C1080    1.0000 0.76145  0.32651  0.94875  Biso   1.000  C
  C1081    1.0000 0.76143  0.32651  0.94871  Biso   1.000  C
  N641     1.0000 0.21432  0.68732  0.00299  Biso   1.000  N
  O294     1.0000 0.21252  0.63162  0.06852  Biso   1.000  O
  N642     1.0000 0.21426  0.68732  0.00299  Biso   1.000  N
  O295     1.0000 0.21251  0.63162  0.06848  Biso   1.000  O
  H999     1.0000 0.29523  0.80100  0.05449  Biso   1.000  H
  H1000    1.0000 0.29517  0.80100  0.05449  Biso   1.000  H
  C1082    1.0000 0.24749  0.74560  0.99385  Biso   1.000  C
  C1083    1.0000 0.24741  0.74560  0.99381  Biso   1.000  C
  C1084    1.0000 0.39424  0.75629  0.98723  Biso   1.000  C
  C1085    1.0000 0.52004  0.21880  0.93195  Biso   1.000  C
  C1086    1.0000 0.52003  0.21880  0.93191  Biso   1.000  C
  H1001    1.0000 0.70498  0.19900  0.94555  Biso   1.000  H
  N643     1.0000 0.70575  0.28352  0.92562  Biso   1.000  N
  H1002    1.0000 0.70490  0.19900  0.94551  Biso   1.000  H
  O296     1.0000 0.78762  0.36842  0.93152  Biso   1.000  O
  C1087    1.0000 0.13657  0.66409  0.96932  Biso   1.000  C
  C1088    1.0000 0.13650  0.66409  0.96932  Biso   1.000  C
  H1003    1.0000 0.19637  0.77330  0.98313  Biso   1.000  H
  N644     1.0000 0.30683  0.74551  0.96223  Biso   1.000  N
  H1004    1.0000 0.19630  0.77330  0.98313  Biso   1.000  H
  O297     1.0000 0.45864  0.76170  0.96792  Biso   1.000  O
  H1005    1.0000 0.47535  0.20729  0.94983  Biso   1.000  H
  H1006    1.0000 0.53503  0.18462  0.91505  Biso   1.000  H
  N645     1.0000 0.48122  0.26260  0.89713  Biso   1.000  N
  H1007    1.0000 0.53501  0.18462  0.91501  Biso   1.000  H
  C1089    1.0000 0.67455  0.28219  0.87332  Biso   1.000  C
  C1090    1.0000 0.67449  0.28219  0.87332  Biso   1.000  C
  H1008    1.0000 0.09623  0.69600  0.95465  Biso   1.000  H
  H1009    1.0000 0.10266  0.63948  0.98684  Biso   1.000  H
  N646     1.0000 0.15996  0.62982  0.93062  Biso   1.000  N
  H1010    1.0000 0.09621  0.69600  0.95461  Biso   1.000  H
  N647     1.0000 0.15989  0.62982  0.93062  Biso   1.000  N
  C1091    1.0000 0.27522  0.74440  0.91044  Biso   1.000  C
  C1092    1.0000 0.39393  0.28081  0.89213  Biso   1.000  C
  C1093    1.0000 0.50573  0.26750  0.85113  Biso   1.000  C
  H1011    1.0000 0.67693  0.24212  0.86232  Biso   1.000  H
  H1012    1.0000 0.71701  0.30499  0.85973  Biso   1.000  H
  N648     1.0000 0.58404  0.30400  0.85394  Biso   1.000  N
  C1094    1.0000 0.14646  0.56991  0.92594  Biso   1.000  C
  C1095    1.0000 0.16961  0.65791  0.88674  Biso   1.000  C
  C1096    1.0000 0.14638  0.56991  0.92591  Biso   1.000  C
  H1013    1.0000 0.32223  0.76140  0.89634  Biso   1.000  H
  H1014    1.0000 0.22012  0.76849  0.90044  Biso   1.000  H
  N649     1.0000 0.25444  0.68629  0.89113  Biso   1.000  N
  N650     1.0000 0.36236  0.30679  0.84843  Biso   1.000  N
  O298     1.0000 0.34954  0.27502  0.92292  Biso   1.000  O
  N651     1.0000 0.36229  0.30679  0.84843  Biso   1.000  N
  H1015    1.0000 0.51131  0.22932  0.83624  Biso   1.000  H
  C1097    1.0000 0.42665  0.30400  0.82074  Biso   1.000  C
  C1098    1.0000 0.56494  0.35412  0.83085  Biso   1.000  C
  C1099    1.0000 0.56493  0.35412  0.83081  Biso   1.000  C
  N652     1.0000 0.15891  0.55759  0.88174  Biso   1.000  N
  O299     1.0000 0.12852  0.53951  0.95583  Biso   1.000  O
  C1100    1.0000 0.17345  0.60680  0.85423  Biso   1.000  C
  C1101    1.0000 0.17338  0.60680  0.85423  Biso   1.000  C
  H1016    1.0000 0.11715  0.68359  0.87264  Biso   1.000  H
  C1102    1.0000 0.30786  0.65962  0.86663  Biso   1.000  C
  C1103    1.0000 0.30779  0.65962  0.86663  Biso   1.000  C
  C1104    1.0000 0.27113  0.32449  0.83085  Biso   1.000  C
  C1105    1.0000 0.27111  0.32449  0.83081  Biso   1.000  C
  H1017    1.0000 0.40010  0.28588  0.78873  Biso   1.000  H
  N653     1.0000 0.47011  0.35901  0.81535  Biso   1.000  N
  N654     1.0000 0.47010  0.35901  0.81531  Biso   1.000  N
  O300     1.0000 0.61860  0.39109  0.82524  Biso   1.000  O
  C1106    1.0000 0.12860  0.50339  0.86113  Biso   1.000  C
  N655     1.0000 0.26424  0.61050  0.84603  Biso   1.000  N
  H1018    1.0000 0.12553  0.60959  0.82333  Biso   1.000  H
  O301     1.0000 0.38206  0.67530  0.86092  Biso   1.000  O
  O302     1.0000 0.38199  0.67530  0.86092  Biso   1.000  O
  H1019    1.0000 0.24851  0.31010  0.79743  Biso   1.000  H
  H1020    1.0000 0.23423  0.30632  0.85063  Biso   1.000  H
  N656     1.0000 0.25762  0.38560  0.83085  Biso   1.000  N
  N657     1.0000 0.25760  0.38560  0.83081  Biso   1.000  N
  C1107    1.0000 0.42652  0.40320  0.78222  Biso   1.000  C
  N658     1.0000 0.19900  0.46882  0.84782  Biso   1.000  N
  H1021    1.0000 0.10382  0.48132  0.88433  Biso   1.000  H
  H1022    1.0000 0.07865  0.50971  0.83203  Biso   1.000  H
  H1023    1.0000 0.07859  0.50971  0.83203  Biso   1.000  H
  C1108    1.0000 0.28892  0.58301  0.80714  Biso   1.000  C
  C1109    1.0000 0.28890  0.58301  0.80711  Biso   1.000  C
  C1110    1.0000 0.20951  0.41080  0.85822  Biso   1.000  C
  C1111    1.0000 0.27122  0.42369  0.79474  Biso   1.000  C
  H1024    1.0000 0.39122  0.38478  0.75222  Biso   1.000  H
  H1025    1.0000 0.47375  0.42738  0.77384  Biso   1.000  H
  N659     1.0000 0.36805  0.43889  0.80063  Biso   1.000  N
  H1026    1.0000 0.47368  0.42738  0.77384  Biso   1.000  H
  N660     1.0000 0.36799  0.43889  0.80063  Biso   1.000  N
  C1112    1.0000 0.22950  0.48080  0.80463  Biso   1.000  C
  N661     1.0000 0.30386  0.52220  0.81265  Biso   1.000  N
  N662     1.0000 0.30378  0.52220  0.81261  Biso   1.000  N
  H1027    1.0000 0.24065  0.58988  0.77744  Biso   1.000  H
  H1028    1.0000 0.34504  0.60109  0.80272  Biso   1.000  H
  H1029    1.0000 0.24058  0.58988  0.77744  Biso   1.000  H
  H1030    1.0000 0.34498  0.60109  0.80272  Biso   1.000  H
  O303     1.0000 0.18161  0.38800  0.89102  Biso   1.000  O
  H1031    1.0000 0.24259  0.40909  0.76165  Biso   1.000  H
  H1032    1.0000 0.24258  0.40909  0.76161  Biso   1.000  H
  C1113    1.0000 0.37963  0.49571  0.80693  Biso   1.000  C
  H1033    1.0000 0.17799  0.49240  0.77722  Biso   1.000  H
  O304     1.0000 0.45184  0.52109  0.80682  Biso   1.000  O
  O305     1.0000 0.54831  0.47891  0.19321  Biso   1.000  O
  C1114    1.0000 0.62052  0.50429  0.19311  Biso   1.000  C
  N663     1.0000 0.69635  0.47780  0.18739  Biso   1.000  N
  N664     1.0000 0.69629  0.47780  0.18739  Biso   1.000  N
  N665     1.0000 0.63216  0.56111  0.19940  Biso   1.000  N
  N666     1.0000 0.63210  0.56111  0.19940  Biso   1.000  N
  O306     1.0000 0.54829  0.47891  0.19318  Biso   1.000  O
  C1115    1.0000 0.71123  0.41699  0.19289  Biso   1.000  C
  C1116    1.0000 0.77065  0.51920  0.19541  Biso   1.000  C
  C1117    1.0000 0.72892  0.57631  0.20530  Biso   1.000  C
  C1118    1.0000 0.57363  0.59680  0.21782  Biso   1.000  C
  C1119    1.0000 0.57362  0.59680  0.21778  Biso   1.000  C
  N667     1.0000 0.73591  0.38950  0.15401  Biso   1.000  N
  H1034    1.0000 0.75956  0.41012  0.22260  Biso   1.000  H
  H1035    1.0000 0.65517  0.39891  0.19732  Biso   1.000  H
  H1036    1.0000 0.75950  0.41012  0.22260  Biso   1.000  H
  H1037    1.0000 0.65509  0.39891  0.19728  Biso   1.000  H
  H1038    1.0000 0.82215  0.50760  0.22282  Biso   1.000  H
  N668     1.0000 0.80115  0.53122  0.15221  Biso   1.000  N
  H1039    1.0000 0.82214  0.50760  0.22278  Biso   1.000  H
  N669     1.0000 0.80113  0.53122  0.15218  Biso   1.000  N
  N670     1.0000 0.74253  0.61440  0.16919  Biso   1.000  N
  H1040    1.0000 0.75755  0.59091  0.23839  Biso   1.000  H
  H1041    1.0000 0.75749  0.59091  0.23839  Biso   1.000  H
  H1042    1.0000 0.60892  0.61522  0.24781  Biso   1.000  H
  H1043    1.0000 0.52640  0.57262  0.22620  Biso   1.000  H
  N671     1.0000 0.53004  0.64099  0.18469  Biso   1.000  N
  C1120    1.0000 0.69236  0.34042  0.13340  Biso   1.000  C
  C1121    1.0000 0.82676  0.39320  0.14581  Biso   1.000  C
  C1122    1.0000 0.69229  0.34042  0.13340  Biso   1.000  C
  C1123    1.0000 0.82670  0.39320  0.14581  Biso   1.000  C
  C1124    1.0000 0.87155  0.49661  0.13890  Biso   1.000  C
  C1125    1.0000 0.87148  0.49661  0.13890  Biso   1.000  C
  C1126    1.0000 0.79064  0.58920  0.14182  Biso   1.000  C
  C1127    1.0000 0.79062  0.58920  0.14178  Biso   1.000  C
  C1128    1.0000 0.72902  0.67551  0.16919  Biso   1.000  C
  C1129    1.0000 0.43520  0.64588  0.16919  Biso   1.000  C
  C1130    1.0000 0.57350  0.69600  0.17930  Biso   1.000  C
  N672     1.0000 0.74570  0.31371  0.10891  Biso   1.000  N
  O307     1.0000 0.61816  0.32470  0.13912  Biso   1.000  O
  O308     1.0000 0.61808  0.32470  0.13908  Biso   1.000  O
  H1044    1.0000 0.87461  0.39041  0.17671  Biso   1.000  H
  C1131    1.0000 0.83054  0.34209  0.11330  Biso   1.000  C
  N673     1.0000 0.84124  0.44241  0.11830  Biso   1.000  N
  H1045    1.0000 0.89633  0.51872  0.11571  Biso   1.000  H
  H1046    1.0000 0.92156  0.49029  0.16800  Biso   1.000  H
  H1047    1.0000 0.92149  0.49029  0.16800  Biso   1.000  H
  O309     1.0000 0.81854  0.61200  0.10902  Biso   1.000  O
  O310     1.0000 0.81852  0.61200  0.10898  Biso   1.000  O
  H1048    1.0000 0.75164  0.68990  0.20260  Biso   1.000  H
  H1049    1.0000 0.76592  0.69372  0.14941  Biso   1.000  H
  N674     1.0000 0.63785  0.69321  0.15160  Biso   1.000  N
  N675     1.0000 0.63779  0.69321  0.15160  Biso   1.000  N
  N676     1.0000 0.41611  0.69600  0.14610  Biso   1.000  N
  O311     1.0000 0.38154  0.60891  0.17480  Biso   1.000  O
  O312     1.0000 0.38148  0.60891  0.17480  Biso   1.000  O
  C1132    1.0000 0.49442  0.73250  0.14890  Biso   1.000  C
  H1050    1.0000 0.60005  0.71412  0.21131  Biso   1.000  H
  C1133    1.0000 0.72493  0.25560  0.08959  Biso   1.000  C
  H1051    1.0000 0.88300  0.31641  0.12740  Biso   1.000  H
  N677     1.0000 0.84025  0.37022  0.06942  Biso   1.000  N
  N678     1.0000 0.84017  0.37022  0.06938  Biso   1.000  N
  C1134    1.0000 0.85369  0.43009  0.07409  Biso   1.000  C
  C1135    1.0000 0.60622  0.71919  0.10790  Biso   1.000  C
  C1136    1.0000 0.32560  0.71781  0.12671  Biso   1.000  C
  C1137    1.0000 0.32558  0.71781  0.12668  Biso   1.000  C
  H1052    1.0000 0.48884  0.77072  0.16379  Biso   1.000  H
  N679     1.0000 0.51893  0.73740  0.10290  Biso   1.000  N
  H1053    1.0000 0.67792  0.23860  0.10369  Biso   1.000  H
  H1054    1.0000 0.78003  0.23151  0.09959  Biso   1.000  H
  N680     1.0000 0.69332  0.25449  0.03780  Biso   1.000  N
  C1138    1.0000 0.86365  0.33591  0.03072  Biso   1.000  C
  C1139    1.0000 0.86356  0.33591  0.03068  Biso   1.000  C
  O313     1.0000 0.87162  0.46049  0.04420  Biso   1.000  O
  O314     1.0000 0.65061  0.72498  0.07711  Biso   1.000  O
  O315     1.0000 0.65059  0.72498  0.07708  Biso   1.000  O
  H1055    1.0000 0.28314  0.69501  0.14031  Biso   1.000  H
  H1056    1.0000 0.32322  0.75792  0.13772  Biso   1.000  H
  N681     1.0000 0.29440  0.71648  0.07442  Biso   1.000  N
  H1057    1.0000 0.32320  0.75792  0.13768  Biso   1.000  H
  N682     1.0000 0.29439  0.71648  0.07438  Biso   1.000  N
  C1140    1.0000 0.48011  0.78120  0.06809  Biso   1.000  C
  C1141    1.0000 0.60591  0.24371  0.01280  Biso   1.000  C
  C1142    1.0000 0.75272  0.25440  0.00619  Biso   1.000  C
  C1143    1.0000 0.75266  0.25440  0.00619  Biso   1.000  C
  H1058    1.0000 0.90392  0.30400  0.04539  Biso   1.000  H
  H1059    1.0000 0.89749  0.36052  0.01320  Biso   1.000  H
  N683     1.0000 0.78589  0.31272  0.99705  Biso   1.000  N
  N684     1.0000 0.78581  0.31272  0.99701  Biso   1.000  N
  C1144    1.0000 0.23870  0.67349  0.05129  Biso   1.000  C
  C1145    1.0000 0.30984  0.76230  0.04341  Biso   1.000  C
  C1146    1.0000 0.30976  0.76230  0.04338  Biso   1.000  C
  H1060    1.0000 0.52479  0.79271  0.05021  Biso   1.000  H
  H1061    1.0000 0.46512  0.81538  0.08499  Biso   1.000  H
  N685     1.0000 0.39869  0.75990  0.03471  Biso   1.000  N
  N686     1.0000 0.60146  0.24010  0.96533  Biso   1.000  N
  O316     1.0000 0.54151  0.23830  0.03212  Biso   1.000  O
  O317     1.0000 0.54150  0.23830  0.03208  Biso   1.000  O
  C1147    1.0000 0.69037  0.23770  0.95662  Biso   1.000  C
  C1148    1.0000 0.69031  0.23770  0.95662  Biso   1.000  C
  H1062    1.0000 0.80384  0.22670  0.01690  Biso   1.000  H
  H1063    1.0000 0.80378  0.22670  0.01690  Biso   1.000  H
  C1149    1.0000 0.76145  0.32651  0.94875  Biso   1.000  C
  C1150    1.0000 0.76143  0.32651  0.94871  Biso   1.000  C
  N687     1.0000 0.21432  0.68732  0.00299  Biso   1.000  N
  O318     1.0000 0.21252  0.63162  0.06852  Biso   1.000  O
  N688     1.0000 0.21426  0.68732  0.00299  Biso   1.000  N
  O319     1.0000 0.21251  0.63162  0.06848  Biso   1.000  O
  C1151    1.0000 0.24749  0.74560  0.99385  Biso   1.000  C
  C1152    1.0000 0.24741  0.74560  0.99381  Biso   1.000  C
  H1064    1.0000 0.29523  0.80100  0.05449  Biso   1.000  H
  H1065    1.0000 0.29517  0.80100  0.05449  Biso   1.000  H
  C1153    1.0000 0.39424  0.75629  0.98723  Biso   1.000  C
  C1154    1.0000 0.52004  0.21880  0.93195  Biso   1.000  C
  C1155    1.0000 0.52003  0.21880  0.93191  Biso   1.000  C
  H1066    1.0000 0.70498  0.19900  0.94555  Biso   1.000  H
  N689     1.0000 0.70575  0.28352  0.92562  Biso   1.000  N
  H1067    1.0000 0.70490  0.19900  0.94551  Biso   1.000  H
  O320     1.0000 0.78762  0.36842  0.93152  Biso   1.000  O
  C1156    1.0000 0.13657  0.66409  0.96932  Biso   1.000  C
  C1157    1.0000 0.13650  0.66409  0.96932  Biso   1.000  C
  H1068    1.0000 0.19637  0.77330  0.98313  Biso   1.000  H
  N690     1.0000 0.30683  0.74551  0.96223  Biso   1.000  N
  H1069    1.0000 0.19630  0.77330  0.98313  Biso   1.000  H
  O321     1.0000 0.45864  0.76170  0.96792  Biso   1.000  O
  H1070    1.0000 0.47535  0.20729  0.94983  Biso   1.000  H
  H1071    1.0000 0.53503  0.18462  0.91505  Biso   1.000  H
  N691     1.0000 0.48122  0.26260  0.89713  Biso   1.000  N
  H1072    1.0000 0.53501  0.18462  0.91501  Biso   1.000  H
  C1158    1.0000 0.67455  0.28219  0.87332  Biso   1.000  C
  C1159    1.0000 0.67449  0.28219  0.87332  Biso   1.000  C
  H1073    1.0000 0.09623  0.69600  0.95465  Biso   1.000  H
  H1074    1.0000 0.10266  0.63948  0.98684  Biso   1.000  H
  N692     1.0000 0.15996  0.62982  0.93062  Biso   1.000  N
  H1075    1.0000 0.09621  0.69600  0.95461  Biso   1.000  H
  N693     1.0000 0.15989  0.62982  0.93062  Biso   1.000  N
  C1160    1.0000 0.27522  0.74440  0.91044  Biso   1.000  C
  C1161    1.0000 0.39393  0.28081  0.89213  Biso   1.000  C
  C1162    1.0000 0.50573  0.26750  0.85113  Biso   1.000  C
  H1076    1.0000 0.67693  0.24212  0.86232  Biso   1.000  H
  H1077    1.0000 0.71701  0.30499  0.85973  Biso   1.000  H
  N694     1.0000 0.58404  0.30400  0.85394  Biso   1.000  N
  C1163    1.0000 0.14646  0.56991  0.92594  Biso   1.000  C
  C1164    1.0000 0.16961  0.65791  0.88674  Biso   1.000  C
  C1165    1.0000 0.14638  0.56991  0.92591  Biso   1.000  C
  H1078    1.0000 0.32223  0.76140  0.89634  Biso   1.000  H
  H1079    1.0000 0.22012  0.76849  0.90044  Biso   1.000  H
  N695     1.0000 0.25444  0.68629  0.89113  Biso   1.000  N
  N696     1.0000 0.36236  0.30679  0.84843  Biso   1.000  N
  O322     1.0000 0.34954  0.27502  0.92292  Biso   1.000  O
  N697     1.0000 0.36229  0.30679  0.84843  Biso   1.000  N
  H1080    1.0000 0.51131  0.22932  0.83624  Biso   1.000  H
  C1166    1.0000 0.42665  0.30400  0.82074  Biso   1.000  C
  C1167    1.0000 0.56494  0.35412  0.83085  Biso   1.000  C
  C1168    1.0000 0.56493  0.35412  0.83081  Biso   1.000  C
  N698     1.0000 0.15891  0.55759  0.88174  Biso   1.000  N
  O323     1.0000 0.12852  0.53951  0.95583  Biso   1.000  O
  C1169    1.0000 0.17345  0.60680  0.85423  Biso   1.000  C
  H1081    1.0000 0.11715  0.68359  0.87264  Biso   1.000  H
  C1170    1.0000 0.17338  0.60680  0.85423  Biso   1.000  C
  C1171    1.0000 0.30786  0.65962  0.86663  Biso   1.000  C
  C1172    1.0000 0.30779  0.65962  0.86663  Biso   1.000  C
  C1173    1.0000 0.27113  0.32449  0.83085  Biso   1.000  C
  C1174    1.0000 0.27111  0.32449  0.83081  Biso   1.000  C
  H1082    1.0000 0.40010  0.28588  0.78873  Biso   1.000  H
  N699     1.0000 0.47011  0.35901  0.81535  Biso   1.000  N
  N700     1.0000 0.47010  0.35901  0.81531  Biso   1.000  N
  O324     1.0000 0.61860  0.39109  0.82524  Biso   1.000  O
  C1175    1.0000 0.12860  0.50339  0.86113  Biso   1.000  C
  H1083    1.0000 0.12553  0.60959  0.82333  Biso   1.000  H
  N701     1.0000 0.26424  0.61050  0.84603  Biso   1.000  N
  O325     1.0000 0.38206  0.67530  0.86092  Biso   1.000  O
  O326     1.0000 0.38199  0.67530  0.86092  Biso   1.000  O
  H1084    1.0000 0.24851  0.31010  0.79743  Biso   1.000  H
  H1085    1.0000 0.23423  0.30632  0.85063  Biso   1.000  H
  N702     1.0000 0.25762  0.38560  0.83085  Biso   1.000  N
  N703     1.0000 0.25760  0.38560  0.83081  Biso   1.000  N
  C1176    1.0000 0.42652  0.40320  0.78222  Biso   1.000  C
  N704     1.0000 0.19900  0.46882  0.84782  Biso   1.000  N
  H1086    1.0000 0.10382  0.48132  0.88433  Biso   1.000  H
  H1087    1.0000 0.07865  0.50971  0.83203  Biso   1.000  H
  H1088    1.0000 0.07859  0.50971  0.83203  Biso   1.000  H
  C1177    1.0000 0.28892  0.58301  0.80714  Biso   1.000  C
  C1178    1.0000 0.28890  0.58301  0.80711  Biso   1.000  C
  C1179    1.0000 0.20951  0.41080  0.85822  Biso   1.000  C
  C1180    1.0000 0.27122  0.42369  0.79474  Biso   1.000  C
  H1089    1.0000 0.39122  0.38478  0.75222  Biso   1.000  H
  H1090    1.0000 0.47375  0.42738  0.77384  Biso   1.000  H
  N705     1.0000 0.36805  0.43889  0.80063  Biso   1.000  N
  H1091    1.0000 0.47368  0.42738  0.77384  Biso   1.000  H
  N706     1.0000 0.36799  0.43889  0.80063  Biso   1.000  N
  C1181    1.0000 0.22950  0.48080  0.80463  Biso   1.000  C
  N707     1.0000 0.30386  0.52220  0.81265  Biso   1.000  N
  N708     1.0000 0.30378  0.52220  0.81261  Biso   1.000  N
  H1092    1.0000 0.24065  0.58988  0.77744  Biso   1.000  H
  H1093    1.0000 0.34504  0.60109  0.80272  Biso   1.000  H
  H1094    1.0000 0.24058  0.58988  0.77744  Biso   1.000  H
  H1095    1.0000 0.34498  0.60109  0.80272  Biso   1.000  H
  O327     1.0000 0.18161  0.38800  0.89102  Biso   1.000  O
  H1096    1.0000 0.24259  0.40909  0.76165  Biso   1.000  H
  H1097    1.0000 0.24258  0.40909  0.76161  Biso   1.000  H
  C1182    1.0000 0.37963  0.49571  0.80693  Biso   1.000  C
  H1098    1.0000 0.17799  0.49240  0.77722  Biso   1.000  H
  O328     1.0000 0.45184  0.52109  0.80682  Biso   1.000  O
