data_image0
_cell_length_a       15.233
_cell_length_b       19.754
_cell_length_c       21.392
_cell_angle_alpha    90
_cell_angle_beta     123.2
_cell_angle_gamma    90

_symmetry_space_group_name_H-M    "P 1"
_symmetry_int_tables_number       1

loop_
  _symmetry_equiv_pos_as_xyz
  'x, y, z'

loop_
  _atom_site_label
  _atom_site_occupancy
  _atom_site_fract_x
  _atom_site_fract_y
  _atom_site_fract_z
  _atom_site_thermal_displace_type
  _atom_site_B_iso_or_equiv
  _atom_site_type_symbol
  O1       1.0000 0.71002  0.49332  0.11821  Biso   1.000  O
  C1       1.0000 0.73279  0.55320  0.13698  Biso   1.000  C
  N1       1.0000 0.68204  0.60879  0.09190  Biso   1.000  N
  N2       1.0000 0.81274  0.57538  0.20519  Biso   1.000  N
  N3       1.0000 0.68197  0.60879  0.09190  Biso   1.000  N
  N4       1.0000 0.81268  0.57538  0.20519  Biso   1.000  N
  C2       1.0000 0.72463  0.67181  0.13089  Biso   1.000  C
  C3       1.0000 0.58085  0.60150  0.02263  Biso   1.000  C
  C4       1.0000 0.72456  0.67181  0.13089  Biso   1.000  C
  C5       1.0000 0.58074  0.60150  0.02257  Biso   1.000  C
  C6       1.0000 0.88025  0.53012  0.26464  Biso   1.000  C
  C7       1.0000 0.81573  0.64959  0.20899  Biso   1.000  C
  C8       1.0000 0.88020  0.53012  0.26458  Biso   1.000  C
  C9       1.0000 0.81567  0.64959  0.20899  Biso   1.000  C
  H1       1.0000 0.67142  0.69971  0.13290  Biso   1.000  H
  N5       1.0000 0.78070  0.71019  0.10581  Biso   1.000  N
  H2       1.0000 0.53213  0.63542  0.02151  Biso   1.000  H
  H3       1.0000 0.55259  0.55609  0.02140  Biso   1.000  H
  H4       1.0000 0.53206  0.63542  0.02151  Biso   1.000  H
  N6       1.0000 0.58319  0.60970  0.95704  Biso   1.000  N
  H5       1.0000 0.84826  0.48441  0.25223  Biso   1.000  H
  H6       1.0000 0.88582  0.54521  0.31073  Biso   1.000  H
  N7       1.0000 0.98477  0.52562  0.27883  Biso   1.000  N
  H7       1.0000 0.84822  0.48441  0.25218  Biso   1.000  H
  N8       1.0000 0.98471  0.52562  0.27883  Biso   1.000  N
  H8       1.0000 0.80566  0.66630  0.24883  Biso   1.000  H
  N9       1.0000 0.90872  0.67839  0.21732  Biso   1.000  N
  H9       1.0000 0.80559  0.66630  0.24883  Biso   1.000  H
  C10      1.0000 0.88331  0.71672  0.15721  Biso   1.000  C
  C11      1.0000 0.72643  0.74780  0.03592  Biso   1.000  C
  C12      1.0000 0.59023  0.67419  0.93067  Biso   1.000  C
  C13      1.0000 0.56933  0.55872  0.91067  Biso   1.000  C
  C14      1.0000 0.56927  0.55872  0.91067  Biso   1.000  C
  C15      1.0000 0.07146  0.56702  0.33564  Biso   1.000  C
  C16      1.0000 0.02013  0.46512  0.27112  Biso   1.000  C
  C17      1.0000 0.07142  0.56702  0.33559  Biso   1.000  C
  C18      1.0000 0.00416  0.68680  0.28944  Biso   1.000  C
  C19      1.0000 0.00412  0.68680  0.28938  Biso   1.000  C
  O2       1.0000 0.94531  0.75200  0.15179  Biso   1.000  O
  H10      1.0000 0.77318  0.78399  0.03849  Biso   1.000  H
  H11      1.0000 0.66376  0.76982  0.02989  Biso   1.000  H
  N10      1.0000 0.69361  0.70629  0.97095  Biso   1.000  N
  H12      1.0000 0.53571  0.70568  0.92637  Biso   1.000  H
  C20      1.0000 0.56977  0.65860  0.85285  Biso   1.000  C
  N11      1.0000 0.57511  0.58479  0.85296  Biso   1.000  N
  O3       1.0000 0.55294  0.49838  0.91726  Biso   1.000  O
  O4       1.0000 0.55287  0.49838  0.91726  Biso   1.000  O
  C21      1.0000 0.16907  0.52810  0.35134  Biso   1.000  C
  H13      1.0000 0.06985  0.57102  0.38162  Biso   1.000  H
  N12      1.0000 0.08026  0.63268  0.30944  Biso   1.000  N
  C22      1.0000 0.16902  0.52810  0.35128  Biso   1.000  C
  N13      1.0000 0.08022  0.63268  0.30938  Biso   1.000  N
  O5       1.0000 0.96466  0.41789  0.23201  Biso   1.000  O
  O6       1.0000 0.96459  0.41789  0.23201  Biso   1.000  O
  N14      1.0000 0.12603  0.46492  0.31279  Biso   1.000  N
  H14      1.0000 0.98671  0.68918  0.32771  Biso   1.000  H
  H15      1.0000 0.03673  0.73038  0.29022  Biso   1.000  H
  C23      1.0000 0.72590  0.72041  0.92296  Biso   1.000  C
  H16      1.0000 0.50050  0.67632  0.81117  Biso   1.000  H
  N15      1.0000 0.65798  0.69100  0.85564  Biso   1.000  N
  H17      1.0000 0.50046  0.67632  0.81112  Biso   1.000  H
  C24      1.0000 0.53019  0.54961  0.78464  Biso   1.000  C
  H18      1.0000 0.22246  0.52192  0.40592  Biso   1.000  H
  N16      1.0000 0.20691  0.57158  0.31441  Biso   1.000  N
  C25      1.0000 0.15743  0.63248  0.29514  Biso   1.000  C
  C26      1.0000 0.15738  0.63248  0.29508  Biso   1.000  C
  C27      1.0000 0.18780  0.40250  0.33140  Biso   1.000  C
  O7       1.0000 0.80381  0.75382  0.94028  Biso   1.000  O
  O8       1.0000 0.80377  0.75382  0.94022  Biso   1.000  O
  C28      1.0000 0.65791  0.70679  0.79117  Biso   1.000  C
  C29      1.0000 0.65787  0.70679  0.79112  Biso   1.000  C
  H19      1.0000 0.51209  0.50309  0.79106  Biso   1.000  H
  H20      1.0000 0.46459  0.57259  0.74637  Biso   1.000  H
  N17      1.0000 0.60199  0.54602  0.75816  Biso   1.000  N
  H21      1.0000 0.46455  0.57259  0.74631  Biso   1.000  H
  C30      1.0000 0.31168  0.56272  0.32944  Biso   1.000  C
  C31      1.0000 0.31158  0.56272  0.32938  Biso   1.000  C
  O9       1.0000 0.17776  0.68052  0.26771  Biso   1.000  O
  O10      1.0000 0.17769  0.68052  0.26771  Biso   1.000  O
  H22      1.0000 0.23732  0.39972  0.38631  Biso   1.000  H
  H23      1.0000 0.14007  0.36312  0.31542  Biso   1.000  H
  N18      1.0000 0.24620  0.39860  0.29670  Biso   1.000  N
  H24      1.0000 0.14000  0.36312  0.31542  Biso   1.000  H
  H25      1.0000 0.58714  0.72299  0.75173  Biso   1.000  H
  H26      1.0000 0.70787  0.74430  0.80313  Biso   1.000  H
  N19      1.0000 0.68628  0.64969  0.76123  Biso   1.000  N
  C32      1.0000 0.60937  0.59811  0.71542  Biso   1.000  C
  C33      1.0000 0.64099  0.48542  0.75363  Biso   1.000  C
  C34      1.0000 0.64092  0.48542  0.75363  Biso   1.000  C
  H27      1.0000 0.33241  0.60459  0.31542  Biso   1.000  H
  H28      1.0000 0.36184  0.55548  0.38374  Biso   1.000  H
  N20      1.0000 0.31880  0.50658  0.28961  Biso   1.000  N
  H29      1.0000 0.36180  0.55548  0.38369  Biso   1.000  H
  C35      1.0000 0.33955  0.43728  0.32112  Biso   1.000  C
  C36      1.0000 0.23715  0.34388  0.25223  Biso   1.000  C
  C37      1.0000 0.23711  0.34388  0.25218  Biso   1.000  C
  C38      1.0000 0.76296  0.65612  0.74782  Biso   1.000  C
  H30      1.0000 0.53937  0.61790  0.67765  Biso   1.000  H
  C39      1.0000 0.66056  0.56272  0.67894  Biso   1.000  C
  N21      1.0000 0.68131  0.49342  0.71045  Biso   1.000  N
  O11      1.0000 0.64039  0.43212  0.78307  Biso   1.000  O
  N22      1.0000 0.68124  0.49342  0.71045  Biso   1.000  N
  O12      1.0000 0.64035  0.43212  0.78302  Biso   1.000  O
  C40      1.0000 0.35912  0.51458  0.24642  Biso   1.000  C
  C41      1.0000 0.39074  0.40189  0.28464  Biso   1.000  C
  H31      1.0000 0.38737  0.43778  0.37681  Biso   1.000  H
  C42      1.0000 0.39069  0.40189  0.28458  Biso   1.000  C
  H32      1.0000 0.38730  0.43778  0.37681  Biso   1.000  H
  N23      1.0000 0.31382  0.35031  0.23883  Biso   1.000  N
  O13      1.0000 0.17166  0.29908  0.23084  Biso   1.000  O
  O14      1.0000 0.17162  0.29908  0.23078  Biso   1.000  O
  N24      1.0000 0.75390  0.60140  0.70335  Biso   1.000  N
  O15      1.0000 0.82845  0.70092  0.76922  Biso   1.000  O
  N25      1.0000 0.75384  0.60140  0.70335  Biso   1.000  N
  H33      1.0000 0.61274  0.56222  0.62324  Biso   1.000  H
  C43      1.0000 0.68842  0.43728  0.67062  Biso   1.000  C
  N26      1.0000 0.39811  0.45398  0.24190  Biso   1.000  N
  O16      1.0000 0.35972  0.56788  0.21698  Biso   1.000  O
  H34      1.0000 0.46074  0.38210  0.32240  Biso   1.000  H
  C44      1.0000 0.34220  0.29321  0.20888  Biso   1.000  C
  C45      1.0000 0.81231  0.59750  0.66866  Biso   1.000  C
  C46      1.0000 0.81224  0.59750  0.66866  Biso   1.000  C
  H35      1.0000 0.66770  0.39541  0.68464  Biso   1.000  H
  H36      1.0000 0.63827  0.44452  0.61631  Biso   1.000  H
  N27      1.0000 0.79320  0.42842  0.68564  Biso   1.000  N
  H37      1.0000 0.66763  0.39541  0.68464  Biso   1.000  H
  H38      1.0000 0.63820  0.44452  0.61631  Biso   1.000  H
  N28      1.0000 0.79313  0.42842  0.68564  Biso   1.000  N
  C47      1.0000 0.46992  0.45039  0.21542  Biso   1.000  C
  H39      1.0000 0.41297  0.27701  0.24832  Biso   1.000  H
  H40      1.0000 0.29224  0.25570  0.19693  Biso   1.000  H
  N29      1.0000 0.34212  0.30900  0.14441  Biso   1.000  N
  H41      1.0000 0.41290  0.27701  0.24832  Biso   1.000  H
  H42      1.0000 0.76279  0.60028  0.61374  Biso   1.000  H
  H43      1.0000 0.86004  0.63688  0.68464  Biso   1.000  H
  N30      1.0000 0.87407  0.53508  0.68726  Biso   1.000  N
  H44      1.0000 0.76273  0.60028  0.61374  Biso   1.000  H
  N31      1.0000 0.87403  0.53508  0.68721  Biso   1.000  N
  C48      1.0000 0.83104  0.47190  0.64872  Biso   1.000  C
  C49      1.0000 0.84268  0.36752  0.70492  Biso   1.000  C
  C50      1.0000 0.84262  0.36752  0.70492  Biso   1.000  C
  H45      1.0000 0.48802  0.49691  0.20899  Biso   1.000  H
  H46      1.0000 0.53552  0.42741  0.25369  Biso   1.000  H
  N32      1.0000 0.42500  0.41521  0.14709  Biso   1.000  N
  C51      1.0000 0.43034  0.34140  0.14721  Biso   1.000  C
  C52      1.0000 0.27421  0.27959  0.07709  Biso   1.000  C
  C53      1.0000 0.43027  0.34140  0.14721  Biso   1.000  C
  C54      1.0000 0.97997  0.53488  0.72894  Biso   1.000  C
  H47      1.0000 0.77765  0.47808  0.59414  Biso   1.000  H
  C55      1.0000 0.92865  0.43298  0.66441  Biso   1.000  C
  N33      1.0000 0.91985  0.36732  0.69062  Biso   1.000  N
  O17      1.0000 0.82235  0.31948  0.73235  Biso   1.000  O
  C56      1.0000 0.43078  0.44128  0.08939  Biso   1.000  C
  C57      1.0000 0.40988  0.32581  0.06939  Biso   1.000  C
  H48      1.0000 0.49960  0.32368  0.18888  Biso   1.000  H
  N34      1.0000 0.30650  0.29371  0.02911  Biso   1.000  N
  O18      1.0000 0.19630  0.24618  0.05978  Biso   1.000  O
  N35      1.0000 0.01534  0.47438  0.72123  Biso   1.000  N
  O19      1.0000 0.03545  0.58211  0.76805  Biso   1.000  O
  H49      1.0000 0.93025  0.42898  0.61844  Biso   1.000  H
  C58      1.0000 0.99595  0.31320  0.71062  Biso   1.000  C
  N36      1.0000 0.41692  0.39030  0.04302  Biso   1.000  N
  O20      1.0000 0.44717  0.50162  0.08279  Biso   1.000  O
  H50      1.0000 0.46440  0.29432  0.07369  Biso   1.000  H
  C59      1.0000 0.27367  0.25220  0.96413  Biso   1.000  C
  C60      1.0000 0.11986  0.46988  0.73542  Biso   1.000  C
  H51      1.0000 0.96338  0.26962  0.70983  Biso   1.000  H
  N37      1.0000 0.09139  0.32161  0.78274  Biso   1.000  N
  H52      1.0000 0.01340  0.31082  0.67235  Biso   1.000  H
  H53      1.0000 0.01333  0.31082  0.67235  Biso   1.000  H
  C61      1.0000 0.41926  0.39850  0.97743  Biso   1.000  C
  H54      1.0000 0.22693  0.21601  0.96156  Biso   1.000  H
  H55      1.0000 0.33635  0.23018  0.97017  Biso   1.000  H
  N38      1.0000 0.21941  0.28981  0.89425  Biso   1.000  N
  H56      1.0000 0.33628  0.23018  0.97017  Biso   1.000  H
  N39      1.0000 0.18736  0.42462  0.79486  Biso   1.000  N
  H57      1.0000 0.15185  0.51559  0.74782  Biso   1.000  H
  H58      1.0000 0.11429  0.45479  0.68933  Biso   1.000  H
  H59      1.0000 0.11422  0.45479  0.68933  Biso   1.000  H
  C62      1.0000 0.18438  0.35041  0.79106  Biso   1.000  C
  C63      1.0000 0.11680  0.28328  0.84285  Biso   1.000  C
  H60      1.0000 0.46798  0.36458  0.97855  Biso   1.000  H
  H61      1.0000 0.44752  0.44391  0.97866  Biso   1.000  H
  N40      1.0000 0.31807  0.39121  0.90816  Biso   1.000  N
  C64      1.0000 0.27548  0.32819  0.86916  Biso   1.000  C
  C65      1.0000 0.26732  0.44680  0.86307  Biso   1.000  C
  C66      1.0000 0.26728  0.44680  0.86302  Biso   1.000  C
  H62      1.0000 0.19445  0.33370  0.75123  Biso   1.000  H
  O21      1.0000 0.05480  0.24800  0.84827  Biso   1.000  O
  H63      1.0000 0.32869  0.30029  0.86715  Biso   1.000  H
  O22      1.0000 0.29009  0.50668  0.88184  Biso   1.000  O
  O23      1.0000 0.71002  0.49332  0.11821  Biso   1.000  O
  C67      1.0000 0.73279  0.55320  0.13698  Biso   1.000  C
  N41      1.0000 0.68204  0.60879  0.09190  Biso   1.000  N
  N42      1.0000 0.81274  0.57538  0.20519  Biso   1.000  N
  N43      1.0000 0.68197  0.60879  0.09190  Biso   1.000  N
  N44      1.0000 0.81268  0.57538  0.20519  Biso   1.000  N
  C68      1.0000 0.72463  0.67181  0.13089  Biso   1.000  C
  C69      1.0000 0.58085  0.60150  0.02263  Biso   1.000  C
  C70      1.0000 0.72456  0.67181  0.13089  Biso   1.000  C
  C71      1.0000 0.58074  0.60150  0.02257  Biso   1.000  C
  C72      1.0000 0.88025  0.53012  0.26464  Biso   1.000  C
  C73      1.0000 0.81573  0.64959  0.20899  Biso   1.000  C
  C74      1.0000 0.88020  0.53012  0.26458  Biso   1.000  C
  C75      1.0000 0.81567  0.64959  0.20899  Biso   1.000  C
  H64      1.0000 0.67142  0.69971  0.13290  Biso   1.000  H
  N45      1.0000 0.78070  0.71019  0.10581  Biso   1.000  N
  H65      1.0000 0.55259  0.55609  0.02140  Biso   1.000  H
  H66      1.0000 0.53213  0.63542  0.02151  Biso   1.000  H
  H67      1.0000 0.53206  0.63542  0.02151  Biso   1.000  H
  N46      1.0000 0.58319  0.60970  0.95704  Biso   1.000  N
  H68      1.0000 0.88582  0.54521  0.31073  Biso   1.000  H
  H69      1.0000 0.84826  0.48441  0.25223  Biso   1.000  H
  N47      1.0000 0.98477  0.52562  0.27883  Biso   1.000  N
  H70      1.0000 0.84822  0.48441  0.25218  Biso   1.000  H
  N48      1.0000 0.98471  0.52562  0.27883  Biso   1.000  N
  N49      1.0000 0.90872  0.67839  0.21732  Biso   1.000  N
  H71      1.0000 0.80566  0.66630  0.24883  Biso   1.000  H
  H72      1.0000 0.80559  0.66630  0.24883  Biso   1.000  H
  C76      1.0000 0.88331  0.71672  0.15721  Biso   1.000  C
  C77      1.0000 0.72643  0.74780  0.03592  Biso   1.000  C
  C78      1.0000 0.59023  0.67419  0.93067  Biso   1.000  C
  C79      1.0000 0.56933  0.55872  0.91067  Biso   1.000  C
  C80      1.0000 0.56927  0.55872  0.91067  Biso   1.000  C
  C81      1.0000 0.07146  0.56702  0.33564  Biso   1.000  C
  C82      1.0000 0.02013  0.46512  0.27112  Biso   1.000  C
  C83      1.0000 0.07142  0.56702  0.33559  Biso   1.000  C
  C84      1.0000 0.00416  0.68680  0.28944  Biso   1.000  C
  C85      1.0000 0.00412  0.68680  0.28938  Biso   1.000  C
  O24      1.0000 0.94531  0.75200  0.15179  Biso   1.000  O
  H73      1.0000 0.77318  0.78399  0.03849  Biso   1.000  H
  H74      1.0000 0.66376  0.76982  0.02989  Biso   1.000  H
  N50      1.0000 0.69361  0.70629  0.97095  Biso   1.000  N
  H75      1.0000 0.53571  0.70568  0.92637  Biso   1.000  H
  C86      1.0000 0.56977  0.65860  0.85285  Biso   1.000  C
  N51      1.0000 0.57511  0.58479  0.85296  Biso   1.000  N
  O25      1.0000 0.55294  0.49838  0.91726  Biso   1.000  O
  O26      1.0000 0.55287  0.49838  0.91726  Biso   1.000  O
  C87      1.0000 0.16907  0.52810  0.35134  Biso   1.000  C
  H76      1.0000 0.06985  0.57102  0.38162  Biso   1.000  H
  N52      1.0000 0.08026  0.63268  0.30944  Biso   1.000  N
  C88      1.0000 0.16902  0.52810  0.35128  Biso   1.000  C
  N53      1.0000 0.08022  0.63268  0.30938  Biso   1.000  N
  O27      1.0000 0.96466  0.41789  0.23201  Biso   1.000  O
  O28      1.0000 0.96459  0.41789  0.23201  Biso   1.000  O
  N54      1.0000 0.12603  0.46492  0.31279  Biso   1.000  N
  H77      1.0000 0.98671  0.68918  0.32771  Biso   1.000  H
  H78      1.0000 0.03673  0.73038  0.29022  Biso   1.000  H
  C89      1.0000 0.72590  0.72041  0.92296  Biso   1.000  C
  H79      1.0000 0.50050  0.67632  0.81117  Biso   1.000  H
  N55      1.0000 0.65798  0.69100  0.85564  Biso   1.000  N
  H80      1.0000 0.50046  0.67632  0.81112  Biso   1.000  H
  C90      1.0000 0.53019  0.54961  0.78464  Biso   1.000  C
  H81      1.0000 0.22246  0.52192  0.40592  Biso   1.000  H
  N56      1.0000 0.20691  0.57158  0.31441  Biso   1.000  N
  C91      1.0000 0.15743  0.63248  0.29514  Biso   1.000  C
  C92      1.0000 0.15738  0.63248  0.29508  Biso   1.000  C
  C93      1.0000 0.18780  0.40250  0.33140  Biso   1.000  C
  O29      1.0000 0.80381  0.75382  0.94028  Biso   1.000  O
  O30      1.0000 0.80377  0.75382  0.94022  Biso   1.000  O
  C94      1.0000 0.65791  0.70679  0.79117  Biso   1.000  C
  C95      1.0000 0.65787  0.70679  0.79112  Biso   1.000  C
  H82      1.0000 0.51209  0.50309  0.79106  Biso   1.000  H
  H83      1.0000 0.46459  0.57259  0.74637  Biso   1.000  H
  N57      1.0000 0.60199  0.54602  0.75816  Biso   1.000  N
  H84      1.0000 0.46455  0.57259  0.74631  Biso   1.000  H
  C96      1.0000 0.31168  0.56272  0.32944  Biso   1.000  C
  C97      1.0000 0.31158  0.56272  0.32938  Biso   1.000  C
  O31      1.0000 0.17776  0.68052  0.26771  Biso   1.000  O
  O32      1.0000 0.17769  0.68052  0.26771  Biso   1.000  O
  H85      1.0000 0.23732  0.39972  0.38631  Biso   1.000  H
  H86      1.0000 0.14007  0.36312  0.31542  Biso   1.000  H
  N58      1.0000 0.24620  0.39860  0.29670  Biso   1.000  N
  H87      1.0000 0.14000  0.36312  0.31542  Biso   1.000  H
  H88      1.0000 0.58714  0.72299  0.75173  Biso   1.000  H
  H89      1.0000 0.70787  0.74430  0.80313  Biso   1.000  H
  N59      1.0000 0.68628  0.64969  0.76123  Biso   1.000  N
  C98      1.0000 0.60937  0.59811  0.71542  Biso   1.000  C
  C99      1.0000 0.64099  0.48542  0.75363  Biso   1.000  C
  C100     1.0000 0.64092  0.48542  0.75363  Biso   1.000  C
  H90      1.0000 0.33241  0.60459  0.31542  Biso   1.000  H
  H91      1.0000 0.36184  0.55548  0.38374  Biso   1.000  H
  N60      1.0000 0.31880  0.50658  0.28961  Biso   1.000  N
  H92      1.0000 0.36180  0.55548  0.38369  Biso   1.000  H
  C101     1.0000 0.33955  0.43728  0.32112  Biso   1.000  C
  C102     1.0000 0.23715  0.34388  0.25223  Biso   1.000  C
  C103     1.0000 0.23711  0.34388  0.25218  Biso   1.000  C
  C104     1.0000 0.76296  0.65612  0.74782  Biso   1.000  C
  H93      1.0000 0.53937  0.61790  0.67765  Biso   1.000  H
  C105     1.0000 0.66056  0.56272  0.67894  Biso   1.000  C
  N61      1.0000 0.68131  0.49342  0.71045  Biso   1.000  N
  O33      1.0000 0.64039  0.43212  0.78307  Biso   1.000  O
  N62      1.0000 0.68124  0.49342  0.71045  Biso   1.000  N
  O34      1.0000 0.64035  0.43212  0.78302  Biso   1.000  O
  C106     1.0000 0.35912  0.51458  0.24642  Biso   1.000  C
  C107     1.0000 0.39074  0.40189  0.28464  Biso   1.000  C
  H94      1.0000 0.38737  0.43778  0.37681  Biso   1.000  H
  C108     1.0000 0.39069  0.40189  0.28458  Biso   1.000  C
  H95      1.0000 0.38730  0.43778  0.37681  Biso   1.000  H
  N63      1.0000 0.31382  0.35031  0.23883  Biso   1.000  N
  O35      1.0000 0.17166  0.29908  0.23084  Biso   1.000  O
  O36      1.0000 0.17162  0.29908  0.23078  Biso   1.000  O
  N64      1.0000 0.75390  0.60140  0.70335  Biso   1.000  N
  O37      1.0000 0.82845  0.70092  0.76922  Biso   1.000  O
  N65      1.0000 0.75384  0.60140  0.70335  Biso   1.000  N
  H96      1.0000 0.61274  0.56222  0.62324  Biso   1.000  H
  C109     1.0000 0.68842  0.43728  0.67062  Biso   1.000  C
  N66      1.0000 0.39811  0.45398  0.24190  Biso   1.000  N
  O38      1.0000 0.35972  0.56788  0.21698  Biso   1.000  O
  H97      1.0000 0.46074  0.38210  0.32240  Biso   1.000  H
  C110     1.0000 0.34220  0.29321  0.20888  Biso   1.000  C
  C111     1.0000 0.81231  0.59750  0.66866  Biso   1.000  C
  C112     1.0000 0.81224  0.59750  0.66866  Biso   1.000  C
  H98      1.0000 0.66770  0.39541  0.68464  Biso   1.000  H
  H99      1.0000 0.63827  0.44452  0.61631  Biso   1.000  H
  N67      1.0000 0.79320  0.42842  0.68564  Biso   1.000  N
  H100     1.0000 0.66763  0.39541  0.68464  Biso   1.000  H
  H101     1.0000 0.63820  0.44452  0.61631  Biso   1.000  H
  N68      1.0000 0.79313  0.42842  0.68564  Biso   1.000  N
  C113     1.0000 0.46992  0.45039  0.21542  Biso   1.000  C
  H102     1.0000 0.41297  0.27701  0.24832  Biso   1.000  H
  H103     1.0000 0.29224  0.25570  0.19693  Biso   1.000  H
  N69      1.0000 0.34212  0.30900  0.14441  Biso   1.000  N
  H104     1.0000 0.41290  0.27701  0.24832  Biso   1.000  H
  H105     1.0000 0.76279  0.60028  0.61374  Biso   1.000  H
  H106     1.0000 0.86004  0.63688  0.68464  Biso   1.000  H
  N70      1.0000 0.87407  0.53508  0.68726  Biso   1.000  N
  H107     1.0000 0.76273  0.60028  0.61374  Biso   1.000  H
  N71      1.0000 0.87403  0.53508  0.68721  Biso   1.000  N
  C114     1.0000 0.83104  0.47190  0.64872  Biso   1.000  C
  C115     1.0000 0.84268  0.36752  0.70492  Biso   1.000  C
  C116     1.0000 0.84262  0.36752  0.70492  Biso   1.000  C
  H108     1.0000 0.48802  0.49691  0.20899  Biso   1.000  H
  H109     1.0000 0.53552  0.42741  0.25369  Biso   1.000  H
  N72      1.0000 0.42500  0.41521  0.14709  Biso   1.000  N
  C117     1.0000 0.43034  0.34140  0.14721  Biso   1.000  C
  C118     1.0000 0.27421  0.27959  0.07709  Biso   1.000  C
  C119     1.0000 0.43027  0.34140  0.14721  Biso   1.000  C
  C120     1.0000 0.97997  0.53488  0.72894  Biso   1.000  C
  H110     1.0000 0.77765  0.47808  0.59414  Biso   1.000  H
  C121     1.0000 0.92865  0.43298  0.66441  Biso   1.000  C
  N73      1.0000 0.91985  0.36732  0.69062  Biso   1.000  N
  O39      1.0000 0.82235  0.31948  0.73235  Biso   1.000  O
  C122     1.0000 0.43078  0.44128  0.08939  Biso   1.000  C
  C123     1.0000 0.40988  0.32581  0.06939  Biso   1.000  C
  H111     1.0000 0.49960  0.32368  0.18888  Biso   1.000  H
  N74      1.0000 0.30650  0.29371  0.02911  Biso   1.000  N
  O40      1.0000 0.19630  0.24618  0.05978  Biso   1.000  O
  N75      1.0000 0.01534  0.47438  0.72123  Biso   1.000  N
  O41      1.0000 0.03545  0.58211  0.76805  Biso   1.000  O
  H112     1.0000 0.93025  0.42898  0.61844  Biso   1.000  H
  C124     1.0000 0.99595  0.31320  0.71062  Biso   1.000  C
  N76      1.0000 0.41692  0.39030  0.04302  Biso   1.000  N
  O42      1.0000 0.44717  0.50162  0.08279  Biso   1.000  O
  H113     1.0000 0.46440  0.29432  0.07369  Biso   1.000  H
  C125     1.0000 0.27367  0.25220  0.96413  Biso   1.000  C
  C126     1.0000 0.11986  0.46988  0.73542  Biso   1.000  C
  H114     1.0000 0.96338  0.26962  0.70983  Biso   1.000  H
  N77      1.0000 0.09139  0.32161  0.78274  Biso   1.000  N
  H115     1.0000 0.01340  0.31082  0.67235  Biso   1.000  H
  H116     1.0000 0.01333  0.31082  0.67235  Biso   1.000  H
  C127     1.0000 0.41926  0.39850  0.97743  Biso   1.000  C
  H117     1.0000 0.22693  0.21601  0.96156  Biso   1.000  H
  H118     1.0000 0.33635  0.23018  0.97017  Biso   1.000  H
  N78      1.0000 0.21941  0.28981  0.89425  Biso   1.000  N
  H119     1.0000 0.33628  0.23018  0.97017  Biso   1.000  H
  N79      1.0000 0.18736  0.42462  0.79486  Biso   1.000  N
  H120     1.0000 0.15185  0.51559  0.74782  Biso   1.000  H
  H121     1.0000 0.11429  0.45479  0.68933  Biso   1.000  H
  H122     1.0000 0.11422  0.45479  0.68933  Biso   1.000  H
  C128     1.0000 0.18438  0.35041  0.79106  Biso   1.000  C
  C129     1.0000 0.11680  0.28328  0.84285  Biso   1.000  C
  H123     1.0000 0.46798  0.36458  0.97855  Biso   1.000  H
  H124     1.0000 0.44752  0.44391  0.97866  Biso   1.000  H
  N80      1.0000 0.31807  0.39121  0.90816  Biso   1.000  N
  C130     1.0000 0.27548  0.32819  0.86916  Biso   1.000  C
  C131     1.0000 0.26732  0.44680  0.86307  Biso   1.000  C
  C132     1.0000 0.26728  0.44680  0.86302  Biso   1.000  C
  H125     1.0000 0.19445  0.33370  0.75123  Biso   1.000  H
  O43      1.0000 0.05480  0.24800  0.84827  Biso   1.000  O
  H126     1.0000 0.32869  0.30029  0.86715  Biso   1.000  H
  O44      1.0000 0.29009  0.50668  0.88184  Biso   1.000  O
  O45      1.0000 0.71002  0.49332  0.11821  Biso   1.000  O
  C133     1.0000 0.73279  0.55320  0.13698  Biso   1.000  C
  N81      1.0000 0.68204  0.60879  0.09190  Biso   1.000  N
  N82      1.0000 0.81274  0.57538  0.20519  Biso   1.000  N
  N83      1.0000 0.68197  0.60879  0.09190  Biso   1.000  N
  N84      1.0000 0.81268  0.57538  0.20519  Biso   1.000  N
  C134     1.0000 0.72463  0.67181  0.13089  Biso   1.000  C
  C135     1.0000 0.58085  0.60150  0.02263  Biso   1.000  C
  C136     1.0000 0.72456  0.67181  0.13089  Biso   1.000  C
  C137     1.0000 0.58074  0.60150  0.02257  Biso   1.000  C
  C138     1.0000 0.88025  0.53012  0.26464  Biso   1.000  C
  C139     1.0000 0.81573  0.64959  0.20899  Biso   1.000  C
  C140     1.0000 0.88020  0.53012  0.26458  Biso   1.000  C
  C141     1.0000 0.81567  0.64959  0.20899  Biso   1.000  C
  H127     1.0000 0.67142  0.69971  0.13290  Biso   1.000  H
  N85      1.0000 0.78070  0.71019  0.10581  Biso   1.000  N
  H128     1.0000 0.55259  0.55609  0.02140  Biso   1.000  H
  N86      1.0000 0.58319  0.60970  0.95704  Biso   1.000  N
  H129     1.0000 0.53213  0.63542  0.02151  Biso   1.000  H
  H130     1.0000 0.53206  0.63542  0.02151  Biso   1.000  H
  H131     1.0000 0.88582  0.54521  0.31073  Biso   1.000  H
  H132     1.0000 0.84826  0.48441  0.25223  Biso   1.000  H
  N87      1.0000 0.98477  0.52562  0.27883  Biso   1.000  N
  H133     1.0000 0.84822  0.48441  0.25218  Biso   1.000  H
  N88      1.0000 0.98471  0.52562  0.27883  Biso   1.000  N
  N89      1.0000 0.90872  0.67839  0.21732  Biso   1.000  N
  H134     1.0000 0.80566  0.66630  0.24883  Biso   1.000  H
  H135     1.0000 0.80559  0.66630  0.24883  Biso   1.000  H
  C142     1.0000 0.88331  0.71672  0.15721  Biso   1.000  C
  C143     1.0000 0.72643  0.74780  0.03592  Biso   1.000  C
  C144     1.0000 0.59023  0.67419  0.93067  Biso   1.000  C
  C145     1.0000 0.56933  0.55872  0.91067  Biso   1.000  C
  C146     1.0000 0.56927  0.55872  0.91067  Biso   1.000  C
  C147     1.0000 0.07146  0.56702  0.33564  Biso   1.000  C
  C148     1.0000 0.02013  0.46512  0.27112  Biso   1.000  C
  C149     1.0000 0.07142  0.56702  0.33559  Biso   1.000  C
  C150     1.0000 0.00416  0.68680  0.28944  Biso   1.000  C
  C151     1.0000 0.00412  0.68680  0.28938  Biso   1.000  C
  O46      1.0000 0.94531  0.75200  0.15179  Biso   1.000  O
  H136     1.0000 0.77318  0.78399  0.03849  Biso   1.000  H
  H137     1.0000 0.66376  0.76982  0.02989  Biso   1.000  H
  N90      1.0000 0.69361  0.70629  0.97095  Biso   1.000  N
  H138     1.0000 0.53571  0.70568  0.92637  Biso   1.000  H
  C152     1.0000 0.56977  0.65860  0.85285  Biso   1.000  C
  N91      1.0000 0.57511  0.58479  0.85296  Biso   1.000  N
  O47      1.0000 0.55294  0.49838  0.91726  Biso   1.000  O
  O48      1.0000 0.55287  0.49838  0.91726  Biso   1.000  O
  C153     1.0000 0.16907  0.52810  0.35134  Biso   1.000  C
  H139     1.0000 0.06985  0.57102  0.38162  Biso   1.000  H
  N92      1.0000 0.08026  0.63268  0.30944  Biso   1.000  N
  C154     1.0000 0.16902  0.52810  0.35128  Biso   1.000  C
  N93      1.0000 0.08022  0.63268  0.30938  Biso   1.000  N
  O49      1.0000 0.96466  0.41789  0.23201  Biso   1.000  O
  O50      1.0000 0.96459  0.41789  0.23201  Biso   1.000  O
  N94      1.0000 0.12603  0.46492  0.31279  Biso   1.000  N
  H140     1.0000 0.98671  0.68918  0.32771  Biso   1.000  H
  H141     1.0000 0.03673  0.73038  0.29022  Biso   1.000  H
  C155     1.0000 0.72590  0.72041  0.92296  Biso   1.000  C
  H142     1.0000 0.50050  0.67632  0.81117  Biso   1.000  H
  N95      1.0000 0.65798  0.69100  0.85564  Biso   1.000  N
  H143     1.0000 0.50046  0.67632  0.81112  Biso   1.000  H
  C156     1.0000 0.53019  0.54961  0.78464  Biso   1.000  C
  H144     1.0000 0.22246  0.52192  0.40592  Biso   1.000  H
  N96      1.0000 0.20691  0.57158  0.31441  Biso   1.000  N
  C157     1.0000 0.15743  0.63248  0.29514  Biso   1.000  C
  C158     1.0000 0.15738  0.63248  0.29508  Biso   1.000  C
  C159     1.0000 0.18780  0.40250  0.33140  Biso   1.000  C
  O51      1.0000 0.80381  0.75382  0.94028  Biso   1.000  O
  O52      1.0000 0.80377  0.75382  0.94022  Biso   1.000  O
  C160     1.0000 0.65791  0.70679  0.79117  Biso   1.000  C
  C161     1.0000 0.65787  0.70679  0.79112  Biso   1.000  C
  H145     1.0000 0.51209  0.50309  0.79106  Biso   1.000  H
  H146     1.0000 0.46459  0.57259  0.74637  Biso   1.000  H
  N97      1.0000 0.60199  0.54602  0.75816  Biso   1.000  N
  H147     1.0000 0.46455  0.57259  0.74631  Biso   1.000  H
  C162     1.0000 0.31168  0.56272  0.32944  Biso   1.000  C
  C163     1.0000 0.31158  0.56272  0.32938  Biso   1.000  C
  O53      1.0000 0.17776  0.68052  0.26771  Biso   1.000  O
  O54      1.0000 0.17769  0.68052  0.26771  Biso   1.000  O
  H148     1.0000 0.23732  0.39972  0.38631  Biso   1.000  H
  H149     1.0000 0.14007  0.36312  0.31542  Biso   1.000  H
  N98      1.0000 0.24620  0.39860  0.29670  Biso   1.000  N
  H150     1.0000 0.14000  0.36312  0.31542  Biso   1.000  H
  H151     1.0000 0.58714  0.72299  0.75173  Biso   1.000  H
  H152     1.0000 0.70787  0.74430  0.80313  Biso   1.000  H
  N99      1.0000 0.68628  0.64969  0.76123  Biso   1.000  N
  C164     1.0000 0.60937  0.59811  0.71542  Biso   1.000  C
  C165     1.0000 0.64099  0.48542  0.75363  Biso   1.000  C
  C166     1.0000 0.64092  0.48542  0.75363  Biso   1.000  C
  H153     1.0000 0.33241  0.60459  0.31542  Biso   1.000  H
  H154     1.0000 0.36184  0.55548  0.38374  Biso   1.000  H
  N100     1.0000 0.31880  0.50658  0.28961  Biso   1.000  N
  H155     1.0000 0.36180  0.55548  0.38369  Biso   1.000  H
  C167     1.0000 0.33955  0.43728  0.32112  Biso   1.000  C
  C168     1.0000 0.23715  0.34388  0.25223  Biso   1.000  C
  C169     1.0000 0.23711  0.34388  0.25218  Biso   1.000  C
  C170     1.0000 0.76296  0.65612  0.74782  Biso   1.000  C
  H156     1.0000 0.53937  0.61790  0.67765  Biso   1.000  H
  C171     1.0000 0.66056  0.56272  0.67894  Biso   1.000  C
  N101     1.0000 0.68131  0.49342  0.71045  Biso   1.000  N
  O55      1.0000 0.64039  0.43212  0.78307  Biso   1.000  O
  N102     1.0000 0.68124  0.49342  0.71045  Biso   1.000  N
  O56      1.0000 0.64035  0.43212  0.78302  Biso   1.000  O
  C172     1.0000 0.35912  0.51458  0.24642  Biso   1.000  C
  C173     1.0000 0.39074  0.40189  0.28464  Biso   1.000  C
  H157     1.0000 0.38737  0.43778  0.37681  Biso   1.000  H
  C174     1.0000 0.39069  0.40189  0.28458  Biso   1.000  C
  H158     1.0000 0.38730  0.43778  0.37681  Biso   1.000  H
  N103     1.0000 0.31382  0.35031  0.23883  Biso   1.000  N
  O57      1.0000 0.17166  0.29908  0.23084  Biso   1.000  O
  O58      1.0000 0.17162  0.29908  0.23078  Biso   1.000  O
  N104     1.0000 0.75390  0.60140  0.70335  Biso   1.000  N
  O59      1.0000 0.82845  0.70092  0.76922  Biso   1.000  O
  N105     1.0000 0.75384  0.60140  0.70335  Biso   1.000  N
  H159     1.0000 0.61274  0.56222  0.62324  Biso   1.000  H
  C175     1.0000 0.68842  0.43728  0.67062  Biso   1.000  C
  N106     1.0000 0.39811  0.45398  0.24190  Biso   1.000  N
  O60      1.0000 0.35972  0.56788  0.21698  Biso   1.000  O
  H160     1.0000 0.46074  0.38210  0.32240  Biso   1.000  H
  C176     1.0000 0.34220  0.29321  0.20888  Biso   1.000  C
  C177     1.0000 0.81231  0.59750  0.66866  Biso   1.000  C
  C178     1.0000 0.81224  0.59750  0.66866  Biso   1.000  C
  H161     1.0000 0.66770  0.39541  0.68464  Biso   1.000  H
  H162     1.0000 0.63827  0.44452  0.61631  Biso   1.000  H
  N107     1.0000 0.79320  0.42842  0.68564  Biso   1.000  N
  H163     1.0000 0.66763  0.39541  0.68464  Biso   1.000  H
  H164     1.0000 0.63820  0.44452  0.61631  Biso   1.000  H
  N108     1.0000 0.79313  0.42842  0.68564  Biso   1.000  N
  C179     1.0000 0.46992  0.45039  0.21542  Biso   1.000  C
  H165     1.0000 0.41297  0.27701  0.24832  Biso   1.000  H
  H166     1.0000 0.29224  0.25570  0.19693  Biso   1.000  H
  N109     1.0000 0.34212  0.30900  0.14441  Biso   1.000  N
  H167     1.0000 0.41290  0.27701  0.24832  Biso   1.000  H
  H168     1.0000 0.76279  0.60028  0.61374  Biso   1.000  H
  H169     1.0000 0.86004  0.63688  0.68464  Biso   1.000  H
  N110     1.0000 0.87407  0.53508  0.68726  Biso   1.000  N
  H170     1.0000 0.76273  0.60028  0.61374  Biso   1.000  H
  N111     1.0000 0.87403  0.53508  0.68721  Biso   1.000  N
  C180     1.0000 0.83104  0.47190  0.64872  Biso   1.000  C
  C181     1.0000 0.84268  0.36752  0.70492  Biso   1.000  C
  C182     1.0000 0.84262  0.36752  0.70492  Biso   1.000  C
  H171     1.0000 0.48802  0.49691  0.20899  Biso   1.000  H
  H172     1.0000 0.53552  0.42741  0.25369  Biso   1.000  H
  N112     1.0000 0.42500  0.41521  0.14709  Biso   1.000  N
  C183     1.0000 0.43034  0.34140  0.14721  Biso   1.000  C
  C184     1.0000 0.27421  0.27959  0.07709  Biso   1.000  C
  C185     1.0000 0.43027  0.34140  0.14721  Biso   1.000  C
  C186     1.0000 0.97997  0.53488  0.72894  Biso   1.000  C
  H173     1.0000 0.77765  0.47808  0.59414  Biso   1.000  H
  C187     1.0000 0.92865  0.43298  0.66441  Biso   1.000  C
  N113     1.0000 0.91985  0.36732  0.69062  Biso   1.000  N
  O61      1.0000 0.82235  0.31948  0.73235  Biso   1.000  O
  C188     1.0000 0.43078  0.44128  0.08939  Biso   1.000  C
  C189     1.0000 0.40988  0.32581  0.06939  Biso   1.000  C
  H174     1.0000 0.49960  0.32368  0.18888  Biso   1.000  H
  N114     1.0000 0.30650  0.29371  0.02911  Biso   1.000  N
  O62      1.0000 0.19630  0.24618  0.05978  Biso   1.000  O
  N115     1.0000 0.01534  0.47438  0.72123  Biso   1.000  N
  O63      1.0000 0.03545  0.58211  0.76805  Biso   1.000  O
  H175     1.0000 0.93025  0.42898  0.61844  Biso   1.000  H
  C190     1.0000 0.99595  0.31320  0.71062  Biso   1.000  C
  N116     1.0000 0.41692  0.39030  0.04302  Biso   1.000  N
  O64      1.0000 0.44717  0.50162  0.08279  Biso   1.000  O
  H176     1.0000 0.46440  0.29432  0.07369  Biso   1.000  H
  C191     1.0000 0.27367  0.25220  0.96413  Biso   1.000  C
  C192     1.0000 0.11986  0.46988  0.73542  Biso   1.000  C
  H177     1.0000 0.96338  0.26962  0.70983  Biso   1.000  H
  N117     1.0000 0.09139  0.32161  0.78274  Biso   1.000  N
  H178     1.0000 0.01340  0.31082  0.67235  Biso   1.000  H
  H179     1.0000 0.01333  0.31082  0.67235  Biso   1.000  H
  C193     1.0000 0.41926  0.39850  0.97743  Biso   1.000  C
  H180     1.0000 0.22693  0.21601  0.96156  Biso   1.000  H
  H181     1.0000 0.33635  0.23018  0.97017  Biso   1.000  H
  N118     1.0000 0.21941  0.28981  0.89425  Biso   1.000  N
  H182     1.0000 0.33628  0.23018  0.97017  Biso   1.000  H
  N119     1.0000 0.18736  0.42462  0.79486  Biso   1.000  N
  H183     1.0000 0.15185  0.51559  0.74782  Biso   1.000  H
  H184     1.0000 0.11429  0.45479  0.68933  Biso   1.000  H
  H185     1.0000 0.11422  0.45479  0.68933  Biso   1.000  H
  C194     1.0000 0.18438  0.35041  0.79106  Biso   1.000  C
  C195     1.0000 0.11680  0.28328  0.84285  Biso   1.000  C
  H186     1.0000 0.46798  0.36458  0.97855  Biso   1.000  H
  H187     1.0000 0.44752  0.44391  0.97866  Biso   1.000  H
  N120     1.0000 0.31807  0.39121  0.90816  Biso   1.000  N
  C196     1.0000 0.27548  0.32819  0.86916  Biso   1.000  C
  C197     1.0000 0.26732  0.44680  0.86307  Biso   1.000  C
  C198     1.0000 0.26728  0.44680  0.86302  Biso   1.000  C
  H188     1.0000 0.19445  0.33370  0.75123  Biso   1.000  H
  O65      1.0000 0.05480  0.24800  0.84827  Biso   1.000  O
  H189     1.0000 0.32869  0.30029  0.86715  Biso   1.000  H
  O66      1.0000 0.29009  0.50668  0.88184  Biso   1.000  O
  O67      1.0000 0.71002  0.49332  0.11821  Biso   1.000  O
  C199     1.0000 0.73279  0.55320  0.13698  Biso   1.000  C
  N121     1.0000 0.68204  0.60879  0.09190  Biso   1.000  N
  N122     1.0000 0.81274  0.57538  0.20519  Biso   1.000  N
  N123     1.0000 0.68197  0.60879  0.09190  Biso   1.000  N
  N124     1.0000 0.81268  0.57538  0.20519  Biso   1.000  N
  C200     1.0000 0.72463  0.67181  0.13089  Biso   1.000  C
  C201     1.0000 0.58085  0.60150  0.02263  Biso   1.000  C
  C202     1.0000 0.72456  0.67181  0.13089  Biso   1.000  C
  C203     1.0000 0.58074  0.60150  0.02257  Biso   1.000  C
  C204     1.0000 0.88025  0.53012  0.26464  Biso   1.000  C
  C205     1.0000 0.81573  0.64959  0.20899  Biso   1.000  C
  C206     1.0000 0.88020  0.53012  0.26458  Biso   1.000  C
  C207     1.0000 0.81567  0.64959  0.20899  Biso   1.000  C
  H190     1.0000 0.67142  0.69971  0.13290  Biso   1.000  H
  N125     1.0000 0.78070  0.71019  0.10581  Biso   1.000  N
  H191     1.0000 0.55259  0.55609  0.02140  Biso   1.000  H
  N126     1.0000 0.58319  0.60970  0.95704  Biso   1.000  N
  H192     1.0000 0.53213  0.63542  0.02151  Biso   1.000  H
  H193     1.0000 0.53206  0.63542  0.02151  Biso   1.000  H
  H194     1.0000 0.88582  0.54521  0.31073  Biso   1.000  H
  H195     1.0000 0.84826  0.48441  0.25223  Biso   1.000  H
  N127     1.0000 0.98477  0.52562  0.27883  Biso   1.000  N
  H196     1.0000 0.84822  0.48441  0.25218  Biso   1.000  H
  N128     1.0000 0.98471  0.52562  0.27883  Biso   1.000  N
  N129     1.0000 0.90872  0.67839  0.21732  Biso   1.000  N
  H197     1.0000 0.80566  0.66630  0.24883  Biso   1.000  H
  H198     1.0000 0.80559  0.66630  0.24883  Biso   1.000  H
  C208     1.0000 0.88331  0.71672  0.15721  Biso   1.000  C
  C209     1.0000 0.72643  0.74780  0.03592  Biso   1.000  C
  C210     1.0000 0.59023  0.67419  0.93067  Biso   1.000  C
  C211     1.0000 0.56933  0.55872  0.91067  Biso   1.000  C
  C212     1.0000 0.56927  0.55872  0.91067  Biso   1.000  C
  C213     1.0000 0.07146  0.56702  0.33564  Biso   1.000  C
  C214     1.0000 0.02013  0.46512  0.27112  Biso   1.000  C
  C215     1.0000 0.07142  0.56702  0.33559  Biso   1.000  C
  C216     1.0000 0.00416  0.68680  0.28944  Biso   1.000  C
  C217     1.0000 0.00412  0.68680  0.28938  Biso   1.000  C
  O68      1.0000 0.94531  0.75200  0.15179  Biso   1.000  O
  H199     1.0000 0.77318  0.78399  0.03849  Biso   1.000  H
  H200     1.0000 0.66376  0.76982  0.02989  Biso   1.000  H
  N130     1.0000 0.69361  0.70629  0.97095  Biso   1.000  N
  H201     1.0000 0.53571  0.70568  0.92637  Biso   1.000  H
  C218     1.0000 0.56977  0.65860  0.85285  Biso   1.000  C
  N131     1.0000 0.57511  0.58479  0.85296  Biso   1.000  N
  O69      1.0000 0.55294  0.49838  0.91726  Biso   1.000  O
  O70      1.0000 0.55287  0.49838  0.91726  Biso   1.000  O
  C219     1.0000 0.16907  0.52810  0.35134  Biso   1.000  C
  H202     1.0000 0.06985  0.57102  0.38162  Biso   1.000  H
  N132     1.0000 0.08026  0.63268  0.30944  Biso   1.000  N
  C220     1.0000 0.16902  0.52810  0.35128  Biso   1.000  C
  N133     1.0000 0.08022  0.63268  0.30938  Biso   1.000  N
  O71      1.0000 0.96466  0.41789  0.23201  Biso   1.000  O
  O72      1.0000 0.96459  0.41789  0.23201  Biso   1.000  O
  N134     1.0000 0.12603  0.46492  0.31279  Biso   1.000  N
  H203     1.0000 0.98671  0.68918  0.32771  Biso   1.000  H
  H204     1.0000 0.03673  0.73038  0.29022  Biso   1.000  H
  C221     1.0000 0.72590  0.72041  0.92296  Biso   1.000  C
  H205     1.0000 0.50050  0.67632  0.81117  Biso   1.000  H
  N135     1.0000 0.65798  0.69100  0.85564  Biso   1.000  N
  H206     1.0000 0.50046  0.67632  0.81112  Biso   1.000  H
  C222     1.0000 0.53019  0.54961  0.78464  Biso   1.000  C
  H207     1.0000 0.22246  0.52192  0.40592  Biso   1.000  H
  N136     1.0000 0.20691  0.57158  0.31441  Biso   1.000  N
  C223     1.0000 0.15743  0.63248  0.29514  Biso   1.000  C
  C224     1.0000 0.15738  0.63248  0.29508  Biso   1.000  C
  C225     1.0000 0.18780  0.40250  0.33140  Biso   1.000  C
  O73      1.0000 0.80381  0.75382  0.94028  Biso   1.000  O
  O74      1.0000 0.80377  0.75382  0.94022  Biso   1.000  O
  C226     1.0000 0.65791  0.70679  0.79117  Biso   1.000  C
  C227     1.0000 0.65787  0.70679  0.79112  Biso   1.000  C
  H208     1.0000 0.51209  0.50309  0.79106  Biso   1.000  H
  H209     1.0000 0.46459  0.57259  0.74637  Biso   1.000  H
  N137     1.0000 0.60199  0.54602  0.75816  Biso   1.000  N
  H210     1.0000 0.46455  0.57259  0.74631  Biso   1.000  H
  C228     1.0000 0.31168  0.56272  0.32944  Biso   1.000  C
  C229     1.0000 0.31158  0.56272  0.32938  Biso   1.000  C
  O75      1.0000 0.17776  0.68052  0.26771  Biso   1.000  O
  O76      1.0000 0.17769  0.68052  0.26771  Biso   1.000  O
  H211     1.0000 0.23732  0.39972  0.38631  Biso   1.000  H
  H212     1.0000 0.14007  0.36312  0.31542  Biso   1.000  H
  N138     1.0000 0.24620  0.39860  0.29670  Biso   1.000  N
  H213     1.0000 0.14000  0.36312  0.31542  Biso   1.000  H
  H214     1.0000 0.58714  0.72299  0.75173  Biso   1.000  H
  H215     1.0000 0.70787  0.74430  0.80313  Biso   1.000  H
  N139     1.0000 0.68628  0.64969  0.76123  Biso   1.000  N
  C230     1.0000 0.60937  0.59811  0.71542  Biso   1.000  C
  C231     1.0000 0.64099  0.48542  0.75363  Biso   1.000  C
  C232     1.0000 0.64092  0.48542  0.75363  Biso   1.000  C
  H216     1.0000 0.33241  0.60459  0.31542  Biso   1.000  H
  H217     1.0000 0.36184  0.55548  0.38374  Biso   1.000  H
  N140     1.0000 0.31880  0.50658  0.28961  Biso   1.000  N
  H218     1.0000 0.36180  0.55548  0.38369  Biso   1.000  H
  C233     1.0000 0.33955  0.43728  0.32112  Biso   1.000  C
  C234     1.0000 0.23715  0.34388  0.25223  Biso   1.000  C
  C235     1.0000 0.23711  0.34388  0.25218  Biso   1.000  C
  C236     1.0000 0.76296  0.65612  0.74782  Biso   1.000  C
  H219     1.0000 0.53937  0.61790  0.67765  Biso   1.000  H
  C237     1.0000 0.66056  0.56272  0.67894  Biso   1.000  C
  N141     1.0000 0.68131  0.49342  0.71045  Biso   1.000  N
  O77      1.0000 0.64039  0.43212  0.78307  Biso   1.000  O
  N142     1.0000 0.68124  0.49342  0.71045  Biso   1.000  N
  O78      1.0000 0.64035  0.43212  0.78302  Biso   1.000  O
  C238     1.0000 0.35912  0.51458  0.24642  Biso   1.000  C
  C239     1.0000 0.39074  0.40189  0.28464  Biso   1.000  C
  H220     1.0000 0.38737  0.43778  0.37681  Biso   1.000  H
  C240     1.0000 0.39069  0.40189  0.28458  Biso   1.000  C
  H221     1.0000 0.38730  0.43778  0.37681  Biso   1.000  H
  N143     1.0000 0.31382  0.35031  0.23883  Biso   1.000  N
  O79      1.0000 0.17166  0.29908  0.23084  Biso   1.000  O
  O80      1.0000 0.17162  0.29908  0.23078  Biso   1.000  O
  N144     1.0000 0.75390  0.60140  0.70335  Biso   1.000  N
  O81      1.0000 0.82845  0.70092  0.76922  Biso   1.000  O
  N145     1.0000 0.75384  0.60140  0.70335  Biso   1.000  N
  H222     1.0000 0.61274  0.56222  0.62324  Biso   1.000  H
  C241     1.0000 0.68842  0.43728  0.67062  Biso   1.000  C
  N146     1.0000 0.39811  0.45398  0.24190  Biso   1.000  N
  O82      1.0000 0.35972  0.56788  0.21698  Biso   1.000  O
  H223     1.0000 0.46074  0.38210  0.32240  Biso   1.000  H
  C242     1.0000 0.34220  0.29321  0.20888  Biso   1.000  C
  C243     1.0000 0.81231  0.59750  0.66866  Biso   1.000  C
  C244     1.0000 0.81224  0.59750  0.66866  Biso   1.000  C
  H224     1.0000 0.66770  0.39541  0.68464  Biso   1.000  H
  H225     1.0000 0.63827  0.44452  0.61631  Biso   1.000  H
  N147     1.0000 0.79320  0.42842  0.68564  Biso   1.000  N
  H226     1.0000 0.66763  0.39541  0.68464  Biso   1.000  H
  H227     1.0000 0.63820  0.44452  0.61631  Biso   1.000  H
  N148     1.0000 0.79313  0.42842  0.68564  Biso   1.000  N
  C245     1.0000 0.46992  0.45039  0.21542  Biso   1.000  C
  H228     1.0000 0.41297  0.27701  0.24832  Biso   1.000  H
  H229     1.0000 0.29224  0.25570  0.19693  Biso   1.000  H
  N149     1.0000 0.34212  0.30900  0.14441  Biso   1.000  N
  H230     1.0000 0.41290  0.27701  0.24832  Biso   1.000  H
  H231     1.0000 0.76279  0.60028  0.61374  Biso   1.000  H
  H232     1.0000 0.86004  0.63688  0.68464  Biso   1.000  H
  N150     1.0000 0.87407  0.53508  0.68726  Biso   1.000  N
  H233     1.0000 0.76273  0.60028  0.61374  Biso   1.000  H
  N151     1.0000 0.87403  0.53508  0.68721  Biso   1.000  N
  C246     1.0000 0.83104  0.47190  0.64872  Biso   1.000  C
  C247     1.0000 0.84268  0.36752  0.70492  Biso   1.000  C
  C248     1.0000 0.84262  0.36752  0.70492  Biso   1.000  C
  H234     1.0000 0.48802  0.49691  0.20899  Biso   1.000  H
  H235     1.0000 0.53552  0.42741  0.25369  Biso   1.000  H
  N152     1.0000 0.42500  0.41521  0.14709  Biso   1.000  N
  C249     1.0000 0.43034  0.34140  0.14721  Biso   1.000  C
  C250     1.0000 0.27421  0.27959  0.07709  Biso   1.000  C
  C251     1.0000 0.43027  0.34140  0.14721  Biso   1.000  C
  C252     1.0000 0.97997  0.53488  0.72894  Biso   1.000  C
  H236     1.0000 0.77765  0.47808  0.59414  Biso   1.000  H
  C253     1.0000 0.92865  0.43298  0.66441  Biso   1.000  C
  N153     1.0000 0.91985  0.36732  0.69062  Biso   1.000  N
  O83      1.0000 0.82235  0.31948  0.73235  Biso   1.000  O
  C254     1.0000 0.43078  0.44128  0.08939  Biso   1.000  C
  C255     1.0000 0.40988  0.32581  0.06939  Biso   1.000  C
  H237     1.0000 0.49960  0.32368  0.18888  Biso   1.000  H
  N154     1.0000 0.30650  0.29371  0.02911  Biso   1.000  N
  O84      1.0000 0.19630  0.24618  0.05978  Biso   1.000  O
  N155     1.0000 0.01534  0.47438  0.72123  Biso   1.000  N
  O85      1.0000 0.03545  0.58211  0.76805  Biso   1.000  O
  H238     1.0000 0.93025  0.42898  0.61844  Biso   1.000  H
  C256     1.0000 0.99595  0.31320  0.71062  Biso   1.000  C
  N156     1.0000 0.41692  0.39030  0.04302  Biso   1.000  N
  O86      1.0000 0.44717  0.50162  0.08279  Biso   1.000  O
  H239     1.0000 0.46440  0.29432  0.07369  Biso   1.000  H
  C257     1.0000 0.27367  0.25220  0.96413  Biso   1.000  C
  C258     1.0000 0.11986  0.46988  0.73542  Biso   1.000  C
  H240     1.0000 0.96338  0.26962  0.70983  Biso   1.000  H
  N157     1.0000 0.09139  0.32161  0.78274  Biso   1.000  N
  H241     1.0000 0.01340  0.31082  0.67235  Biso   1.000  H
  H242     1.0000 0.01333  0.31082  0.67235  Biso   1.000  H
  C259     1.0000 0.41926  0.39850  0.97743  Biso   1.000  C
  H243     1.0000 0.22693  0.21601  0.96156  Biso   1.000  H
  H244     1.0000 0.33635  0.23018  0.97017  Biso   1.000  H
  N158     1.0000 0.21941  0.28981  0.89425  Biso   1.000  N
  H245     1.0000 0.33628  0.23018  0.97017  Biso   1.000  H
  N159     1.0000 0.18736  0.42462  0.79486  Biso   1.000  N
  H246     1.0000 0.15185  0.51559  0.74782  Biso   1.000  H
  H247     1.0000 0.11429  0.45479  0.68933  Biso   1.000  H
  H248     1.0000 0.11422  0.45479  0.68933  Biso   1.000  H
  C260     1.0000 0.18438  0.35041  0.79106  Biso   1.000  C
  C261     1.0000 0.11680  0.28328  0.84285  Biso   1.000  C
  H249     1.0000 0.46798  0.36458  0.97855  Biso   1.000  H
  H250     1.0000 0.44752  0.44391  0.97866  Biso   1.000  H
  N160     1.0000 0.31807  0.39121  0.90816  Biso   1.000  N
  C262     1.0000 0.27548  0.32819  0.86916  Biso   1.000  C
  C263     1.0000 0.26732  0.44680  0.86307  Biso   1.000  C
  C264     1.0000 0.26728  0.44680  0.86302  Biso   1.000  C
  H251     1.0000 0.19445  0.33370  0.75123  Biso   1.000  H
  O87      1.0000 0.05480  0.24800  0.84827  Biso   1.000  O
  H252     1.0000 0.32869  0.30029  0.86715  Biso   1.000  H
  O88      1.0000 0.29009  0.50668  0.88184  Biso   1.000  O
  C265     1.0000 0.27542  0.17181  0.36910  Biso   1.000  C
  C266     1.0000 0.18432  0.14959  0.29100  Biso   1.000  C
  H253     1.0000 0.32862  0.19971  0.36709  Biso   1.000  H
  N161     1.0000 0.31801  0.10879  0.40810  Biso   1.000  N
  N162     1.0000 0.21939  0.21019  0.39424  Biso   1.000  N
  H254     1.0000 0.19443  0.16630  0.25123  Biso   1.000  H
  N163     1.0000 0.18730  0.07538  0.29480  Biso   1.000  N
  N164     1.0000 0.09137  0.17839  0.28274  Biso   1.000  N
  C267     1.0000 0.26726  0.05320  0.36302  Biso   1.000  C
  C268     1.0000 0.41924  0.10150  0.47743  Biso   1.000  C
  C269     1.0000 0.11674  0.21672  0.34279  Biso   1.000  C
  C270     1.0000 0.27366  0.24780  0.46413  Biso   1.000  C
  C271     1.0000 0.11984  0.03012  0.23542  Biso   1.000  C
  C272     1.0000 0.99593  0.18680  0.21061  Biso   1.000  C
  O89      1.0000 0.29007  0.99332  0.38184  Biso   1.000  O
  H255     1.0000 0.46796  0.13542  0.47855  Biso   1.000  H
  H256     1.0000 0.44746  0.05609  0.47860  Biso   1.000  H
  N165     1.0000 0.41696  0.10970  0.54301  Biso   1.000  N
  O90      1.0000 0.05473  0.25200  0.34821  Biso   1.000  O
  H257     1.0000 0.22687  0.28399  0.46151  Biso   1.000  H
  H258     1.0000 0.33622  0.26982  0.47011  Biso   1.000  H
  N166     1.0000 0.30655  0.20629  0.52910  Biso   1.000  N
  H259     1.0000 0.11421  0.04521  0.18933  Biso   1.000  H
  N167     1.0000 0.01532  0.02562  0.22123  Biso   1.000  N
  H260     1.0000 0.15183  0.98441  0.24782  Biso   1.000  H
  H261     1.0000 0.01333  0.18918  0.17229  Biso   1.000  H
  H262     1.0000 0.96336  0.23038  0.20983  Biso   1.000  H
  N168     1.0000 0.91983  0.13268  0.19061  Biso   1.000  N
  C273     1.0000 0.40997  0.17419  0.56944  Biso   1.000  C
  C274     1.0000 0.43087  0.05872  0.58944  Biso   1.000  C
  C275     1.0000 0.27430  0.22041  0.57715  Biso   1.000  C
  C276     1.0000 0.97996  0.96512  0.22894  Biso   1.000  C
  C277     1.0000 0.92863  0.06702  0.16441  Biso   1.000  C
  C278     1.0000 0.84260  0.13248  0.20492  Biso   1.000  C
  H263     1.0000 0.46448  0.20568  0.57374  Biso   1.000  H
  C279     1.0000 0.43038  0.15860  0.64720  Biso   1.000  C
  N169     1.0000 0.42509  0.08479  0.64715  Biso   1.000  N
  O91      1.0000 0.44726  0.99838  0.58285  Biso   1.000  O
  N170     1.0000 0.34217  0.19100  0.64441  Biso   1.000  N
  O92      1.0000 0.19639  0.25382  0.55983  Biso   1.000  O
  N171     1.0000 0.87401  0.96492  0.18721  Biso   1.000  N
  O93      1.0000 0.03539  0.91789  0.26799  Biso   1.000  O
  C280     1.0000 0.83102  0.02810  0.14871  Biso   1.000  C
  H264     1.0000 0.93019  0.07102  0.11838  Biso   1.000  H
  N172     1.0000 0.79314  0.07158  0.18559  Biso   1.000  N
  O94      1.0000 0.82229  0.18052  0.23229  Biso   1.000  O
  H265     1.0000 0.49969  0.17632  0.68894  Biso   1.000  H
  C281     1.0000 0.46997  0.04961  0.71542  Biso   1.000  C
  C282     1.0000 0.34229  0.20679  0.70894  Biso   1.000  C
  C283     1.0000 0.81224  0.90250  0.16860  Biso   1.000  C
  H266     1.0000 0.77759  0.02192  0.09408  Biso   1.000  H
  C284     1.0000 0.68841  0.06272  0.17061  Biso   1.000  C
  H267     1.0000 0.48811  0.00309  0.70905  Biso   1.000  H
  H268     1.0000 0.53561  0.07259  0.75374  Biso   1.000  H
  N173     1.0000 0.39820  0.04602  0.74195  Biso   1.000  N
  H269     1.0000 0.41295  0.22299  0.74832  Biso   1.000  H
  H270     1.0000 0.29229  0.24430  0.69692  Biso   1.000  H
  N174     1.0000 0.31387  0.14969  0.73882  Biso   1.000  N
  H271     1.0000 0.76273  0.89972  0.11369  Biso   1.000  H
  H272     1.0000 0.86002  0.86312  0.18464  Biso   1.000  H
  N175     1.0000 0.75384  0.89860  0.20330  Biso   1.000  N
  H273     1.0000 0.66761  0.10459  0.18464  Biso   1.000  H
  H274     1.0000 0.63825  0.05548  0.11631  Biso   1.000  H
  N176     1.0000 0.68118  0.00658  0.21039  Biso   1.000  N
  C285     1.0000 0.39078  0.09811  0.78463  Biso   1.000  C
  C286     1.0000 0.35917  0.98542  0.74642  Biso   1.000  C
  C287     1.0000 0.23720  0.15612  0.75223  Biso   1.000  C
  C288     1.0000 0.66050  0.93728  0.17888  Biso   1.000  C
  C289     1.0000 0.76294  0.84388  0.24782  Biso   1.000  C
  C290     1.0000 0.64097  0.01458  0.25363  Biso   1.000  C
  H275     1.0000 0.46083  0.11790  0.82246  Biso   1.000  H
  C291     1.0000 0.33960  0.06272  0.82111  Biso   1.000  C
  N177     1.0000 0.31889  0.99342  0.78966  Biso   1.000  N
  O95      1.0000 0.35981  0.93212  0.71704  Biso   1.000  O
  N178     1.0000 0.24629  0.10140  0.79676  Biso   1.000  N
  O96      1.0000 0.17171  0.20092  0.73084  Biso   1.000  O
  C292     1.0000 0.60935  0.90189  0.21542  Biso   1.000  C
  H276     1.0000 0.61268  0.93778  0.12318  Biso   1.000  H
  N179     1.0000 0.68627  0.85031  0.26123  Biso   1.000  N
  O97      1.0000 0.82843  0.79908  0.26922  Biso   1.000  O
  N180     1.0000 0.60193  0.95398  0.25810  Biso   1.000  N
  O98      1.0000 0.64033  0.06788  0.28302  Biso   1.000  O
  H277     1.0000 0.38735  0.06222  0.87681  Biso   1.000  H
  C293     1.0000 0.31167  0.93728  0.82944  Biso   1.000  C
  C294     1.0000 0.18789  0.09750  0.83145  Biso   1.000  C
  H278     1.0000 0.53931  0.88210  0.17760  Biso   1.000  H
  C295     1.0000 0.65785  0.79321  0.29112  Biso   1.000  C
  C296     1.0000 0.53017  0.95039  0.28464  Biso   1.000  C
  H279     1.0000 0.33246  0.89541  0.81542  Biso   1.000  H
  H280     1.0000 0.36189  0.94452  0.88374  Biso   1.000  H
  N181     1.0000 0.20696  0.92842  0.81441  Biso   1.000  N
  H281     1.0000 0.23741  0.10028  0.88637  Biso   1.000  H
  H282     1.0000 0.14005  0.13688  0.81542  Biso   1.000  H
  N182     1.0000 0.12612  0.03508  0.81285  Biso   1.000  N
  H283     1.0000 0.58712  0.77701  0.25173  Biso   1.000  H
  H284     1.0000 0.70785  0.75570  0.30313  Biso   1.000  H
  N183     1.0000 0.65797  0.80900  0.35564  Biso   1.000  N
  H285     1.0000 0.51202  0.99691  0.29100  Biso   1.000  H
  H286     1.0000 0.46453  0.92741  0.24631  Biso   1.000  H
  N184     1.0000 0.57505  0.91521  0.35290  Biso   1.000  N
  C297     1.0000 0.16911  0.97190  0.85134  Biso   1.000  C
  C298     1.0000 0.15747  0.86752  0.79514  Biso   1.000  C
  C299     1.0000 0.02018  0.03488  0.77111  Biso   1.000  C
  C300     1.0000 0.56971  0.84140  0.35279  Biso   1.000  C
  C301     1.0000 0.72584  0.77959  0.42290  Biso   1.000  C
  C302     1.0000 0.56927  0.94128  0.41061  Biso   1.000  C
  H287     1.0000 0.22251  0.97808  0.90592  Biso   1.000  H
  C303     1.0000 0.07151  0.93298  0.83564  Biso   1.000  C
  N185     1.0000 0.08031  0.86732  0.80944  Biso   1.000  N
  O99      1.0000 0.17778  0.81948  0.76776  Biso   1.000  O
  N186     1.0000 0.98475  0.97438  0.77882  Biso   1.000  N
  O100     1.0000 0.96464  0.08211  0.73201  Biso   1.000  O
  C304     1.0000 0.59016  0.82581  0.43061  Biso   1.000  C
  H288     1.0000 0.50044  0.82368  0.31112  Biso   1.000  H
  N187     1.0000 0.69359  0.79371  0.47095  Biso   1.000  N
  O101     1.0000 0.80375  0.74618  0.44022  Biso   1.000  O
  N188     1.0000 0.58317  0.89030  0.45704  Biso   1.000  N
  O102     1.0000 0.55281  0.00162  0.41721  Biso   1.000  O
  H289     1.0000 0.06990  0.92898  0.88162  Biso   1.000  H
  C305     1.0000 0.00421  0.81320  0.78944  Biso   1.000  C
  C306     1.0000 0.88029  0.96988  0.76463  Biso   1.000  C
  H290     1.0000 0.53565  0.79432  0.42631  Biso   1.000  H
  C307     1.0000 0.72648  0.75220  0.53592  Biso   1.000  C
  C308     1.0000 0.58089  0.89850  0.52262  Biso   1.000  C
  N189     1.0000 0.90877  0.82161  0.71732  Biso   1.000  N
  H291     1.0000 0.98680  0.81082  0.82776  Biso   1.000  H
  H292     1.0000 0.03678  0.76962  0.79022  Biso   1.000  H
  N190     1.0000 0.81277  0.92462  0.70525  Biso   1.000  N
  H293     1.0000 0.88587  0.95479  0.81072  Biso   1.000  H
  H294     1.0000 0.84831  0.01559  0.75223  Biso   1.000  H
  H295     1.0000 0.77327  0.71601  0.53855  Biso   1.000  H
  H296     1.0000 0.66385  0.73018  0.52994  Biso   1.000  H
  N191     1.0000 0.78075  0.78981  0.60581  Biso   1.000  N
  H297     1.0000 0.53218  0.86458  0.52151  Biso   1.000  H
  H298     1.0000 0.55268  0.94391  0.52145  Biso   1.000  H
  N192     1.0000 0.68206  0.89121  0.59195  Biso   1.000  N
  C309     1.0000 0.88335  0.78328  0.65720  Biso   1.000  C
  C310     1.0000 0.81582  0.85041  0.70905  Biso   1.000  C
  C311     1.0000 0.73288  0.94680  0.63704  Biso   1.000  C
  C312     1.0000 0.72472  0.82819  0.63095  Biso   1.000  C
  O103     1.0000 0.94540  0.74800  0.65184  Biso   1.000  O
  H299     1.0000 0.80571  0.83370  0.74882  Biso   1.000  H
  O104     1.0000 0.71006  0.00668  0.61821  Biso   1.000  O
  H300     1.0000 0.67147  0.80029  0.63290  Biso   1.000  H
  C313     1.0000 0.27542  0.17181  0.36910  Biso   1.000  C
  C314     1.0000 0.18432  0.14959  0.29100  Biso   1.000  C
  H301     1.0000 0.32862  0.19971  0.36709  Biso   1.000  H
  N193     1.0000 0.31801  0.10879  0.40810  Biso   1.000  N
  N194     1.0000 0.21939  0.21019  0.39424  Biso   1.000  N
  H302     1.0000 0.19443  0.16630  0.25123  Biso   1.000  H
  N195     1.0000 0.18730  0.07538  0.29480  Biso   1.000  N
  N196     1.0000 0.09137  0.17839  0.28274  Biso   1.000  N
  C315     1.0000 0.26726  0.05320  0.36302  Biso   1.000  C
  C316     1.0000 0.41924  0.10150  0.47743  Biso   1.000  C
  C317     1.0000 0.11674  0.21672  0.34279  Biso   1.000  C
  C318     1.0000 0.27366  0.24780  0.46413  Biso   1.000  C
  C319     1.0000 0.11984  0.03012  0.23542  Biso   1.000  C
  C320     1.0000 0.99593  0.18680  0.21061  Biso   1.000  C
  O105     1.0000 0.29007  0.99332  0.38184  Biso   1.000  O
  H303     1.0000 0.46796  0.13542  0.47855  Biso   1.000  H
  H304     1.0000 0.44746  0.05609  0.47860  Biso   1.000  H
  N197     1.0000 0.41696  0.10970  0.54301  Biso   1.000  N
  O106     1.0000 0.05473  0.25200  0.34821  Biso   1.000  O
  H305     1.0000 0.22687  0.28399  0.46151  Biso   1.000  H
  H306     1.0000 0.33622  0.26982  0.47011  Biso   1.000  H
  N198     1.0000 0.30655  0.20629  0.52910  Biso   1.000  N
  H307     1.0000 0.11421  0.04521  0.18933  Biso   1.000  H
  N199     1.0000 0.01532  0.02562  0.22123  Biso   1.000  N
  H308     1.0000 0.15183  0.98441  0.24782  Biso   1.000  H
  H309     1.0000 0.01333  0.18918  0.17229  Biso   1.000  H
  H310     1.0000 0.96336  0.23038  0.20983  Biso   1.000  H
  N200     1.0000 0.91983  0.13268  0.19061  Biso   1.000  N
  C321     1.0000 0.40997  0.17419  0.56944  Biso   1.000  C
  C322     1.0000 0.43087  0.05872  0.58944  Biso   1.000  C
  C323     1.0000 0.27430  0.22041  0.57715  Biso   1.000  C
  C324     1.0000 0.97996  0.96512  0.22894  Biso   1.000  C
  C325     1.0000 0.92863  0.06702  0.16441  Biso   1.000  C
  C326     1.0000 0.84260  0.13248  0.20492  Biso   1.000  C
  H311     1.0000 0.46448  0.20568  0.57374  Biso   1.000  H
  C327     1.0000 0.43038  0.15860  0.64720  Biso   1.000  C
  N201     1.0000 0.42509  0.08479  0.64715  Biso   1.000  N
  O107     1.0000 0.44726  0.99838  0.58285  Biso   1.000  O
  N202     1.0000 0.34217  0.19100  0.64441  Biso   1.000  N
  O108     1.0000 0.19639  0.25382  0.55983  Biso   1.000  O
  N203     1.0000 0.87401  0.96492  0.18721  Biso   1.000  N
  O109     1.0000 0.03539  0.91789  0.26799  Biso   1.000  O
  C328     1.0000 0.83102  0.02810  0.14871  Biso   1.000  C
  H312     1.0000 0.93019  0.07102  0.11838  Biso   1.000  H
  N204     1.0000 0.79314  0.07158  0.18559  Biso   1.000  N
  O110     1.0000 0.82229  0.18052  0.23229  Biso   1.000  O
  H313     1.0000 0.49969  0.17632  0.68894  Biso   1.000  H
  C329     1.0000 0.46997  0.04961  0.71542  Biso   1.000  C
  C330     1.0000 0.34229  0.20679  0.70894  Biso   1.000  C
  C331     1.0000 0.81224  0.90250  0.16860  Biso   1.000  C
  H314     1.0000 0.77759  0.02192  0.09408  Biso   1.000  H
  C332     1.0000 0.68841  0.06272  0.17061  Biso   1.000  C
  H315     1.0000 0.48811  0.00309  0.70905  Biso   1.000  H
  H316     1.0000 0.53561  0.07259  0.75374  Biso   1.000  H
  N205     1.0000 0.39820  0.04602  0.74195  Biso   1.000  N
  H317     1.0000 0.41295  0.22299  0.74832  Biso   1.000  H
  H318     1.0000 0.29229  0.24430  0.69692  Biso   1.000  H
  N206     1.0000 0.31387  0.14969  0.73882  Biso   1.000  N
  H319     1.0000 0.76273  0.89972  0.11369  Biso   1.000  H
  H320     1.0000 0.86002  0.86312  0.18464  Biso   1.000  H
  N207     1.0000 0.75384  0.89860  0.20330  Biso   1.000  N
  H321     1.0000 0.66761  0.10459  0.18464  Biso   1.000  H
  H322     1.0000 0.63825  0.05548  0.11631  Biso   1.000  H
  N208     1.0000 0.68118  0.00658  0.21039  Biso   1.000  N
  C333     1.0000 0.39078  0.09811  0.78463  Biso   1.000  C
  C334     1.0000 0.35917  0.98542  0.74642  Biso   1.000  C
  C335     1.0000 0.23720  0.15612  0.75223  Biso   1.000  C
  C336     1.0000 0.66050  0.93728  0.17888  Biso   1.000  C
  C337     1.0000 0.76294  0.84388  0.24782  Biso   1.000  C
  C338     1.0000 0.64097  0.01458  0.25363  Biso   1.000  C
  H323     1.0000 0.46083  0.11790  0.82246  Biso   1.000  H
  C339     1.0000 0.33960  0.06272  0.82111  Biso   1.000  C
  N209     1.0000 0.31889  0.99342  0.78966  Biso   1.000  N
  O111     1.0000 0.35981  0.93212  0.71704  Biso   1.000  O
  N210     1.0000 0.24629  0.10140  0.79676  Biso   1.000  N
  O112     1.0000 0.17171  0.20092  0.73084  Biso   1.000  O
  C340     1.0000 0.60935  0.90189  0.21542  Biso   1.000  C
  H324     1.0000 0.61268  0.93778  0.12318  Biso   1.000  H
  N211     1.0000 0.68627  0.85031  0.26123  Biso   1.000  N
  O113     1.0000 0.82843  0.79908  0.26922  Biso   1.000  O
  N212     1.0000 0.60193  0.95398  0.25810  Biso   1.000  N
  O114     1.0000 0.64033  0.06788  0.28302  Biso   1.000  O
  H325     1.0000 0.38735  0.06222  0.87681  Biso   1.000  H
  C341     1.0000 0.31167  0.93728  0.82944  Biso   1.000  C
  C342     1.0000 0.18789  0.09750  0.83145  Biso   1.000  C
  H326     1.0000 0.53931  0.88210  0.17760  Biso   1.000  H
  C343     1.0000 0.65785  0.79321  0.29112  Biso   1.000  C
  C344     1.0000 0.53017  0.95039  0.28464  Biso   1.000  C
  H327     1.0000 0.33246  0.89541  0.81542  Biso   1.000  H
  H328     1.0000 0.36189  0.94452  0.88374  Biso   1.000  H
  N213     1.0000 0.20696  0.92842  0.81441  Biso   1.000  N
  H329     1.0000 0.23741  0.10028  0.88637  Biso   1.000  H
  H330     1.0000 0.14005  0.13688  0.81542  Biso   1.000  H
  N214     1.0000 0.12612  0.03508  0.81285  Biso   1.000  N
  H331     1.0000 0.58712  0.77701  0.25173  Biso   1.000  H
  H332     1.0000 0.70785  0.75570  0.30313  Biso   1.000  H
  N215     1.0000 0.65797  0.80900  0.35564  Biso   1.000  N
  H333     1.0000 0.51202  0.99691  0.29100  Biso   1.000  H
  H334     1.0000 0.46453  0.92741  0.24631  Biso   1.000  H
  N216     1.0000 0.57505  0.91521  0.35290  Biso   1.000  N
  C345     1.0000 0.16911  0.97190  0.85134  Biso   1.000  C
  C346     1.0000 0.15747  0.86752  0.79514  Biso   1.000  C
  C347     1.0000 0.02018  0.03488  0.77111  Biso   1.000  C
  C348     1.0000 0.56971  0.84140  0.35279  Biso   1.000  C
  C349     1.0000 0.72584  0.77959  0.42290  Biso   1.000  C
  C350     1.0000 0.56927  0.94128  0.41061  Biso   1.000  C
  H335     1.0000 0.22251  0.97808  0.90592  Biso   1.000  H
  C351     1.0000 0.07151  0.93298  0.83564  Biso   1.000  C
  N217     1.0000 0.08031  0.86732  0.80944  Biso   1.000  N
  O115     1.0000 0.17778  0.81948  0.76776  Biso   1.000  O
  N218     1.0000 0.98475  0.97438  0.77882  Biso   1.000  N
  O116     1.0000 0.96464  0.08211  0.73201  Biso   1.000  O
  C352     1.0000 0.59016  0.82581  0.43061  Biso   1.000  C
  H336     1.0000 0.50044  0.82368  0.31112  Biso   1.000  H
  N219     1.0000 0.69359  0.79371  0.47095  Biso   1.000  N
  O117     1.0000 0.80375  0.74618  0.44022  Biso   1.000  O
  N220     1.0000 0.58317  0.89030  0.45704  Biso   1.000  N
  O118     1.0000 0.55281  0.00162  0.41721  Biso   1.000  O
  H337     1.0000 0.06990  0.92898  0.88162  Biso   1.000  H
  C353     1.0000 0.00421  0.81320  0.78944  Biso   1.000  C
  C354     1.0000 0.88029  0.96988  0.76463  Biso   1.000  C
  H338     1.0000 0.53565  0.79432  0.42631  Biso   1.000  H
  C355     1.0000 0.72648  0.75220  0.53592  Biso   1.000  C
  C356     1.0000 0.58089  0.89850  0.52262  Biso   1.000  C
  N221     1.0000 0.90877  0.82161  0.71732  Biso   1.000  N
  H339     1.0000 0.98680  0.81082  0.82776  Biso   1.000  H
  H340     1.0000 0.03678  0.76962  0.79022  Biso   1.000  H
  N222     1.0000 0.81277  0.92462  0.70525  Biso   1.000  N
  H341     1.0000 0.88587  0.95479  0.81072  Biso   1.000  H
  H342     1.0000 0.84831  0.01559  0.75223  Biso   1.000  H
  H343     1.0000 0.77327  0.71601  0.53855  Biso   1.000  H
  H344     1.0000 0.66385  0.73018  0.52994  Biso   1.000  H
  N223     1.0000 0.78075  0.78981  0.60581  Biso   1.000  N
  H345     1.0000 0.53218  0.86458  0.52151  Biso   1.000  H
  H346     1.0000 0.55268  0.94391  0.52145  Biso   1.000  H
  N224     1.0000 0.68206  0.89121  0.59195  Biso   1.000  N
  C357     1.0000 0.88335  0.78328  0.65720  Biso   1.000  C
  C358     1.0000 0.81582  0.85041  0.70905  Biso   1.000  C
  C359     1.0000 0.73288  0.94680  0.63704  Biso   1.000  C
  C360     1.0000 0.72472  0.82819  0.63095  Biso   1.000  C
  O119     1.0000 0.94540  0.74800  0.65184  Biso   1.000  O
  H347     1.0000 0.80571  0.83370  0.74882  Biso   1.000  H
  O120     1.0000 0.71006  0.00668  0.61821  Biso   1.000  O
  H348     1.0000 0.67147  0.80029  0.63290  Biso   1.000  H
  C361     1.0000 0.27542  0.17181  0.36910  Biso   1.000  C
  C362     1.0000 0.18432  0.14959  0.29100  Biso   1.000  C
  H349     1.0000 0.32862  0.19971  0.36709  Biso   1.000  H
  N225     1.0000 0.31801  0.10879  0.40810  Biso   1.000  N
  N226     1.0000 0.21939  0.21019  0.39424  Biso   1.000  N
  H350     1.0000 0.19443  0.16630  0.25123  Biso   1.000  H
  N227     1.0000 0.18730  0.07538  0.29480  Biso   1.000  N
  N228     1.0000 0.09137  0.17839  0.28274  Biso   1.000  N
  C363     1.0000 0.26726  0.05320  0.36302  Biso   1.000  C
  C364     1.0000 0.41924  0.10150  0.47743  Biso   1.000  C
  C365     1.0000 0.11674  0.21672  0.34279  Biso   1.000  C
  C366     1.0000 0.27366  0.24780  0.46413  Biso   1.000  C
  C367     1.0000 0.11984  0.03012  0.23542  Biso   1.000  C
  C368     1.0000 0.99593  0.18680  0.21061  Biso   1.000  C
  O121     1.0000 0.29007  0.99332  0.38184  Biso   1.000  O
  H351     1.0000 0.46796  0.13542  0.47855  Biso   1.000  H
  H352     1.0000 0.44746  0.05609  0.47860  Biso   1.000  H
  N229     1.0000 0.41696  0.10970  0.54301  Biso   1.000  N
  O122     1.0000 0.05473  0.25200  0.34821  Biso   1.000  O
  H353     1.0000 0.22687  0.28399  0.46151  Biso   1.000  H
  H354     1.0000 0.33622  0.26982  0.47011  Biso   1.000  H
  N230     1.0000 0.30655  0.20629  0.52910  Biso   1.000  N
  H355     1.0000 0.11421  0.04521  0.18933  Biso   1.000  H
  N231     1.0000 0.01532  0.02562  0.22123  Biso   1.000  N
  H356     1.0000 0.15183  0.98441  0.24782  Biso   1.000  H
  H357     1.0000 0.01333  0.18918  0.17229  Biso   1.000  H
  H358     1.0000 0.96336  0.23038  0.20983  Biso   1.000  H
  N232     1.0000 0.91983  0.13268  0.19061  Biso   1.000  N
  C369     1.0000 0.40997  0.17419  0.56944  Biso   1.000  C
  C370     1.0000 0.43087  0.05872  0.58944  Biso   1.000  C
  C371     1.0000 0.27430  0.22041  0.57715  Biso   1.000  C
  C372     1.0000 0.97996  0.96512  0.22894  Biso   1.000  C
  C373     1.0000 0.92863  0.06702  0.16441  Biso   1.000  C
  C374     1.0000 0.84260  0.13248  0.20492  Biso   1.000  C
  H359     1.0000 0.46448  0.20568  0.57374  Biso   1.000  H
  C375     1.0000 0.43038  0.15860  0.64720  Biso   1.000  C
  N233     1.0000 0.42509  0.08479  0.64715  Biso   1.000  N
  O123     1.0000 0.44726  0.99838  0.58285  Biso   1.000  O
  N234     1.0000 0.34217  0.19100  0.64441  Biso   1.000  N
  O124     1.0000 0.19639  0.25382  0.55983  Biso   1.000  O
  N235     1.0000 0.87401  0.96492  0.18721  Biso   1.000  N
  O125     1.0000 0.03539  0.91789  0.26799  Biso   1.000  O
  C376     1.0000 0.83102  0.02810  0.14871  Biso   1.000  C
  H360     1.0000 0.93019  0.07102  0.11838  Biso   1.000  H
  N236     1.0000 0.79314  0.07158  0.18559  Biso   1.000  N
  O126     1.0000 0.82229  0.18052  0.23229  Biso   1.000  O
  H361     1.0000 0.49969  0.17632  0.68894  Biso   1.000  H
  C377     1.0000 0.46997  0.04961  0.71542  Biso   1.000  C
  C378     1.0000 0.34229  0.20679  0.70894  Biso   1.000  C
  C379     1.0000 0.81224  0.90250  0.16860  Biso   1.000  C
  H362     1.0000 0.77759  0.02192  0.09408  Biso   1.000  H
  C380     1.0000 0.68841  0.06272  0.17061  Biso   1.000  C
  H363     1.0000 0.48811  0.00309  0.70905  Biso   1.000  H
  H364     1.0000 0.53561  0.07259  0.75374  Biso   1.000  H
  N237     1.0000 0.39820  0.04602  0.74195  Biso   1.000  N
  H365     1.0000 0.41295  0.22299  0.74832  Biso   1.000  H
  H366     1.0000 0.29229  0.24430  0.69692  Biso   1.000  H
  N238     1.0000 0.31387  0.14969  0.73882  Biso   1.000  N
  H367     1.0000 0.76273  0.89972  0.11369  Biso   1.000  H
  H368     1.0000 0.86002  0.86312  0.18464  Biso   1.000  H
  N239     1.0000 0.75384  0.89860  0.20330  Biso   1.000  N
  H369     1.0000 0.66761  0.10459  0.18464  Biso   1.000  H
  H370     1.0000 0.63825  0.05548  0.11631  Biso   1.000  H
  N240     1.0000 0.68118  0.00658  0.21039  Biso   1.000  N
  C381     1.0000 0.39078  0.09811  0.78463  Biso   1.000  C
  C382     1.0000 0.35917  0.98542  0.74642  Biso   1.000  C
  C383     1.0000 0.23720  0.15612  0.75223  Biso   1.000  C
  C384     1.0000 0.66050  0.93728  0.17888  Biso   1.000  C
  C385     1.0000 0.76294  0.84388  0.24782  Biso   1.000  C
  C386     1.0000 0.64097  0.01458  0.25363  Biso   1.000  C
  H371     1.0000 0.46083  0.11790  0.82246  Biso   1.000  H
  C387     1.0000 0.33960  0.06272  0.82111  Biso   1.000  C
  N241     1.0000 0.31889  0.99342  0.78966  Biso   1.000  N
  O127     1.0000 0.35981  0.93212  0.71704  Biso   1.000  O
  N242     1.0000 0.24629  0.10140  0.79676  Biso   1.000  N
  O128     1.0000 0.17171  0.20092  0.73084  Biso   1.000  O
  C388     1.0000 0.60935  0.90189  0.21542  Biso   1.000  C
  H372     1.0000 0.61268  0.93778  0.12318  Biso   1.000  H
  N243     1.0000 0.68627  0.85031  0.26123  Biso   1.000  N
  O129     1.0000 0.82843  0.79908  0.26922  Biso   1.000  O
  N244     1.0000 0.60193  0.95398  0.25810  Biso   1.000  N
  O130     1.0000 0.64033  0.06788  0.28302  Biso   1.000  O
  H373     1.0000 0.38735  0.06222  0.87681  Biso   1.000  H
  C389     1.0000 0.31167  0.93728  0.82944  Biso   1.000  C
  C390     1.0000 0.18789  0.09750  0.83145  Biso   1.000  C
  H374     1.0000 0.53931  0.88210  0.17760  Biso   1.000  H
  C391     1.0000 0.65785  0.79321  0.29112  Biso   1.000  C
  C392     1.0000 0.53017  0.95039  0.28464  Biso   1.000  C
  H375     1.0000 0.33246  0.89541  0.81542  Biso   1.000  H
  H376     1.0000 0.36189  0.94452  0.88374  Biso   1.000  H
  N245     1.0000 0.20696  0.92842  0.81441  Biso   1.000  N
  H377     1.0000 0.23741  0.10028  0.88637  Biso   1.000  H
  H378     1.0000 0.14005  0.13688  0.81542  Biso   1.000  H
  N246     1.0000 0.12612  0.03508  0.81285  Biso   1.000  N
  H379     1.0000 0.58712  0.77701  0.25173  Biso   1.000  H
  H380     1.0000 0.70785  0.75570  0.30313  Biso   1.000  H
  N247     1.0000 0.65797  0.80900  0.35564  Biso   1.000  N
  H381     1.0000 0.51202  0.99691  0.29100  Biso   1.000  H
  H382     1.0000 0.46453  0.92741  0.24631  Biso   1.000  H
  N248     1.0000 0.57505  0.91521  0.35290  Biso   1.000  N
  C393     1.0000 0.16911  0.97190  0.85134  Biso   1.000  C
  C394     1.0000 0.15747  0.86752  0.79514  Biso   1.000  C
  C395     1.0000 0.02018  0.03488  0.77111  Biso   1.000  C
  C396     1.0000 0.56971  0.84140  0.35279  Biso   1.000  C
  C397     1.0000 0.72584  0.77959  0.42290  Biso   1.000  C
  C398     1.0000 0.56927  0.94128  0.41061  Biso   1.000  C
  H383     1.0000 0.22251  0.97808  0.90592  Biso   1.000  H
  C399     1.0000 0.07151  0.93298  0.83564  Biso   1.000  C
  N249     1.0000 0.08031  0.86732  0.80944  Biso   1.000  N
  O131     1.0000 0.17778  0.81948  0.76776  Biso   1.000  O
  N250     1.0000 0.98475  0.97438  0.77882  Biso   1.000  N
  O132     1.0000 0.96464  0.08211  0.73201  Biso   1.000  O
  C400     1.0000 0.59016  0.82581  0.43061  Biso   1.000  C
  H384     1.0000 0.50044  0.82368  0.31112  Biso   1.000  H
  N251     1.0000 0.69359  0.79371  0.47095  Biso   1.000  N
  O133     1.0000 0.80375  0.74618  0.44022  Biso   1.000  O
  N252     1.0000 0.58317  0.89030  0.45704  Biso   1.000  N
  O134     1.0000 0.55281  0.00162  0.41721  Biso   1.000  O
  H385     1.0000 0.06990  0.92898  0.88162  Biso   1.000  H
  C401     1.0000 0.00421  0.81320  0.78944  Biso   1.000  C
  C402     1.0000 0.88029  0.96988  0.76463  Biso   1.000  C
  H386     1.0000 0.53565  0.79432  0.42631  Biso   1.000  H
  C403     1.0000 0.72648  0.75220  0.53592  Biso   1.000  C
  C404     1.0000 0.58089  0.89850  0.52262  Biso   1.000  C
  N253     1.0000 0.90877  0.82161  0.71732  Biso   1.000  N
  H387     1.0000 0.98680  0.81082  0.82776  Biso   1.000  H
  H388     1.0000 0.03678  0.76962  0.79022  Biso   1.000  H
  N254     1.0000 0.81277  0.92462  0.70525  Biso   1.000  N
  H389     1.0000 0.88587  0.95479  0.81072  Biso   1.000  H
  H390     1.0000 0.84831  0.01559  0.75223  Biso   1.000  H
  H391     1.0000 0.77327  0.71601  0.53855  Biso   1.000  H
  H392     1.0000 0.66385  0.73018  0.52994  Biso   1.000  H
  N255     1.0000 0.78075  0.78981  0.60581  Biso   1.000  N
  H393     1.0000 0.53218  0.86458  0.52151  Biso   1.000  H
  H394     1.0000 0.55268  0.94391  0.52145  Biso   1.000  H
  N256     1.0000 0.68206  0.89121  0.59195  Biso   1.000  N
  C405     1.0000 0.88335  0.78328  0.65720  Biso   1.000  C
  C406     1.0000 0.81582  0.85041  0.70905  Biso   1.000  C
  C407     1.0000 0.73288  0.94680  0.63704  Biso   1.000  C
  C408     1.0000 0.72472  0.82819  0.63095  Biso   1.000  C
  O135     1.0000 0.94540  0.74800  0.65184  Biso   1.000  O
  H395     1.0000 0.80571  0.83370  0.74882  Biso   1.000  H
  O136     1.0000 0.71006  0.00668  0.61821  Biso   1.000  O
  H396     1.0000 0.67147  0.80029  0.63290  Biso   1.000  H
  C409     1.0000 0.27542  0.17181  0.36910  Biso   1.000  C
  C410     1.0000 0.18432  0.14959  0.29100  Biso   1.000  C
  H397     1.0000 0.32862  0.19971  0.36709  Biso   1.000  H
  N257     1.0000 0.31801  0.10879  0.40810  Biso   1.000  N
  N258     1.0000 0.21939  0.21019  0.39424  Biso   1.000  N
  H398     1.0000 0.19443  0.16630  0.25123  Biso   1.000  H
  N259     1.0000 0.18730  0.07538  0.29480  Biso   1.000  N
  N260     1.0000 0.09137  0.17839  0.28274  Biso   1.000  N
  C411     1.0000 0.26726  0.05320  0.36302  Biso   1.000  C
  C412     1.0000 0.41924  0.10150  0.47743  Biso   1.000  C
  C413     1.0000 0.11674  0.21672  0.34279  Biso   1.000  C
  C414     1.0000 0.27366  0.24780  0.46413  Biso   1.000  C
  C415     1.0000 0.11984  0.03012  0.23542  Biso   1.000  C
  C416     1.0000 0.99593  0.18680  0.21061  Biso   1.000  C
  O137     1.0000 0.29007  0.99332  0.38184  Biso   1.000  O
  H399     1.0000 0.46796  0.13542  0.47855  Biso   1.000  H
  H400     1.0000 0.44746  0.05609  0.47860  Biso   1.000  H
  N261     1.0000 0.41696  0.10970  0.54301  Biso   1.000  N
  O138     1.0000 0.05473  0.25200  0.34821  Biso   1.000  O
  H401     1.0000 0.22687  0.28399  0.46151  Biso   1.000  H
  H402     1.0000 0.33622  0.26982  0.47011  Biso   1.000  H
  N262     1.0000 0.30655  0.20629  0.52910  Biso   1.000  N
  H403     1.0000 0.11421  0.04521  0.18933  Biso   1.000  H
  N263     1.0000 0.01532  0.02562  0.22123  Biso   1.000  N
  H404     1.0000 0.15183  0.98441  0.24782  Biso   1.000  H
  H405     1.0000 0.01333  0.18918  0.17229  Biso   1.000  H
  H406     1.0000 0.96336  0.23038  0.20983  Biso   1.000  H
  N264     1.0000 0.91983  0.13268  0.19061  Biso   1.000  N
  C417     1.0000 0.40997  0.17419  0.56944  Biso   1.000  C
  C418     1.0000 0.43087  0.05872  0.58944  Biso   1.000  C
  C419     1.0000 0.27430  0.22041  0.57715  Biso   1.000  C
  C420     1.0000 0.97996  0.96512  0.22894  Biso   1.000  C
  C421     1.0000 0.92863  0.06702  0.16441  Biso   1.000  C
  C422     1.0000 0.84260  0.13248  0.20492  Biso   1.000  C
  H407     1.0000 0.46448  0.20568  0.57374  Biso   1.000  H
  C423     1.0000 0.43038  0.15860  0.64720  Biso   1.000  C
  N265     1.0000 0.42509  0.08479  0.64715  Biso   1.000  N
  O139     1.0000 0.44726  0.99838  0.58285  Biso   1.000  O
  N266     1.0000 0.34217  0.19100  0.64441  Biso   1.000  N
  O140     1.0000 0.19639  0.25382  0.55983  Biso   1.000  O
  N267     1.0000 0.87401  0.96492  0.18721  Biso   1.000  N
  O141     1.0000 0.03539  0.91789  0.26799  Biso   1.000  O
  C424     1.0000 0.83102  0.02810  0.14871  Biso   1.000  C
  H408     1.0000 0.93019  0.07102  0.11838  Biso   1.000  H
  N268     1.0000 0.79314  0.07158  0.18559  Biso   1.000  N
  O142     1.0000 0.82229  0.18052  0.23229  Biso   1.000  O
  H409     1.0000 0.49969  0.17632  0.68894  Biso   1.000  H
  C425     1.0000 0.46997  0.04961  0.71542  Biso   1.000  C
  C426     1.0000 0.34229  0.20679  0.70894  Biso   1.000  C
  C427     1.0000 0.81224  0.90250  0.16860  Biso   1.000  C
  H410     1.0000 0.77759  0.02192  0.09408  Biso   1.000  H
  C428     1.0000 0.68841  0.06272  0.17061  Biso   1.000  C
  H411     1.0000 0.48811  0.00309  0.70905  Biso   1.000  H
  H412     1.0000 0.53561  0.07259  0.75374  Biso   1.000  H
  N269     1.0000 0.39820  0.04602  0.74195  Biso   1.000  N
  H413     1.0000 0.41295  0.22299  0.74832  Biso   1.000  H
  H414     1.0000 0.29229  0.24430  0.69692  Biso   1.000  H
  N270     1.0000 0.31387  0.14969  0.73882  Biso   1.000  N
  H415     1.0000 0.76273  0.89972  0.11369  Biso   1.000  H
  H416     1.0000 0.86002  0.86312  0.18464  Biso   1.000  H
  N271     1.0000 0.75384  0.89860  0.20330  Biso   1.000  N
  H417     1.0000 0.66761  0.10459  0.18464  Biso   1.000  H
  H418     1.0000 0.63825  0.05548  0.11631  Biso   1.000  H
  N272     1.0000 0.68118  0.00658  0.21039  Biso   1.000  N
  C429     1.0000 0.39078  0.09811  0.78463  Biso   1.000  C
  C430     1.0000 0.35917  0.98542  0.74642  Biso   1.000  C
  C431     1.0000 0.23720  0.15612  0.75223  Biso   1.000  C
  C432     1.0000 0.66050  0.93728  0.17888  Biso   1.000  C
  C433     1.0000 0.76294  0.84388  0.24782  Biso   1.000  C
  C434     1.0000 0.64097  0.01458  0.25363  Biso   1.000  C
  H419     1.0000 0.46083  0.11790  0.82246  Biso   1.000  H
  C435     1.0000 0.33960  0.06272  0.82111  Biso   1.000  C
  N273     1.0000 0.31889  0.99342  0.78966  Biso   1.000  N
  O143     1.0000 0.35981  0.93212  0.71704  Biso   1.000  O
  N274     1.0000 0.24629  0.10140  0.79676  Biso   1.000  N
  O144     1.0000 0.17171  0.20092  0.73084  Biso   1.000  O
  C436     1.0000 0.60935  0.90189  0.21542  Biso   1.000  C
  H420     1.0000 0.61268  0.93778  0.12318  Biso   1.000  H
  N275     1.0000 0.68627  0.85031  0.26123  Biso   1.000  N
  O145     1.0000 0.82843  0.79908  0.26922  Biso   1.000  O
  N276     1.0000 0.60193  0.95398  0.25810  Biso   1.000  N
  O146     1.0000 0.64033  0.06788  0.28302  Biso   1.000  O
  H421     1.0000 0.38735  0.06222  0.87681  Biso   1.000  H
  C437     1.0000 0.31167  0.93728  0.82944  Biso   1.000  C
  C438     1.0000 0.18789  0.09750  0.83145  Biso   1.000  C
  H422     1.0000 0.53931  0.88210  0.17760  Biso   1.000  H
  C439     1.0000 0.65785  0.79321  0.29112  Biso   1.000  C
  C440     1.0000 0.53017  0.95039  0.28464  Biso   1.000  C
  H423     1.0000 0.33246  0.89541  0.81542  Biso   1.000  H
  H424     1.0000 0.36189  0.94452  0.88374  Biso   1.000  H
  N277     1.0000 0.20696  0.92842  0.81441  Biso   1.000  N
  H425     1.0000 0.23741  0.10028  0.88637  Biso   1.000  H
  H426     1.0000 0.14005  0.13688  0.81542  Biso   1.000  H
  N278     1.0000 0.12612  0.03508  0.81285  Biso   1.000  N
  H427     1.0000 0.58712  0.77701  0.25173  Biso   1.000  H
  H428     1.0000 0.70785  0.75570  0.30313  Biso   1.000  H
  N279     1.0000 0.65797  0.80900  0.35564  Biso   1.000  N
  H429     1.0000 0.51202  0.99691  0.29100  Biso   1.000  H
  H430     1.0000 0.46453  0.92741  0.24631  Biso   1.000  H
  N280     1.0000 0.57505  0.91521  0.35290  Biso   1.000  N
  C441     1.0000 0.16911  0.97190  0.85134  Biso   1.000  C
  C442     1.0000 0.15747  0.86752  0.79514  Biso   1.000  C
  C443     1.0000 0.02018  0.03488  0.77111  Biso   1.000  C
  C444     1.0000 0.56971  0.84140  0.35279  Biso   1.000  C
  C445     1.0000 0.72584  0.77959  0.42290  Biso   1.000  C
  C446     1.0000 0.56927  0.94128  0.41061  Biso   1.000  C
  H431     1.0000 0.22251  0.97808  0.90592  Biso   1.000  H
  C447     1.0000 0.07151  0.93298  0.83564  Biso   1.000  C
  N281     1.0000 0.08031  0.86732  0.80944  Biso   1.000  N
  O147     1.0000 0.17778  0.81948  0.76776  Biso   1.000  O
  N282     1.0000 0.98475  0.97438  0.77882  Biso   1.000  N
  O148     1.0000 0.96464  0.08211  0.73201  Biso   1.000  O
  C448     1.0000 0.59016  0.82581  0.43061  Biso   1.000  C
  H432     1.0000 0.50044  0.82368  0.31112  Biso   1.000  H
  N283     1.0000 0.69359  0.79371  0.47095  Biso   1.000  N
  O149     1.0000 0.80375  0.74618  0.44022  Biso   1.000  O
  N284     1.0000 0.58317  0.89030  0.45704  Biso   1.000  N
  O150     1.0000 0.55281  0.00162  0.41721  Biso   1.000  O
  H433     1.0000 0.06990  0.92898  0.88162  Biso   1.000  H
  C449     1.0000 0.00421  0.81320  0.78944  Biso   1.000  C
  C450     1.0000 0.88029  0.96988  0.76463  Biso   1.000  C
  H434     1.0000 0.53565  0.79432  0.42631  Biso   1.000  H
  C451     1.0000 0.72648  0.75220  0.53592  Biso   1.000  C
  C452     1.0000 0.58089  0.89850  0.52262  Biso   1.000  C
  N285     1.0000 0.90877  0.82161  0.71732  Biso   1.000  N
  H435     1.0000 0.98680  0.81082  0.82776  Biso   1.000  H
  H436     1.0000 0.03678  0.76962  0.79022  Biso   1.000  H
  N286     1.0000 0.81277  0.92462  0.70525  Biso   1.000  N
  H437     1.0000 0.88587  0.95479  0.81072  Biso   1.000  H
  H438     1.0000 0.84831  0.01559  0.75223  Biso   1.000  H
  H439     1.0000 0.77327  0.71601  0.53855  Biso   1.000  H
  H440     1.0000 0.66385  0.73018  0.52994  Biso   1.000  H
  N287     1.0000 0.78075  0.78981  0.60581  Biso   1.000  N
  H441     1.0000 0.53218  0.86458  0.52151  Biso   1.000  H
  H442     1.0000 0.55268  0.94391  0.52145  Biso   1.000  H
  N288     1.0000 0.68206  0.89121  0.59195  Biso   1.000  N
  C453     1.0000 0.88335  0.78328  0.65720  Biso   1.000  C
  C454     1.0000 0.81582  0.85041  0.70905  Biso   1.000  C
  C455     1.0000 0.73288  0.94680  0.63704  Biso   1.000  C
  C456     1.0000 0.72472  0.82819  0.63095  Biso   1.000  C
  O151     1.0000 0.94540  0.74800  0.65184  Biso   1.000  O
  H443     1.0000 0.80571  0.83370  0.74882  Biso   1.000  H
  O152     1.0000 0.71006  0.00668  0.61821  Biso   1.000  O
  H444     1.0000 0.67147  0.80029  0.63290  Biso   1.000  H
