data_image0
_cell_length_a       24.967
_cell_length_b       24.967
_cell_length_c       24.967
_cell_angle_alpha    90
_cell_angle_beta     90
_cell_angle_gamma    90

_symmetry_space_group_name_H-M    "P 1"
_symmetry_int_tables_number       1

loop_
  _symmetry_equiv_pos_as_xyz
  'x, y, z'

loop_
  _atom_site_label
  _atom_site_occupancy
  _atom_site_fract_x
  _atom_site_fract_y
  _atom_site_fract_z
  _atom_site_thermal_displace_type
  _atom_site_B_iso_or_equiv
  _atom_site_type_symbol
  C1       1.0000 0.50799  0.36993  0.47130  Biso   1.000  C
  C2       1.0000 0.54192  0.31970  0.46021  Biso   1.000  C
  H1       1.0000 0.52850  0.40181  0.46329  Biso   1.000  H
  H2       1.0000 0.47631  0.36969  0.44879  Biso   1.000  H
  C3       1.0000 0.49201  0.36989  0.52870  Biso   1.000  C
  H3       1.0000 0.47631  0.36973  0.44879  Biso   1.000  H
  C4       1.0000 0.49201  0.36993  0.52870  Biso   1.000  C
  C5       1.0000 0.51031  0.26900  0.47162  Biso   1.000  C
  C6       1.0000 0.51031  0.26904  0.47162  Biso   1.000  C
  H4       1.0000 0.55329  0.31982  0.42312  Biso   1.000  H
  H5       1.0000 0.57372  0.32042  0.48260  Biso   1.000  H
  C7       1.0000 0.50799  0.36989  0.47130  Biso   1.000  C
  C8       1.0000 0.45812  0.31970  0.53979  Biso   1.000  C
  H6       1.0000 0.47150  0.40181  0.53671  Biso   1.000  H
  H7       1.0000 0.52369  0.36969  0.55121  Biso   1.000  H
  H8       1.0000 0.52369  0.36973  0.55121  Biso   1.000  H
  N1       1.0000 0.54592  0.22281  0.46369  Biso   1.000  N
  H9       1.0000 0.47999  0.26659  0.44671  Biso   1.000  H
  C9       1.0000 0.48969  0.26900  0.52842  Biso   1.000  C
  H10      1.0000 0.47999  0.26663  0.44671  Biso   1.000  H
  C10      1.0000 0.48969  0.26904  0.52842  Biso   1.000  C
  H11      1.0000 0.44671  0.31982  0.57692  Biso   1.000  H
  H12      1.0000 0.42632  0.32042  0.51740  Biso   1.000  H
  C11      1.0000 0.53431  0.19033  0.42760  Biso   1.000  C
  C12      1.0000 0.53431  0.19029  0.42760  Biso   1.000  C
  N2       1.0000 0.45412  0.22281  0.53631  Biso   1.000  N
  H13      1.0000 0.52001  0.26659  0.55329  Biso   1.000  H
  H14      1.0000 0.52001  0.26663  0.55329  Biso   1.000  H
  C13      1.0000 0.56839  0.14411  0.41351  Biso   1.000  C
  H15      1.0000 0.50262  0.19542  0.40870  Biso   1.000  H
  C14      1.0000 0.46569  0.19029  0.57240  Biso   1.000  C
  C15      1.0000 0.46569  0.19033  0.57240  Biso   1.000  C
  C16      1.0000 0.61269  0.13049  0.44451  Biso   1.000  C
  C17      1.0000 0.55549  0.11271  0.36949  Biso   1.000  C
  C18      1.0000 0.61269  0.13053  0.44451  Biso   1.000  C
  C19      1.0000 0.43161  0.14411  0.58649  Biso   1.000  C
  H16      1.0000 0.49742  0.19542  0.59130  Biso   1.000  H
  H17      1.0000 0.62130  0.15112  0.47431  Biso   1.000  H
  C20      1.0000 0.64409  0.08651  0.43161  Biso   1.000  C
  H18      1.0000 0.52569  0.12132  0.34890  Biso   1.000  H
  C21      1.0000 0.58649  0.06841  0.35591  Biso   1.000  C
  C22      1.0000 0.44451  0.11271  0.63051  Biso   1.000  C
  C23      1.0000 0.38731  0.13049  0.55549  Biso   1.000  C
  C24      1.0000 0.38731  0.13053  0.55549  Biso   1.000  C
  C25      1.0000 0.63051  0.05551  0.38731  Biso   1.000  C
  C26      1.0000 0.69031  0.07242  0.46569  Biso   1.000  C
  C27      1.0000 0.57240  0.03429  0.30969  Biso   1.000  C
  C28      1.0000 0.57240  0.03433  0.30969  Biso   1.000  C
  H19      1.0000 0.47431  0.12132  0.65110  Biso   1.000  H
  C29      1.0000 0.41351  0.06841  0.64409  Biso   1.000  C
  H20      1.0000 0.37870  0.15112  0.52569  Biso   1.000  H
  C30      1.0000 0.35591  0.08651  0.56839  Biso   1.000  C
  H21      1.0000 0.65110  0.02571  0.37870  Biso   1.000  H
  N3       1.0000 0.72279  0.03629  0.45412  Biso   1.000  N
  H22      1.0000 0.69540  0.09132  0.49742  Biso   1.000  H
  N4       1.0000 0.72279  0.03633  0.45412  Biso   1.000  N
  N5       1.0000 0.53631  0.04590  0.27721  Biso   1.000  N
  H23      1.0000 0.59130  0.00260  0.30460  Biso   1.000  H
  C31      1.0000 0.36949  0.05551  0.61269  Biso   1.000  C
  C32      1.0000 0.42760  0.03429  0.69031  Biso   1.000  C
  C33      1.0000 0.42760  0.03433  0.69031  Biso   1.000  C
  C34      1.0000 0.30969  0.07242  0.53431  Biso   1.000  C
  C35      1.0000 0.76902  0.02840  0.48969  Biso   1.000  C
  C36      1.0000 0.52842  0.01029  0.23098  Biso   1.000  C
  H24      1.0000 0.34890  0.02571  0.62130  Biso   1.000  H
  N6       1.0000 0.46369  0.04590  0.72279  Biso   1.000  N
  H25      1.0000 0.40870  0.00260  0.69540  Biso   1.000  H
  N7       1.0000 0.27721  0.03629  0.54592  Biso   1.000  N
  H26      1.0000 0.30460  0.09132  0.50262  Biso   1.000  H
  N8       1.0000 0.27721  0.03633  0.54592  Biso   1.000  N
  H27      1.0000 0.76661  0.05331  0.52001  Biso   1.000  H
  C37      1.0000 0.81972  0.03981  0.45812  Biso   1.000  C
  C38      1.0000 0.76902  0.97160  0.51031  Biso   1.000  C
  C39      1.0000 0.53979  0.04190  0.18032  Biso   1.000  C
  C40      1.0000 0.47162  0.98971  0.23098  Biso   1.000  C
  H28      1.0000 0.55329  0.98001  0.23339  Biso   1.000  H
  C41      1.0000 0.47162  0.01029  0.76902  Biso   1.000  C
  C42      1.0000 0.23098  0.02840  0.51031  Biso   1.000  C
  H29      1.0000 0.81980  0.07690  0.44671  Biso   1.000  H
  H30      1.0000 0.82040  0.01738  0.42632  Biso   1.000  H
  C43      1.0000 0.86991  0.02872  0.49201  Biso   1.000  C
  H31      1.0000 0.82040  0.01742  0.42632  Biso   1.000  H
  N9       1.0000 0.72279  0.96371  0.54592  Biso   1.000  N
  H32      1.0000 0.76661  0.94669  0.47999  Biso   1.000  H
  C44      1.0000 0.81972  0.96019  0.54192  Biso   1.000  C
  H33      1.0000 0.76661  0.94673  0.47999  Biso   1.000  H
  C45      1.0000 0.81972  0.96023  0.54192  Biso   1.000  C
  H34      1.0000 0.57692  0.05331  0.18020  Biso   1.000  H
  H35      1.0000 0.51740  0.07370  0.17960  Biso   1.000  H
  C46      1.0000 0.52870  0.00801  0.13009  Biso   1.000  C
  H36      1.0000 0.44671  0.01999  0.23339  Biso   1.000  H
  H37      1.0000 0.44671  0.02003  0.23339  Biso   1.000  H
  N10      1.0000 0.46369  0.95410  0.27721  Biso   1.000  N
  C47      1.0000 0.46021  0.95810  0.18032  Biso   1.000  C
  C48      1.0000 0.46021  0.04190  0.81972  Biso   1.000  C
  C49      1.0000 0.52842  0.98971  0.76902  Biso   1.000  C
  H38      1.0000 0.44671  0.98001  0.76661  Biso   1.000  H
  H39      1.0000 0.23339  0.05331  0.47999  Biso   1.000  H
  C50      1.0000 0.18032  0.03981  0.54192  Biso   1.000  C
  C51      1.0000 0.23098  0.97160  0.48969  Biso   1.000  C
  H40      1.0000 0.90183  0.03669  0.47150  Biso   1.000  H
  H41      1.0000 0.86971  0.05119  0.52369  Biso   1.000  H
  H42      1.0000 0.90183  0.03673  0.47150  Biso   1.000  H
  H43      1.0000 0.86971  0.05123  0.52369  Biso   1.000  H
  C52      1.0000 0.86991  0.97128  0.50799  Biso   1.000  C
  C53      1.0000 0.86991  0.97132  0.50799  Biso   1.000  C
  C54      1.0000 0.69031  0.92758  0.53431  Biso   1.000  C
  C55      1.0000 0.69031  0.92762  0.53431  Biso   1.000  C
  H44      1.0000 0.81980  0.92310  0.55329  Biso   1.000  H
  H45      1.0000 0.82040  0.98262  0.57372  Biso   1.000  H
  H46      1.0000 0.53671  0.02852  0.09821  Biso   1.000  H
  C56      1.0000 0.47130  0.99199  0.13009  Biso   1.000  C
  H47      1.0000 0.55121  0.97629  0.13029  Biso   1.000  H
  C57      1.0000 0.47130  0.99203  0.13009  Biso   1.000  C
  H48      1.0000 0.55121  0.97633  0.13029  Biso   1.000  H
  C58      1.0000 0.42760  0.96571  0.30969  Biso   1.000  C
  H49      1.0000 0.42312  0.94669  0.18020  Biso   1.000  H
  H50      1.0000 0.48260  0.92630  0.17960  Biso   1.000  H
  H51      1.0000 0.42312  0.94673  0.18020  Biso   1.000  H
  H52      1.0000 0.42312  0.05331  0.81980  Biso   1.000  H
  H53      1.0000 0.48260  0.07370  0.82040  Biso   1.000  H
  C59      1.0000 0.47130  0.00801  0.86991  Biso   1.000  C
  H54      1.0000 0.55329  0.01999  0.76661  Biso   1.000  H
  H55      1.0000 0.55329  0.02003  0.76661  Biso   1.000  H
  N11      1.0000 0.53631  0.95410  0.72279  Biso   1.000  N
  C60      1.0000 0.53979  0.95810  0.81972  Biso   1.000  C
  H56      1.0000 0.18020  0.07690  0.55329  Biso   1.000  H
  H57      1.0000 0.17960  0.01738  0.57372  Biso   1.000  H
  C61      1.0000 0.13009  0.02872  0.50799  Biso   1.000  C
  H58      1.0000 0.17960  0.01742  0.57372  Biso   1.000  H
  N12      1.0000 0.27721  0.96371  0.45412  Biso   1.000  N
  H59      1.0000 0.23339  0.94669  0.52001  Biso   1.000  H
  C62      1.0000 0.18032  0.96019  0.45812  Biso   1.000  C
  H60      1.0000 0.23339  0.94673  0.52001  Biso   1.000  H
  C63      1.0000 0.18032  0.96023  0.45812  Biso   1.000  C
  H61      1.0000 0.90183  0.96331  0.52850  Biso   1.000  H
  H62      1.0000 0.86971  0.94881  0.47631  Biso   1.000  H
  C64      1.0000 0.64409  0.91349  0.56839  Biso   1.000  C
  H63      1.0000 0.69540  0.90868  0.50262  Biso   1.000  H
  C65      1.0000 0.64409  0.91353  0.56839  Biso   1.000  C
  H64      1.0000 0.69540  0.90872  0.50262  Biso   1.000  H
  H65      1.0000 0.44879  0.02371  0.13029  Biso   1.000  H
  H66      1.0000 0.46329  0.97148  0.09821  Biso   1.000  H
  H67      1.0000 0.46329  0.97152  0.09821  Biso   1.000  H
  C66      1.0000 0.41351  0.93159  0.35591  Biso   1.000  C
  H68      1.0000 0.40870  0.99740  0.30460  Biso   1.000  H
  C67      1.0000 0.41351  0.93163  0.35591  Biso   1.000  C
  H69      1.0000 0.46329  0.02852  0.90183  Biso   1.000  H
  C68      1.0000 0.52870  0.99199  0.86991  Biso   1.000  C
  H70      1.0000 0.44879  0.97629  0.86971  Biso   1.000  H
  C69      1.0000 0.52870  0.99203  0.86991  Biso   1.000  C
  H71      1.0000 0.44879  0.97633  0.86971  Biso   1.000  H
  C70      1.0000 0.57240  0.96571  0.69031  Biso   1.000  C
  H72      1.0000 0.57692  0.94669  0.81980  Biso   1.000  H
  H73      1.0000 0.51740  0.92630  0.82040  Biso   1.000  H
  H74      1.0000 0.57692  0.94673  0.81980  Biso   1.000  H
  H75      1.0000 0.09821  0.03669  0.52850  Biso   1.000  H
  H76      1.0000 0.13029  0.05119  0.47631  Biso   1.000  H
  H77      1.0000 0.09821  0.03673  0.52850  Biso   1.000  H
  H78      1.0000 0.13029  0.05123  0.47631  Biso   1.000  H
  C71      1.0000 0.13009  0.97128  0.49201  Biso   1.000  C
  C72      1.0000 0.13009  0.97132  0.49201  Biso   1.000  C
  C73      1.0000 0.30969  0.92758  0.46569  Biso   1.000  C
  C74      1.0000 0.30969  0.92762  0.46569  Biso   1.000  C
  H79      1.0000 0.18020  0.92310  0.44671  Biso   1.000  H
  H80      1.0000 0.17960  0.98262  0.42632  Biso   1.000  H
  C75      1.0000 0.61269  0.86951  0.55549  Biso   1.000  C
  C76      1.0000 0.63051  0.94449  0.61269  Biso   1.000  C
  C77      1.0000 0.63051  0.94453  0.61269  Biso   1.000  C
  C78      1.0000 0.44451  0.88729  0.36949  Biso   1.000  C
  C79      1.0000 0.36949  0.94449  0.38731  Biso   1.000  C
  C80      1.0000 0.36949  0.94453  0.38731  Biso   1.000  C
  H81      1.0000 0.55121  0.02371  0.86971  Biso   1.000  H
  H82      1.0000 0.53671  0.97148  0.90183  Biso   1.000  H
  H83      1.0000 0.53671  0.97152  0.90183  Biso   1.000  H
  C81      1.0000 0.58649  0.93159  0.64409  Biso   1.000  C
  C82      1.0000 0.58649  0.93163  0.64409  Biso   1.000  C
  H84      1.0000 0.59130  0.99740  0.69540  Biso   1.000  H
  H85      1.0000 0.09821  0.96331  0.47150  Biso   1.000  H
  H86      1.0000 0.13029  0.94881  0.52369  Biso   1.000  H
  C83      1.0000 0.35591  0.91349  0.43161  Biso   1.000  C
  C84      1.0000 0.35591  0.91353  0.43161  Biso   1.000  C
  H87      1.0000 0.30460  0.90868  0.49742  Biso   1.000  H
  H88      1.0000 0.30460  0.90872  0.49742  Biso   1.000  H
  H89      1.0000 0.62130  0.84888  0.52569  Biso   1.000  H
  C85      1.0000 0.56839  0.85589  0.58649  Biso   1.000  C
  H90      1.0000 0.62130  0.84892  0.52569  Biso   1.000  H
  C86      1.0000 0.56839  0.85593  0.58649  Biso   1.000  C
  H91      1.0000 0.65110  0.97429  0.62130  Biso   1.000  H
  H92      1.0000 0.65110  0.97433  0.62130  Biso   1.000  H
  H93      1.0000 0.47431  0.87868  0.34890  Biso   1.000  H
  C87      1.0000 0.43161  0.85589  0.41351  Biso   1.000  C
  H94      1.0000 0.47431  0.87872  0.34890  Biso   1.000  H
  C88      1.0000 0.43161  0.85593  0.41351  Biso   1.000  C
  H95      1.0000 0.34890  0.97429  0.37870  Biso   1.000  H
  H96      1.0000 0.34890  0.97433  0.37870  Biso   1.000  H
  C89      1.0000 0.55549  0.88729  0.63051  Biso   1.000  C
  C90      1.0000 0.38731  0.86951  0.44451  Biso   1.000  C
  C91      1.0000 0.53431  0.80971  0.57240  Biso   1.000  C
  C92      1.0000 0.46569  0.80971  0.42760  Biso   1.000  C
  H97      1.0000 0.52569  0.87868  0.65110  Biso   1.000  H
  H98      1.0000 0.52569  0.87872  0.65110  Biso   1.000  H
  H99      1.0000 0.37870  0.84888  0.47431  Biso   1.000  H
  H100     1.0000 0.37870  0.84892  0.47431  Biso   1.000  H
  N13      1.0000 0.54592  0.77719  0.53631  Biso   1.000  N
  H101     1.0000 0.50262  0.80458  0.59130  Biso   1.000  H
  N14      1.0000 0.54592  0.77723  0.53631  Biso   1.000  N
  H102     1.0000 0.50262  0.80462  0.59130  Biso   1.000  H
  N15      1.0000 0.45412  0.77719  0.46369  Biso   1.000  N
  H103     1.0000 0.49742  0.80458  0.40870  Biso   1.000  H
  N16      1.0000 0.45412  0.77723  0.46369  Biso   1.000  N
  H104     1.0000 0.49742  0.80462  0.40870  Biso   1.000  H
  C93      1.0000 0.51031  0.73100  0.52842  Biso   1.000  C
  C94      1.0000 0.48969  0.73100  0.47162  Biso   1.000  C
  H105     1.0000 0.47999  0.73341  0.55329  Biso   1.000  H
  C95      1.0000 0.54192  0.68030  0.53979  Biso   1.000  C
  H106     1.0000 0.52001  0.73341  0.44671  Biso   1.000  H
  C96      1.0000 0.45812  0.68030  0.46021  Biso   1.000  C
  H107     1.0000 0.55329  0.68018  0.57692  Biso   1.000  H
  H108     1.0000 0.57372  0.67958  0.51740  Biso   1.000  H
  C97      1.0000 0.50799  0.63011  0.52870  Biso   1.000  C
  H109     1.0000 0.55329  0.68022  0.57692  Biso   1.000  H
  H110     1.0000 0.57372  0.67962  0.51740  Biso   1.000  H
  H111     1.0000 0.44671  0.68018  0.42312  Biso   1.000  H
  H112     1.0000 0.42632  0.67958  0.48260  Biso   1.000  H
  C98      1.0000 0.49201  0.63011  0.47130  Biso   1.000  C
  H113     1.0000 0.44671  0.68022  0.42312  Biso   1.000  H
  H114     1.0000 0.42632  0.67962  0.48260  Biso   1.000  H
  H115     1.0000 0.52850  0.59819  0.53671  Biso   1.000  H
  H116     1.0000 0.47631  0.63031  0.55121  Biso   1.000  H
  H117     1.0000 0.47150  0.59819  0.46329  Biso   1.000  H
  H118     1.0000 0.52369  0.63031  0.44879  Biso   1.000  H
  C99      1.0000 0.50799  0.36993  0.47130  Biso   1.000  C
  C100     1.0000 0.49201  0.36989  0.52870  Biso   1.000  C
  C101     1.0000 0.49201  0.36993  0.52870  Biso   1.000  C
  C102     1.0000 0.54192  0.31970  0.46021  Biso   1.000  C
  H119     1.0000 0.52850  0.40181  0.46329  Biso   1.000  H
  H120     1.0000 0.47631  0.36969  0.44879  Biso   1.000  H
  H121     1.0000 0.47631  0.36973  0.44879  Biso   1.000  H
  C103     1.0000 0.45812  0.31970  0.53979  Biso   1.000  C
  H122     1.0000 0.47150  0.40181  0.53671  Biso   1.000  H
  C104     1.0000 0.50799  0.36989  0.47130  Biso   1.000  C
  H123     1.0000 0.52369  0.36969  0.55121  Biso   1.000  H
  H124     1.0000 0.52369  0.36973  0.55121  Biso   1.000  H
  C105     1.0000 0.51031  0.26900  0.47162  Biso   1.000  C
  C106     1.0000 0.51031  0.26904  0.47162  Biso   1.000  C
  H125     1.0000 0.55329  0.31982  0.42312  Biso   1.000  H
  H126     1.0000 0.57372  0.32042  0.48260  Biso   1.000  H
  C107     1.0000 0.48969  0.26900  0.52842  Biso   1.000  C
  C108     1.0000 0.48969  0.26904  0.52842  Biso   1.000  C
  H127     1.0000 0.44671  0.31982  0.57692  Biso   1.000  H
  H128     1.0000 0.42632  0.32042  0.51740  Biso   1.000  H
  N17      1.0000 0.54592  0.22281  0.46369  Biso   1.000  N
  H129     1.0000 0.47999  0.26659  0.44671  Biso   1.000  H
  H130     1.0000 0.47999  0.26663  0.44671  Biso   1.000  H
  N18      1.0000 0.45412  0.22281  0.53631  Biso   1.000  N
  H131     1.0000 0.52001  0.26659  0.55329  Biso   1.000  H
  H132     1.0000 0.52001  0.26663  0.55329  Biso   1.000  H
  C109     1.0000 0.53431  0.19029  0.42760  Biso   1.000  C
  C110     1.0000 0.53431  0.19033  0.42760  Biso   1.000  C
  C111     1.0000 0.46569  0.19029  0.57240  Biso   1.000  C
  C112     1.0000 0.46569  0.19033  0.57240  Biso   1.000  C
  C113     1.0000 0.56839  0.14411  0.41351  Biso   1.000  C
  H133     1.0000 0.50262  0.19542  0.40870  Biso   1.000  H
  C114     1.0000 0.43161  0.14411  0.58649  Biso   1.000  C
  H134     1.0000 0.49742  0.19542  0.59130  Biso   1.000  H
  C115     1.0000 0.55549  0.11271  0.36949  Biso   1.000  C
  C116     1.0000 0.61269  0.13049  0.44451  Biso   1.000  C
  C117     1.0000 0.61269  0.13053  0.44451  Biso   1.000  C
  C118     1.0000 0.38731  0.13049  0.55549  Biso   1.000  C
  C119     1.0000 0.38731  0.13053  0.55549  Biso   1.000  C
  C120     1.0000 0.44451  0.11271  0.63051  Biso   1.000  C
  H135     1.0000 0.52569  0.12132  0.34890  Biso   1.000  H
  C121     1.0000 0.58649  0.06841  0.35591  Biso   1.000  C
  H136     1.0000 0.62130  0.15112  0.47431  Biso   1.000  H
  C122     1.0000 0.64409  0.08651  0.43161  Biso   1.000  C
  C123     1.0000 0.35591  0.08651  0.56839  Biso   1.000  C
  H137     1.0000 0.37870  0.15112  0.52569  Biso   1.000  H
  C124     1.0000 0.41351  0.06841  0.64409  Biso   1.000  C
  H138     1.0000 0.47431  0.12132  0.65110  Biso   1.000  H
  C125     1.0000 0.63051  0.05551  0.38731  Biso   1.000  C
  C126     1.0000 0.57240  0.03429  0.30969  Biso   1.000  C
  C127     1.0000 0.57240  0.03433  0.30969  Biso   1.000  C
  C128     1.0000 0.69031  0.07242  0.46569  Biso   1.000  C
  C129     1.0000 0.30969  0.07242  0.53431  Biso   1.000  C
  C130     1.0000 0.36949  0.05551  0.61269  Biso   1.000  C
  C131     1.0000 0.42760  0.03429  0.69031  Biso   1.000  C
  C132     1.0000 0.42760  0.03433  0.69031  Biso   1.000  C
  H139     1.0000 0.65110  0.02571  0.37870  Biso   1.000  H
  N19      1.0000 0.53631  0.04590  0.27721  Biso   1.000  N
  H140     1.0000 0.59130  0.00260  0.30460  Biso   1.000  H
  H141     1.0000 0.69540  0.09132  0.49742  Biso   1.000  H
  N20      1.0000 0.72279  0.03629  0.45412  Biso   1.000  N
  N21      1.0000 0.72279  0.03633  0.45412  Biso   1.000  N
  H142     1.0000 0.30460  0.09132  0.50262  Biso   1.000  H
  N22      1.0000 0.27721  0.03629  0.54592  Biso   1.000  N
  N23      1.0000 0.27721  0.03633  0.54592  Biso   1.000  N
  H143     1.0000 0.34890  0.02571  0.62130  Biso   1.000  H
  N24      1.0000 0.46369  0.04590  0.72279  Biso   1.000  N
  H144     1.0000 0.40870  0.00260  0.69540  Biso   1.000  H
  C133     1.0000 0.52842  0.01029  0.23098  Biso   1.000  C
  C134     1.0000 0.76902  0.02840  0.48969  Biso   1.000  C
  C135     1.0000 0.23098  0.02840  0.51031  Biso   1.000  C
  C136     1.0000 0.47162  0.01029  0.76902  Biso   1.000  C
  C137     1.0000 0.47162  0.98971  0.23098  Biso   1.000  C
  C138     1.0000 0.53979  0.04190  0.18032  Biso   1.000  C
  H145     1.0000 0.55329  0.98001  0.23339  Biso   1.000  H
  C139     1.0000 0.76902  0.97160  0.51031  Biso   1.000  C
  H146     1.0000 0.76661  0.05331  0.52001  Biso   1.000  H
  C140     1.0000 0.81972  0.03981  0.45812  Biso   1.000  C
  H147     1.0000 0.23339  0.05331  0.47999  Biso   1.000  H
  C141     1.0000 0.18032  0.03981  0.54192  Biso   1.000  C
  C142     1.0000 0.23098  0.97160  0.48969  Biso   1.000  C
  C143     1.0000 0.46021  0.04190  0.81972  Biso   1.000  C
  C144     1.0000 0.52842  0.98971  0.76902  Biso   1.000  C
  H148     1.0000 0.44671  0.98001  0.76661  Biso   1.000  H
  N25      1.0000 0.46369  0.95410  0.27721  Biso   1.000  N
  C145     1.0000 0.46021  0.95810  0.18032  Biso   1.000  C
  H149     1.0000 0.44671  0.01999  0.23339  Biso   1.000  H
  H150     1.0000 0.44671  0.02003  0.23339  Biso   1.000  H
  H151     1.0000 0.57692  0.05331  0.18020  Biso   1.000  H
  H152     1.0000 0.51740  0.07370  0.17960  Biso   1.000  H
  C146     1.0000 0.52870  0.00801  0.13009  Biso   1.000  C
  N26      1.0000 0.72279  0.96371  0.54592  Biso   1.000  N
  H153     1.0000 0.76661  0.94669  0.47999  Biso   1.000  H
  C147     1.0000 0.81972  0.96019  0.54192  Biso   1.000  C
  H154     1.0000 0.76661  0.94673  0.47999  Biso   1.000  H
  C148     1.0000 0.81972  0.96023  0.54192  Biso   1.000  C
  H155     1.0000 0.81980  0.07690  0.44671  Biso   1.000  H
  C149     1.0000 0.86991  0.02872  0.49201  Biso   1.000  C
  H156     1.0000 0.82040  0.01738  0.42632  Biso   1.000  H
  H157     1.0000 0.82040  0.01742  0.42632  Biso   1.000  H
  H158     1.0000 0.18020  0.07690  0.55329  Biso   1.000  H
  C150     1.0000 0.13009  0.02872  0.50799  Biso   1.000  C
  H159     1.0000 0.17960  0.01738  0.57372  Biso   1.000  H
  H160     1.0000 0.17960  0.01742  0.57372  Biso   1.000  H
  N27      1.0000 0.27721  0.96371  0.45412  Biso   1.000  N
  H161     1.0000 0.23339  0.94669  0.52001  Biso   1.000  H
  C151     1.0000 0.18032  0.96019  0.45812  Biso   1.000  C
  H162     1.0000 0.23339  0.94673  0.52001  Biso   1.000  H
  C152     1.0000 0.18032  0.96023  0.45812  Biso   1.000  C
  H163     1.0000 0.42312  0.05331  0.81980  Biso   1.000  H
  H164     1.0000 0.48260  0.07370  0.82040  Biso   1.000  H
  C153     1.0000 0.47130  0.00801  0.86991  Biso   1.000  C
  N28      1.0000 0.53631  0.95410  0.72279  Biso   1.000  N
  C154     1.0000 0.53979  0.95810  0.81972  Biso   1.000  C
  H165     1.0000 0.55329  0.01999  0.76661  Biso   1.000  H
  H166     1.0000 0.55329  0.02003  0.76661  Biso   1.000  H
  C155     1.0000 0.42760  0.96571  0.30969  Biso   1.000  C
  H167     1.0000 0.42312  0.94669  0.18020  Biso   1.000  H
  H168     1.0000 0.48260  0.92630  0.17960  Biso   1.000  H
  C156     1.0000 0.47130  0.99199  0.13009  Biso   1.000  C
  H169     1.0000 0.42312  0.94673  0.18020  Biso   1.000  H
  C157     1.0000 0.47130  0.99203  0.13009  Biso   1.000  C
  H170     1.0000 0.53671  0.02852  0.09821  Biso   1.000  H
  H171     1.0000 0.55121  0.97629  0.13029  Biso   1.000  H
  H172     1.0000 0.55121  0.97633  0.13029  Biso   1.000  H
  C158     1.0000 0.69031  0.92758  0.53431  Biso   1.000  C
  C159     1.0000 0.69031  0.92762  0.53431  Biso   1.000  C
  H173     1.0000 0.81980  0.92310  0.55329  Biso   1.000  H
  H174     1.0000 0.82040  0.98262  0.57372  Biso   1.000  H
  C160     1.0000 0.86991  0.97128  0.50799  Biso   1.000  C
  C161     1.0000 0.86991  0.97132  0.50799  Biso   1.000  C
  H175     1.0000 0.90183  0.03669  0.47150  Biso   1.000  H
  H176     1.0000 0.86971  0.05119  0.52369  Biso   1.000  H
  H177     1.0000 0.90183  0.03673  0.47150  Biso   1.000  H
  H178     1.0000 0.86971  0.05123  0.52369  Biso   1.000  H
  C162     1.0000 0.13009  0.97128  0.49201  Biso   1.000  C
  C163     1.0000 0.13009  0.97132  0.49201  Biso   1.000  C
  H179     1.0000 0.09821  0.03669  0.52850  Biso   1.000  H
  H180     1.0000 0.13029  0.05119  0.47631  Biso   1.000  H
  H181     1.0000 0.09821  0.03673  0.52850  Biso   1.000  H
  H182     1.0000 0.13029  0.05123  0.47631  Biso   1.000  H
  C164     1.0000 0.30969  0.92758  0.46569  Biso   1.000  C
  C165     1.0000 0.30969  0.92762  0.46569  Biso   1.000  C
  H183     1.0000 0.18020  0.92310  0.44671  Biso   1.000  H
  H184     1.0000 0.17960  0.98262  0.42632  Biso   1.000  H
  H185     1.0000 0.46329  0.02852  0.90183  Biso   1.000  H
  C166     1.0000 0.52870  0.99199  0.86991  Biso   1.000  C
  H186     1.0000 0.44879  0.97629  0.86971  Biso   1.000  H
  C167     1.0000 0.52870  0.99203  0.86991  Biso   1.000  C
  H187     1.0000 0.44879  0.97633  0.86971  Biso   1.000  H
  C168     1.0000 0.57240  0.96571  0.69031  Biso   1.000  C
  H188     1.0000 0.57692  0.94669  0.81980  Biso   1.000  H
  H189     1.0000 0.51740  0.92630  0.82040  Biso   1.000  H
  H190     1.0000 0.57692  0.94673  0.81980  Biso   1.000  H
  C169     1.0000 0.41351  0.93159  0.35591  Biso   1.000  C
  C170     1.0000 0.41351  0.93163  0.35591  Biso   1.000  C
  H191     1.0000 0.40870  0.99740  0.30460  Biso   1.000  H
  H192     1.0000 0.44879  0.02371  0.13029  Biso   1.000  H
  H193     1.0000 0.46329  0.97148  0.09821  Biso   1.000  H
  H194     1.0000 0.46329  0.97152  0.09821  Biso   1.000  H
  C171     1.0000 0.64409  0.91349  0.56839  Biso   1.000  C
  C172     1.0000 0.64409  0.91353  0.56839  Biso   1.000  C
  H195     1.0000 0.69540  0.90868  0.50262  Biso   1.000  H
  H196     1.0000 0.69540  0.90872  0.50262  Biso   1.000  H
  H197     1.0000 0.90183  0.96331  0.52850  Biso   1.000  H
  H198     1.0000 0.86971  0.94881  0.47631  Biso   1.000  H
  H199     1.0000 0.09821  0.96331  0.47150  Biso   1.000  H
  H200     1.0000 0.13029  0.94881  0.52369  Biso   1.000  H
  C173     1.0000 0.35591  0.91349  0.43161  Biso   1.000  C
  H201     1.0000 0.30460  0.90868  0.49742  Biso   1.000  H
  C174     1.0000 0.35591  0.91353  0.43161  Biso   1.000  C
  H202     1.0000 0.30460  0.90872  0.49742  Biso   1.000  H
  H203     1.0000 0.55121  0.02371  0.86971  Biso   1.000  H
  H204     1.0000 0.53671  0.97148  0.90183  Biso   1.000  H
  H205     1.0000 0.53671  0.97152  0.90183  Biso   1.000  H
  C175     1.0000 0.58649  0.93159  0.64409  Biso   1.000  C
  H206     1.0000 0.59130  0.99740  0.69540  Biso   1.000  H
  C176     1.0000 0.58649  0.93163  0.64409  Biso   1.000  C
  C177     1.0000 0.36949  0.94449  0.38731  Biso   1.000  C
  C178     1.0000 0.36949  0.94453  0.38731  Biso   1.000  C
  C179     1.0000 0.44451  0.88729  0.36949  Biso   1.000  C
  C180     1.0000 0.63051  0.94449  0.61269  Biso   1.000  C
  C181     1.0000 0.63051  0.94453  0.61269  Biso   1.000  C
  C182     1.0000 0.61269  0.86951  0.55549  Biso   1.000  C
  C183     1.0000 0.38731  0.86951  0.44451  Biso   1.000  C
  C184     1.0000 0.55549  0.88729  0.63051  Biso   1.000  C
  H207     1.0000 0.34890  0.97429  0.37870  Biso   1.000  H
  H208     1.0000 0.34890  0.97433  0.37870  Biso   1.000  H
  C185     1.0000 0.43161  0.85589  0.41351  Biso   1.000  C
  C186     1.0000 0.43161  0.85593  0.41351  Biso   1.000  C
  H209     1.0000 0.47431  0.87868  0.34890  Biso   1.000  H
  H210     1.0000 0.47431  0.87872  0.34890  Biso   1.000  H
  H211     1.0000 0.65110  0.97429  0.62130  Biso   1.000  H
  H212     1.0000 0.65110  0.97433  0.62130  Biso   1.000  H
  C187     1.0000 0.56839  0.85589  0.58649  Biso   1.000  C
  C188     1.0000 0.56839  0.85593  0.58649  Biso   1.000  C
  H213     1.0000 0.62130  0.84888  0.52569  Biso   1.000  H
  H214     1.0000 0.62130  0.84892  0.52569  Biso   1.000  H
  H215     1.0000 0.37870  0.84888  0.47431  Biso   1.000  H
  H216     1.0000 0.37870  0.84892  0.47431  Biso   1.000  H
  H217     1.0000 0.52569  0.87868  0.65110  Biso   1.000  H
  H218     1.0000 0.52569  0.87872  0.65110  Biso   1.000  H
  C189     1.0000 0.46569  0.80971  0.42760  Biso   1.000  C
  C190     1.0000 0.53431  0.80971  0.57240  Biso   1.000  C
  N29      1.0000 0.45412  0.77719  0.46369  Biso   1.000  N
  H219     1.0000 0.49742  0.80458  0.40870  Biso   1.000  H
  N30      1.0000 0.45412  0.77723  0.46369  Biso   1.000  N
  H220     1.0000 0.49742  0.80462  0.40870  Biso   1.000  H
  N31      1.0000 0.54592  0.77719  0.53631  Biso   1.000  N
  N32      1.0000 0.54592  0.77723  0.53631  Biso   1.000  N
  H221     1.0000 0.50262  0.80458  0.59130  Biso   1.000  H
  H222     1.0000 0.50262  0.80462  0.59130  Biso   1.000  H
  C191     1.0000 0.48969  0.73100  0.47162  Biso   1.000  C
  C192     1.0000 0.51031  0.73100  0.52842  Biso   1.000  C
  H223     1.0000 0.52001  0.73341  0.44671  Biso   1.000  H
  C193     1.0000 0.45812  0.68030  0.46021  Biso   1.000  C
  H224     1.0000 0.47999  0.73341  0.55329  Biso   1.000  H
  C194     1.0000 0.54192  0.68030  0.53979  Biso   1.000  C
  H225     1.0000 0.44671  0.68018  0.42312  Biso   1.000  H
  H226     1.0000 0.42632  0.67958  0.48260  Biso   1.000  H
  C195     1.0000 0.49201  0.63011  0.47130  Biso   1.000  C
  H227     1.0000 0.44671  0.68022  0.42312  Biso   1.000  H
  H228     1.0000 0.42632  0.67962  0.48260  Biso   1.000  H
  H229     1.0000 0.55329  0.68018  0.57692  Biso   1.000  H
  H230     1.0000 0.57372  0.67958  0.51740  Biso   1.000  H
  C196     1.0000 0.50799  0.63011  0.52870  Biso   1.000  C
  H231     1.0000 0.55329  0.68022  0.57692  Biso   1.000  H
  H232     1.0000 0.57372  0.67962  0.51740  Biso   1.000  H
  H233     1.0000 0.47150  0.59819  0.46329  Biso   1.000  H
  H234     1.0000 0.52369  0.63031  0.44879  Biso   1.000  H
  H235     1.0000 0.52850  0.59819  0.53671  Biso   1.000  H
  H236     1.0000 0.47631  0.63031  0.55121  Biso   1.000  H
  C197     1.0000 0.47130  0.50799  0.36993  Biso   1.000  C
  C198     1.0000 0.46021  0.54192  0.31970  Biso   1.000  C
  C199     1.0000 0.52870  0.49201  0.36989  Biso   1.000  C
  C200     1.0000 0.52870  0.49201  0.36993  Biso   1.000  C
  H237     1.0000 0.46329  0.52850  0.40181  Biso   1.000  H
  H238     1.0000 0.44879  0.47631  0.36969  Biso   1.000  H
  H239     1.0000 0.44879  0.47631  0.36973  Biso   1.000  H
  C201     1.0000 0.47162  0.51031  0.26900  Biso   1.000  C
  C202     1.0000 0.47162  0.51031  0.26904  Biso   1.000  C
  H240     1.0000 0.42312  0.55329  0.31982  Biso   1.000  H
  H241     1.0000 0.48260  0.57372  0.32042  Biso   1.000  H
  C203     1.0000 0.47130  0.50799  0.36989  Biso   1.000  C
  C204     1.0000 0.53979  0.45812  0.31970  Biso   1.000  C
  H242     1.0000 0.53671  0.47150  0.40181  Biso   1.000  H
  H243     1.0000 0.55121  0.52369  0.36969  Biso   1.000  H
  H244     1.0000 0.55121  0.52369  0.36973  Biso   1.000  H
  C205     1.0000 0.52842  0.48969  0.26900  Biso   1.000  C
  C206     1.0000 0.52842  0.48969  0.26904  Biso   1.000  C
  N33      1.0000 0.46369  0.54592  0.22281  Biso   1.000  N
  H245     1.0000 0.44671  0.47999  0.26659  Biso   1.000  H
  H246     1.0000 0.44671  0.47999  0.26663  Biso   1.000  H
  H247     1.0000 0.57692  0.44671  0.31982  Biso   1.000  H
  H248     1.0000 0.51740  0.42632  0.32042  Biso   1.000  H
  N34      1.0000 0.53631  0.45412  0.22281  Biso   1.000  N
  H249     1.0000 0.55329  0.52001  0.26659  Biso   1.000  H
  H250     1.0000 0.55329  0.52001  0.26663  Biso   1.000  H
  C207     1.0000 0.42760  0.53431  0.19029  Biso   1.000  C
  C208     1.0000 0.42760  0.53431  0.19033  Biso   1.000  C
  C209     1.0000 0.57240  0.46569  0.19029  Biso   1.000  C
  C210     1.0000 0.57240  0.46569  0.19033  Biso   1.000  C
  C211     1.0000 0.41351  0.56839  0.14411  Biso   1.000  C
  H251     1.0000 0.40870  0.50262  0.19542  Biso   1.000  H
  C212     1.0000 0.58649  0.43161  0.14411  Biso   1.000  C
  H252     1.0000 0.59130  0.49742  0.19542  Biso   1.000  H
  C213     1.0000 0.44451  0.61269  0.13049  Biso   1.000  C
  C214     1.0000 0.36949  0.55549  0.11271  Biso   1.000  C
  C215     1.0000 0.44451  0.61269  0.13053  Biso   1.000  C
  C216     1.0000 0.55549  0.38731  0.13049  Biso   1.000  C
  C217     1.0000 0.55549  0.38731  0.13053  Biso   1.000  C
  C218     1.0000 0.63051  0.44451  0.11271  Biso   1.000  C
  H253     1.0000 0.47431  0.62130  0.15112  Biso   1.000  H
  C219     1.0000 0.43161  0.64409  0.08651  Biso   1.000  C
  H254     1.0000 0.34890  0.52569  0.12132  Biso   1.000  H
  C220     1.0000 0.35591  0.58649  0.06841  Biso   1.000  C
  C221     1.0000 0.56839  0.35591  0.08651  Biso   1.000  C
  H255     1.0000 0.52569  0.37870  0.15112  Biso   1.000  H
  C222     1.0000 0.64409  0.41351  0.06841  Biso   1.000  C
  H256     1.0000 0.65110  0.47431  0.12132  Biso   1.000  H
  C223     1.0000 0.38731  0.63051  0.05551  Biso   1.000  C
  C224     1.0000 0.46569  0.69031  0.07242  Biso   1.000  C
  C225     1.0000 0.30969  0.57240  0.03429  Biso   1.000  C
  C226     1.0000 0.30969  0.57240  0.03433  Biso   1.000  C
  C227     1.0000 0.53431  0.30969  0.07242  Biso   1.000  C
  C228     1.0000 0.61269  0.36949  0.05551  Biso   1.000  C
  C229     1.0000 0.69031  0.42760  0.03429  Biso   1.000  C
  C230     1.0000 0.69031  0.42760  0.03433  Biso   1.000  C
  H257     1.0000 0.37870  0.65110  0.02571  Biso   1.000  H
  N35      1.0000 0.45412  0.72279  0.03629  Biso   1.000  N
  H258     1.0000 0.49742  0.69540  0.09132  Biso   1.000  H
  N36      1.0000 0.45412  0.72279  0.03633  Biso   1.000  N
  N37      1.0000 0.27721  0.53631  0.04590  Biso   1.000  N
  H259     1.0000 0.30460  0.59130  0.00260  Biso   1.000  H
  N38      1.0000 0.54592  0.27721  0.03629  Biso   1.000  N
  H260     1.0000 0.50262  0.30460  0.09132  Biso   1.000  H
  N39      1.0000 0.54592  0.27721  0.03633  Biso   1.000  N
  H261     1.0000 0.62130  0.34890  0.02571  Biso   1.000  H
  N40      1.0000 0.72279  0.46369  0.04590  Biso   1.000  N
  H262     1.0000 0.69540  0.40870  0.00260  Biso   1.000  H
  C231     1.0000 0.48969  0.76902  0.02840  Biso   1.000  C
  C232     1.0000 0.23098  0.52842  0.01029  Biso   1.000  C
  C233     1.0000 0.51031  0.23098  0.02840  Biso   1.000  C
  C234     1.0000 0.76902  0.47162  0.01029  Biso   1.000  C
  C235     1.0000 0.51031  0.76902  0.97160  Biso   1.000  C
  H263     1.0000 0.52001  0.76661  0.05331  Biso   1.000  H
  C236     1.0000 0.45812  0.81972  0.03981  Biso   1.000  C
  C237     1.0000 0.23098  0.47162  0.98971  Biso   1.000  C
  C238     1.0000 0.18032  0.53979  0.04190  Biso   1.000  C
  H264     1.0000 0.23339  0.55329  0.98001  Biso   1.000  H
  H265     1.0000 0.47999  0.23339  0.05331  Biso   1.000  H
  C239     1.0000 0.54192  0.18032  0.03981  Biso   1.000  C
  C240     1.0000 0.48969  0.23098  0.97160  Biso   1.000  C
  C241     1.0000 0.81972  0.46021  0.04190  Biso   1.000  C
  C242     1.0000 0.76902  0.52842  0.98971  Biso   1.000  C
  H266     1.0000 0.76661  0.44671  0.98001  Biso   1.000  H
  N41      1.0000 0.54592  0.72279  0.96371  Biso   1.000  N
  H267     1.0000 0.47999  0.76661  0.94669  Biso   1.000  H
  C243     1.0000 0.54192  0.81972  0.96019  Biso   1.000  C
  H268     1.0000 0.47999  0.76661  0.94673  Biso   1.000  H
  C244     1.0000 0.54192  0.81972  0.96023  Biso   1.000  C
  H269     1.0000 0.44671  0.81980  0.07690  Biso   1.000  H
  H270     1.0000 0.42632  0.82040  0.01738  Biso   1.000  H
  C245     1.0000 0.49201  0.86991  0.02872  Biso   1.000  C
  H271     1.0000 0.42632  0.82040  0.01742  Biso   1.000  H
  N42      1.0000 0.27721  0.46369  0.95410  Biso   1.000  N
  H272     1.0000 0.23339  0.44671  0.01999  Biso   1.000  H
  H273     1.0000 0.23339  0.44671  0.02003  Biso   1.000  H
  C246     1.0000 0.18032  0.46021  0.95810  Biso   1.000  C
  H274     1.0000 0.18020  0.57692  0.05331  Biso   1.000  H
  H275     1.0000 0.17960  0.51740  0.07370  Biso   1.000  H
  C247     1.0000 0.13009  0.52870  0.00801  Biso   1.000  C
  H276     1.0000 0.55329  0.18020  0.07690  Biso   1.000  H
  H277     1.0000 0.57372  0.17960  0.01738  Biso   1.000  H
  C248     1.0000 0.50799  0.13009  0.02872  Biso   1.000  C
  H278     1.0000 0.57372  0.17960  0.01742  Biso   1.000  H
  N43      1.0000 0.45412  0.27721  0.96371  Biso   1.000  N
  H279     1.0000 0.52001  0.23339  0.94669  Biso   1.000  H
  C249     1.0000 0.45812  0.18032  0.96019  Biso   1.000  C
  H280     1.0000 0.52001  0.23339  0.94673  Biso   1.000  H
  C250     1.0000 0.45812  0.18032  0.96023  Biso   1.000  C
  H281     1.0000 0.81980  0.42312  0.05331  Biso   1.000  H
  H282     1.0000 0.82040  0.48260  0.07370  Biso   1.000  H
  C251     1.0000 0.86991  0.47130  0.00801  Biso   1.000  C
  H283     1.0000 0.76661  0.55329  0.01999  Biso   1.000  H
  H284     1.0000 0.76661  0.55329  0.02003  Biso   1.000  H
  N44      1.0000 0.72279  0.53631  0.95410  Biso   1.000  N
  C252     1.0000 0.81972  0.53979  0.95810  Biso   1.000  C
  C253     1.0000 0.53431  0.69031  0.92758  Biso   1.000  C
  C254     1.0000 0.53431  0.69031  0.92762  Biso   1.000  C
  H285     1.0000 0.55329  0.81980  0.92310  Biso   1.000  H
  H286     1.0000 0.57372  0.82040  0.98262  Biso   1.000  H
  C255     1.0000 0.50799  0.86991  0.97128  Biso   1.000  C
  C256     1.0000 0.50799  0.86991  0.97132  Biso   1.000  C
  H287     1.0000 0.47150  0.90183  0.03669  Biso   1.000  H
  H288     1.0000 0.52369  0.86971  0.05119  Biso   1.000  H
  H289     1.0000 0.47150  0.90183  0.03673  Biso   1.000  H
  H290     1.0000 0.52369  0.86971  0.05123  Biso   1.000  H
  C257     1.0000 0.30969  0.42760  0.96571  Biso   1.000  C
  H291     1.0000 0.18020  0.42312  0.94669  Biso   1.000  H
  H292     1.0000 0.17960  0.48260  0.92630  Biso   1.000  H
  C258     1.0000 0.13009  0.47130  0.99199  Biso   1.000  C
  H293     1.0000 0.18020  0.42312  0.94673  Biso   1.000  H
  C259     1.0000 0.13009  0.47130  0.99203  Biso   1.000  C
  H294     1.0000 0.09821  0.53671  0.02852  Biso   1.000  H
  H295     1.0000 0.13029  0.55121  0.97629  Biso   1.000  H
  H296     1.0000 0.13029  0.55121  0.97633  Biso   1.000  H
  H297     1.0000 0.52850  0.09821  0.03669  Biso   1.000  H
  H298     1.0000 0.47631  0.13029  0.05119  Biso   1.000  H
  H299     1.0000 0.52850  0.09821  0.03673  Biso   1.000  H
  H300     1.0000 0.47631  0.13029  0.05123  Biso   1.000  H
  C260     1.0000 0.49201  0.13009  0.97128  Biso   1.000  C
  C261     1.0000 0.49201  0.13009  0.97132  Biso   1.000  C
  C262     1.0000 0.46569  0.30969  0.92758  Biso   1.000  C
  C263     1.0000 0.46569  0.30969  0.92762  Biso   1.000  C
  H301     1.0000 0.44671  0.18020  0.92310  Biso   1.000  H
  H302     1.0000 0.42632  0.17960  0.98262  Biso   1.000  H
  H303     1.0000 0.90183  0.46329  0.02852  Biso   1.000  H
  C264     1.0000 0.86991  0.52870  0.99199  Biso   1.000  C
  H304     1.0000 0.86971  0.44879  0.97629  Biso   1.000  H
  C265     1.0000 0.86991  0.52870  0.99203  Biso   1.000  C
  H305     1.0000 0.86971  0.44879  0.97633  Biso   1.000  H
  C266     1.0000 0.69031  0.57240  0.96571  Biso   1.000  C
  H306     1.0000 0.81980  0.57692  0.94669  Biso   1.000  H
  H307     1.0000 0.82040  0.51740  0.92630  Biso   1.000  H
  H308     1.0000 0.81980  0.57692  0.94673  Biso   1.000  H
  C267     1.0000 0.56839  0.64409  0.91349  Biso   1.000  C
  C268     1.0000 0.56839  0.64409  0.91353  Biso   1.000  C
  H309     1.0000 0.50262  0.69540  0.90868  Biso   1.000  H
  H310     1.0000 0.50262  0.69540  0.90872  Biso   1.000  H
  H311     1.0000 0.52850  0.90183  0.96331  Biso   1.000  H
  H312     1.0000 0.47631  0.86971  0.94881  Biso   1.000  H
  C269     1.0000 0.35591  0.41351  0.93159  Biso   1.000  C
  C270     1.0000 0.35591  0.41351  0.93163  Biso   1.000  C
  H313     1.0000 0.30460  0.40870  0.99740  Biso   1.000  H
  H314     1.0000 0.13029  0.44879  0.02371  Biso   1.000  H
  H315     1.0000 0.09821  0.46329  0.97148  Biso   1.000  H
  H316     1.0000 0.09821  0.46329  0.97152  Biso   1.000  H
  H317     1.0000 0.47150  0.09821  0.96331  Biso   1.000  H
  H318     1.0000 0.52369  0.13029  0.94881  Biso   1.000  H
  C271     1.0000 0.43161  0.35591  0.91349  Biso   1.000  C
  H319     1.0000 0.49742  0.30460  0.90868  Biso   1.000  H
  C272     1.0000 0.43161  0.35591  0.91353  Biso   1.000  C
  H320     1.0000 0.49742  0.30460  0.90872  Biso   1.000  H
  H321     1.0000 0.86971  0.55121  0.02371  Biso   1.000  H
  H322     1.0000 0.90183  0.53671  0.97148  Biso   1.000  H
  H323     1.0000 0.90183  0.53671  0.97152  Biso   1.000  H
  C273     1.0000 0.64409  0.58649  0.93159  Biso   1.000  C
  H324     1.0000 0.69540  0.59130  0.99740  Biso   1.000  H
  C274     1.0000 0.64409  0.58649  0.93163  Biso   1.000  C
  C275     1.0000 0.61269  0.63051  0.94449  Biso   1.000  C
  C276     1.0000 0.61269  0.63051  0.94453  Biso   1.000  C
  C277     1.0000 0.55549  0.61269  0.86951  Biso   1.000  C
  C278     1.0000 0.38731  0.36949  0.94449  Biso   1.000  C
  C279     1.0000 0.38731  0.36949  0.94453  Biso   1.000  C
  C280     1.0000 0.36949  0.44451  0.88729  Biso   1.000  C
  C281     1.0000 0.44451  0.38731  0.86951  Biso   1.000  C
  C282     1.0000 0.63051  0.55549  0.88729  Biso   1.000  C
  H325     1.0000 0.62130  0.65110  0.97429  Biso   1.000  H
  H326     1.0000 0.62130  0.65110  0.97433  Biso   1.000  H
  C283     1.0000 0.58649  0.56839  0.85589  Biso   1.000  C
  C284     1.0000 0.58649  0.56839  0.85593  Biso   1.000  C
  H327     1.0000 0.52569  0.62130  0.84888  Biso   1.000  H
  H328     1.0000 0.52569  0.62130  0.84892  Biso   1.000  H
  H329     1.0000 0.37870  0.34890  0.97429  Biso   1.000  H
  H330     1.0000 0.37870  0.34890  0.97433  Biso   1.000  H
  C285     1.0000 0.41351  0.43161  0.85589  Biso   1.000  C
  C286     1.0000 0.41351  0.43161  0.85593  Biso   1.000  C
  H331     1.0000 0.34890  0.47431  0.87868  Biso   1.000  H
  H332     1.0000 0.34890  0.47431  0.87872  Biso   1.000  H
  H333     1.0000 0.47431  0.37870  0.84888  Biso   1.000  H
  H334     1.0000 0.47431  0.37870  0.84892  Biso   1.000  H
  H335     1.0000 0.65110  0.52569  0.87868  Biso   1.000  H
  H336     1.0000 0.65110  0.52569  0.87872  Biso   1.000  H
  C287     1.0000 0.57240  0.53431  0.80971  Biso   1.000  C
  C288     1.0000 0.42760  0.46569  0.80971  Biso   1.000  C
  N45      1.0000 0.53631  0.54592  0.77719  Biso   1.000  N
  N46      1.0000 0.53631  0.54592  0.77723  Biso   1.000  N
  H337     1.0000 0.59130  0.50262  0.80458  Biso   1.000  H
  H338     1.0000 0.59130  0.50262  0.80462  Biso   1.000  H
  N47      1.0000 0.46369  0.45412  0.77719  Biso   1.000  N
  H339     1.0000 0.40870  0.49742  0.80458  Biso   1.000  H
  N48      1.0000 0.46369  0.45412  0.77723  Biso   1.000  N
  H340     1.0000 0.40870  0.49742  0.80462  Biso   1.000  H
  C289     1.0000 0.52842  0.51031  0.73100  Biso   1.000  C
  C290     1.0000 0.47162  0.48969  0.73100  Biso   1.000  C
  H341     1.0000 0.55329  0.47999  0.73341  Biso   1.000  H
  C291     1.0000 0.53979  0.54192  0.68030  Biso   1.000  C
  H342     1.0000 0.44671  0.52001  0.73341  Biso   1.000  H
  C292     1.0000 0.46021  0.45812  0.68030  Biso   1.000  C
  H343     1.0000 0.57692  0.55329  0.68018  Biso   1.000  H
  H344     1.0000 0.51740  0.57372  0.67958  Biso   1.000  H
  C293     1.0000 0.52870  0.50799  0.63011  Biso   1.000  C
  H345     1.0000 0.57692  0.55329  0.68022  Biso   1.000  H
  H346     1.0000 0.51740  0.57372  0.67962  Biso   1.000  H
  H347     1.0000 0.42312  0.44671  0.68018  Biso   1.000  H
  H348     1.0000 0.48260  0.42632  0.67958  Biso   1.000  H
  C294     1.0000 0.47130  0.49201  0.63011  Biso   1.000  C
  H349     1.0000 0.42312  0.44671  0.68022  Biso   1.000  H
  H350     1.0000 0.48260  0.42632  0.67962  Biso   1.000  H
  H351     1.0000 0.53671  0.52850  0.59819  Biso   1.000  H
  H352     1.0000 0.55121  0.47631  0.63031  Biso   1.000  H
  H353     1.0000 0.46329  0.47150  0.59819  Biso   1.000  H
  H354     1.0000 0.44879  0.52369  0.63031  Biso   1.000  H
  C295     1.0000 0.47130  0.50799  0.36993  Biso   1.000  C
  C296     1.0000 0.52870  0.49201  0.36989  Biso   1.000  C
  C297     1.0000 0.52870  0.49201  0.36993  Biso   1.000  C
  C298     1.0000 0.46021  0.54192  0.31970  Biso   1.000  C
  H355     1.0000 0.46329  0.52850  0.40181  Biso   1.000  H
  H356     1.0000 0.44879  0.47631  0.36969  Biso   1.000  H
  H357     1.0000 0.44879  0.47631  0.36973  Biso   1.000  H
  C299     1.0000 0.53979  0.45812  0.31970  Biso   1.000  C
  H358     1.0000 0.53671  0.47150  0.40181  Biso   1.000  H
  C300     1.0000 0.47130  0.50799  0.36989  Biso   1.000  C
  H359     1.0000 0.55121  0.52369  0.36969  Biso   1.000  H
  H360     1.0000 0.55121  0.52369  0.36973  Biso   1.000  H
  C301     1.0000 0.47162  0.51031  0.26900  Biso   1.000  C
  C302     1.0000 0.47162  0.51031  0.26904  Biso   1.000  C
  H361     1.0000 0.42312  0.55329  0.31982  Biso   1.000  H
  H362     1.0000 0.48260  0.57372  0.32042  Biso   1.000  H
  C303     1.0000 0.52842  0.48969  0.26900  Biso   1.000  C
  C304     1.0000 0.52842  0.48969  0.26904  Biso   1.000  C
  H363     1.0000 0.57692  0.44671  0.31982  Biso   1.000  H
  H364     1.0000 0.51740  0.42632  0.32042  Biso   1.000  H
  N49      1.0000 0.46369  0.54592  0.22281  Biso   1.000  N
  H365     1.0000 0.44671  0.47999  0.26659  Biso   1.000  H
  H366     1.0000 0.44671  0.47999  0.26663  Biso   1.000  H
  N50      1.0000 0.53631  0.45412  0.22281  Biso   1.000  N
  H367     1.0000 0.55329  0.52001  0.26659  Biso   1.000  H
  H368     1.0000 0.55329  0.52001  0.26663  Biso   1.000  H
  C305     1.0000 0.42760  0.53431  0.19029  Biso   1.000  C
  C306     1.0000 0.42760  0.53431  0.19033  Biso   1.000  C
  C307     1.0000 0.57240  0.46569  0.19029  Biso   1.000  C
  C308     1.0000 0.57240  0.46569  0.19033  Biso   1.000  C
  C309     1.0000 0.41351  0.56839  0.14411  Biso   1.000  C
  H369     1.0000 0.40870  0.50262  0.19542  Biso   1.000  H
  C310     1.0000 0.58649  0.43161  0.14411  Biso   1.000  C
  H370     1.0000 0.59130  0.49742  0.19542  Biso   1.000  H
  C311     1.0000 0.36949  0.55549  0.11271  Biso   1.000  C
  C312     1.0000 0.44451  0.61269  0.13049  Biso   1.000  C
  C313     1.0000 0.44451  0.61269  0.13053  Biso   1.000  C
  C314     1.0000 0.55549  0.38731  0.13049  Biso   1.000  C
  C315     1.0000 0.55549  0.38731  0.13053  Biso   1.000  C
  C316     1.0000 0.63051  0.44451  0.11271  Biso   1.000  C
  H371     1.0000 0.34890  0.52569  0.12132  Biso   1.000  H
  C317     1.0000 0.35591  0.58649  0.06841  Biso   1.000  C
  H372     1.0000 0.47431  0.62130  0.15112  Biso   1.000  H
  C318     1.0000 0.43161  0.64409  0.08651  Biso   1.000  C
  C319     1.0000 0.56839  0.35591  0.08651  Biso   1.000  C
  H373     1.0000 0.52569  0.37870  0.15112  Biso   1.000  H
  C320     1.0000 0.64409  0.41351  0.06841  Biso   1.000  C
  H374     1.0000 0.65110  0.47431  0.12132  Biso   1.000  H
  C321     1.0000 0.38731  0.63051  0.05551  Biso   1.000  C
  C322     1.0000 0.30969  0.57240  0.03429  Biso   1.000  C
  C323     1.0000 0.30969  0.57240  0.03433  Biso   1.000  C
  C324     1.0000 0.46569  0.69031  0.07242  Biso   1.000  C
  C325     1.0000 0.53431  0.30969  0.07242  Biso   1.000  C
  C326     1.0000 0.61269  0.36949  0.05551  Biso   1.000  C
  C327     1.0000 0.69031  0.42760  0.03429  Biso   1.000  C
  C328     1.0000 0.69031  0.42760  0.03433  Biso   1.000  C
  H375     1.0000 0.37870  0.65110  0.02571  Biso   1.000  H
  N51      1.0000 0.27721  0.53631  0.04590  Biso   1.000  N
  H376     1.0000 0.30460  0.59130  0.00260  Biso   1.000  H
  H377     1.0000 0.49742  0.69540  0.09132  Biso   1.000  H
  N52      1.0000 0.45412  0.72279  0.03629  Biso   1.000  N
  N53      1.0000 0.45412  0.72279  0.03633  Biso   1.000  N
  H378     1.0000 0.50262  0.30460  0.09132  Biso   1.000  H
  N54      1.0000 0.54592  0.27721  0.03629  Biso   1.000  N
  N55      1.0000 0.54592  0.27721  0.03633  Biso   1.000  N
  H379     1.0000 0.62130  0.34890  0.02571  Biso   1.000  H
  N56      1.0000 0.72279  0.46369  0.04590  Biso   1.000  N
  H380     1.0000 0.69540  0.40870  0.00260  Biso   1.000  H
  C329     1.0000 0.23098  0.52842  0.01029  Biso   1.000  C
  C330     1.0000 0.48969  0.76902  0.02840  Biso   1.000  C
  C331     1.0000 0.51031  0.23098  0.02840  Biso   1.000  C
  C332     1.0000 0.76902  0.47162  0.01029  Biso   1.000  C
  C333     1.0000 0.23098  0.47162  0.98971  Biso   1.000  C
  C334     1.0000 0.18032  0.53979  0.04190  Biso   1.000  C
  H381     1.0000 0.23339  0.55329  0.98001  Biso   1.000  H
  C335     1.0000 0.51031  0.76902  0.97160  Biso   1.000  C
  H382     1.0000 0.52001  0.76661  0.05331  Biso   1.000  H
  C336     1.0000 0.45812  0.81972  0.03981  Biso   1.000  C
  H383     1.0000 0.47999  0.23339  0.05331  Biso   1.000  H
  C337     1.0000 0.54192  0.18032  0.03981  Biso   1.000  C
  C338     1.0000 0.48969  0.23098  0.97160  Biso   1.000  C
  C339     1.0000 0.81972  0.46021  0.04190  Biso   1.000  C
  C340     1.0000 0.76902  0.52842  0.98971  Biso   1.000  C
  H384     1.0000 0.76661  0.44671  0.98001  Biso   1.000  H
  N57      1.0000 0.27721  0.46369  0.95410  Biso   1.000  N
  C341     1.0000 0.18032  0.46021  0.95810  Biso   1.000  C
  H385     1.0000 0.23339  0.44671  0.01999  Biso   1.000  H
  H386     1.0000 0.23339  0.44671  0.02003  Biso   1.000  H
  H387     1.0000 0.18020  0.57692  0.05331  Biso   1.000  H
  H388     1.0000 0.17960  0.51740  0.07370  Biso   1.000  H
  C342     1.0000 0.13009  0.52870  0.00801  Biso   1.000  C
  N58      1.0000 0.54592  0.72279  0.96371  Biso   1.000  N
  H389     1.0000 0.47999  0.76661  0.94669  Biso   1.000  H
  C343     1.0000 0.54192  0.81972  0.96019  Biso   1.000  C
  H390     1.0000 0.47999  0.76661  0.94673  Biso   1.000  H
  C344     1.0000 0.54192  0.81972  0.96023  Biso   1.000  C
  H391     1.0000 0.44671  0.81980  0.07690  Biso   1.000  H
  C345     1.0000 0.49201  0.86991  0.02872  Biso   1.000  C
  H392     1.0000 0.42632  0.82040  0.01738  Biso   1.000  H
  H393     1.0000 0.42632  0.82040  0.01742  Biso   1.000  H
  H394     1.0000 0.55329  0.18020  0.07690  Biso   1.000  H
  C346     1.0000 0.50799  0.13009  0.02872  Biso   1.000  C
  H395     1.0000 0.57372  0.17960  0.01738  Biso   1.000  H
  H396     1.0000 0.57372  0.17960  0.01742  Biso   1.000  H
  N59      1.0000 0.45412  0.27721  0.96371  Biso   1.000  N
  H397     1.0000 0.52001  0.23339  0.94669  Biso   1.000  H
  C347     1.0000 0.45812  0.18032  0.96019  Biso   1.000  C
  H398     1.0000 0.52001  0.23339  0.94673  Biso   1.000  H
  C348     1.0000 0.45812  0.18032  0.96023  Biso   1.000  C
  H399     1.0000 0.81980  0.42312  0.05331  Biso   1.000  H
  H400     1.0000 0.82040  0.48260  0.07370  Biso   1.000  H
  C349     1.0000 0.86991  0.47130  0.00801  Biso   1.000  C
  N60      1.0000 0.72279  0.53631  0.95410  Biso   1.000  N
  C350     1.0000 0.81972  0.53979  0.95810  Biso   1.000  C
  H401     1.0000 0.76661  0.55329  0.01999  Biso   1.000  H
  H402     1.0000 0.76661  0.55329  0.02003  Biso   1.000  H
  C351     1.0000 0.30969  0.42760  0.96571  Biso   1.000  C
  H403     1.0000 0.18020  0.42312  0.94669  Biso   1.000  H
  H404     1.0000 0.17960  0.48260  0.92630  Biso   1.000  H
  C352     1.0000 0.13009  0.47130  0.99199  Biso   1.000  C
  H405     1.0000 0.18020  0.42312  0.94673  Biso   1.000  H
  C353     1.0000 0.13009  0.47130  0.99203  Biso   1.000  C
  H406     1.0000 0.09821  0.53671  0.02852  Biso   1.000  H
  H407     1.0000 0.13029  0.55121  0.97629  Biso   1.000  H
  H408     1.0000 0.13029  0.55121  0.97633  Biso   1.000  H
  C354     1.0000 0.53431  0.69031  0.92758  Biso   1.000  C
  C355     1.0000 0.53431  0.69031  0.92762  Biso   1.000  C
  H409     1.0000 0.55329  0.81980  0.92310  Biso   1.000  H
  H410     1.0000 0.57372  0.82040  0.98262  Biso   1.000  H
  C356     1.0000 0.50799  0.86991  0.97128  Biso   1.000  C
  C357     1.0000 0.50799  0.86991  0.97132  Biso   1.000  C
  H411     1.0000 0.47150  0.90183  0.03669  Biso   1.000  H
  H412     1.0000 0.52369  0.86971  0.05119  Biso   1.000  H
  H413     1.0000 0.47150  0.90183  0.03673  Biso   1.000  H
  H414     1.0000 0.52369  0.86971  0.05123  Biso   1.000  H
  C358     1.0000 0.49201  0.13009  0.97128  Biso   1.000  C
  C359     1.0000 0.49201  0.13009  0.97132  Biso   1.000  C
  H415     1.0000 0.52850  0.09821  0.03669  Biso   1.000  H
  H416     1.0000 0.47631  0.13029  0.05119  Biso   1.000  H
  H417     1.0000 0.52850  0.09821  0.03673  Biso   1.000  H
  H418     1.0000 0.47631  0.13029  0.05123  Biso   1.000  H
  C360     1.0000 0.46569  0.30969  0.92758  Biso   1.000  C
  C361     1.0000 0.46569  0.30969  0.92762  Biso   1.000  C
  H419     1.0000 0.44671  0.18020  0.92310  Biso   1.000  H
  H420     1.0000 0.42632  0.17960  0.98262  Biso   1.000  H
  H421     1.0000 0.90183  0.46329  0.02852  Biso   1.000  H
  C362     1.0000 0.86991  0.52870  0.99199  Biso   1.000  C
  H422     1.0000 0.86971  0.44879  0.97629  Biso   1.000  H
  C363     1.0000 0.86991  0.52870  0.99203  Biso   1.000  C
  H423     1.0000 0.86971  0.44879  0.97633  Biso   1.000  H
  C364     1.0000 0.69031  0.57240  0.96571  Biso   1.000  C
  H424     1.0000 0.81980  0.57692  0.94669  Biso   1.000  H
  H425     1.0000 0.82040  0.51740  0.92630  Biso   1.000  H
  H426     1.0000 0.81980  0.57692  0.94673  Biso   1.000  H
  C365     1.0000 0.35591  0.41351  0.93159  Biso   1.000  C
  C366     1.0000 0.35591  0.41351  0.93163  Biso   1.000  C
  H427     1.0000 0.30460  0.40870  0.99740  Biso   1.000  H
  H428     1.0000 0.13029  0.44879  0.02371  Biso   1.000  H
  H429     1.0000 0.09821  0.46329  0.97148  Biso   1.000  H
  H430     1.0000 0.09821  0.46329  0.97152  Biso   1.000  H
  C367     1.0000 0.56839  0.64409  0.91349  Biso   1.000  C
  C368     1.0000 0.56839  0.64409  0.91353  Biso   1.000  C
  H431     1.0000 0.50262  0.69540  0.90868  Biso   1.000  H
  H432     1.0000 0.50262  0.69540  0.90872  Biso   1.000  H
  H433     1.0000 0.52850  0.90183  0.96331  Biso   1.000  H
  H434     1.0000 0.47631  0.86971  0.94881  Biso   1.000  H
  H435     1.0000 0.47150  0.09821  0.96331  Biso   1.000  H
  H436     1.0000 0.52369  0.13029  0.94881  Biso   1.000  H
  C369     1.0000 0.43161  0.35591  0.91349  Biso   1.000  C
  H437     1.0000 0.49742  0.30460  0.90868  Biso   1.000  H
  C370     1.0000 0.43161  0.35591  0.91353  Biso   1.000  C
  H438     1.0000 0.49742  0.30460  0.90872  Biso   1.000  H
  H439     1.0000 0.86971  0.55121  0.02371  Biso   1.000  H
  H440     1.0000 0.90183  0.53671  0.97148  Biso   1.000  H
  H441     1.0000 0.90183  0.53671  0.97152  Biso   1.000  H
  C371     1.0000 0.64409  0.58649  0.93159  Biso   1.000  C
  H442     1.0000 0.69540  0.59130  0.99740  Biso   1.000  H
  C372     1.0000 0.64409  0.58649  0.93163  Biso   1.000  C
  C373     1.0000 0.38731  0.36949  0.94449  Biso   1.000  C
  C374     1.0000 0.38731  0.36949  0.94453  Biso   1.000  C
  C375     1.0000 0.36949  0.44451  0.88729  Biso   1.000  C
  C376     1.0000 0.61269  0.63051  0.94449  Biso   1.000  C
  C377     1.0000 0.61269  0.63051  0.94453  Biso   1.000  C
  C378     1.0000 0.55549  0.61269  0.86951  Biso   1.000  C
  C379     1.0000 0.44451  0.38731  0.86951  Biso   1.000  C
  C380     1.0000 0.63051  0.55549  0.88729  Biso   1.000  C
  H443     1.0000 0.37870  0.34890  0.97429  Biso   1.000  H
  H444     1.0000 0.37870  0.34890  0.97433  Biso   1.000  H
  C381     1.0000 0.41351  0.43161  0.85589  Biso   1.000  C
  C382     1.0000 0.41351  0.43161  0.85593  Biso   1.000  C
  H445     1.0000 0.34890  0.47431  0.87868  Biso   1.000  H
  H446     1.0000 0.34890  0.47431  0.87872  Biso   1.000  H
  H447     1.0000 0.62130  0.65110  0.97429  Biso   1.000  H
  H448     1.0000 0.62130  0.65110  0.97433  Biso   1.000  H
  C383     1.0000 0.58649  0.56839  0.85589  Biso   1.000  C
  C384     1.0000 0.58649  0.56839  0.85593  Biso   1.000  C
  H449     1.0000 0.52569  0.62130  0.84888  Biso   1.000  H
  H450     1.0000 0.52569  0.62130  0.84892  Biso   1.000  H
  H451     1.0000 0.47431  0.37870  0.84888  Biso   1.000  H
  H452     1.0000 0.47431  0.37870  0.84892  Biso   1.000  H
  H453     1.0000 0.65110  0.52569  0.87868  Biso   1.000  H
  H454     1.0000 0.65110  0.52569  0.87872  Biso   1.000  H
  C385     1.0000 0.42760  0.46569  0.80971  Biso   1.000  C
  C386     1.0000 0.57240  0.53431  0.80971  Biso   1.000  C
  N61      1.0000 0.46369  0.45412  0.77719  Biso   1.000  N
  H455     1.0000 0.40870  0.49742  0.80458  Biso   1.000  H
  N62      1.0000 0.46369  0.45412  0.77723  Biso   1.000  N
  H456     1.0000 0.40870  0.49742  0.80462  Biso   1.000  H
  N63      1.0000 0.53631  0.54592  0.77719  Biso   1.000  N
  N64      1.0000 0.53631  0.54592  0.77723  Biso   1.000  N
  H457     1.0000 0.59130  0.50262  0.80458  Biso   1.000  H
  H458     1.0000 0.59130  0.50262  0.80462  Biso   1.000  H
  C387     1.0000 0.47162  0.48969  0.73100  Biso   1.000  C
  C388     1.0000 0.52842  0.51031  0.73100  Biso   1.000  C
  H459     1.0000 0.44671  0.52001  0.73341  Biso   1.000  H
  C389     1.0000 0.46021  0.45812  0.68030  Biso   1.000  C
  H460     1.0000 0.55329  0.47999  0.73341  Biso   1.000  H
  C390     1.0000 0.53979  0.54192  0.68030  Biso   1.000  C
  H461     1.0000 0.42312  0.44671  0.68018  Biso   1.000  H
  H462     1.0000 0.48260  0.42632  0.67958  Biso   1.000  H
  C391     1.0000 0.47130  0.49201  0.63011  Biso   1.000  C
  H463     1.0000 0.42312  0.44671  0.68022  Biso   1.000  H
  H464     1.0000 0.48260  0.42632  0.67962  Biso   1.000  H
  H465     1.0000 0.57692  0.55329  0.68018  Biso   1.000  H
  H466     1.0000 0.51740  0.57372  0.67958  Biso   1.000  H
  C392     1.0000 0.52870  0.50799  0.63011  Biso   1.000  C
  H467     1.0000 0.57692  0.55329  0.68022  Biso   1.000  H
  H468     1.0000 0.51740  0.57372  0.67962  Biso   1.000  H
  H469     1.0000 0.46329  0.47150  0.59819  Biso   1.000  H
  H470     1.0000 0.44879  0.52369  0.63031  Biso   1.000  H
  H471     1.0000 0.53671  0.52850  0.59819  Biso   1.000  H
  H472     1.0000 0.55121  0.47631  0.63031  Biso   1.000  H
  C393     1.0000 0.36993  0.47130  0.50799  Biso   1.000  C
  C394     1.0000 0.31970  0.46021  0.54192  Biso   1.000  C
  C395     1.0000 0.36989  0.52870  0.49201  Biso   1.000  C
  C396     1.0000 0.36993  0.52870  0.49201  Biso   1.000  C
  H473     1.0000 0.40181  0.46329  0.52850  Biso   1.000  H
  H474     1.0000 0.36969  0.44879  0.47631  Biso   1.000  H
  H475     1.0000 0.36973  0.44879  0.47631  Biso   1.000  H
  C397     1.0000 0.26900  0.47162  0.51031  Biso   1.000  C
  C398     1.0000 0.26904  0.47162  0.51031  Biso   1.000  C
  H476     1.0000 0.31982  0.42312  0.55329  Biso   1.000  H
  H477     1.0000 0.32042  0.48260  0.57372  Biso   1.000  H
  C399     1.0000 0.36989  0.47130  0.50799  Biso   1.000  C
  C400     1.0000 0.31970  0.53979  0.45812  Biso   1.000  C
  H478     1.0000 0.40181  0.53671  0.47150  Biso   1.000  H
  H479     1.0000 0.36969  0.55121  0.52369  Biso   1.000  H
  H480     1.0000 0.36973  0.55121  0.52369  Biso   1.000  H
  N65      1.0000 0.22281  0.46369  0.54592  Biso   1.000  N
  C401     1.0000 0.26900  0.52842  0.48969  Biso   1.000  C
  H481     1.0000 0.26659  0.44671  0.47999  Biso   1.000  H
  C402     1.0000 0.26904  0.52842  0.48969  Biso   1.000  C
  H482     1.0000 0.26663  0.44671  0.47999  Biso   1.000  H
  H483     1.0000 0.31982  0.57692  0.44671  Biso   1.000  H
  H484     1.0000 0.32042  0.51740  0.42632  Biso   1.000  H
  C403     1.0000 0.19029  0.42760  0.53431  Biso   1.000  C
  C404     1.0000 0.19033  0.42760  0.53431  Biso   1.000  C
  N66      1.0000 0.22281  0.53631  0.45412  Biso   1.000  N
  H485     1.0000 0.26659  0.55329  0.52001  Biso   1.000  H
  H486     1.0000 0.26663  0.55329  0.52001  Biso   1.000  H
  C405     1.0000 0.14411  0.41351  0.56839  Biso   1.000  C
  H487     1.0000 0.19542  0.40870  0.50262  Biso   1.000  H
  C406     1.0000 0.19029  0.57240  0.46569  Biso   1.000  C
  C407     1.0000 0.19033  0.57240  0.46569  Biso   1.000  C
  C408     1.0000 0.11271  0.36949  0.55549  Biso   1.000  C
  C409     1.0000 0.13049  0.44451  0.61269  Biso   1.000  C
  C410     1.0000 0.13053  0.44451  0.61269  Biso   1.000  C
  C411     1.0000 0.14411  0.58649  0.43161  Biso   1.000  C
  H488     1.0000 0.19542  0.59130  0.49742  Biso   1.000  H
  H489     1.0000 0.12132  0.34890  0.52569  Biso   1.000  H
  C412     1.0000 0.06841  0.35591  0.58649  Biso   1.000  C
  H490     1.0000 0.15112  0.47431  0.62130  Biso   1.000  H
  C413     1.0000 0.08651  0.43161  0.64409  Biso   1.000  C
  C414     1.0000 0.13049  0.55549  0.38731  Biso   1.000  C
  C415     1.0000 0.11271  0.63051  0.44451  Biso   1.000  C
  C416     1.0000 0.13053  0.55549  0.38731  Biso   1.000  C
  C417     1.0000 0.05551  0.38731  0.63051  Biso   1.000  C
  C418     1.0000 0.03429  0.30969  0.57240  Biso   1.000  C
  C419     1.0000 0.03433  0.30969  0.57240  Biso   1.000  C
  C420     1.0000 0.07242  0.46569  0.69031  Biso   1.000  C
  H491     1.0000 0.15112  0.52569  0.37870  Biso   1.000  H
  C421     1.0000 0.08651  0.56839  0.35591  Biso   1.000  C
  H492     1.0000 0.12132  0.65110  0.47431  Biso   1.000  H
  C422     1.0000 0.06841  0.64409  0.41351  Biso   1.000  C
  H493     1.0000 0.02571  0.37870  0.65110  Biso   1.000  H
  N67      1.0000 0.04590  0.27721  0.53631  Biso   1.000  N
  H494     1.0000 0.00260  0.30460  0.59130  Biso   1.000  H
  N68      1.0000 0.03629  0.45412  0.72279  Biso   1.000  N
  H495     1.0000 0.09132  0.49742  0.69540  Biso   1.000  H
  N69      1.0000 0.03633  0.45412  0.72279  Biso   1.000  N
  C423     1.0000 0.05551  0.61269  0.36949  Biso   1.000  C
  C424     1.0000 0.07242  0.53431  0.30969  Biso   1.000  C
  C425     1.0000 0.03429  0.69031  0.42760  Biso   1.000  C
  C426     1.0000 0.03433  0.69031  0.42760  Biso   1.000  C
  C427     1.0000 0.01029  0.23098  0.52842  Biso   1.000  C
  C428     1.0000 0.02840  0.48969  0.76902  Biso   1.000  C
  H496     1.0000 0.02571  0.62130  0.34890  Biso   1.000  H
  N70      1.0000 0.03629  0.54592  0.27721  Biso   1.000  N
  H497     1.0000 0.09132  0.50262  0.30460  Biso   1.000  H
  N71      1.0000 0.03633  0.54592  0.27721  Biso   1.000  N
  N72      1.0000 0.04590  0.72279  0.46369  Biso   1.000  N
  H498     1.0000 0.00260  0.69540  0.40870  Biso   1.000  H
  C429     1.0000 0.04190  0.18032  0.53979  Biso   1.000  C
  C430     1.0000 0.98971  0.23098  0.47162  Biso   1.000  C
  H499     1.0000 0.98001  0.23339  0.55329  Biso   1.000  H
  H500     1.0000 0.05331  0.52001  0.76661  Biso   1.000  H
  C431     1.0000 0.03981  0.45812  0.81972  Biso   1.000  C
  C432     1.0000 0.97160  0.51031  0.76902  Biso   1.000  C
  C433     1.0000 0.02840  0.51031  0.23098  Biso   1.000  C
  C434     1.0000 0.01029  0.76902  0.47162  Biso   1.000  C
  H501     1.0000 0.05331  0.18020  0.57692  Biso   1.000  H
  H502     1.0000 0.07370  0.17960  0.51740  Biso   1.000  H
  C435     1.0000 0.00801  0.13009  0.52870  Biso   1.000  C
  H503     1.0000 0.01999  0.23339  0.44671  Biso   1.000  H
  H504     1.0000 0.02003  0.23339  0.44671  Biso   1.000  H
  N73      1.0000 0.95410  0.27721  0.46369  Biso   1.000  N
  C436     1.0000 0.95810  0.18032  0.46021  Biso   1.000  C
  H505     1.0000 0.07690  0.44671  0.81980  Biso   1.000  H
  H506     1.0000 0.01738  0.42632  0.82040  Biso   1.000  H
  C437     1.0000 0.02872  0.49201  0.86991  Biso   1.000  C
  H507     1.0000 0.01742  0.42632  0.82040  Biso   1.000  H
  N74      1.0000 0.96371  0.54592  0.72279  Biso   1.000  N
  H508     1.0000 0.94669  0.47999  0.76661  Biso   1.000  H
  C438     1.0000 0.96019  0.54192  0.81972  Biso   1.000  C
  H509     1.0000 0.94673  0.47999  0.76661  Biso   1.000  H
  C439     1.0000 0.96023  0.54192  0.81972  Biso   1.000  C
  H510     1.0000 0.05331  0.47999  0.23339  Biso   1.000  H
  C440     1.0000 0.03981  0.54192  0.18032  Biso   1.000  C
  C441     1.0000 0.97160  0.48969  0.23098  Biso   1.000  C
  C442     1.0000 0.04190  0.81972  0.46021  Biso   1.000  C
  C443     1.0000 0.98971  0.76902  0.52842  Biso   1.000  C
  H511     1.0000 0.98001  0.76661  0.44671  Biso   1.000  H
  H512     1.0000 0.02852  0.09821  0.53671  Biso   1.000  H
  C444     1.0000 0.99199  0.13009  0.47130  Biso   1.000  C
  H513     1.0000 0.97629  0.13029  0.55121  Biso   1.000  H
  C445     1.0000 0.99203  0.13009  0.47130  Biso   1.000  C
  H514     1.0000 0.97633  0.13029  0.55121  Biso   1.000  H
  C446     1.0000 0.96571  0.30969  0.42760  Biso   1.000  C
  H515     1.0000 0.94669  0.18020  0.42312  Biso   1.000  H
  H516     1.0000 0.92630  0.17960  0.48260  Biso   1.000  H
  H517     1.0000 0.94673  0.18020  0.42312  Biso   1.000  H
  H518     1.0000 0.03669  0.47150  0.90183  Biso   1.000  H
  H519     1.0000 0.05119  0.52369  0.86971  Biso   1.000  H
  H520     1.0000 0.03673  0.47150  0.90183  Biso   1.000  H
  H521     1.0000 0.05123  0.52369  0.86971  Biso   1.000  H
  C447     1.0000 0.97128  0.50799  0.86991  Biso   1.000  C
  C448     1.0000 0.97132  0.50799  0.86991  Biso   1.000  C
  C449     1.0000 0.92758  0.53431  0.69031  Biso   1.000  C
  C450     1.0000 0.92762  0.53431  0.69031  Biso   1.000  C
  H522     1.0000 0.92310  0.55329  0.81980  Biso   1.000  H
  H523     1.0000 0.98262  0.57372  0.82040  Biso   1.000  H
  H524     1.0000 0.07690  0.55329  0.18020  Biso   1.000  H
  H525     1.0000 0.01738  0.57372  0.17960  Biso   1.000  H
  C451     1.0000 0.02872  0.50799  0.13009  Biso   1.000  C
  H526     1.0000 0.01742  0.57372  0.17960  Biso   1.000  H
  N75      1.0000 0.96371  0.45412  0.27721  Biso   1.000  N
  H527     1.0000 0.94669  0.52001  0.23339  Biso   1.000  H
  C452     1.0000 0.96019  0.45812  0.18032  Biso   1.000  C
  H528     1.0000 0.94673  0.52001  0.23339  Biso   1.000  H
  C453     1.0000 0.96023  0.45812  0.18032  Biso   1.000  C
  H529     1.0000 0.05331  0.81980  0.42312  Biso   1.000  H
  H530     1.0000 0.07370  0.82040  0.48260  Biso   1.000  H
  C454     1.0000 0.00801  0.86991  0.47130  Biso   1.000  C
  H531     1.0000 0.01999  0.76661  0.55329  Biso   1.000  H
  H532     1.0000 0.02003  0.76661  0.55329  Biso   1.000  H
  N76      1.0000 0.95410  0.72279  0.53631  Biso   1.000  N
  C455     1.0000 0.95810  0.81972  0.53979  Biso   1.000  C
  H533     1.0000 0.02371  0.13029  0.44879  Biso   1.000  H
  H534     1.0000 0.97148  0.09821  0.46329  Biso   1.000  H
  H535     1.0000 0.97152  0.09821  0.46329  Biso   1.000  H
  C456     1.0000 0.93159  0.35591  0.41351  Biso   1.000  C
  H536     1.0000 0.99740  0.30460  0.40870  Biso   1.000  H
  C457     1.0000 0.93163  0.35591  0.41351  Biso   1.000  C
  H537     1.0000 0.96331  0.52850  0.90183  Biso   1.000  H
  H538     1.0000 0.94881  0.47631  0.86971  Biso   1.000  H
  C458     1.0000 0.91349  0.56839  0.64409  Biso   1.000  C
  H539     1.0000 0.90868  0.50262  0.69540  Biso   1.000  H
  C459     1.0000 0.91353  0.56839  0.64409  Biso   1.000  C
  H540     1.0000 0.90872  0.50262  0.69540  Biso   1.000  H
  H541     1.0000 0.03669  0.52850  0.09821  Biso   1.000  H
  H542     1.0000 0.05119  0.47631  0.13029  Biso   1.000  H
  H543     1.0000 0.03673  0.52850  0.09821  Biso   1.000  H
  H544     1.0000 0.05123  0.47631  0.13029  Biso   1.000  H
  C460     1.0000 0.97128  0.49201  0.13009  Biso   1.000  C
  C461     1.0000 0.97132  0.49201  0.13009  Biso   1.000  C
  C462     1.0000 0.92758  0.46569  0.30969  Biso   1.000  C
  C463     1.0000 0.92762  0.46569  0.30969  Biso   1.000  C
  H545     1.0000 0.92310  0.44671  0.18020  Biso   1.000  H
  H546     1.0000 0.98262  0.42632  0.17960  Biso   1.000  H
  H547     1.0000 0.02852  0.90183  0.46329  Biso   1.000  H
  C464     1.0000 0.99199  0.86991  0.52870  Biso   1.000  C
  H548     1.0000 0.97629  0.86971  0.44879  Biso   1.000  H
  C465     1.0000 0.99203  0.86991  0.52870  Biso   1.000  C
  H549     1.0000 0.97633  0.86971  0.44879  Biso   1.000  H
  C466     1.0000 0.96571  0.69031  0.57240  Biso   1.000  C
  H550     1.0000 0.94669  0.81980  0.57692  Biso   1.000  H
  H551     1.0000 0.92630  0.82040  0.51740  Biso   1.000  H
  H552     1.0000 0.94673  0.81980  0.57692  Biso   1.000  H
  C467     1.0000 0.94449  0.38731  0.36949  Biso   1.000  C
  C468     1.0000 0.88729  0.36949  0.44451  Biso   1.000  C
  C469     1.0000 0.94453  0.38731  0.36949  Biso   1.000  C
  C470     1.0000 0.86951  0.55549  0.61269  Biso   1.000  C
  C471     1.0000 0.94449  0.61269  0.63051  Biso   1.000  C
  C472     1.0000 0.94453  0.61269  0.63051  Biso   1.000  C
  H553     1.0000 0.96331  0.47150  0.09821  Biso   1.000  H
  H554     1.0000 0.94881  0.52369  0.13029  Biso   1.000  H
  C473     1.0000 0.91349  0.43161  0.35591  Biso   1.000  C
  H555     1.0000 0.90868  0.49742  0.30460  Biso   1.000  H
  C474     1.0000 0.91353  0.43161  0.35591  Biso   1.000  C
  H556     1.0000 0.90872  0.49742  0.30460  Biso   1.000  H
  H557     1.0000 0.02371  0.86971  0.55121  Biso   1.000  H
  H558     1.0000 0.97148  0.90183  0.53671  Biso   1.000  H
  H559     1.0000 0.97152  0.90183  0.53671  Biso   1.000  H
  C475     1.0000 0.93159  0.64409  0.58649  Biso   1.000  C
  H560     1.0000 0.99740  0.69540  0.59130  Biso   1.000  H
  C476     1.0000 0.93163  0.64409  0.58649  Biso   1.000  C
  H561     1.0000 0.97429  0.37870  0.34890  Biso   1.000  H
  H562     1.0000 0.97433  0.37870  0.34890  Biso   1.000  H
  H563     1.0000 0.87868  0.34890  0.47431  Biso   1.000  H
  C477     1.0000 0.85589  0.41351  0.43161  Biso   1.000  C
  H564     1.0000 0.87872  0.34890  0.47431  Biso   1.000  H
  C478     1.0000 0.85593  0.41351  0.43161  Biso   1.000  C
  H565     1.0000 0.84888  0.52569  0.62130  Biso   1.000  H
  C479     1.0000 0.85589  0.58649  0.56839  Biso   1.000  C
  H566     1.0000 0.84892  0.52569  0.62130  Biso   1.000  H
  C480     1.0000 0.85593  0.58649  0.56839  Biso   1.000  C
  H567     1.0000 0.97429  0.62130  0.65110  Biso   1.000  H
  H568     1.0000 0.97433  0.62130  0.65110  Biso   1.000  H
  C481     1.0000 0.86951  0.44451  0.38731  Biso   1.000  C
  C482     1.0000 0.88729  0.63051  0.55549  Biso   1.000  C
  C483     1.0000 0.80971  0.42760  0.46569  Biso   1.000  C
  C484     1.0000 0.80971  0.57240  0.53431  Biso   1.000  C
  H569     1.0000 0.84888  0.47431  0.37870  Biso   1.000  H
  H570     1.0000 0.84892  0.47431  0.37870  Biso   1.000  H
  H571     1.0000 0.87868  0.65110  0.52569  Biso   1.000  H
  H572     1.0000 0.87872  0.65110  0.52569  Biso   1.000  H
  N77      1.0000 0.77719  0.46369  0.45412  Biso   1.000  N
  H573     1.0000 0.80458  0.40870  0.49742  Biso   1.000  H
  N78      1.0000 0.77723  0.46369  0.45412  Biso   1.000  N
  H574     1.0000 0.80462  0.40870  0.49742  Biso   1.000  H
  N79      1.0000 0.77719  0.53631  0.54592  Biso   1.000  N
  H575     1.0000 0.80458  0.59130  0.50262  Biso   1.000  H
  N80      1.0000 0.77723  0.53631  0.54592  Biso   1.000  N
  H576     1.0000 0.80462  0.59130  0.50262  Biso   1.000  H
  C485     1.0000 0.73100  0.47162  0.48969  Biso   1.000  C
  C486     1.0000 0.73100  0.52842  0.51031  Biso   1.000  C
  H577     1.0000 0.73341  0.44671  0.52001  Biso   1.000  H
  C487     1.0000 0.68030  0.46021  0.45812  Biso   1.000  C
  H578     1.0000 0.73341  0.55329  0.47999  Biso   1.000  H
  C488     1.0000 0.68030  0.53979  0.54192  Biso   1.000  C
  H579     1.0000 0.68018  0.42312  0.44671  Biso   1.000  H
  H580     1.0000 0.67958  0.48260  0.42632  Biso   1.000  H
  C489     1.0000 0.63011  0.47130  0.49201  Biso   1.000  C
  H581     1.0000 0.68022  0.42312  0.44671  Biso   1.000  H
  H582     1.0000 0.67962  0.48260  0.42632  Biso   1.000  H
  H583     1.0000 0.68018  0.57692  0.55329  Biso   1.000  H
  H584     1.0000 0.67958  0.51740  0.57372  Biso   1.000  H
  C490     1.0000 0.63011  0.52870  0.50799  Biso   1.000  C
  H585     1.0000 0.68022  0.57692  0.55329  Biso   1.000  H
  H586     1.0000 0.67962  0.51740  0.57372  Biso   1.000  H
  H587     1.0000 0.59819  0.46329  0.47150  Biso   1.000  H
  H588     1.0000 0.63031  0.44879  0.52369  Biso   1.000  H
  H589     1.0000 0.59819  0.53671  0.52850  Biso   1.000  H
  H590     1.0000 0.63031  0.55121  0.47631  Biso   1.000  H
  C491     1.0000 0.36993  0.47130  0.50799  Biso   1.000  C
  C492     1.0000 0.36989  0.52870  0.49201  Biso   1.000  C
  C493     1.0000 0.36993  0.52870  0.49201  Biso   1.000  C
  C494     1.0000 0.31970  0.46021  0.54192  Biso   1.000  C
  H591     1.0000 0.40181  0.46329  0.52850  Biso   1.000  H
  H592     1.0000 0.36969  0.44879  0.47631  Biso   1.000  H
  H593     1.0000 0.36973  0.44879  0.47631  Biso   1.000  H
  C495     1.0000 0.31970  0.53979  0.45812  Biso   1.000  C
  H594     1.0000 0.40181  0.53671  0.47150  Biso   1.000  H
  C496     1.0000 0.36989  0.47130  0.50799  Biso   1.000  C
  H595     1.0000 0.36969  0.55121  0.52369  Biso   1.000  H
  H596     1.0000 0.36973  0.55121  0.52369  Biso   1.000  H
  C497     1.0000 0.26900  0.47162  0.51031  Biso   1.000  C
  C498     1.0000 0.26904  0.47162  0.51031  Biso   1.000  C
  H597     1.0000 0.31982  0.42312  0.55329  Biso   1.000  H
  H598     1.0000 0.32042  0.48260  0.57372  Biso   1.000  H
  C499     1.0000 0.26900  0.52842  0.48969  Biso   1.000  C
  C500     1.0000 0.26904  0.52842  0.48969  Biso   1.000  C
  H599     1.0000 0.31982  0.57692  0.44671  Biso   1.000  H
  H600     1.0000 0.32042  0.51740  0.42632  Biso   1.000  H
  N81      1.0000 0.22281  0.46369  0.54592  Biso   1.000  N
  H601     1.0000 0.26659  0.44671  0.47999  Biso   1.000  H
  H602     1.0000 0.26663  0.44671  0.47999  Biso   1.000  H
  N82      1.0000 0.22281  0.53631  0.45412  Biso   1.000  N
  H603     1.0000 0.26659  0.55329  0.52001  Biso   1.000  H
  H604     1.0000 0.26663  0.55329  0.52001  Biso   1.000  H
  C501     1.0000 0.19029  0.42760  0.53431  Biso   1.000  C
  C502     1.0000 0.19033  0.42760  0.53431  Biso   1.000  C
  C503     1.0000 0.19029  0.57240  0.46569  Biso   1.000  C
  C504     1.0000 0.19033  0.57240  0.46569  Biso   1.000  C
  C505     1.0000 0.14411  0.41351  0.56839  Biso   1.000  C
  H605     1.0000 0.19542  0.40870  0.50262  Biso   1.000  H
  C506     1.0000 0.14411  0.58649  0.43161  Biso   1.000  C
  H606     1.0000 0.19542  0.59130  0.49742  Biso   1.000  H
  C507     1.0000 0.11271  0.36949  0.55549  Biso   1.000  C
  C508     1.0000 0.13049  0.44451  0.61269  Biso   1.000  C
  C509     1.0000 0.13053  0.44451  0.61269  Biso   1.000  C
  C510     1.0000 0.13049  0.55549  0.38731  Biso   1.000  C
  C511     1.0000 0.13053  0.55549  0.38731  Biso   1.000  C
  C512     1.0000 0.11271  0.63051  0.44451  Biso   1.000  C
  H607     1.0000 0.12132  0.34890  0.52569  Biso   1.000  H
  C513     1.0000 0.06841  0.35591  0.58649  Biso   1.000  C
  H608     1.0000 0.15112  0.47431  0.62130  Biso   1.000  H
  C514     1.0000 0.08651  0.43161  0.64409  Biso   1.000  C
  C515     1.0000 0.08651  0.56839  0.35591  Biso   1.000  C
  H609     1.0000 0.15112  0.52569  0.37870  Biso   1.000  H
  C516     1.0000 0.06841  0.64409  0.41351  Biso   1.000  C
  H610     1.0000 0.12132  0.65110  0.47431  Biso   1.000  H
  C517     1.0000 0.05551  0.38731  0.63051  Biso   1.000  C
  C518     1.0000 0.03429  0.30969  0.57240  Biso   1.000  C
  C519     1.0000 0.03433  0.30969  0.57240  Biso   1.000  C
  C520     1.0000 0.07242  0.46569  0.69031  Biso   1.000  C
  C521     1.0000 0.07242  0.53431  0.30969  Biso   1.000  C
  C522     1.0000 0.05551  0.61269  0.36949  Biso   1.000  C
  C523     1.0000 0.03429  0.69031  0.42760  Biso   1.000  C
  C524     1.0000 0.03433  0.69031  0.42760  Biso   1.000  C
  H611     1.0000 0.02571  0.37870  0.65110  Biso   1.000  H
  N83      1.0000 0.04590  0.27721  0.53631  Biso   1.000  N
  H612     1.0000 0.00260  0.30460  0.59130  Biso   1.000  H
  H613     1.0000 0.09132  0.49742  0.69540  Biso   1.000  H
  N84      1.0000 0.03629  0.45412  0.72279  Biso   1.000  N
  N85      1.0000 0.03633  0.45412  0.72279  Biso   1.000  N
  H614     1.0000 0.09132  0.50262  0.30460  Biso   1.000  H
  N86      1.0000 0.03629  0.54592  0.27721  Biso   1.000  N
  N87      1.0000 0.03633  0.54592  0.27721  Biso   1.000  N
  H615     1.0000 0.02571  0.62130  0.34890  Biso   1.000  H
  N88      1.0000 0.04590  0.72279  0.46369  Biso   1.000  N
  H616     1.0000 0.00260  0.69540  0.40870  Biso   1.000  H
  C525     1.0000 0.01029  0.23098  0.52842  Biso   1.000  C
  C526     1.0000 0.02840  0.48969  0.76902  Biso   1.000  C
  C527     1.0000 0.02840  0.51031  0.23098  Biso   1.000  C
  C528     1.0000 0.01029  0.76902  0.47162  Biso   1.000  C
  C529     1.0000 0.98971  0.23098  0.47162  Biso   1.000  C
  C530     1.0000 0.04190  0.18032  0.53979  Biso   1.000  C
  H617     1.0000 0.98001  0.23339  0.55329  Biso   1.000  H
  C531     1.0000 0.97160  0.51031  0.76902  Biso   1.000  C
  H618     1.0000 0.05331  0.52001  0.76661  Biso   1.000  H
  C532     1.0000 0.03981  0.45812  0.81972  Biso   1.000  C
  H619     1.0000 0.05331  0.47999  0.23339  Biso   1.000  H
  C533     1.0000 0.03981  0.54192  0.18032  Biso   1.000  C
  C534     1.0000 0.97160  0.48969  0.23098  Biso   1.000  C
  C535     1.0000 0.04190  0.81972  0.46021  Biso   1.000  C
  C536     1.0000 0.98971  0.76902  0.52842  Biso   1.000  C
  H620     1.0000 0.98001  0.76661  0.44671  Biso   1.000  H
  N89      1.0000 0.95410  0.27721  0.46369  Biso   1.000  N
  C537     1.0000 0.95810  0.18032  0.46021  Biso   1.000  C
  H621     1.0000 0.01999  0.23339  0.44671  Biso   1.000  H
  H622     1.0000 0.02003  0.23339  0.44671  Biso   1.000  H
  H623     1.0000 0.05331  0.18020  0.57692  Biso   1.000  H
  H624     1.0000 0.07370  0.17960  0.51740  Biso   1.000  H
  C538     1.0000 0.00801  0.13009  0.52870  Biso   1.000  C
  N90      1.0000 0.96371  0.54592  0.72279  Biso   1.000  N
  H625     1.0000 0.94669  0.47999  0.76661  Biso   1.000  H
  C539     1.0000 0.96019  0.54192  0.81972  Biso   1.000  C
  H626     1.0000 0.94673  0.47999  0.76661  Biso   1.000  H
  C540     1.0000 0.96023  0.54192  0.81972  Biso   1.000  C
  H627     1.0000 0.07690  0.44671  0.81980  Biso   1.000  H
  C541     1.0000 0.02872  0.49201  0.86991  Biso   1.000  C
  H628     1.0000 0.01738  0.42632  0.82040  Biso   1.000  H
  H629     1.0000 0.01742  0.42632  0.82040  Biso   1.000  H
  H630     1.0000 0.07690  0.55329  0.18020  Biso   1.000  H
  C542     1.0000 0.02872  0.50799  0.13009  Biso   1.000  C
  H631     1.0000 0.01738  0.57372  0.17960  Biso   1.000  H
  H632     1.0000 0.01742  0.57372  0.17960  Biso   1.000  H
  N91      1.0000 0.96371  0.45412  0.27721  Biso   1.000  N
  H633     1.0000 0.94669  0.52001  0.23339  Biso   1.000  H
  C543     1.0000 0.96019  0.45812  0.18032  Biso   1.000  C
  H634     1.0000 0.94673  0.52001  0.23339  Biso   1.000  H
  C544     1.0000 0.96023  0.45812  0.18032  Biso   1.000  C
  H635     1.0000 0.05331  0.81980  0.42312  Biso   1.000  H
  H636     1.0000 0.07370  0.82040  0.48260  Biso   1.000  H
  C545     1.0000 0.00801  0.86991  0.47130  Biso   1.000  C
  N92      1.0000 0.95410  0.72279  0.53631  Biso   1.000  N
  C546     1.0000 0.95810  0.81972  0.53979  Biso   1.000  C
  H637     1.0000 0.01999  0.76661  0.55329  Biso   1.000  H
  H638     1.0000 0.02003  0.76661  0.55329  Biso   1.000  H
  C547     1.0000 0.96571  0.30969  0.42760  Biso   1.000  C
  H639     1.0000 0.94669  0.18020  0.42312  Biso   1.000  H
  H640     1.0000 0.92630  0.17960  0.48260  Biso   1.000  H
  C548     1.0000 0.99199  0.13009  0.47130  Biso   1.000  C
  H641     1.0000 0.94673  0.18020  0.42312  Biso   1.000  H
  C549     1.0000 0.99203  0.13009  0.47130  Biso   1.000  C
  H642     1.0000 0.02852  0.09821  0.53671  Biso   1.000  H
  H643     1.0000 0.97629  0.13029  0.55121  Biso   1.000  H
  H644     1.0000 0.97633  0.13029  0.55121  Biso   1.000  H
  C550     1.0000 0.92758  0.53431  0.69031  Biso   1.000  C
  C551     1.0000 0.92762  0.53431  0.69031  Biso   1.000  C
  H645     1.0000 0.92310  0.55329  0.81980  Biso   1.000  H
  H646     1.0000 0.98262  0.57372  0.82040  Biso   1.000  H
  C552     1.0000 0.97128  0.50799  0.86991  Biso   1.000  C
  C553     1.0000 0.97132  0.50799  0.86991  Biso   1.000  C
  H647     1.0000 0.03669  0.47150  0.90183  Biso   1.000  H
  H648     1.0000 0.05119  0.52369  0.86971  Biso   1.000  H
  H649     1.0000 0.03673  0.47150  0.90183  Biso   1.000  H
  H650     1.0000 0.05123  0.52369  0.86971  Biso   1.000  H
  C554     1.0000 0.97128  0.49201  0.13009  Biso   1.000  C
  C555     1.0000 0.97132  0.49201  0.13009  Biso   1.000  C
  H651     1.0000 0.03669  0.52850  0.09821  Biso   1.000  H
  H652     1.0000 0.05119  0.47631  0.13029  Biso   1.000  H
  H653     1.0000 0.03673  0.52850  0.09821  Biso   1.000  H
  H654     1.0000 0.05123  0.47631  0.13029  Biso   1.000  H
  C556     1.0000 0.92758  0.46569  0.30969  Biso   1.000  C
  C557     1.0000 0.92762  0.46569  0.30969  Biso   1.000  C
  H655     1.0000 0.92310  0.44671  0.18020  Biso   1.000  H
  H656     1.0000 0.98262  0.42632  0.17960  Biso   1.000  H
  H657     1.0000 0.02852  0.90183  0.46329  Biso   1.000  H
  C558     1.0000 0.99199  0.86991  0.52870  Biso   1.000  C
  H658     1.0000 0.97629  0.86971  0.44879  Biso   1.000  H
  C559     1.0000 0.99203  0.86991  0.52870  Biso   1.000  C
  H659     1.0000 0.97633  0.86971  0.44879  Biso   1.000  H
  C560     1.0000 0.96571  0.69031  0.57240  Biso   1.000  C
  H660     1.0000 0.94669  0.81980  0.57692  Biso   1.000  H
  H661     1.0000 0.92630  0.82040  0.51740  Biso   1.000  H
  H662     1.0000 0.94673  0.81980  0.57692  Biso   1.000  H
  C561     1.0000 0.93159  0.35591  0.41351  Biso   1.000  C
  C562     1.0000 0.93163  0.35591  0.41351  Biso   1.000  C
  H663     1.0000 0.99740  0.30460  0.40870  Biso   1.000  H
  H664     1.0000 0.02371  0.13029  0.44879  Biso   1.000  H
  H665     1.0000 0.97148  0.09821  0.46329  Biso   1.000  H
  H666     1.0000 0.97152  0.09821  0.46329  Biso   1.000  H
  C563     1.0000 0.91349  0.56839  0.64409  Biso   1.000  C
  C564     1.0000 0.91353  0.56839  0.64409  Biso   1.000  C
  H667     1.0000 0.90868  0.50262  0.69540  Biso   1.000  H
  H668     1.0000 0.90872  0.50262  0.69540  Biso   1.000  H
  H669     1.0000 0.96331  0.52850  0.90183  Biso   1.000  H
  H670     1.0000 0.94881  0.47631  0.86971  Biso   1.000  H
  H671     1.0000 0.96331  0.47150  0.09821  Biso   1.000  H
  H672     1.0000 0.94881  0.52369  0.13029  Biso   1.000  H
  C565     1.0000 0.91349  0.43161  0.35591  Biso   1.000  C
  H673     1.0000 0.90868  0.49742  0.30460  Biso   1.000  H
  C566     1.0000 0.91353  0.43161  0.35591  Biso   1.000  C
  H674     1.0000 0.90872  0.49742  0.30460  Biso   1.000  H
  H675     1.0000 0.02371  0.86971  0.55121  Biso   1.000  H
  H676     1.0000 0.97148  0.90183  0.53671  Biso   1.000  H
  H677     1.0000 0.97152  0.90183  0.53671  Biso   1.000  H
  C567     1.0000 0.93159  0.64409  0.58649  Biso   1.000  C
  H678     1.0000 0.99740  0.69540  0.59130  Biso   1.000  H
  C568     1.0000 0.93163  0.64409  0.58649  Biso   1.000  C
  C569     1.0000 0.94449  0.38731  0.36949  Biso   1.000  C
  C570     1.0000 0.94453  0.38731  0.36949  Biso   1.000  C
  C571     1.0000 0.88729  0.36949  0.44451  Biso   1.000  C
  C572     1.0000 0.94449  0.61269  0.63051  Biso   1.000  C
  C573     1.0000 0.94453  0.61269  0.63051  Biso   1.000  C
  C574     1.0000 0.86951  0.55549  0.61269  Biso   1.000  C
  C575     1.0000 0.86951  0.44451  0.38731  Biso   1.000  C
  C576     1.0000 0.88729  0.63051  0.55549  Biso   1.000  C
  H679     1.0000 0.97429  0.37870  0.34890  Biso   1.000  H
  H680     1.0000 0.97433  0.37870  0.34890  Biso   1.000  H
  C577     1.0000 0.85589  0.41351  0.43161  Biso   1.000  C
  C578     1.0000 0.85593  0.41351  0.43161  Biso   1.000  C
  H681     1.0000 0.87868  0.34890  0.47431  Biso   1.000  H
  H682     1.0000 0.87872  0.34890  0.47431  Biso   1.000  H
  H683     1.0000 0.97429  0.62130  0.65110  Biso   1.000  H
  H684     1.0000 0.97433  0.62130  0.65110  Biso   1.000  H
  C579     1.0000 0.85589  0.58649  0.56839  Biso   1.000  C
  C580     1.0000 0.85593  0.58649  0.56839  Biso   1.000  C
  H685     1.0000 0.84888  0.52569  0.62130  Biso   1.000  H
  H686     1.0000 0.84892  0.52569  0.62130  Biso   1.000  H
  H687     1.0000 0.84888  0.47431  0.37870  Biso   1.000  H
  H688     1.0000 0.84892  0.47431  0.37870  Biso   1.000  H
  H689     1.0000 0.87868  0.65110  0.52569  Biso   1.000  H
  H690     1.0000 0.87872  0.65110  0.52569  Biso   1.000  H
  C581     1.0000 0.80971  0.42760  0.46569  Biso   1.000  C
  C582     1.0000 0.80971  0.57240  0.53431  Biso   1.000  C
  N93      1.0000 0.77719  0.46369  0.45412  Biso   1.000  N
  H691     1.0000 0.80458  0.40870  0.49742  Biso   1.000  H
  N94      1.0000 0.77723  0.46369  0.45412  Biso   1.000  N
  H692     1.0000 0.80462  0.40870  0.49742  Biso   1.000  H
  N95      1.0000 0.77719  0.53631  0.54592  Biso   1.000  N
  N96      1.0000 0.77723  0.53631  0.54592  Biso   1.000  N
  H693     1.0000 0.80458  0.59130  0.50262  Biso   1.000  H
  H694     1.0000 0.80462  0.59130  0.50262  Biso   1.000  H
  C583     1.0000 0.73100  0.47162  0.48969  Biso   1.000  C
  C584     1.0000 0.73100  0.52842  0.51031  Biso   1.000  C
  H695     1.0000 0.73341  0.44671  0.52001  Biso   1.000  H
  C585     1.0000 0.68030  0.46021  0.45812  Biso   1.000  C
  H696     1.0000 0.73341  0.55329  0.47999  Biso   1.000  H
  C586     1.0000 0.68030  0.53979  0.54192  Biso   1.000  C
  H697     1.0000 0.68018  0.42312  0.44671  Biso   1.000  H
  H698     1.0000 0.67958  0.48260  0.42632  Biso   1.000  H
  C587     1.0000 0.63011  0.47130  0.49201  Biso   1.000  C
  H699     1.0000 0.68022  0.42312  0.44671  Biso   1.000  H
  H700     1.0000 0.67962  0.48260  0.42632  Biso   1.000  H
  H701     1.0000 0.68018  0.57692  0.55329  Biso   1.000  H
  H702     1.0000 0.67958  0.51740  0.57372  Biso   1.000  H
  C588     1.0000 0.63011  0.52870  0.50799  Biso   1.000  C
  H703     1.0000 0.68022  0.57692  0.55329  Biso   1.000  H
  H704     1.0000 0.67962  0.51740  0.57372  Biso   1.000  H
  H705     1.0000 0.59819  0.46329  0.47150  Biso   1.000  H
  H706     1.0000 0.63031  0.44879  0.52369  Biso   1.000  H
  H707     1.0000 0.59819  0.53671  0.52850  Biso   1.000  H
  H708     1.0000 0.63031  0.55121  0.47631  Biso   1.000  H
  C589     1.0000 0.39412  0.31842  0.33648  Biso   1.000  C
  C590     1.0000 0.36272  0.30552  0.38050  Biso   1.000  C
  C591     1.0000 0.38050  0.36272  0.30552  Biso   1.000  C
  C592     1.0000 0.44030  0.28430  0.32239  Biso   1.000  C
  H709     1.0000 0.37129  0.27568  0.40109  Biso   1.000  H
  C593     1.0000 0.31842  0.33648  0.39412  Biso   1.000  C
  H710     1.0000 0.40109  0.37129  0.27568  Biso   1.000  H
  C594     1.0000 0.33648  0.39412  0.31842  Biso   1.000  C
  N97      1.0000 0.47282  0.29591  0.28630  Biso   1.000  N
  H711     1.0000 0.44539  0.25261  0.34129  Biso   1.000  H
  C595     1.0000 0.30552  0.38050  0.36272  Biso   1.000  C
  C596     1.0000 0.28430  0.32239  0.44030  Biso   1.000  C
  C597     1.0000 0.32239  0.44030  0.28430  Biso   1.000  C
  C598     1.0000 0.51901  0.26030  0.27841  Biso   1.000  C
  H712     1.0000 0.27568  0.40109  0.37129  Biso   1.000  H
  N98      1.0000 0.29591  0.28630  0.47282  Biso   1.000  N
  H713     1.0000 0.25261  0.34129  0.44539  Biso   1.000  H
  N99      1.0000 0.28630  0.47282  0.29591  Biso   1.000  N
  H714     1.0000 0.34129  0.44539  0.25261  Biso   1.000  H
  C599     1.0000 0.51901  0.23972  0.22161  Biso   1.000  C
  H715     1.0000 0.51660  0.22998  0.30332  Biso   1.000  H
  C600     1.0000 0.56971  0.29191  0.28982  Biso   1.000  C
  C601     1.0000 0.26030  0.27841  0.51901  Biso   1.000  C
  C602     1.0000 0.27841  0.51901  0.26030  Biso   1.000  C
  N100     1.0000 0.47282  0.20411  0.21372  Biso   1.000  N
  H716     1.0000 0.51660  0.27000  0.19670  Biso   1.000  H
  C603     1.0000 0.56971  0.20811  0.21020  Biso   1.000  C
  H717     1.0000 0.56979  0.30332  0.32691  Biso   1.000  H
  H718     1.0000 0.57039  0.32371  0.26739  Biso   1.000  H
  C604     1.0000 0.61990  0.25802  0.27869  Biso   1.000  C
  C605     1.0000 0.23972  0.22161  0.51901  Biso   1.000  C
  H719     1.0000 0.22998  0.30332  0.51660  Biso   1.000  H
  C606     1.0000 0.29191  0.28982  0.56971  Biso   1.000  C
  C607     1.0000 0.22161  0.51901  0.23972  Biso   1.000  C
  H720     1.0000 0.30332  0.51660  0.22998  Biso   1.000  H
  C608     1.0000 0.28982  0.56971  0.29191  Biso   1.000  C
  C609     1.0000 0.44030  0.21568  0.17759  Biso   1.000  C
  H721     1.0000 0.56979  0.19670  0.17311  Biso   1.000  H
  H722     1.0000 0.57039  0.17631  0.23259  Biso   1.000  H
  C610     1.0000 0.61990  0.24200  0.22129  Biso   1.000  C
  H723     1.0000 0.65182  0.27849  0.28670  Biso   1.000  H
  H724     1.0000 0.61970  0.22630  0.30120  Biso   1.000  H
  N101     1.0000 0.20411  0.21372  0.47282  Biso   1.000  N
  H725     1.0000 0.27000  0.19670  0.51660  Biso   1.000  H
  C611     1.0000 0.20811  0.21020  0.56971  Biso   1.000  C
  H726     1.0000 0.30332  0.32691  0.56979  Biso   1.000  H
  H727     1.0000 0.32371  0.26739  0.57039  Biso   1.000  H
  C612     1.0000 0.25802  0.27869  0.61990  Biso   1.000  C
  N102     1.0000 0.21372  0.47282  0.20411  Biso   1.000  N
  H728     1.0000 0.19670  0.51660  0.27000  Biso   1.000  H
  C613     1.0000 0.21020  0.56971  0.20811  Biso   1.000  C
  H729     1.0000 0.32691  0.56979  0.30332  Biso   1.000  H
  H730     1.0000 0.26739  0.57039  0.32371  Biso   1.000  H
  C614     1.0000 0.27869  0.61990  0.25802  Biso   1.000  C
  C615     1.0000 0.39412  0.18160  0.16350  Biso   1.000  C
  H731     1.0000 0.44539  0.24741  0.15869  Biso   1.000  H
  H732     1.0000 0.65182  0.22149  0.21332  Biso   1.000  H
  H733     1.0000 0.61970  0.27372  0.19878  Biso   1.000  H
  C616     1.0000 0.21568  0.17759  0.44030  Biso   1.000  C
  H734     1.0000 0.19670  0.17311  0.56979  Biso   1.000  H
  H735     1.0000 0.17631  0.23259  0.57039  Biso   1.000  H
  C617     1.0000 0.24200  0.22129  0.61990  Biso   1.000  C
  H736     1.0000 0.27849  0.28670  0.65182  Biso   1.000  H
  H737     1.0000 0.22630  0.30120  0.61970  Biso   1.000  H
  C618     1.0000 0.17759  0.44030  0.21568  Biso   1.000  C
  H738     1.0000 0.17311  0.56979  0.19670  Biso   1.000  H
  H739     1.0000 0.23259  0.57039  0.17631  Biso   1.000  H
  C619     1.0000 0.22129  0.61990  0.24200  Biso   1.000  C
  H740     1.0000 0.28670  0.65182  0.27849  Biso   1.000  H
  H741     1.0000 0.30120  0.61970  0.22630  Biso   1.000  H
  C620     1.0000 0.38050  0.13730  0.19450  Biso   1.000  C
  C621     1.0000 0.36272  0.19450  0.11952  Biso   1.000  C
  C622     1.0000 0.18160  0.16350  0.39412  Biso   1.000  C
  H742     1.0000 0.24741  0.15869  0.44539  Biso   1.000  H
  H743     1.0000 0.22149  0.21332  0.65182  Biso   1.000  H
  H744     1.0000 0.27372  0.19878  0.61970  Biso   1.000  H
  C623     1.0000 0.16350  0.39412  0.18160  Biso   1.000  C
  H745     1.0000 0.15869  0.44539  0.24741  Biso   1.000  H
  H746     1.0000 0.21332  0.65182  0.22149  Biso   1.000  H
  H747     1.0000 0.19878  0.61970  0.27372  Biso   1.000  H
  H748     1.0000 0.40109  0.12869  0.22430  Biso   1.000  H
  C624     1.0000 0.33648  0.10590  0.18160  Biso   1.000  C
  H749     1.0000 0.37129  0.22430  0.09889  Biso   1.000  H
  C625     1.0000 0.31842  0.16350  0.10590  Biso   1.000  C
  C626     1.0000 0.13730  0.19450  0.38050  Biso   1.000  C
  C627     1.0000 0.19450  0.11952  0.36272  Biso   1.000  C
  C628     1.0000 0.11952  0.36272  0.19450  Biso   1.000  C
  C629     1.0000 0.19450  0.38050  0.13730  Biso   1.000  C
  C630     1.0000 0.30552  0.11952  0.13730  Biso   1.000  C
  C631     1.0000 0.32239  0.05972  0.21568  Biso   1.000  C
  C632     1.0000 0.28430  0.17759  0.05972  Biso   1.000  C
  H750     1.0000 0.12869  0.22430  0.40109  Biso   1.000  H
  C633     1.0000 0.10590  0.18160  0.33648  Biso   1.000  C
  H751     1.0000 0.22430  0.09889  0.37129  Biso   1.000  H
  C634     1.0000 0.16350  0.10590  0.31842  Biso   1.000  C
  H752     1.0000 0.09889  0.37129  0.22430  Biso   1.000  H
  C635     1.0000 0.10590  0.31842  0.16350  Biso   1.000  C
  H753     1.0000 0.22430  0.40109  0.12869  Biso   1.000  H
  C636     1.0000 0.18160  0.33648  0.10590  Biso   1.000  C
  H754     1.0000 0.27568  0.09889  0.12869  Biso   1.000  H
  N103     1.0000 0.28630  0.02720  0.20411  Biso   1.000  N
  H755     1.0000 0.34129  0.05459  0.24741  Biso   1.000  H
  N104     1.0000 0.29591  0.21372  0.02720  Biso   1.000  N
  H756     1.0000 0.25261  0.15869  0.05459  Biso   1.000  H
  C637     1.0000 0.11952  0.13730  0.30552  Biso   1.000  C
  C638     1.0000 0.05972  0.21568  0.32239  Biso   1.000  C
  C639     1.0000 0.17759  0.05972  0.28430  Biso   1.000  C
  C640     1.0000 0.13730  0.30552  0.11952  Biso   1.000  C
  C641     1.0000 0.05972  0.28430  0.17759  Biso   1.000  C
  C642     1.0000 0.21568  0.32239  0.05972  Biso   1.000  C
  C643     1.0000 0.27841  0.98101  0.23972  Biso   1.000  C
  C644     1.0000 0.26030  0.22161  0.98101  Biso   1.000  C
  H757     1.0000 0.09889  0.12869  0.27568  Biso   1.000  H
  N105     1.0000 0.02720  0.20411  0.28630  Biso   1.000  N
  H758     1.0000 0.05459  0.24741  0.34129  Biso   1.000  H
  N106     1.0000 0.21372  0.02720  0.29591  Biso   1.000  N
  H759     1.0000 0.15869  0.05459  0.25261  Biso   1.000  H
  H760     1.0000 0.12869  0.27568  0.09889  Biso   1.000  H
  N107     1.0000 0.02720  0.29591  0.21372  Biso   1.000  N
  H761     1.0000 0.05459  0.25261  0.15869  Biso   1.000  H
  N108     1.0000 0.20411  0.28630  0.02720  Biso   1.000  N
  H762     1.0000 0.24741  0.34129  0.05459  Biso   1.000  H
  C645     1.0000 0.22161  0.98101  0.26030  Biso   1.000  C
  H763     1.0000 0.30332  0.98342  0.27000  Biso   1.000  H
  C646     1.0000 0.28982  0.93031  0.20811  Biso   1.000  C
  C647     1.0000 0.23972  0.27841  0.98101  Biso   1.000  C
  H764     1.0000 0.22998  0.19670  0.98342  Biso   1.000  H
  C648     1.0000 0.29191  0.21020  0.93031  Biso   1.000  C
  C649     1.0000 0.98101  0.23972  0.27841  Biso   1.000  C
  C650     1.0000 0.98101  0.26030  0.22161  Biso   1.000  C
  H765     1.0000 0.19670  0.98342  0.22998  Biso   1.000  H
  C651     1.0000 0.21020  0.93031  0.29191  Biso   1.000  C
  H766     1.0000 0.32691  0.93019  0.19670  Biso   1.000  H
  H767     1.0000 0.26739  0.92959  0.17631  Biso   1.000  H
  C652     1.0000 0.27869  0.88008  0.24200  Biso   1.000  C
  H768     1.0000 0.27000  0.30332  0.98342  Biso   1.000  H
  C653     1.0000 0.20811  0.28982  0.93031  Biso   1.000  C
  H769     1.0000 0.30332  0.17311  0.93019  Biso   1.000  H
  H770     1.0000 0.32371  0.23259  0.92959  Biso   1.000  H
  C654     1.0000 0.25802  0.22129  0.88008  Biso   1.000  C
  H771     1.0000 0.98342  0.27000  0.30332  Biso   1.000  H
  C655     1.0000 0.93031  0.20811  0.28982  Biso   1.000  C
  H772     1.0000 0.98342  0.22998  0.19670  Biso   1.000  H
  C656     1.0000 0.93031  0.29191  0.21020  Biso   1.000  C
  H773     1.0000 0.17311  0.93019  0.30332  Biso   1.000  H
  H774     1.0000 0.23259  0.92959  0.32371  Biso   1.000  H
  C657     1.0000 0.22129  0.88008  0.25802  Biso   1.000  C
  H775     1.0000 0.28670  0.84820  0.22149  Biso   1.000  H
  H776     1.0000 0.30120  0.88028  0.27372  Biso   1.000  H
  H777     1.0000 0.19670  0.32691  0.93019  Biso   1.000  H
  H778     1.0000 0.17631  0.26739  0.92959  Biso   1.000  H
  C658     1.0000 0.24200  0.27869  0.88008  Biso   1.000  C
  H779     1.0000 0.27849  0.21332  0.84820  Biso   1.000  H
  H780     1.0000 0.22630  0.19878  0.88028  Biso   1.000  H
  H781     1.0000 0.93019  0.19670  0.32691  Biso   1.000  H
  H782     1.0000 0.92959  0.17631  0.26739  Biso   1.000  H
  C659     1.0000 0.88008  0.24200  0.27869  Biso   1.000  C
  H783     1.0000 0.93019  0.30332  0.17311  Biso   1.000  H
  H784     1.0000 0.92959  0.32371  0.23259  Biso   1.000  H
  C660     1.0000 0.88008  0.25802  0.22129  Biso   1.000  C
  H785     1.0000 0.21332  0.84820  0.27849  Biso   1.000  H
  H786     1.0000 0.19878  0.88028  0.22630  Biso   1.000  H
  H787     1.0000 0.22149  0.28670  0.84820  Biso   1.000  H
  H788     1.0000 0.27372  0.30120  0.88028  Biso   1.000  H
  H789     1.0000 0.84820  0.22149  0.28670  Biso   1.000  H
  H790     1.0000 0.88028  0.27372  0.30120  Biso   1.000  H
  H791     1.0000 0.84820  0.27849  0.21332  Biso   1.000  H
  H792     1.0000 0.88028  0.22630  0.19878  Biso   1.000  H
  C661     1.0000 0.63732  0.30552  0.61950  Biso   1.000  C
  C662     1.0000 0.68162  0.33648  0.60592  Biso   1.000  C
  C663     1.0000 0.60592  0.31842  0.66352  Biso   1.000  C
  H793     1.0000 0.62871  0.27568  0.59891  Biso   1.000  H
  C664     1.0000 0.71570  0.32239  0.55970  Biso   1.000  C
  C665     1.0000 0.69452  0.38050  0.63732  Biso   1.000  C
  C666     1.0000 0.61950  0.36272  0.69452  Biso   1.000  C
  C667     1.0000 0.55970  0.28430  0.67761  Biso   1.000  C
  N109     1.0000 0.70409  0.28630  0.52722  Biso   1.000  N
  H794     1.0000 0.74743  0.34129  0.55461  Biso   1.000  H
  H795     1.0000 0.72432  0.40109  0.62871  Biso   1.000  H
  C668     1.0000 0.66352  0.39412  0.68162  Biso   1.000  C
  H796     1.0000 0.59891  0.37129  0.72432  Biso   1.000  H
  N110     1.0000 0.52722  0.29591  0.71370  Biso   1.000  N
  H797     1.0000 0.55461  0.25261  0.65871  Biso   1.000  H
  C669     1.0000 0.73970  0.27841  0.48099  Biso   1.000  C
  C670     1.0000 0.67761  0.44030  0.71570  Biso   1.000  C
  C671     1.0000 0.48099  0.26030  0.72159  Biso   1.000  C
  C672     1.0000 0.70809  0.28982  0.43029  Biso   1.000  C
  C673     1.0000 0.76032  0.22161  0.48099  Biso   1.000  C
  H798     1.0000 0.77002  0.30332  0.48340  Biso   1.000  H
  N111     1.0000 0.71370  0.47282  0.70409  Biso   1.000  N
  H799     1.0000 0.65871  0.44539  0.74743  Biso   1.000  H
  H800     1.0000 0.48340  0.22998  0.69672  Biso   1.000  H
  C674     1.0000 0.43029  0.29191  0.71022  Biso   1.000  C
  C675     1.0000 0.48099  0.23972  0.77843  Biso   1.000  C
  H801     1.0000 0.69672  0.32691  0.43021  Biso   1.000  H
  H802     1.0000 0.67629  0.26739  0.42961  Biso   1.000  H
  C676     1.0000 0.74202  0.27869  0.38010  Biso   1.000  C
  N112     1.0000 0.79589  0.21372  0.52722  Biso   1.000  N
  H803     1.0000 0.73000  0.19670  0.48340  Biso   1.000  H
  C677     1.0000 0.79193  0.21020  0.43029  Biso   1.000  C
  C678     1.0000 0.72159  0.51901  0.73970  Biso   1.000  C
  H804     1.0000 0.43021  0.30332  0.67309  Biso   1.000  H
  H805     1.0000 0.42961  0.32371  0.73261  Biso   1.000  H
  C679     1.0000 0.38010  0.25802  0.72131  Biso   1.000  C
  N113     1.0000 0.52722  0.20411  0.78632  Biso   1.000  N
  H806     1.0000 0.48340  0.27000  0.80330  Biso   1.000  H
  C680     1.0000 0.43029  0.20811  0.78980  Biso   1.000  C
  C681     1.0000 0.75800  0.22129  0.38010  Biso   1.000  C
  H807     1.0000 0.72151  0.28670  0.34822  Biso   1.000  H
  H808     1.0000 0.77370  0.30120  0.38030  Biso   1.000  H
  C682     1.0000 0.78432  0.17759  0.55970  Biso   1.000  C
  H809     1.0000 0.80330  0.17311  0.43021  Biso   1.000  H
  H810     1.0000 0.82373  0.23259  0.42961  Biso   1.000  H
  C683     1.0000 0.77843  0.51901  0.76032  Biso   1.000  C
  H811     1.0000 0.69672  0.51660  0.77002  Biso   1.000  H
  C684     1.0000 0.71022  0.56971  0.70809  Biso   1.000  C
  H812     1.0000 0.34822  0.27849  0.71330  Biso   1.000  H
  H813     1.0000 0.38030  0.22630  0.69880  Biso   1.000  H
  C685     1.0000 0.38010  0.24200  0.77871  Biso   1.000  C
  C686     1.0000 0.55970  0.21568  0.82241  Biso   1.000  C
  H814     1.0000 0.43021  0.19670  0.82689  Biso   1.000  H
  H815     1.0000 0.42961  0.17631  0.76741  Biso   1.000  H
  H816     1.0000 0.77851  0.21332  0.34822  Biso   1.000  H
  H817     1.0000 0.72632  0.19878  0.38030  Biso   1.000  H
  C687     1.0000 0.81840  0.16350  0.60592  Biso   1.000  C
  H818     1.0000 0.75259  0.15869  0.55461  Biso   1.000  H
  N114     1.0000 0.78632  0.47282  0.79589  Biso   1.000  N
  H819     1.0000 0.80330  0.51660  0.73000  Biso   1.000  H
  C688     1.0000 0.78980  0.56971  0.79193  Biso   1.000  C
  H820     1.0000 0.67309  0.56979  0.69672  Biso   1.000  H
  H821     1.0000 0.73261  0.57039  0.67629  Biso   1.000  H
  C689     1.0000 0.72131  0.61990  0.74202  Biso   1.000  C
  H822     1.0000 0.34822  0.22149  0.78672  Biso   1.000  H
  H823     1.0000 0.38030  0.27372  0.80122  Biso   1.000  H
  C690     1.0000 0.60592  0.18160  0.83650  Biso   1.000  C
  H824     1.0000 0.55461  0.24741  0.84131  Biso   1.000  H
  C691     1.0000 0.86270  0.19450  0.61950  Biso   1.000  C
  C692     1.0000 0.80550  0.11952  0.63732  Biso   1.000  C
  C693     1.0000 0.82241  0.44030  0.78432  Biso   1.000  C
  H825     1.0000 0.82689  0.56979  0.80330  Biso   1.000  H
  H826     1.0000 0.76741  0.57039  0.82373  Biso   1.000  H
  C694     1.0000 0.77871  0.61990  0.75800  Biso   1.000  C
  H827     1.0000 0.71330  0.65182  0.72151  Biso   1.000  H
  H828     1.0000 0.69880  0.61970  0.77370  Biso   1.000  H
  C695     1.0000 0.63732  0.19450  0.88052  Biso   1.000  C
  C696     1.0000 0.61950  0.13730  0.80550  Biso   1.000  C
  H829     1.0000 0.87131  0.22430  0.59891  Biso   1.000  H
  C697     1.0000 0.89410  0.18160  0.66352  Biso   1.000  C
  H830     1.0000 0.77570  0.09889  0.62871  Biso   1.000  H
  C698     1.0000 0.83650  0.10590  0.68162  Biso   1.000  C
  C699     1.0000 0.83650  0.39412  0.81840  Biso   1.000  C
  H831     1.0000 0.84131  0.44539  0.75259  Biso   1.000  H
  H832     1.0000 0.78672  0.65182  0.77851  Biso   1.000  H
  H833     1.0000 0.80122  0.61970  0.72632  Biso   1.000  H
  H834     1.0000 0.62871  0.22430  0.90111  Biso   1.000  H
  C700     1.0000 0.68162  0.16350  0.89410  Biso   1.000  C
  C701     1.0000 0.66352  0.10590  0.81840  Biso   1.000  C
  H835     1.0000 0.59891  0.12869  0.77570  Biso   1.000  H
  C702     1.0000 0.88052  0.13730  0.69452  Biso   1.000  C
  C703     1.0000 0.94032  0.21568  0.67761  Biso   1.000  C
  C704     1.0000 0.82241  0.05972  0.71570  Biso   1.000  C
  C705     1.0000 0.88052  0.36272  0.80550  Biso   1.000  C
  C706     1.0000 0.80550  0.38050  0.86270  Biso   1.000  C
  C707     1.0000 0.69452  0.11952  0.86270  Biso   1.000  C
  C708     1.0000 0.71570  0.17759  0.94032  Biso   1.000  C
  C709     1.0000 0.67761  0.05972  0.78432  Biso   1.000  C
  H836     1.0000 0.90111  0.12869  0.72432  Biso   1.000  H
  N115     1.0000 0.97280  0.20411  0.71370  Biso   1.000  N
  H837     1.0000 0.94541  0.24741  0.65871  Biso   1.000  H
  N116     1.0000 0.78632  0.02720  0.70409  Biso   1.000  N
  H838     1.0000 0.84131  0.05459  0.74743  Biso   1.000  H
  C710     1.0000 0.89410  0.31842  0.83650  Biso   1.000  C
  H839     1.0000 0.90111  0.37129  0.77570  Biso   1.000  H
  H840     1.0000 0.77570  0.40109  0.87131  Biso   1.000  H
  C711     1.0000 0.81840  0.33648  0.89410  Biso   1.000  C
  H841     1.0000 0.72432  0.09889  0.87131  Biso   1.000  H
  N117     1.0000 0.70409  0.21372  0.97280  Biso   1.000  N
  H842     1.0000 0.74743  0.15869  0.94541  Biso   1.000  H
  N118     1.0000 0.71370  0.02720  0.79589  Biso   1.000  N
  H843     1.0000 0.65871  0.05459  0.75259  Biso   1.000  H
  C712     1.0000 0.01903  0.23972  0.72159  Biso   1.000  C
  C713     1.0000 0.77843  0.98101  0.73970  Biso   1.000  C
  C714     1.0000 0.94032  0.28430  0.82241  Biso   1.000  C
  C715     1.0000 0.86270  0.30552  0.88052  Biso   1.000  C
  C716     1.0000 0.78432  0.32239  0.94032  Biso   1.000  C
  C717     1.0000 0.73970  0.22161  0.01903  Biso   1.000  C
  C718     1.0000 0.72159  0.98101  0.76032  Biso   1.000  C
  C719     1.0000 0.01903  0.26030  0.77843  Biso   1.000  C
  H844     1.0000 0.01662  0.27000  0.69672  Biso   1.000  H
  C720     1.0000 0.06973  0.20811  0.71022  Biso   1.000  C
  H845     1.0000 0.80330  0.98342  0.77002  Biso   1.000  H
  C721     1.0000 0.78980  0.93031  0.70809  Biso   1.000  C
  N119     1.0000 0.97280  0.29591  0.78632  Biso   1.000  N
  H846     1.0000 0.94541  0.25261  0.84131  Biso   1.000  H
  H847     1.0000 0.87131  0.27568  0.90111  Biso   1.000  H
  N120     1.0000 0.79589  0.28630  0.97280  Biso   1.000  N
  H848     1.0000 0.75259  0.34129  0.94541  Biso   1.000  H
  C722     1.0000 0.76032  0.27841  0.01903  Biso   1.000  C
  H849     1.0000 0.77002  0.19670  0.01662  Biso   1.000  H
  C723     1.0000 0.70809  0.21020  0.06973  Biso   1.000  C
  H850     1.0000 0.69672  0.98342  0.73000  Biso   1.000  H
  C724     1.0000 0.71022  0.93031  0.79193  Biso   1.000  C
  H851     1.0000 0.01662  0.22998  0.80330  Biso   1.000  H
  C725     1.0000 0.06973  0.29191  0.78980  Biso   1.000  C
  H852     1.0000 0.06981  0.19670  0.67309  Biso   1.000  H
  H853     1.0000 0.07041  0.17631  0.73261  Biso   1.000  H
  C726     1.0000 0.11992  0.24200  0.72131  Biso   1.000  C
  H854     1.0000 0.82689  0.93019  0.69672  Biso   1.000  H
  H855     1.0000 0.76741  0.92959  0.67629  Biso   1.000  H
  C727     1.0000 0.77871  0.88008  0.74202  Biso   1.000  C
  H856     1.0000 0.73000  0.30332  0.01662  Biso   1.000  H
  C728     1.0000 0.79193  0.28982  0.06973  Biso   1.000  C
  H857     1.0000 0.69672  0.17311  0.06981  Biso   1.000  H
  H858     1.0000 0.67629  0.23259  0.07041  Biso   1.000  H
  C729     1.0000 0.74202  0.22129  0.11992  Biso   1.000  C
  H859     1.0000 0.67309  0.93019  0.80330  Biso   1.000  H
  H860     1.0000 0.73261  0.92959  0.82373  Biso   1.000  H
  C730     1.0000 0.72131  0.88008  0.75800  Biso   1.000  C
  H861     1.0000 0.06981  0.30332  0.82689  Biso   1.000  H
  H862     1.0000 0.07041  0.32371  0.76741  Biso   1.000  H
  C731     1.0000 0.11992  0.25802  0.77871  Biso   1.000  C
  H863     1.0000 0.15180  0.22149  0.71330  Biso   1.000  H
  H864     1.0000 0.11972  0.27372  0.69880  Biso   1.000  H
  H865     1.0000 0.78672  0.84820  0.72151  Biso   1.000  H
  H866     1.0000 0.80122  0.88028  0.77370  Biso   1.000  H
  H867     1.0000 0.80330  0.32691  0.06981  Biso   1.000  H
  H868     1.0000 0.82373  0.26739  0.07041  Biso   1.000  H
  C732     1.0000 0.75800  0.27869  0.11992  Biso   1.000  C
  H869     1.0000 0.72151  0.21332  0.15180  Biso   1.000  H
  H870     1.0000 0.77370  0.19878  0.11972  Biso   1.000  H
  H871     1.0000 0.71330  0.84820  0.77851  Biso   1.000  H
  H872     1.0000 0.69880  0.88028  0.72632  Biso   1.000  H
  H873     1.0000 0.15180  0.27849  0.78672  Biso   1.000  H
  H874     1.0000 0.11972  0.22630  0.80122  Biso   1.000  H
  H875     1.0000 0.77851  0.28670  0.15180  Biso   1.000  H
  H876     1.0000 0.72632  0.30120  0.11972  Biso   1.000  H
  C733     1.0000 0.61950  0.63732  0.30552  Biso   1.000  C
  C734     1.0000 0.66352  0.60592  0.31842  Biso   1.000  C
  H877     1.0000 0.59891  0.62871  0.27568  Biso   1.000  H
  C735     1.0000 0.60592  0.68162  0.33648  Biso   1.000  C
  C736     1.0000 0.67761  0.55970  0.28430  Biso   1.000  C
  C737     1.0000 0.69452  0.61950  0.36272  Biso   1.000  C
  C738     1.0000 0.63732  0.69452  0.38050  Biso   1.000  C
  C739     1.0000 0.55970  0.71570  0.32239  Biso   1.000  C
  N121     1.0000 0.71370  0.52722  0.29591  Biso   1.000  N
  H878     1.0000 0.65871  0.55461  0.25261  Biso   1.000  H
  H879     1.0000 0.72432  0.59891  0.37129  Biso   1.000  H
  C740     1.0000 0.68162  0.66352  0.39412  Biso   1.000  C
  H880     1.0000 0.62871  0.72432  0.40109  Biso   1.000  H
  N122     1.0000 0.52722  0.70409  0.28630  Biso   1.000  N
  H881     1.0000 0.55461  0.74743  0.34129  Biso   1.000  H
  C741     1.0000 0.72159  0.48099  0.26030  Biso   1.000  C
  C742     1.0000 0.71570  0.67761  0.44030  Biso   1.000  C
  C743     1.0000 0.48099  0.73970  0.27841  Biso   1.000  C
  C744     1.0000 0.71022  0.43029  0.29191  Biso   1.000  C
  C745     1.0000 0.77843  0.48099  0.23972  Biso   1.000  C
  H882     1.0000 0.69672  0.48340  0.22998  Biso   1.000  H
  N123     1.0000 0.70409  0.71370  0.47282  Biso   1.000  N
  H883     1.0000 0.74743  0.65871  0.44539  Biso   1.000  H
  C746     1.0000 0.48099  0.76032  0.22161  Biso   1.000  C
  H884     1.0000 0.48340  0.77002  0.30332  Biso   1.000  H
  C747     1.0000 0.43029  0.70809  0.28982  Biso   1.000  C
  C748     1.0000 0.72131  0.38010  0.25802  Biso   1.000  C
  H885     1.0000 0.67309  0.43021  0.30332  Biso   1.000  H
  H886     1.0000 0.73261  0.42961  0.32371  Biso   1.000  H
  C749     1.0000 0.78980  0.43029  0.20811  Biso   1.000  C
  N124     1.0000 0.78632  0.52722  0.20411  Biso   1.000  N
  H887     1.0000 0.80330  0.48340  0.27000  Biso   1.000  H
  C750     1.0000 0.73970  0.72159  0.51901  Biso   1.000  C
  N125     1.0000 0.52722  0.79589  0.21372  Biso   1.000  N
  H888     1.0000 0.48340  0.73000  0.19670  Biso   1.000  H
  C751     1.0000 0.43029  0.79193  0.21020  Biso   1.000  C
  H889     1.0000 0.43021  0.69672  0.32691  Biso   1.000  H
  H890     1.0000 0.42961  0.67629  0.26739  Biso   1.000  H
  C752     1.0000 0.38010  0.74202  0.27869  Biso   1.000  C
  C753     1.0000 0.77871  0.38010  0.24200  Biso   1.000  C
  H891     1.0000 0.71330  0.34822  0.27849  Biso   1.000  H
  H892     1.0000 0.69880  0.38030  0.22630  Biso   1.000  H
  H893     1.0000 0.82689  0.43021  0.19670  Biso   1.000  H
  H894     1.0000 0.76741  0.42961  0.17631  Biso   1.000  H
  C754     1.0000 0.82241  0.55970  0.21568  Biso   1.000  C
  C755     1.0000 0.76032  0.77843  0.51901  Biso   1.000  C
  H895     1.0000 0.77002  0.69672  0.51660  Biso   1.000  H
  C756     1.0000 0.70809  0.71022  0.56971  Biso   1.000  C
  C757     1.0000 0.55970  0.78432  0.17759  Biso   1.000  C
  H896     1.0000 0.43021  0.80330  0.17311  Biso   1.000  H
  H897     1.0000 0.42961  0.82373  0.23259  Biso   1.000  H
  C758     1.0000 0.38010  0.75800  0.22129  Biso   1.000  C
  H898     1.0000 0.34822  0.72151  0.28670  Biso   1.000  H
  H899     1.0000 0.38030  0.77370  0.30120  Biso   1.000  H
  H900     1.0000 0.78672  0.34822  0.22149  Biso   1.000  H
  H901     1.0000 0.80122  0.38030  0.27372  Biso   1.000  H
  C759     1.0000 0.83650  0.60592  0.18160  Biso   1.000  C
  H902     1.0000 0.84131  0.55461  0.24741  Biso   1.000  H
  N126     1.0000 0.79589  0.78632  0.47282  Biso   1.000  N
  H903     1.0000 0.73000  0.80330  0.51660  Biso   1.000  H
  C760     1.0000 0.79193  0.78980  0.56971  Biso   1.000  C
  H904     1.0000 0.69672  0.67309  0.56979  Biso   1.000  H
  H905     1.0000 0.67629  0.73261  0.57039  Biso   1.000  H
  C761     1.0000 0.74202  0.72131  0.61990  Biso   1.000  C
  C762     1.0000 0.60592  0.81840  0.16350  Biso   1.000  C
  H906     1.0000 0.55461  0.75259  0.15869  Biso   1.000  H
  H907     1.0000 0.34822  0.77851  0.21332  Biso   1.000  H
  H908     1.0000 0.38030  0.72632  0.19878  Biso   1.000  H
  C763     1.0000 0.80550  0.61950  0.13730  Biso   1.000  C
  C764     1.0000 0.88052  0.63732  0.19450  Biso   1.000  C
  C765     1.0000 0.78432  0.82241  0.44030  Biso   1.000  C
  H909     1.0000 0.80330  0.82689  0.56979  Biso   1.000  H
  H910     1.0000 0.82373  0.76741  0.57039  Biso   1.000  H
  C766     1.0000 0.75800  0.77871  0.61990  Biso   1.000  C
  H911     1.0000 0.72151  0.71330  0.65182  Biso   1.000  H
  H912     1.0000 0.77370  0.69880  0.61970  Biso   1.000  H
  C767     1.0000 0.63732  0.80550  0.11952  Biso   1.000  C
  C768     1.0000 0.61950  0.86270  0.19450  Biso   1.000  C
  H913     1.0000 0.77570  0.59891  0.12869  Biso   1.000  H
  C769     1.0000 0.81840  0.66352  0.10590  Biso   1.000  C
  H914     1.0000 0.90111  0.62871  0.22430  Biso   1.000  H
  C770     1.0000 0.89410  0.68162  0.16350  Biso   1.000  C
  C771     1.0000 0.81840  0.83650  0.39412  Biso   1.000  C
  H915     1.0000 0.75259  0.84131  0.44539  Biso   1.000  H
  H916     1.0000 0.77851  0.78672  0.65182  Biso   1.000  H
  H917     1.0000 0.72632  0.80122  0.61970  Biso   1.000  H
  C772     1.0000 0.68162  0.83650  0.10590  Biso   1.000  C
  H918     1.0000 0.62871  0.77570  0.09889  Biso   1.000  H
  H919     1.0000 0.59891  0.87131  0.22430  Biso   1.000  H
  C773     1.0000 0.66352  0.89410  0.18160  Biso   1.000  C
  C774     1.0000 0.86270  0.69452  0.11952  Biso   1.000  C
  C775     1.0000 0.78432  0.67761  0.05972  Biso   1.000  C
  C776     1.0000 0.94032  0.71570  0.17759  Biso   1.000  C
  C777     1.0000 0.80550  0.88052  0.36272  Biso   1.000  C
  C778     1.0000 0.86270  0.80550  0.38050  Biso   1.000  C
  C779     1.0000 0.71570  0.82241  0.05972  Biso   1.000  C
  C780     1.0000 0.69452  0.88052  0.13730  Biso   1.000  C
  C781     1.0000 0.67761  0.94032  0.21568  Biso   1.000  C
  H920     1.0000 0.87131  0.72432  0.09889  Biso   1.000  H
  N127     1.0000 0.79589  0.71370  0.02720  Biso   1.000  N
  H921     1.0000 0.75259  0.65871  0.05459  Biso   1.000  H
  N128     1.0000 0.97280  0.70409  0.21372  Biso   1.000  N
  H922     1.0000 0.94541  0.74743  0.15869  Biso   1.000  H
  H923     1.0000 0.77570  0.90111  0.37129  Biso   1.000  H
  C782     1.0000 0.83650  0.89410  0.31842  Biso   1.000  C
  C783     1.0000 0.89410  0.81840  0.33648  Biso   1.000  C
  H924     1.0000 0.87131  0.77570  0.40109  Biso   1.000  H
  N129     1.0000 0.70409  0.78632  0.02720  Biso   1.000  N
  H925     1.0000 0.74743  0.84131  0.05459  Biso   1.000  H
  H926     1.0000 0.72432  0.90111  0.12869  Biso   1.000  H
  N130     1.0000 0.71370  0.97280  0.20411  Biso   1.000  N
  H927     1.0000 0.65871  0.94541  0.24741  Biso   1.000  H
  C784     1.0000 0.76032  0.72159  0.98101  Biso   1.000  C
  C785     1.0000 0.01903  0.73970  0.22161  Biso   1.000  C
  C786     1.0000 0.88052  0.86270  0.30552  Biso   1.000  C
  C787     1.0000 0.82241  0.94032  0.28430  Biso   1.000  C
  C788     1.0000 0.94032  0.78432  0.32239  Biso   1.000  C
  C789     1.0000 0.73970  0.77843  0.98101  Biso   1.000  C
  C790     1.0000 0.72159  0.01903  0.23972  Biso   1.000  C
  H928     1.0000 0.73000  0.69672  0.98342  Biso   1.000  H
  C791     1.0000 0.79193  0.71022  0.93031  Biso   1.000  C
  C792     1.0000 0.01903  0.76032  0.27841  Biso   1.000  C
  H929     1.0000 0.01662  0.77002  0.19670  Biso   1.000  H
  C793     1.0000 0.06973  0.70809  0.21020  Biso   1.000  C
  H930     1.0000 0.90111  0.87131  0.27568  Biso   1.000  H
  N131     1.0000 0.78632  0.97280  0.29591  Biso   1.000  N
  H931     1.0000 0.84131  0.94541  0.25261  Biso   1.000  H
  N132     1.0000 0.97280  0.79589  0.28630  Biso   1.000  N
  H932     1.0000 0.94541  0.75259  0.34129  Biso   1.000  H
  H933     1.0000 0.77002  0.80330  0.98342  Biso   1.000  H
  C794     1.0000 0.70809  0.78980  0.93031  Biso   1.000  C
  C795     1.0000 0.77843  0.01903  0.26030  Biso   1.000  C
  H934     1.0000 0.69672  0.01662  0.27000  Biso   1.000  H
  C796     1.0000 0.71022  0.06973  0.20811  Biso   1.000  C
  H935     1.0000 0.80330  0.67309  0.93019  Biso   1.000  H
  H936     1.0000 0.82373  0.73261  0.92959  Biso   1.000  H
  C797     1.0000 0.75800  0.72131  0.88008  Biso   1.000  C
  H937     1.0000 0.01662  0.73000  0.30332  Biso   1.000  H
  C798     1.0000 0.06973  0.79193  0.28982  Biso   1.000  C
  H938     1.0000 0.06981  0.69672  0.17311  Biso   1.000  H
  H939     1.0000 0.07041  0.67629  0.23259  Biso   1.000  H
  C799     1.0000 0.11992  0.74202  0.22129  Biso   1.000  C
  H940     1.0000 0.69672  0.82689  0.93019  Biso   1.000  H
  H941     1.0000 0.67629  0.76741  0.92959  Biso   1.000  H
  C800     1.0000 0.74202  0.77871  0.88008  Biso   1.000  C
  H942     1.0000 0.80330  0.01662  0.22998  Biso   1.000  H
  C801     1.0000 0.78980  0.06973  0.29191  Biso   1.000  C
  H943     1.0000 0.67309  0.06981  0.19670  Biso   1.000  H
  H944     1.0000 0.73261  0.07041  0.17631  Biso   1.000  H
  C802     1.0000 0.72131  0.11992  0.24200  Biso   1.000  C
  H945     1.0000 0.77851  0.71330  0.84820  Biso   1.000  H
  H946     1.0000 0.72632  0.69880  0.88028  Biso   1.000  H
  H947     1.0000 0.06981  0.80330  0.32691  Biso   1.000  H
  H948     1.0000 0.07041  0.82373  0.26739  Biso   1.000  H
  C803     1.0000 0.11992  0.75800  0.27869  Biso   1.000  C
  H949     1.0000 0.15180  0.72151  0.21332  Biso   1.000  H
  H950     1.0000 0.11972  0.77370  0.19878  Biso   1.000  H
  H951     1.0000 0.72151  0.78672  0.84820  Biso   1.000  H
  H952     1.0000 0.77370  0.80122  0.88028  Biso   1.000  H
  H953     1.0000 0.82689  0.06981  0.30332  Biso   1.000  H
  H954     1.0000 0.76741  0.07041  0.32371  Biso   1.000  H
  C804     1.0000 0.77871  0.11992  0.25802  Biso   1.000  C
  H955     1.0000 0.71330  0.15180  0.22149  Biso   1.000  H
  H956     1.0000 0.69880  0.11972  0.27372  Biso   1.000  H
  H957     1.0000 0.15180  0.77851  0.28670  Biso   1.000  H
  H958     1.0000 0.11972  0.72632  0.30120  Biso   1.000  H
  H959     1.0000 0.78672  0.15180  0.27849  Biso   1.000  H
  H960     1.0000 0.80122  0.11972  0.22630  Biso   1.000  H
  C805     1.0000 0.30552  0.61950  0.63732  Biso   1.000  C
  C806     1.0000 0.31842  0.66352  0.60592  Biso   1.000  C
  H961     1.0000 0.27568  0.59891  0.62871  Biso   1.000  H
  C807     1.0000 0.33648  0.60592  0.68162  Biso   1.000  C
  C808     1.0000 0.28430  0.67761  0.55970  Biso   1.000  C
  C809     1.0000 0.36272  0.69452  0.61950  Biso   1.000  C
  C810     1.0000 0.38050  0.63732  0.69452  Biso   1.000  C
  C811     1.0000 0.32239  0.55970  0.71570  Biso   1.000  C
  N133     1.0000 0.29591  0.71370  0.52722  Biso   1.000  N
  H962     1.0000 0.25261  0.65871  0.55461  Biso   1.000  H
  H963     1.0000 0.37129  0.72432  0.59891  Biso   1.000  H
  C812     1.0000 0.39412  0.68162  0.66352  Biso   1.000  C
  H964     1.0000 0.40109  0.62871  0.72432  Biso   1.000  H
  N134     1.0000 0.28630  0.52722  0.70409  Biso   1.000  N
  H965     1.0000 0.34129  0.55461  0.74743  Biso   1.000  H
  C813     1.0000 0.26030  0.72159  0.48099  Biso   1.000  C
  C814     1.0000 0.44030  0.71570  0.67761  Biso   1.000  C
  C815     1.0000 0.27841  0.48099  0.73970  Biso   1.000  C
  C816     1.0000 0.29191  0.71022  0.43029  Biso   1.000  C
  C817     1.0000 0.23972  0.77843  0.48099  Biso   1.000  C
  H966     1.0000 0.22998  0.69672  0.48340  Biso   1.000  H
  N135     1.0000 0.47282  0.70409  0.71370  Biso   1.000  N
  H967     1.0000 0.44539  0.74743  0.65871  Biso   1.000  H
  C818     1.0000 0.22161  0.48099  0.76032  Biso   1.000  C
  H968     1.0000 0.30332  0.48340  0.77002  Biso   1.000  H
  C819     1.0000 0.28982  0.43029  0.70809  Biso   1.000  C
  C820     1.0000 0.25802  0.72131  0.38010  Biso   1.000  C
  H969     1.0000 0.30332  0.67309  0.43021  Biso   1.000  H
  H970     1.0000 0.32371  0.73261  0.42961  Biso   1.000  H
  C821     1.0000 0.20811  0.78980  0.43029  Biso   1.000  C
  N136     1.0000 0.20411  0.78632  0.52722  Biso   1.000  N
  H971     1.0000 0.27000  0.80330  0.48340  Biso   1.000  H
  C822     1.0000 0.51901  0.73970  0.72159  Biso   1.000  C
  N137     1.0000 0.21372  0.52722  0.79589  Biso   1.000  N
  H972     1.0000 0.19670  0.48340  0.73000  Biso   1.000  H
  C823     1.0000 0.21020  0.43029  0.79193  Biso   1.000  C
  H973     1.0000 0.32691  0.43021  0.69672  Biso   1.000  H
  H974     1.0000 0.26739  0.42961  0.67629  Biso   1.000  H
  C824     1.0000 0.27869  0.38010  0.74202  Biso   1.000  C
  C825     1.0000 0.24200  0.77871  0.38010  Biso   1.000  C
  H975     1.0000 0.27849  0.71330  0.34822  Biso   1.000  H
  H976     1.0000 0.22630  0.69880  0.38030  Biso   1.000  H
  H977     1.0000 0.19670  0.82689  0.43021  Biso   1.000  H
  H978     1.0000 0.17631  0.76741  0.42961  Biso   1.000  H
  C826     1.0000 0.21568  0.82241  0.55970  Biso   1.000  C
  C827     1.0000 0.51901  0.76032  0.77843  Biso   1.000  C
  H979     1.0000 0.51660  0.77002  0.69672  Biso   1.000  H
  C828     1.0000 0.56971  0.70809  0.71022  Biso   1.000  C
  C829     1.0000 0.17759  0.55970  0.78432  Biso   1.000  C
  H980     1.0000 0.17311  0.43021  0.80330  Biso   1.000  H
  H981     1.0000 0.23259  0.42961  0.82373  Biso   1.000  H
  C830     1.0000 0.22129  0.38010  0.75800  Biso   1.000  C
  H982     1.0000 0.28670  0.34822  0.72151  Biso   1.000  H
  H983     1.0000 0.30120  0.38030  0.77370  Biso   1.000  H
  H984     1.0000 0.22149  0.78672  0.34822  Biso   1.000  H
  H985     1.0000 0.27372  0.80122  0.38030  Biso   1.000  H
  C831     1.0000 0.18160  0.83650  0.60592  Biso   1.000  C
  H986     1.0000 0.24741  0.84131  0.55461  Biso   1.000  H
  N138     1.0000 0.47282  0.79589  0.78632  Biso   1.000  N
  H987     1.0000 0.51660  0.73000  0.80330  Biso   1.000  H
  C832     1.0000 0.56971  0.79193  0.78980  Biso   1.000  C
  H988     1.0000 0.56979  0.69672  0.67309  Biso   1.000  H
  H989     1.0000 0.57039  0.67629  0.73261  Biso   1.000  H
  C833     1.0000 0.61990  0.74202  0.72131  Biso   1.000  C
  C834     1.0000 0.16350  0.60592  0.81840  Biso   1.000  C
  H990     1.0000 0.15869  0.55461  0.75259  Biso   1.000  H
  H991     1.0000 0.21332  0.34822  0.77851  Biso   1.000  H
  H992     1.0000 0.19878  0.38030  0.72632  Biso   1.000  H
  C835     1.0000 0.19450  0.88052  0.63732  Biso   1.000  C
  C836     1.0000 0.13730  0.80550  0.61950  Biso   1.000  C
  C837     1.0000 0.44030  0.78432  0.82241  Biso   1.000  C
  H993     1.0000 0.56979  0.80330  0.82689  Biso   1.000  H
  H994     1.0000 0.57039  0.82373  0.76741  Biso   1.000  H
  C838     1.0000 0.61990  0.75800  0.77871  Biso   1.000  C
  H995     1.0000 0.65182  0.72151  0.71330  Biso   1.000  H
  H996     1.0000 0.61970  0.77370  0.69880  Biso   1.000  H
  C839     1.0000 0.11952  0.63732  0.80550  Biso   1.000  C
  C840     1.0000 0.19450  0.61950  0.86270  Biso   1.000  C
  H997     1.0000 0.22430  0.90111  0.62871  Biso   1.000  H
  C841     1.0000 0.16350  0.89410  0.68162  Biso   1.000  C
  H998     1.0000 0.12869  0.77570  0.59891  Biso   1.000  H
  C842     1.0000 0.10590  0.81840  0.66352  Biso   1.000  C
  C843     1.0000 0.39412  0.81840  0.83650  Biso   1.000  C
  H999     1.0000 0.44539  0.75259  0.84131  Biso   1.000  H
  H1000    1.0000 0.65182  0.77851  0.78672  Biso   1.000  H
  H1001    1.0000 0.61970  0.72632  0.80122  Biso   1.000  H
  C844     1.0000 0.10590  0.68162  0.83650  Biso   1.000  C
  H1002    1.0000 0.09889  0.62871  0.77570  Biso   1.000  H
  H1003    1.0000 0.22430  0.59891  0.87131  Biso   1.000  H
  C845     1.0000 0.18160  0.66352  0.89410  Biso   1.000  C
  C846     1.0000 0.11952  0.86270  0.69452  Biso   1.000  C
  C847     1.0000 0.17759  0.94032  0.71570  Biso   1.000  C
  C848     1.0000 0.05972  0.78432  0.67761  Biso   1.000  C
  C849     1.0000 0.36272  0.80550  0.88052  Biso   1.000  C
  C850     1.0000 0.38050  0.86270  0.80550  Biso   1.000  C
  C851     1.0000 0.05972  0.71570  0.82241  Biso   1.000  C
  C852     1.0000 0.13730  0.69452  0.88052  Biso   1.000  C
  C853     1.0000 0.21568  0.67761  0.94032  Biso   1.000  C
  H1004    1.0000 0.09889  0.87131  0.72432  Biso   1.000  H
  N139     1.0000 0.21372  0.97280  0.70409  Biso   1.000  N
  H1005    1.0000 0.15869  0.94541  0.74743  Biso   1.000  H
  N140     1.0000 0.02720  0.79589  0.71370  Biso   1.000  N
  H1006    1.0000 0.05459  0.75259  0.65871  Biso   1.000  H
  H1007    1.0000 0.37129  0.77570  0.90111  Biso   1.000  H
  C854     1.0000 0.31842  0.83650  0.89410  Biso   1.000  C
  C855     1.0000 0.33648  0.89410  0.81840  Biso   1.000  C
  H1008    1.0000 0.40109  0.87131  0.77570  Biso   1.000  H
  N141     1.0000 0.02720  0.70409  0.78632  Biso   1.000  N
  H1009    1.0000 0.05459  0.74743  0.84131  Biso   1.000  H
  H1010    1.0000 0.12869  0.72432  0.90111  Biso   1.000  H
  N142     1.0000 0.20411  0.71370  0.97280  Biso   1.000  N
  H1011    1.0000 0.24741  0.65871  0.94541  Biso   1.000  H
  C856     1.0000 0.22161  0.01903  0.73970  Biso   1.000  C
  C857     1.0000 0.98101  0.76032  0.72159  Biso   1.000  C
  C858     1.0000 0.30552  0.88052  0.86270  Biso   1.000  C
  C859     1.0000 0.28430  0.82241  0.94032  Biso   1.000  C
  C860     1.0000 0.32239  0.94032  0.78432  Biso   1.000  C
  C861     1.0000 0.98101  0.73970  0.77843  Biso   1.000  C
  C862     1.0000 0.23972  0.72159  0.01903  Biso   1.000  C
  C863     1.0000 0.27841  0.01903  0.76032  Biso   1.000  C
  H1012    1.0000 0.19670  0.01662  0.77002  Biso   1.000  H
  C864     1.0000 0.21020  0.06973  0.70809  Biso   1.000  C
  H1013    1.0000 0.98342  0.73000  0.69672  Biso   1.000  H
  C865     1.0000 0.93031  0.79193  0.71022  Biso   1.000  C
  H1014    1.0000 0.27568  0.90111  0.87131  Biso   1.000  H
  N143     1.0000 0.29591  0.78632  0.97280  Biso   1.000  N
  H1015    1.0000 0.25261  0.84131  0.94541  Biso   1.000  H
  N144     1.0000 0.28630  0.97280  0.79589  Biso   1.000  N
  H1016    1.0000 0.34129  0.94541  0.75259  Biso   1.000  H
  H1017    1.0000 0.98342  0.77002  0.80330  Biso   1.000  H
  C866     1.0000 0.93031  0.70809  0.78980  Biso   1.000  C
  C867     1.0000 0.26030  0.77843  0.01903  Biso   1.000  C
  H1018    1.0000 0.27000  0.69672  0.01662  Biso   1.000  H
  C868     1.0000 0.20811  0.71022  0.06973  Biso   1.000  C
  H1019    1.0000 0.30332  0.01662  0.73000  Biso   1.000  H
  C869     1.0000 0.28982  0.06973  0.79193  Biso   1.000  C
  H1020    1.0000 0.17311  0.06981  0.69672  Biso   1.000  H
  H1021    1.0000 0.23259  0.07041  0.67629  Biso   1.000  H
  C870     1.0000 0.22129  0.11992  0.74202  Biso   1.000  C
  H1022    1.0000 0.93019  0.80330  0.67309  Biso   1.000  H
  H1023    1.0000 0.92959  0.82373  0.73261  Biso   1.000  H
  C871     1.0000 0.88008  0.75800  0.72131  Biso   1.000  C
  H1024    1.0000 0.93019  0.69672  0.82689  Biso   1.000  H
  H1025    1.0000 0.92959  0.67629  0.76741  Biso   1.000  H
  C872     1.0000 0.88008  0.74202  0.77871  Biso   1.000  C
  H1026    1.0000 0.22998  0.80330  0.01662  Biso   1.000  H
  C873     1.0000 0.29191  0.78980  0.06973  Biso   1.000  C
  H1027    1.0000 0.19670  0.67309  0.06981  Biso   1.000  H
  H1028    1.0000 0.17631  0.73261  0.07041  Biso   1.000  H
  C874     1.0000 0.24200  0.72131  0.11992  Biso   1.000  C
  H1029    1.0000 0.32691  0.06981  0.80330  Biso   1.000  H
  H1030    1.0000 0.26739  0.07041  0.82373  Biso   1.000  H
  C875     1.0000 0.27869  0.11992  0.75800  Biso   1.000  C
  H1031    1.0000 0.21332  0.15180  0.72151  Biso   1.000  H
  H1032    1.0000 0.19878  0.11972  0.77370  Biso   1.000  H
  H1033    1.0000 0.84820  0.77851  0.71330  Biso   1.000  H
  H1034    1.0000 0.88028  0.72632  0.69880  Biso   1.000  H
  H1035    1.0000 0.84820  0.72151  0.78672  Biso   1.000  H
  H1036    1.0000 0.88028  0.77370  0.80122  Biso   1.000  H
  H1037    1.0000 0.30332  0.82689  0.06981  Biso   1.000  H
  H1038    1.0000 0.32371  0.76741  0.07041  Biso   1.000  H
  C876     1.0000 0.25802  0.77871  0.11992  Biso   1.000  C
  H1039    1.0000 0.22149  0.71330  0.15180  Biso   1.000  H
  H1040    1.0000 0.27372  0.69880  0.11972  Biso   1.000  H
  H1041    1.0000 0.28670  0.15180  0.77851  Biso   1.000  H
  H1042    1.0000 0.30120  0.11972  0.72632  Biso   1.000  H
  H1043    1.0000 0.27849  0.78672  0.15180  Biso   1.000  H
  H1044    1.0000 0.22630  0.80122  0.11972  Biso   1.000  H
  I1       1.0000 0.31518  0.31518  0.18480  Biso   1.000  I
  I2       1.0000 0.26467  0.23531  0.26467  Biso   1.000  I
  I3       1.0000 0.37502  0.37502  0.12501  Biso   1.000  I
  I4       1.0000 0.23531  0.26467  0.26467  Biso   1.000  I
  I5       1.0000 0.23531  0.23531  0.23531  Biso   1.000  I
  I6       1.0000 0.18480  0.31518  0.31518  Biso   1.000  I
  I7       1.0000 0.18480  0.18480  0.18480  Biso   1.000  I
  I8       1.0000 0.43481  0.43481  0.06517  Biso   1.000  I
  I9       1.0000 0.31518  0.18480  0.31518  Biso   1.000  I
  I10      1.0000 0.26467  0.26467  0.23531  Biso   1.000  I
  I11      1.0000 0.12501  0.37502  0.37502  Biso   1.000  I
  I12      1.0000 0.12501  0.12501  0.12501  Biso   1.000  I
  I13      1.0000 0.51468  0.51468  0.01470  Biso   1.000  I
  I14      1.0000 0.51468  0.48532  0.98534  Biso   1.000  I
  I15      1.0000 0.48532  0.51468  0.98534  Biso   1.000  I
  I16      1.0000 0.37502  0.12501  0.37502  Biso   1.000  I
  I17      1.0000 0.06517  0.43481  0.43481  Biso   1.000  I
  I18      1.0000 0.06517  0.06517  0.06517  Biso   1.000  I
  I19      1.0000 0.56519  0.43481  0.93483  Biso   1.000  I
  I20      1.0000 0.43481  0.56519  0.93483  Biso   1.000  I
  I21      1.0000 0.56519  0.56519  0.06517  Biso   1.000  I
  I22      1.0000 0.43481  0.06517  0.43481  Biso   1.000  I
  I23      1.0000 0.01470  0.51468  0.51468  Biso   1.000  I
  I24      1.0000 0.98534  0.51468  0.48532  Biso   1.000  I
  I25      1.0000 0.98534  0.48532  0.51468  Biso   1.000  I
  I26      1.0000 0.98534  0.98534  0.01470  Biso   1.000  I
  I27      1.0000 0.98534  0.01470  0.98534  Biso   1.000  I
  I28      1.0000 0.01470  0.98534  0.98534  Biso   1.000  I
  I29      1.0000 0.48532  0.48532  0.01470  Biso   1.000  I
  I30      1.0000 0.62503  0.37502  0.87499  Biso   1.000  I
  I31      1.0000 0.37502  0.62503  0.87499  Biso   1.000  I
  I32      1.0000 0.62503  0.62503  0.12501  Biso   1.000  I
  I33      1.0000 0.51468  0.01470  0.51468  Biso   1.000  I
  I34      1.0000 0.48532  0.98534  0.51468  Biso   1.000  I
  I35      1.0000 0.51468  0.98534  0.48532  Biso   1.000  I
  I36      1.0000 0.93483  0.56519  0.43481  Biso   1.000  I
  I37      1.0000 0.93483  0.43481  0.56519  Biso   1.000  I
  I38      1.0000 0.06517  0.56519  0.56519  Biso   1.000  I
  I39      1.0000 0.93483  0.06517  0.93483  Biso   1.000  I
  I40      1.0000 0.06517  0.93483  0.93483  Biso   1.000  I
  I41      1.0000 0.93483  0.93483  0.06517  Biso   1.000  I
  I42      1.0000 0.68482  0.31518  0.81520  Biso   1.000  I
  I43      1.0000 0.31518  0.68482  0.81520  Biso   1.000  I
  I44      1.0000 0.68482  0.68482  0.18480  Biso   1.000  I
  I45      1.0000 0.43481  0.93483  0.56519  Biso   1.000  I
  I46      1.0000 0.56519  0.93483  0.43481  Biso   1.000  I
  I47      1.0000 0.56519  0.06517  0.56519  Biso   1.000  I
  I48      1.0000 0.01470  0.48532  0.48532  Biso   1.000  I
  I49      1.0000 0.87499  0.62503  0.37502  Biso   1.000  I
  I50      1.0000 0.87499  0.37502  0.62503  Biso   1.000  I
  I51      1.0000 0.12501  0.62503  0.62503  Biso   1.000  I
  I52      1.0000 0.01470  0.01470  0.01470  Biso   1.000  I
  I53      1.0000 0.87499  0.12501  0.87499  Biso   1.000  I
  I54      1.0000 0.12501  0.87499  0.87499  Biso   1.000  I
  I55      1.0000 0.87499  0.87499  0.12501  Biso   1.000  I
  I56      1.0000 0.73533  0.23531  0.73533  Biso   1.000  I
  I57      1.0000 0.76469  0.23531  0.76469  Biso   1.000  I
  I58      1.0000 0.76469  0.26467  0.73533  Biso   1.000  I
  I59      1.0000 0.23531  0.73533  0.73533  Biso   1.000  I
  I60      1.0000 0.23531  0.76469  0.76469  Biso   1.000  I
  I61      1.0000 0.26467  0.76469  0.73533  Biso   1.000  I
  I62      1.0000 0.76469  0.76469  0.23531  Biso   1.000  I
  I63      1.0000 0.76469  0.73533  0.26467  Biso   1.000  I
  I64      1.0000 0.73533  0.76469  0.26467  Biso   1.000  I
  I65      1.0000 0.48532  0.01470  0.48532  Biso   1.000  I
  I66      1.0000 0.37502  0.87499  0.62503  Biso   1.000  I
  I67      1.0000 0.62503  0.87499  0.37502  Biso   1.000  I
  I68      1.0000 0.62503  0.12501  0.62503  Biso   1.000  I
  I69      1.0000 0.81520  0.68482  0.31518  Biso   1.000  I
  I70      1.0000 0.81520  0.31518  0.68482  Biso   1.000  I
  I71      1.0000 0.18480  0.68482  0.68482  Biso   1.000  I
  I72      1.0000 0.81520  0.18480  0.81520  Biso   1.000  I
  I73      1.0000 0.18480  0.81520  0.81520  Biso   1.000  I
  I74      1.0000 0.81520  0.81520  0.18480  Biso   1.000  I
  I75      1.0000 0.81520  0.18480  0.81520  Biso   1.000  I
  I76      1.0000 0.81520  0.31518  0.68482  Biso   1.000  I
  I77      1.0000 0.68482  0.18480  0.68482  Biso   1.000  I
  I78      1.0000 0.18480  0.81520  0.81520  Biso   1.000  I
  I79      1.0000 0.31518  0.81520  0.68482  Biso   1.000  I
  I80      1.0000 0.18480  0.68482  0.68482  Biso   1.000  I
  I81      1.0000 0.81520  0.68482  0.31518  Biso   1.000  I
  I82      1.0000 0.68482  0.81520  0.31518  Biso   1.000  I
  I83      1.0000 0.81520  0.81520  0.18480  Biso   1.000  I
  I84      1.0000 0.31518  0.81520  0.68482  Biso   1.000  I
  I85      1.0000 0.68482  0.81520  0.31518  Biso   1.000  I
  I86      1.0000 0.68482  0.18480  0.68482  Biso   1.000  I
  I87      1.0000 0.76469  0.76469  0.23531  Biso   1.000  I
  I88      1.0000 0.73533  0.73533  0.23531  Biso   1.000  I
  I89      1.0000 0.73533  0.76469  0.26467  Biso   1.000  I
  I90      1.0000 0.73533  0.26467  0.76469  Biso   1.000  I
  I91      1.0000 0.73533  0.23531  0.73533  Biso   1.000  I
  I92      1.0000 0.76469  0.23531  0.76469  Biso   1.000  I
  I93      1.0000 0.23531  0.76469  0.76469  Biso   1.000  I
  I94      1.0000 0.26467  0.76469  0.73533  Biso   1.000  I
  I95      1.0000 0.26467  0.73533  0.76469  Biso   1.000  I
  I96      1.0000 0.73533  0.26467  0.76469  Biso   1.000  I
  I97      1.0000 0.73533  0.23531  0.73533  Biso   1.000  I
  I98      1.0000 0.76469  0.26467  0.73533  Biso   1.000  I
  I99      1.0000 0.23531  0.73533  0.73533  Biso   1.000  I
  I100     1.0000 0.26467  0.76469  0.73533  Biso   1.000  I
  I101     1.0000 0.26467  0.73533  0.76469  Biso   1.000  I
  I102     1.0000 0.76469  0.73533  0.26467  Biso   1.000  I
  I103     1.0000 0.73533  0.73533  0.23531  Biso   1.000  I
  I104     1.0000 0.73533  0.76469  0.26467  Biso   1.000  I
  I105     1.0000 0.73533  0.26467  0.76469  Biso   1.000  I
  I106     1.0000 0.87499  0.12501  0.87499  Biso   1.000  I
  I107     1.0000 0.87499  0.37502  0.62503  Biso   1.000  I
  I108     1.0000 0.62503  0.12501  0.62503  Biso   1.000  I
  I109     1.0000 0.12501  0.87499  0.87499  Biso   1.000  I
  I110     1.0000 0.26467  0.73533  0.76469  Biso   1.000  I
  I111     1.0000 0.37502  0.87499  0.62503  Biso   1.000  I
  I112     1.0000 0.12501  0.62503  0.62503  Biso   1.000  I
  I113     1.0000 0.87499  0.62503  0.37502  Biso   1.000  I
  I114     1.0000 0.73533  0.73533  0.23531  Biso   1.000  I
  I115     1.0000 0.62503  0.87499  0.37502  Biso   1.000  I
  I116     1.0000 0.87499  0.87499  0.12501  Biso   1.000  I
  I117     1.0000 0.23531  0.73533  0.73533  Biso   1.000  I
  I118     1.0000 0.23531  0.76469  0.76469  Biso   1.000  I
  I119     1.0000 0.26467  0.73533  0.76469  Biso   1.000  I
  I120     1.0000 0.76469  0.76469  0.23531  Biso   1.000  I
  I121     1.0000 0.76469  0.73533  0.26467  Biso   1.000  I
  I122     1.0000 0.73533  0.73533  0.23531  Biso   1.000  I
  I123     1.0000 0.73533  0.26467  0.76469  Biso   1.000  I
  I124     1.0000 0.76469  0.23531  0.76469  Biso   1.000  I
  I125     1.0000 0.76469  0.26467  0.73533  Biso   1.000  I
  I126     1.0000 0.68482  0.68482  0.18480  Biso   1.000  I
  I127     1.0000 0.68482  0.81520  0.31518  Biso   1.000  I
  I128     1.0000 0.81520  0.81520  0.18480  Biso   1.000  I
  I129     1.0000 0.68482  0.18480  0.68482  Biso   1.000  I
  I130     1.0000 0.81520  0.18480  0.81520  Biso   1.000  I
  I131     1.0000 0.68482  0.31518  0.81520  Biso   1.000  I
  I132     1.0000 0.31518  0.81520  0.68482  Biso   1.000  I
  I133     1.0000 0.31518  0.68482  0.81520  Biso   1.000  I
  I134     1.0000 0.18480  0.81520  0.81520  Biso   1.000  I
  I135     1.0000 0.68482  0.18480  0.68482  Biso   1.000  I
  I136     1.0000 0.81520  0.31518  0.68482  Biso   1.000  I
  I137     1.0000 0.68482  0.31518  0.81520  Biso   1.000  I
  I138     1.0000 0.31518  0.81520  0.68482  Biso   1.000  I
  I139     1.0000 0.31518  0.68482  0.81520  Biso   1.000  I
  I140     1.0000 0.18480  0.68482  0.68482  Biso   1.000  I
  I141     1.0000 0.68482  0.68482  0.18480  Biso   1.000  I
  I142     1.0000 0.68482  0.81520  0.31518  Biso   1.000  I
  I143     1.0000 0.81520  0.68482  0.31518  Biso   1.000  I
  I144     1.0000 0.93483  0.06517  0.93483  Biso   1.000  I
  I145     1.0000 0.93483  0.43481  0.56519  Biso   1.000  I
  I146     1.0000 0.56519  0.06517  0.56519  Biso   1.000  I
  I147     1.0000 0.06517  0.93483  0.93483  Biso   1.000  I
  I148     1.0000 0.43481  0.93483  0.56519  Biso   1.000  I
  I149     1.0000 0.06517  0.56519  0.56519  Biso   1.000  I
  I150     1.0000 0.93483  0.56519  0.43481  Biso   1.000  I
  I151     1.0000 0.56519  0.93483  0.43481  Biso   1.000  I
  I152     1.0000 0.93483  0.93483  0.06517  Biso   1.000  I
  I153     1.0000 0.18480  0.81520  0.81520  Biso   1.000  I
  I154     1.0000 0.31518  0.68482  0.81520  Biso   1.000  I
  I155     1.0000 0.18480  0.68482  0.68482  Biso   1.000  I
  I156     1.0000 0.81520  0.68482  0.31518  Biso   1.000  I
  I157     1.0000 0.68482  0.68482  0.18480  Biso   1.000  I
  I158     1.0000 0.81520  0.81520  0.18480  Biso   1.000  I
  I159     1.0000 0.81520  0.18480  0.81520  Biso   1.000  I
  I160     1.0000 0.81520  0.31518  0.68482  Biso   1.000  I
  I161     1.0000 0.68482  0.31518  0.81520  Biso   1.000  I
  I162     1.0000 0.76469  0.73533  0.26467  Biso   1.000  I
  I163     1.0000 0.62503  0.62503  0.12501  Biso   1.000  I
  I164     1.0000 0.62503  0.87499  0.37502  Biso   1.000  I
  I165     1.0000 0.87499  0.87499  0.12501  Biso   1.000  I
  I166     1.0000 0.62503  0.12501  0.62503  Biso   1.000  I
  I167     1.0000 0.76469  0.26467  0.73533  Biso   1.000  I
  I168     1.0000 0.87499  0.12501  0.87499  Biso   1.000  I
  I169     1.0000 0.62503  0.37502  0.87499  Biso   1.000  I
  I170     1.0000 0.23531  0.73533  0.73533  Biso   1.000  I
  I171     1.0000 0.37502  0.87499  0.62503  Biso   1.000  I
  I172     1.0000 0.37502  0.62503  0.87499  Biso   1.000  I
  I173     1.0000 0.12501  0.87499  0.87499  Biso   1.000  I
  I174     1.0000 0.62503  0.12501  0.62503  Biso   1.000  I
  I175     1.0000 0.76469  0.23531  0.76469  Biso   1.000  I
  I176     1.0000 0.87499  0.37502  0.62503  Biso   1.000  I
  I177     1.0000 0.62503  0.37502  0.87499  Biso   1.000  I
  I178     1.0000 0.23531  0.76469  0.76469  Biso   1.000  I
  I179     1.0000 0.37502  0.87499  0.62503  Biso   1.000  I
  I180     1.0000 0.37502  0.62503  0.87499  Biso   1.000  I
  I181     1.0000 0.12501  0.62503  0.62503  Biso   1.000  I
  I182     1.0000 0.76469  0.76469  0.23531  Biso   1.000  I
  I183     1.0000 0.62503  0.62503  0.12501  Biso   1.000  I
  I184     1.0000 0.62503  0.87499  0.37502  Biso   1.000  I
  I185     1.0000 0.87499  0.62503  0.37502  Biso   1.000  I
  I186     1.0000 0.98534  0.98534  0.01470  Biso   1.000  I
  I187     1.0000 0.01470  0.98534  0.98534  Biso   1.000  I
  I188     1.0000 0.01470  0.01470  0.01470  Biso   1.000  I
  I189     1.0000 0.98534  0.51468  0.48532  Biso   1.000  I
  I190     1.0000 0.01470  0.51468  0.51468  Biso   1.000  I
  I191     1.0000 0.01470  0.48532  0.48532  Biso   1.000  I
  I192     1.0000 0.48532  0.98534  0.51468  Biso   1.000  I
  I193     1.0000 0.51468  0.98534  0.48532  Biso   1.000  I
  I194     1.0000 0.48532  0.01470  0.48532  Biso   1.000  I
  I195     1.0000 0.98534  0.98534  0.01470  Biso   1.000  I
  I196     1.0000 0.98534  0.01470  0.98534  Biso   1.000  I
  I197     1.0000 0.01470  0.01470  0.01470  Biso   1.000  I
  I198     1.0000 0.51468  0.98534  0.48532  Biso   1.000  I
  I199     1.0000 0.48532  0.01470  0.48532  Biso   1.000  I
  I200     1.0000 0.51468  0.01470  0.51468  Biso   1.000  I
  I201     1.0000 0.98534  0.51468  0.48532  Biso   1.000  I
  I202     1.0000 0.98534  0.48532  0.51468  Biso   1.000  I
  I203     1.0000 0.01470  0.48532  0.48532  Biso   1.000  I
  I204     1.0000 0.98534  0.48532  0.51468  Biso   1.000  I
  I205     1.0000 0.01470  0.51468  0.51468  Biso   1.000  I
  I206     1.0000 0.01470  0.48532  0.48532  Biso   1.000  I
  I207     1.0000 0.48532  0.98534  0.51468  Biso   1.000  I
  I208     1.0000 0.48532  0.01470  0.48532  Biso   1.000  I
  I209     1.0000 0.51468  0.01470  0.51468  Biso   1.000  I
  I210     1.0000 0.98534  0.01470  0.98534  Biso   1.000  I
  I211     1.0000 0.01470  0.98534  0.98534  Biso   1.000  I
  I212     1.0000 0.01470  0.01470  0.01470  Biso   1.000  I
  I213     1.0000 0.12501  0.87499  0.87499  Biso   1.000  I
  I214     1.0000 0.26467  0.76469  0.73533  Biso   1.000  I
  I215     1.0000 0.37502  0.62503  0.87499  Biso   1.000  I
  I216     1.0000 0.12501  0.62503  0.62503  Biso   1.000  I
  I217     1.0000 0.87499  0.62503  0.37502  Biso   1.000  I
  I218     1.0000 0.73533  0.76469  0.26467  Biso   1.000  I
  I219     1.0000 0.62503  0.62503  0.12501  Biso   1.000  I
  I220     1.0000 0.87499  0.87499  0.12501  Biso   1.000  I
  I221     1.0000 0.73533  0.23531  0.73533  Biso   1.000  I
  I222     1.0000 0.87499  0.12501  0.87499  Biso   1.000  I
  I223     1.0000 0.87499  0.37502  0.62503  Biso   1.000  I
  I224     1.0000 0.62503  0.37502  0.87499  Biso   1.000  I
  I225     1.0000 0.56519  0.56519  0.06517  Biso   1.000  I
  I226     1.0000 0.56519  0.93483  0.43481  Biso   1.000  I
  I227     1.0000 0.93483  0.93483  0.06517  Biso   1.000  I
  I228     1.0000 0.56519  0.06517  0.56519  Biso   1.000  I
  I229     1.0000 0.93483  0.06517  0.93483  Biso   1.000  I
  I230     1.0000 0.56519  0.43481  0.93483  Biso   1.000  I
  I231     1.0000 0.43481  0.93483  0.56519  Biso   1.000  I
  I232     1.0000 0.43481  0.56519  0.93483  Biso   1.000  I
  I233     1.0000 0.06517  0.93483  0.93483  Biso   1.000  I
  I234     1.0000 0.56519  0.06517  0.56519  Biso   1.000  I
  I235     1.0000 0.93483  0.43481  0.56519  Biso   1.000  I
  I236     1.0000 0.56519  0.43481  0.93483  Biso   1.000  I
  I237     1.0000 0.43481  0.93483  0.56519  Biso   1.000  I
  I238     1.0000 0.43481  0.56519  0.93483  Biso   1.000  I
  I239     1.0000 0.06517  0.56519  0.56519  Biso   1.000  I
  I240     1.0000 0.56519  0.56519  0.06517  Biso   1.000  I
  I241     1.0000 0.56519  0.93483  0.43481  Biso   1.000  I
  I242     1.0000 0.93483  0.56519  0.43481  Biso   1.000  I
  I243     1.0000 0.06517  0.93483  0.93483  Biso   1.000  I
  I244     1.0000 0.06517  0.06517  0.06517  Biso   1.000  I
  I245     1.0000 0.93483  0.93483  0.06517  Biso   1.000  I
  I246     1.0000 0.06517  0.56519  0.56519  Biso   1.000  I
  I247     1.0000 0.06517  0.43481  0.43481  Biso   1.000  I
  I248     1.0000 0.93483  0.56519  0.43481  Biso   1.000  I
  I249     1.0000 0.56519  0.93483  0.43481  Biso   1.000  I
  I250     1.0000 0.43481  0.06517  0.43481  Biso   1.000  I
  I251     1.0000 0.93483  0.06517  0.93483  Biso   1.000  I
  I252     1.0000 0.06517  0.06517  0.06517  Biso   1.000  I
  I253     1.0000 0.43481  0.06517  0.43481  Biso   1.000  I
  I254     1.0000 0.56519  0.06517  0.56519  Biso   1.000  I
  I255     1.0000 0.56519  0.93483  0.43481  Biso   1.000  I
  I256     1.0000 0.06517  0.43481  0.43481  Biso   1.000  I
  I257     1.0000 0.93483  0.56519  0.43481  Biso   1.000  I
  I258     1.0000 0.06517  0.56519  0.56519  Biso   1.000  I
  I259     1.0000 0.06517  0.43481  0.43481  Biso   1.000  I
  I260     1.0000 0.93483  0.43481  0.56519  Biso   1.000  I
  I261     1.0000 0.43481  0.06517  0.43481  Biso   1.000  I
  I262     1.0000 0.56519  0.06517  0.56519  Biso   1.000  I
  I263     1.0000 0.06517  0.93483  0.93483  Biso   1.000  I
  I264     1.0000 0.06517  0.06517  0.06517  Biso   1.000  I
  I265     1.0000 0.93483  0.06517  0.93483  Biso   1.000  I
  I266     1.0000 0.06517  0.93483  0.93483  Biso   1.000  I
  I267     1.0000 0.43481  0.56519  0.93483  Biso   1.000  I
  I268     1.0000 0.06517  0.56519  0.56519  Biso   1.000  I
  I269     1.0000 0.93483  0.56519  0.43481  Biso   1.000  I
  I270     1.0000 0.56519  0.56519  0.06517  Biso   1.000  I
  I271     1.0000 0.93483  0.06517  0.93483  Biso   1.000  I
  I272     1.0000 0.56519  0.43481  0.93483  Biso   1.000  I
  I273     1.0000 0.51468  0.48532  0.98534  Biso   1.000  I
  I274     1.0000 0.48532  0.51468  0.98534  Biso   1.000  I
  I275     1.0000 0.48532  0.48532  0.01470  Biso   1.000  I
  I276     1.0000 0.48532  0.98534  0.51468  Biso   1.000  I
  I277     1.0000 0.48532  0.01470  0.48532  Biso   1.000  I
  I278     1.0000 0.51468  0.01470  0.51468  Biso   1.000  I
  I279     1.0000 0.01470  0.98534  0.98534  Biso   1.000  I
  I280     1.0000 0.48532  0.98534  0.51468  Biso   1.000  I
  I281     1.0000 0.51468  0.98534  0.48532  Biso   1.000  I
  I282     1.0000 0.48532  0.01470  0.48532  Biso   1.000  I
  I283     1.0000 0.98534  0.98534  0.01470  Biso   1.000  I
  I284     1.0000 0.01470  0.98534  0.98534  Biso   1.000  I
  I285     1.0000 0.01470  0.01470  0.01470  Biso   1.000  I
  I286     1.0000 0.48532  0.51468  0.98534  Biso   1.000  I
  I287     1.0000 0.48532  0.48532  0.01470  Biso   1.000  I
  I288     1.0000 0.51468  0.51468  0.01470  Biso   1.000  I
  I289     1.0000 0.51468  0.98534  0.48532  Biso   1.000  I
  I290     1.0000 0.51468  0.48532  0.98534  Biso   1.000  I
  I291     1.0000 0.48532  0.48532  0.01470  Biso   1.000  I
  I292     1.0000 0.51468  0.51468  0.01470  Biso   1.000  I
  I293     1.0000 0.98534  0.98534  0.01470  Biso   1.000  I
  I294     1.0000 0.98534  0.01470  0.98534  Biso   1.000  I
  I295     1.0000 0.01470  0.01470  0.01470  Biso   1.000  I
  I296     1.0000 0.48532  0.98534  0.51468  Biso   1.000  I
  I297     1.0000 0.51468  0.98534  0.48532  Biso   1.000  I
  I298     1.0000 0.48532  0.01470  0.48532  Biso   1.000  I
  I299     1.0000 0.01470  0.51468  0.51468  Biso   1.000  I
  I300     1.0000 0.51468  0.51468  0.01470  Biso   1.000  I
  I301     1.0000 0.51468  0.01470  0.51468  Biso   1.000  I
  I302     1.0000 0.51468  0.48532  0.98534  Biso   1.000  I
  I303     1.0000 0.48532  0.48532  0.01470  Biso   1.000  I
  I304     1.0000 0.51468  0.51468  0.01470  Biso   1.000  I
  I305     1.0000 0.98534  0.51468  0.48532  Biso   1.000  I
  I306     1.0000 0.98534  0.48532  0.51468  Biso   1.000  I
  I307     1.0000 0.01470  0.48532  0.48532  Biso   1.000  I
  I308     1.0000 0.51468  0.48532  0.98534  Biso   1.000  I
  I309     1.0000 0.48532  0.51468  0.98534  Biso   1.000  I
  I310     1.0000 0.48532  0.48532  0.01470  Biso   1.000  I
  I311     1.0000 0.51468  0.01470  0.51468  Biso   1.000  I
  I312     1.0000 0.98534  0.48532  0.51468  Biso   1.000  I
  I313     1.0000 0.01470  0.51468  0.51468  Biso   1.000  I
  I314     1.0000 0.01470  0.48532  0.48532  Biso   1.000  I
  I315     1.0000 0.98534  0.01470  0.98534  Biso   1.000  I
  I316     1.0000 0.12501  0.87499  0.87499  Biso   1.000  I
  I317     1.0000 0.12501  0.12501  0.12501  Biso   1.000  I
  I318     1.0000 0.98534  0.48532  0.51468  Biso   1.000  I
  I319     1.0000 0.12501  0.62503  0.62503  Biso   1.000  I
  I320     1.0000 0.12501  0.37502  0.37502  Biso   1.000  I
  I321     1.0000 0.87499  0.62503  0.37502  Biso   1.000  I
  I322     1.0000 0.62503  0.87499  0.37502  Biso   1.000  I
  I323     1.0000 0.37502  0.12501  0.37502  Biso   1.000  I
  I324     1.0000 0.87499  0.12501  0.87499  Biso   1.000  I
  I325     1.0000 0.12501  0.12501  0.12501  Biso   1.000  I
  I326     1.0000 0.48532  0.98534  0.51468  Biso   1.000  I
  I327     1.0000 0.37502  0.12501  0.37502  Biso   1.000  I
  I328     1.0000 0.62503  0.12501  0.62503  Biso   1.000  I
  I329     1.0000 0.62503  0.87499  0.37502  Biso   1.000  I
  I330     1.0000 0.12501  0.37502  0.37502  Biso   1.000  I
  I331     1.0000 0.87499  0.62503  0.37502  Biso   1.000  I
  I332     1.0000 0.98534  0.51468  0.48532  Biso   1.000  I
  I333     1.0000 0.12501  0.62503  0.62503  Biso   1.000  I
  I334     1.0000 0.12501  0.37502  0.37502  Biso   1.000  I
  I335     1.0000 0.37502  0.12501  0.37502  Biso   1.000  I
  I336     1.0000 0.62503  0.12501  0.62503  Biso   1.000  I
  I337     1.0000 0.98534  0.98534  0.01470  Biso   1.000  I
  I338     1.0000 0.12501  0.87499  0.87499  Biso   1.000  I
  I339     1.0000 0.12501  0.12501  0.12501  Biso   1.000  I
  I340     1.0000 0.87499  0.12501  0.87499  Biso   1.000  I
  I341     1.0000 0.98534  0.01470  0.98534  Biso   1.000  I
  I342     1.0000 0.51468  0.48532  0.98534  Biso   1.000  I
  I343     1.0000 0.48532  0.48532  0.01470  Biso   1.000  I
  I344     1.0000 0.51468  0.51468  0.01470  Biso   1.000  I
  I345     1.0000 0.98534  0.51468  0.48532  Biso   1.000  I
  I346     1.0000 0.98534  0.48532  0.51468  Biso   1.000  I
  I347     1.0000 0.01470  0.51468  0.51468  Biso   1.000  I
  I348     1.0000 0.01470  0.48532  0.48532  Biso   1.000  I
  I349     1.0000 0.48532  0.51468  0.98534  Biso   1.000  I
  I350     1.0000 0.98534  0.98534  0.01470  Biso   1.000  I
  I351     1.0000 0.01470  0.98534  0.98534  Biso   1.000  I
  I352     1.0000 0.01470  0.01470  0.01470  Biso   1.000  I
  I353     1.0000 0.48532  0.51468  0.98534  Biso   1.000  I
  I354     1.0000 0.43481  0.56519  0.93483  Biso   1.000  I
  I355     1.0000 0.43481  0.43481  0.06517  Biso   1.000  I
  I356     1.0000 0.43481  0.06517  0.43481  Biso   1.000  I
  I357     1.0000 0.56519  0.06517  0.56519  Biso   1.000  I
  I358     1.0000 0.43481  0.93483  0.56519  Biso   1.000  I
  I359     1.0000 0.43481  0.06517  0.43481  Biso   1.000  I
  I360     1.0000 0.43481  0.93483  0.56519  Biso   1.000  I
  I361     1.0000 0.06517  0.06517  0.06517  Biso   1.000  I
  I362     1.0000 0.93483  0.93483  0.06517  Biso   1.000  I
  I363     1.0000 0.43481  0.43481  0.06517  Biso   1.000  I
  I364     1.0000 0.56519  0.56519  0.06517  Biso   1.000  I
  I365     1.0000 0.43481  0.56519  0.93483  Biso   1.000  I
  I366     1.0000 0.43481  0.43481  0.06517  Biso   1.000  I
  I367     1.0000 0.56519  0.56519  0.06517  Biso   1.000  I
  I368     1.0000 0.93483  0.06517  0.93483  Biso   1.000  I
  I369     1.0000 0.06517  0.06517  0.06517  Biso   1.000  I
  I370     1.0000 0.93483  0.93483  0.06517  Biso   1.000  I
  I371     1.0000 0.56519  0.93483  0.43481  Biso   1.000  I
  I372     1.0000 0.43481  0.06517  0.43481  Biso   1.000  I
  I373     1.0000 0.43481  0.93483  0.56519  Biso   1.000  I
  I374     1.0000 0.43481  0.43481  0.06517  Biso   1.000  I
  I375     1.0000 0.56519  0.43481  0.93483  Biso   1.000  I
  I376     1.0000 0.93483  0.43481  0.56519  Biso   1.000  I
  I377     1.0000 0.06517  0.43481  0.43481  Biso   1.000  I
  I378     1.0000 0.93483  0.56519  0.43481  Biso   1.000  I
  I379     1.0000 0.43481  0.56519  0.93483  Biso   1.000  I
  I380     1.0000 0.43481  0.43481  0.06517  Biso   1.000  I
  I381     1.0000 0.56519  0.43481  0.93483  Biso   1.000  I
  I382     1.0000 0.06517  0.43481  0.43481  Biso   1.000  I
  I383     1.0000 0.93483  0.43481  0.56519  Biso   1.000  I
  I384     1.0000 0.18480  0.81520  0.81520  Biso   1.000  I
  I385     1.0000 0.18480  0.18480  0.18480  Biso   1.000  I
  I386     1.0000 0.18480  0.68482  0.68482  Biso   1.000  I
  I387     1.0000 0.18480  0.31518  0.31518  Biso   1.000  I
  I388     1.0000 0.81520  0.68482  0.31518  Biso   1.000  I
  I389     1.0000 0.68482  0.81520  0.31518  Biso   1.000  I
  I390     1.0000 0.31518  0.18480  0.31518  Biso   1.000  I
  I391     1.0000 0.81520  0.18480  0.81520  Biso   1.000  I
  I392     1.0000 0.18480  0.18480  0.18480  Biso   1.000  I
  I393     1.0000 0.31518  0.18480  0.31518  Biso   1.000  I
  I394     1.0000 0.68482  0.18480  0.68482  Biso   1.000  I
  I395     1.0000 0.68482  0.81520  0.31518  Biso   1.000  I
  I396     1.0000 0.18480  0.31518  0.31518  Biso   1.000  I
  I397     1.0000 0.81520  0.68482  0.31518  Biso   1.000  I
  I398     1.0000 0.18480  0.68482  0.68482  Biso   1.000  I
  I399     1.0000 0.18480  0.31518  0.31518  Biso   1.000  I
  I400     1.0000 0.31518  0.18480  0.31518  Biso   1.000  I
  I401     1.0000 0.68482  0.18480  0.68482  Biso   1.000  I
  I402     1.0000 0.18480  0.81520  0.81520  Biso   1.000  I
  I403     1.0000 0.18480  0.18480  0.18480  Biso   1.000  I
  I404     1.0000 0.81520  0.18480  0.81520  Biso   1.000  I
  I405     1.0000 0.43481  0.43481  0.06517  Biso   1.000  I
  I406     1.0000 0.56519  0.56519  0.06517  Biso   1.000  I
  I407     1.0000 0.56519  0.43481  0.93483  Biso   1.000  I
  I408     1.0000 0.06517  0.56519  0.56519  Biso   1.000  I
  I409     1.0000 0.06517  0.43481  0.43481  Biso   1.000  I
  I410     1.0000 0.93483  0.43481  0.56519  Biso   1.000  I
  I411     1.0000 0.06517  0.93483  0.93483  Biso   1.000  I
  I412     1.0000 0.06517  0.06517  0.06517  Biso   1.000  I
  I413     1.0000 0.93483  0.93483  0.06517  Biso   1.000  I
  I414     1.0000 0.37502  0.62503  0.87499  Biso   1.000  I
  I415     1.0000 0.37502  0.37502  0.12501  Biso   1.000  I
  I416     1.0000 0.51468  0.98534  0.48532  Biso   1.000  I
  I417     1.0000 0.37502  0.12501  0.37502  Biso   1.000  I
  I418     1.0000 0.62503  0.12501  0.62503  Biso   1.000  I
  I419     1.0000 0.37502  0.87499  0.62503  Biso   1.000  I
  I420     1.0000 0.37502  0.12501  0.37502  Biso   1.000  I
  I421     1.0000 0.37502  0.87499  0.62503  Biso   1.000  I
  I422     1.0000 0.12501  0.12501  0.12501  Biso   1.000  I
  I423     1.0000 0.87499  0.87499  0.12501  Biso   1.000  I
  I424     1.0000 0.51468  0.48532  0.98534  Biso   1.000  I
  I425     1.0000 0.37502  0.37502  0.12501  Biso   1.000  I
  I426     1.0000 0.62503  0.62503  0.12501  Biso   1.000  I
  I427     1.0000 0.37502  0.62503  0.87499  Biso   1.000  I
  I428     1.0000 0.37502  0.37502  0.12501  Biso   1.000  I
  I429     1.0000 0.62503  0.62503  0.12501  Biso   1.000  I
  I430     1.0000 0.01470  0.98534  0.98534  Biso   1.000  I
  I431     1.0000 0.87499  0.12501  0.87499  Biso   1.000  I
  I432     1.0000 0.12501  0.12501  0.12501  Biso   1.000  I
  I433     1.0000 0.87499  0.87499  0.12501  Biso   1.000  I
  I434     1.0000 0.62503  0.87499  0.37502  Biso   1.000  I
  I435     1.0000 0.51468  0.01470  0.51468  Biso   1.000  I
  I436     1.0000 0.37502  0.12501  0.37502  Biso   1.000  I
  I437     1.0000 0.37502  0.87499  0.62503  Biso   1.000  I
  I438     1.0000 0.37502  0.37502  0.12501  Biso   1.000  I
  I439     1.0000 0.62503  0.37502  0.87499  Biso   1.000  I
  I440     1.0000 0.87499  0.37502  0.62503  Biso   1.000  I
  I441     1.0000 0.01470  0.51468  0.51468  Biso   1.000  I
  I442     1.0000 0.12501  0.37502  0.37502  Biso   1.000  I
  I443     1.0000 0.87499  0.62503  0.37502  Biso   1.000  I
  I444     1.0000 0.37502  0.62503  0.87499  Biso   1.000  I
  I445     1.0000 0.51468  0.51468  0.01470  Biso   1.000  I
  I446     1.0000 0.37502  0.37502  0.12501  Biso   1.000  I
  I447     1.0000 0.62503  0.37502  0.87499  Biso   1.000  I
  I448     1.0000 0.12501  0.37502  0.37502  Biso   1.000  I
  I449     1.0000 0.87499  0.37502  0.62503  Biso   1.000  I
  I450     1.0000 0.23531  0.73533  0.73533  Biso   1.000  I
  I451     1.0000 0.26467  0.76469  0.73533  Biso   1.000  I
  I452     1.0000 0.26467  0.73533  0.76469  Biso   1.000  I
  I453     1.0000 0.26467  0.23531  0.26467  Biso   1.000  I
  I454     1.0000 0.26467  0.26467  0.23531  Biso   1.000  I
  I455     1.0000 0.23531  0.26467  0.26467  Biso   1.000  I
  I456     1.0000 0.23531  0.76469  0.76469  Biso   1.000  I
  I457     1.0000 0.26467  0.76469  0.73533  Biso   1.000  I
  I458     1.0000 0.26467  0.73533  0.76469  Biso   1.000  I
  I459     1.0000 0.26467  0.23531  0.26467  Biso   1.000  I
  I460     1.0000 0.26467  0.26467  0.23531  Biso   1.000  I
  I461     1.0000 0.23531  0.23531  0.23531  Biso   1.000  I
  I462     1.0000 0.76469  0.76469  0.23531  Biso   1.000  I
  I463     1.0000 0.73533  0.73533  0.23531  Biso   1.000  I
  I464     1.0000 0.73533  0.76469  0.26467  Biso   1.000  I
  I465     1.0000 0.76469  0.76469  0.23531  Biso   1.000  I
  I466     1.0000 0.76469  0.73533  0.26467  Biso   1.000  I
  I467     1.0000 0.73533  0.73533  0.23531  Biso   1.000  I
  I468     1.0000 0.26467  0.26467  0.23531  Biso   1.000  I
  I469     1.0000 0.23531  0.26467  0.26467  Biso   1.000  I
  I470     1.0000 0.23531  0.23531  0.23531  Biso   1.000  I
  I471     1.0000 0.73533  0.26467  0.76469  Biso   1.000  I
  I472     1.0000 0.73533  0.23531  0.73533  Biso   1.000  I
  I473     1.0000 0.76469  0.26467  0.73533  Biso   1.000  I
  I474     1.0000 0.26467  0.23531  0.26467  Biso   1.000  I
  I475     1.0000 0.26467  0.26467  0.23531  Biso   1.000  I
  I476     1.0000 0.23531  0.26467  0.26467  Biso   1.000  I
  I477     1.0000 0.26467  0.26467  0.23531  Biso   1.000  I
  I478     1.0000 0.23531  0.26467  0.26467  Biso   1.000  I
  I479     1.0000 0.23531  0.23531  0.23531  Biso   1.000  I
  I480     1.0000 0.73533  0.26467  0.76469  Biso   1.000  I
  I481     1.0000 0.76469  0.23531  0.76469  Biso   1.000  I
  I482     1.0000 0.76469  0.26467  0.73533  Biso   1.000  I
  I483     1.0000 0.76469  0.73533  0.26467  Biso   1.000  I
  I484     1.0000 0.26467  0.23531  0.26467  Biso   1.000  I
  I485     1.0000 0.76469  0.76469  0.23531  Biso   1.000  I
  I486     1.0000 0.73533  0.73533  0.23531  Biso   1.000  I
  I487     1.0000 0.73533  0.76469  0.26467  Biso   1.000  I
  I488     1.0000 0.23531  0.76469  0.76469  Biso   1.000  I
  I489     1.0000 0.26467  0.76469  0.73533  Biso   1.000  I
  I490     1.0000 0.26467  0.73533  0.76469  Biso   1.000  I
  I491     1.0000 0.23531  0.23531  0.23531  Biso   1.000  I
  I492     1.0000 0.23531  0.23531  0.23531  Biso   1.000  I
  I493     1.0000 0.73533  0.26467  0.76469  Biso   1.000  I
  I494     1.0000 0.76469  0.23531  0.76469  Biso   1.000  I
  I495     1.0000 0.76469  0.26467  0.73533  Biso   1.000  I
  I496     1.0000 0.23531  0.73533  0.73533  Biso   1.000  I
  I497     1.0000 0.26467  0.23531  0.26467  Biso   1.000  I
  I498     1.0000 0.26467  0.26467  0.23531  Biso   1.000  I
  I499     1.0000 0.23531  0.26467  0.26467  Biso   1.000  I
  I500     1.0000 0.73533  0.23531  0.73533  Biso   1.000  I
  I501     1.0000 0.48532  0.51468  0.98534  Biso   1.000  I
  I502     1.0000 0.37502  0.37502  0.12501  Biso   1.000  I
  I503     1.0000 0.62503  0.62503  0.12501  Biso   1.000  I
  I504     1.0000 0.62503  0.37502  0.87499  Biso   1.000  I
  I505     1.0000 0.98534  0.51468  0.48532  Biso   1.000  I
  I506     1.0000 0.12501  0.62503  0.62503  Biso   1.000  I
  I507     1.0000 0.12501  0.37502  0.37502  Biso   1.000  I
  I508     1.0000 0.87499  0.37502  0.62503  Biso   1.000  I
  I509     1.0000 0.98534  0.01470  0.98534  Biso   1.000  I
  I510     1.0000 0.12501  0.87499  0.87499  Biso   1.000  I
  I511     1.0000 0.12501  0.12501  0.12501  Biso   1.000  I
  I512     1.0000 0.87499  0.87499  0.12501  Biso   1.000  I
  I513     1.0000 0.31518  0.68482  0.81520  Biso   1.000  I
  I514     1.0000 0.31518  0.31518  0.18480  Biso   1.000  I
  I515     1.0000 0.31518  0.18480  0.31518  Biso   1.000  I
  I516     1.0000 0.68482  0.18480  0.68482  Biso   1.000  I
  I517     1.0000 0.31518  0.81520  0.68482  Biso   1.000  I
  I518     1.0000 0.31518  0.18480  0.31518  Biso   1.000  I
  I519     1.0000 0.31518  0.81520  0.68482  Biso   1.000  I
  I520     1.0000 0.18480  0.18480  0.18480  Biso   1.000  I
  I521     1.0000 0.81520  0.81520  0.18480  Biso   1.000  I
  I522     1.0000 0.31518  0.31518  0.18480  Biso   1.000  I
  I523     1.0000 0.68482  0.68482  0.18480  Biso   1.000  I
  I524     1.0000 0.31518  0.68482  0.81520  Biso   1.000  I
  I525     1.0000 0.31518  0.31518  0.18480  Biso   1.000  I
  I526     1.0000 0.68482  0.68482  0.18480  Biso   1.000  I
  I527     1.0000 0.81520  0.18480  0.81520  Biso   1.000  I
  I528     1.0000 0.18480  0.18480  0.18480  Biso   1.000  I
  I529     1.0000 0.81520  0.81520  0.18480  Biso   1.000  I
  I530     1.0000 0.68482  0.81520  0.31518  Biso   1.000  I
  I531     1.0000 0.31518  0.18480  0.31518  Biso   1.000  I
  I532     1.0000 0.31518  0.81520  0.68482  Biso   1.000  I
  I533     1.0000 0.31518  0.31518  0.18480  Biso   1.000  I
  I534     1.0000 0.68482  0.31518  0.81520  Biso   1.000  I
  I535     1.0000 0.81520  0.31518  0.68482  Biso   1.000  I
  I536     1.0000 0.18480  0.31518  0.31518  Biso   1.000  I
  I537     1.0000 0.81520  0.68482  0.31518  Biso   1.000  I
  I538     1.0000 0.31518  0.68482  0.81520  Biso   1.000  I
  I539     1.0000 0.31518  0.31518  0.18480  Biso   1.000  I
  I540     1.0000 0.68482  0.31518  0.81520  Biso   1.000  I
  I541     1.0000 0.18480  0.31518  0.31518  Biso   1.000  I
  I542     1.0000 0.81520  0.31518  0.68482  Biso   1.000  I
  I543     1.0000 0.31518  0.81520  0.68482  Biso   1.000  I
  I544     1.0000 0.31518  0.68482  0.81520  Biso   1.000  I
  I545     1.0000 0.18480  0.68482  0.68482  Biso   1.000  I
  I546     1.0000 0.31518  0.31518  0.18480  Biso   1.000  I
  I547     1.0000 0.31518  0.18480  0.31518  Biso   1.000  I
  I548     1.0000 0.31518  0.81520  0.68482  Biso   1.000  I
  I549     1.0000 0.31518  0.68482  0.81520  Biso   1.000  I
  I550     1.0000 0.31518  0.31518  0.18480  Biso   1.000  I
  I551     1.0000 0.18480  0.18480  0.18480  Biso   1.000  I
  I552     1.0000 0.31518  0.18480  0.31518  Biso   1.000  I
  I553     1.0000 0.68482  0.68482  0.18480  Biso   1.000  I
  I554     1.0000 0.81520  0.81520  0.18480  Biso   1.000  I
  I555     1.0000 0.81520  0.68482  0.31518  Biso   1.000  I
  I556     1.0000 0.68482  0.68482  0.18480  Biso   1.000  I
  I557     1.0000 0.81520  0.81520  0.18480  Biso   1.000  I
  I558     1.0000 0.18480  0.18480  0.18480  Biso   1.000  I
  I559     1.0000 0.31518  0.31518  0.18480  Biso   1.000  I
  I560     1.0000 0.68482  0.18480  0.68482  Biso   1.000  I
  I561     1.0000 0.81520  0.31518  0.68482  Biso   1.000  I
  I562     1.0000 0.68482  0.31518  0.81520  Biso   1.000  I
  I563     1.0000 0.31518  0.31518  0.18480  Biso   1.000  I
  I564     1.0000 0.18480  0.31518  0.31518  Biso   1.000  I
  I565     1.0000 0.18480  0.31518  0.31518  Biso   1.000  I
  I566     1.0000 0.18480  0.18480  0.18480  Biso   1.000  I
  I567     1.0000 0.31518  0.31518  0.18480  Biso   1.000  I
  I568     1.0000 0.81520  0.31518  0.68482  Biso   1.000  I
  I569     1.0000 0.68482  0.31518  0.81520  Biso   1.000  I
  I570     1.0000 0.68482  0.68482  0.18480  Biso   1.000  I
  I571     1.0000 0.68482  0.81520  0.31518  Biso   1.000  I
  I572     1.0000 0.81520  0.81520  0.18480  Biso   1.000  I
  I573     1.0000 0.31518  0.81520  0.68482  Biso   1.000  I
  I574     1.0000 0.31518  0.68482  0.81520  Biso   1.000  I
  I575     1.0000 0.18480  0.81520  0.81520  Biso   1.000  I
  I576     1.0000 0.81520  0.18480  0.81520  Biso   1.000  I
  I577     1.0000 0.81520  0.31518  0.68482  Biso   1.000  I
  I578     1.0000 0.68482  0.31518  0.81520  Biso   1.000  I
  I579     1.0000 0.31518  0.31518  0.18480  Biso   1.000  I
  I580     1.0000 0.18480  0.31518  0.31518  Biso   1.000  I
  I581     1.0000 0.31518  0.18480  0.31518  Biso   1.000  I
  I582     1.0000 0.31518  0.31518  0.18480  Biso   1.000  I
  I583     1.0000 0.68482  0.68482  0.18480  Biso   1.000  I
  I584     1.0000 0.68482  0.31518  0.81520  Biso   1.000  I
  I585     1.0000 0.18480  0.68482  0.68482  Biso   1.000  I
  I586     1.0000 0.18480  0.31518  0.31518  Biso   1.000  I
  I587     1.0000 0.81520  0.31518  0.68482  Biso   1.000  I
  I588     1.0000 0.18480  0.81520  0.81520  Biso   1.000  I
  I589     1.0000 0.18480  0.18480  0.18480  Biso   1.000  I
  I590     1.0000 0.81520  0.81520  0.18480  Biso   1.000  I
  I591     1.0000 0.23531  0.73533  0.73533  Biso   1.000  I
  I592     1.0000 0.23531  0.76469  0.76469  Biso   1.000  I
  I593     1.0000 0.26467  0.76469  0.73533  Biso   1.000  I
  I594     1.0000 0.26467  0.23531  0.26467  Biso   1.000  I
  I595     1.0000 0.23531  0.26467  0.26467  Biso   1.000  I
  I596     1.0000 0.23531  0.23531  0.23531  Biso   1.000  I
  I597     1.0000 0.26467  0.26467  0.23531  Biso   1.000  I
  I598     1.0000 0.23531  0.26467  0.26467  Biso   1.000  I
  I599     1.0000 0.23531  0.23531  0.23531  Biso   1.000  I
  I600     1.0000 0.73533  0.26467  0.76469  Biso   1.000  I
  I601     1.0000 0.76469  0.23531  0.76469  Biso   1.000  I
  I602     1.0000 0.76469  0.26467  0.73533  Biso   1.000  I
  I603     1.0000 0.23531  0.73533  0.73533  Biso   1.000  I
  I604     1.0000 0.23531  0.76469  0.76469  Biso   1.000  I
  I605     1.0000 0.26467  0.73533  0.76469  Biso   1.000  I
  I606     1.0000 0.26467  0.26467  0.23531  Biso   1.000  I
  I607     1.0000 0.23531  0.73533  0.73533  Biso   1.000  I
  I608     1.0000 0.23531  0.76469  0.76469  Biso   1.000  I
  I609     1.0000 0.26467  0.73533  0.76469  Biso   1.000  I
  I610     1.0000 0.26467  0.23531  0.26467  Biso   1.000  I
  I611     1.0000 0.26467  0.26467  0.23531  Biso   1.000  I
  I612     1.0000 0.23531  0.26467  0.26467  Biso   1.000  I
  I613     1.0000 0.76469  0.73533  0.26467  Biso   1.000  I
  I614     1.0000 0.73533  0.73533  0.23531  Biso   1.000  I
  I615     1.0000 0.73533  0.76469  0.26467  Biso   1.000  I
  I616     1.0000 0.26467  0.23531  0.26467  Biso   1.000  I
  I617     1.0000 0.23531  0.26467  0.26467  Biso   1.000  I
  I618     1.0000 0.23531  0.23531  0.23531  Biso   1.000  I
  I619     1.0000 0.76469  0.76469  0.23531  Biso   1.000  I
  I620     1.0000 0.76469  0.73533  0.26467  Biso   1.000  I
  I621     1.0000 0.73533  0.76469  0.26467  Biso   1.000  I
  I622     1.0000 0.26467  0.76469  0.73533  Biso   1.000  I
  I623     1.0000 0.23531  0.23531  0.23531  Biso   1.000  I
  I624     1.0000 0.76469  0.76469  0.23531  Biso   1.000  I
  I625     1.0000 0.76469  0.73533  0.26467  Biso   1.000  I
  I626     1.0000 0.73533  0.76469  0.26467  Biso   1.000  I
  I627     1.0000 0.73533  0.23531  0.73533  Biso   1.000  I
  I628     1.0000 0.26467  0.23531  0.26467  Biso   1.000  I
  I629     1.0000 0.26467  0.26467  0.23531  Biso   1.000  I
  I630     1.0000 0.23531  0.26467  0.26467  Biso   1.000  I
  I631     1.0000 0.73533  0.73533  0.23531  Biso   1.000  I
  I632     1.0000 0.76469  0.76469  0.23531  Biso   1.000  I
  I633     1.0000 0.76469  0.73533  0.26467  Biso   1.000  I
  I634     1.0000 0.73533  0.73533  0.23531  Biso   1.000  I
  I635     1.0000 0.26467  0.26467  0.23531  Biso   1.000  I
  I636     1.0000 0.23531  0.26467  0.26467  Biso   1.000  I
  I637     1.0000 0.23531  0.23531  0.23531  Biso   1.000  I
  I638     1.0000 0.23531  0.73533  0.73533  Biso   1.000  I
  I639     1.0000 0.23531  0.76469  0.76469  Biso   1.000  I
  I640     1.0000 0.26467  0.73533  0.76469  Biso   1.000  I
  I641     1.0000 0.26467  0.23531  0.26467  Biso   1.000  I
  I642     1.0000 0.23531  0.26467  0.26467  Biso   1.000  I
  I643     1.0000 0.23531  0.23531  0.23531  Biso   1.000  I
  I644     1.0000 0.73533  0.23531  0.73533  Biso   1.000  I
  I645     1.0000 0.76469  0.23531  0.76469  Biso   1.000  I
  I646     1.0000 0.76469  0.26467  0.73533  Biso   1.000  I
  I647     1.0000 0.73533  0.26467  0.76469  Biso   1.000  I
  I648     1.0000 0.73533  0.23531  0.73533  Biso   1.000  I
  I649     1.0000 0.76469  0.23531  0.76469  Biso   1.000  I
  I650     1.0000 0.26467  0.23531  0.26467  Biso   1.000  I
  I651     1.0000 0.26467  0.26467  0.23531  Biso   1.000  I
  I652     1.0000 0.23531  0.23531  0.23531  Biso   1.000  I
  I653     1.0000 0.73533  0.76469  0.26467  Biso   1.000  I
  I654     1.0000 0.26467  0.76469  0.73533  Biso   1.000  I
  I655     1.0000 0.26467  0.23531  0.26467  Biso   1.000  I
  I656     1.0000 0.23531  0.26467  0.26467  Biso   1.000  I
  I657     1.0000 0.23531  0.23531  0.23531  Biso   1.000  I
  I658     1.0000 0.76469  0.26467  0.73533  Biso   1.000  I
  I659     1.0000 0.26467  0.26467  0.23531  Biso   1.000  I
  I660     1.0000 0.73533  0.26467  0.76469  Biso   1.000  I
  I661     1.0000 0.73533  0.23531  0.73533  Biso   1.000  I
  I662     1.0000 0.76469  0.23531  0.76469  Biso   1.000  I
  I663     1.0000 0.23531  0.76469  0.76469  Biso   1.000  I
  I664     1.0000 0.37502  0.87499  0.62503  Biso   1.000  I
  I665     1.0000 0.37502  0.62503  0.87499  Biso   1.000  I
  I666     1.0000 0.12501  0.62503  0.62503  Biso   1.000  I
  I667     1.0000 0.37502  0.37502  0.12501  Biso   1.000  I
  I668     1.0000 0.37502  0.12501  0.37502  Biso   1.000  I
  I669     1.0000 0.37502  0.87499  0.62503  Biso   1.000  I
  I670     1.0000 0.37502  0.62503  0.87499  Biso   1.000  I
  I671     1.0000 0.37502  0.37502  0.12501  Biso   1.000  I
  I672     1.0000 0.23531  0.26467  0.26467  Biso   1.000  I
  I673     1.0000 0.12501  0.12501  0.12501  Biso   1.000  I
  I674     1.0000 0.37502  0.12501  0.37502  Biso   1.000  I
  I675     1.0000 0.62503  0.62503  0.12501  Biso   1.000  I
  I676     1.0000 0.87499  0.87499  0.12501  Biso   1.000  I
  I677     1.0000 0.87499  0.62503  0.37502  Biso   1.000  I
  I678     1.0000 0.73533  0.76469  0.26467  Biso   1.000  I
  I679     1.0000 0.62503  0.62503  0.12501  Biso   1.000  I
  I680     1.0000 0.87499  0.87499  0.12501  Biso   1.000  I
  I681     1.0000 0.12501  0.12501  0.12501  Biso   1.000  I
  I682     1.0000 0.37502  0.37502  0.12501  Biso   1.000  I
  I683     1.0000 0.62503  0.12501  0.62503  Biso   1.000  I
  I684     1.0000 0.76469  0.23531  0.76469  Biso   1.000  I
  I685     1.0000 0.87499  0.37502  0.62503  Biso   1.000  I
  I686     1.0000 0.62503  0.37502  0.87499  Biso   1.000  I
  I687     1.0000 0.37502  0.37502  0.12501  Biso   1.000  I
  I688     1.0000 0.12501  0.37502  0.37502  Biso   1.000  I
  I689     1.0000 0.26467  0.23531  0.26467  Biso   1.000  I
  I690     1.0000 0.12501  0.37502  0.37502  Biso   1.000  I
  I691     1.0000 0.12501  0.12501  0.12501  Biso   1.000  I
  I692     1.0000 0.37502  0.37502  0.12501  Biso   1.000  I
  I693     1.0000 0.87499  0.37502  0.62503  Biso   1.000  I
  I694     1.0000 0.62503  0.37502  0.87499  Biso   1.000  I
  I695     1.0000 0.76469  0.73533  0.26467  Biso   1.000  I
  I696     1.0000 0.62503  0.62503  0.12501  Biso   1.000  I
  I697     1.0000 0.62503  0.87499  0.37502  Biso   1.000  I
  I698     1.0000 0.87499  0.87499  0.12501  Biso   1.000  I
  I699     1.0000 0.23531  0.73533  0.73533  Biso   1.000  I
  I700     1.0000 0.37502  0.87499  0.62503  Biso   1.000  I
  I701     1.0000 0.37502  0.62503  0.87499  Biso   1.000  I
  I702     1.0000 0.12501  0.87499  0.87499  Biso   1.000  I
  I703     1.0000 0.73533  0.23531  0.73533  Biso   1.000  I
  I704     1.0000 0.87499  0.12501  0.87499  Biso   1.000  I
  I705     1.0000 0.87499  0.37502  0.62503  Biso   1.000  I
  I706     1.0000 0.62503  0.37502  0.87499  Biso   1.000  I
  I707     1.0000 0.37502  0.37502  0.12501  Biso   1.000  I
  I708     1.0000 0.23531  0.23531  0.23531  Biso   1.000  I
  I709     1.0000 0.12501  0.37502  0.37502  Biso   1.000  I
  I710     1.0000 0.37502  0.12501  0.37502  Biso   1.000  I
  I711     1.0000 0.26467  0.23531  0.26467  Biso   1.000  I
  I712     1.0000 0.23531  0.26467  0.26467  Biso   1.000  I
  I713     1.0000 0.23531  0.23531  0.23531  Biso   1.000  I
  I714     1.0000 0.76469  0.76469  0.23531  Biso   1.000  I
  I715     1.0000 0.76469  0.73533  0.26467  Biso   1.000  I
  I716     1.0000 0.73533  0.76469  0.26467  Biso   1.000  I
  I717     1.0000 0.73533  0.23531  0.73533  Biso   1.000  I
  I718     1.0000 0.76469  0.23531  0.76469  Biso   1.000  I
  I719     1.0000 0.76469  0.26467  0.73533  Biso   1.000  I
  I720     1.0000 0.23531  0.76469  0.76469  Biso   1.000  I
  I721     1.0000 0.26467  0.76469  0.73533  Biso   1.000  I
  I722     1.0000 0.26467  0.73533  0.76469  Biso   1.000  I
  I723     1.0000 0.26467  0.23531  0.26467  Biso   1.000  I
  I724     1.0000 0.26467  0.26467  0.23531  Biso   1.000  I
  I725     1.0000 0.23531  0.23531  0.23531  Biso   1.000  I
  I726     1.0000 0.73533  0.26467  0.76469  Biso   1.000  I
  I727     1.0000 0.23531  0.73533  0.73533  Biso   1.000  I
  I728     1.0000 0.26467  0.23531  0.26467  Biso   1.000  I
  I729     1.0000 0.26467  0.26467  0.23531  Biso   1.000  I
  I730     1.0000 0.23531  0.26467  0.26467  Biso   1.000  I
  I731     1.0000 0.73533  0.73533  0.23531  Biso   1.000  I
  I732     1.0000 0.18480  0.81520  0.81520  Biso   1.000  I
  I733     1.0000 0.31518  0.81520  0.68482  Biso   1.000  I
  I734     1.0000 0.18480  0.68482  0.68482  Biso   1.000  I
  I735     1.0000 0.18480  0.31518  0.31518  Biso   1.000  I
  I736     1.0000 0.18480  0.18480  0.18480  Biso   1.000  I
  I737     1.0000 0.18480  0.31518  0.31518  Biso   1.000  I
  I738     1.0000 0.18480  0.18480  0.18480  Biso   1.000  I
  I739     1.0000 0.31518  0.31518  0.18480  Biso   1.000  I
  I740     1.0000 0.81520  0.31518  0.68482  Biso   1.000  I
  I741     1.0000 0.68482  0.31518  0.81520  Biso   1.000  I
  I742     1.0000 0.18480  0.81520  0.81520  Biso   1.000  I
  I743     1.0000 0.18480  0.68482  0.68482  Biso   1.000  I
  I744     1.0000 0.18480  0.81520  0.81520  Biso   1.000  I
  I745     1.0000 0.31518  0.68482  0.81520  Biso   1.000  I
  I746     1.0000 0.18480  0.68482  0.68482  Biso   1.000  I
  I747     1.0000 0.18480  0.31518  0.31518  Biso   1.000  I
  I748     1.0000 0.31518  0.18480  0.31518  Biso   1.000  I
  I749     1.0000 0.68482  0.68482  0.18480  Biso   1.000  I
  I750     1.0000 0.68482  0.81520  0.31518  Biso   1.000  I
  I751     1.0000 0.81520  0.68482  0.31518  Biso   1.000  I
  I752     1.0000 0.18480  0.31518  0.31518  Biso   1.000  I
  I753     1.0000 0.18480  0.18480  0.18480  Biso   1.000  I
  I754     1.0000 0.31518  0.18480  0.31518  Biso   1.000  I
  I755     1.0000 0.81520  0.68482  0.31518  Biso   1.000  I
  I756     1.0000 0.68482  0.81520  0.31518  Biso   1.000  I
  I757     1.0000 0.81520  0.68482  0.31518  Biso   1.000  I
  I758     1.0000 0.68482  0.81520  0.31518  Biso   1.000  I
  I759     1.0000 0.81520  0.81520  0.18480  Biso   1.000  I
  I760     1.0000 0.31518  0.31518  0.18480  Biso   1.000  I
  I761     1.0000 0.18480  0.31518  0.31518  Biso   1.000  I
  I762     1.0000 0.31518  0.18480  0.31518  Biso   1.000  I
  I763     1.0000 0.68482  0.68482  0.18480  Biso   1.000  I
  I764     1.0000 0.81520  0.81520  0.18480  Biso   1.000  I
  I765     1.0000 0.18480  0.31518  0.31518  Biso   1.000  I
  I766     1.0000 0.18480  0.18480  0.18480  Biso   1.000  I
  I767     1.0000 0.31518  0.31518  0.18480  Biso   1.000  I
  I768     1.0000 0.18480  0.81520  0.81520  Biso   1.000  I
  I769     1.0000 0.18480  0.68482  0.68482  Biso   1.000  I
  I770     1.0000 0.18480  0.18480  0.18480  Biso   1.000  I
  I771     1.0000 0.31518  0.18480  0.31518  Biso   1.000  I
  I772     1.0000 0.81520  0.18480  0.81520  Biso   1.000  I
  I773     1.0000 0.81520  0.31518  0.68482  Biso   1.000  I
  I774     1.0000 0.68482  0.18480  0.68482  Biso   1.000  I
  I775     1.0000 0.68482  0.18480  0.68482  Biso   1.000  I
  I776     1.0000 0.81520  0.18480  0.81520  Biso   1.000  I
  I777     1.0000 0.31518  0.31518  0.18480  Biso   1.000  I
  I778     1.0000 0.18480  0.18480  0.18480  Biso   1.000  I
  I779     1.0000 0.31518  0.18480  0.31518  Biso   1.000  I
  I780     1.0000 0.18480  0.31518  0.31518  Biso   1.000  I
  I781     1.0000 0.18480  0.18480  0.18480  Biso   1.000  I
  I782     1.0000 0.31518  0.18480  0.31518  Biso   1.000  I
  I783     1.0000 0.68482  0.18480  0.68482  Biso   1.000  I
  I784     1.0000 0.81520  0.18480  0.81520  Biso   1.000  I
  I785     1.0000 0.68482  0.31518  0.81520  Biso   1.000  I
  I786     1.0000 0.43481  0.93483  0.56519  Biso   1.000  I
  I787     1.0000 0.43481  0.56519  0.93483  Biso   1.000  I
  I788     1.0000 0.06517  0.56519  0.56519  Biso   1.000  I
  I789     1.0000 0.43481  0.43481  0.06517  Biso   1.000  I
  I790     1.0000 0.43481  0.06517  0.43481  Biso   1.000  I
  I791     1.0000 0.43481  0.93483  0.56519  Biso   1.000  I
  I792     1.0000 0.43481  0.56519  0.93483  Biso   1.000  I
  I793     1.0000 0.43481  0.43481  0.06517  Biso   1.000  I
  I794     1.0000 0.06517  0.06517  0.06517  Biso   1.000  I
  I795     1.0000 0.43481  0.06517  0.43481  Biso   1.000  I
  I796     1.0000 0.56519  0.56519  0.06517  Biso   1.000  I
  I797     1.0000 0.93483  0.93483  0.06517  Biso   1.000  I
  I798     1.0000 0.93483  0.56519  0.43481  Biso   1.000  I
  I799     1.0000 0.56519  0.56519  0.06517  Biso   1.000  I
  I800     1.0000 0.93483  0.93483  0.06517  Biso   1.000  I
  I801     1.0000 0.06517  0.06517  0.06517  Biso   1.000  I
  I802     1.0000 0.43481  0.43481  0.06517  Biso   1.000  I
  I803     1.0000 0.56519  0.06517  0.56519  Biso   1.000  I
  I804     1.0000 0.93483  0.43481  0.56519  Biso   1.000  I
  I805     1.0000 0.56519  0.43481  0.93483  Biso   1.000  I
  I806     1.0000 0.43481  0.43481  0.06517  Biso   1.000  I
  I807     1.0000 0.06517  0.43481  0.43481  Biso   1.000  I
  I808     1.0000 0.06517  0.43481  0.43481  Biso   1.000  I
  I809     1.0000 0.06517  0.06517  0.06517  Biso   1.000  I
  I810     1.0000 0.43481  0.43481  0.06517  Biso   1.000  I
  I811     1.0000 0.93483  0.43481  0.56519  Biso   1.000  I
  I812     1.0000 0.56519  0.43481  0.93483  Biso   1.000  I
  I813     1.0000 0.56519  0.56519  0.06517  Biso   1.000  I
  I814     1.0000 0.56519  0.93483  0.43481  Biso   1.000  I
  I815     1.0000 0.93483  0.93483  0.06517  Biso   1.000  I
  I816     1.0000 0.43481  0.93483  0.56519  Biso   1.000  I
  I817     1.0000 0.43481  0.56519  0.93483  Biso   1.000  I
  I818     1.0000 0.06517  0.93483  0.93483  Biso   1.000  I
  I819     1.0000 0.93483  0.06517  0.93483  Biso   1.000  I
  I820     1.0000 0.93483  0.43481  0.56519  Biso   1.000  I
  I821     1.0000 0.56519  0.43481  0.93483  Biso   1.000  I
  I822     1.0000 0.43481  0.43481  0.06517  Biso   1.000  I
  I823     1.0000 0.06517  0.43481  0.43481  Biso   1.000  I
  I824     1.0000 0.43481  0.06517  0.43481  Biso   1.000  I
  I825     1.0000 0.18480  0.31518  0.31518  Biso   1.000  I
  I826     1.0000 0.18480  0.18480  0.18480  Biso   1.000  I
  I827     1.0000 0.31518  0.18480  0.31518  Biso   1.000  I
  I828     1.0000 0.81520  0.68482  0.31518  Biso   1.000  I
  I829     1.0000 0.68482  0.81520  0.31518  Biso   1.000  I
  I830     1.0000 0.81520  0.18480  0.81520  Biso   1.000  I
  I831     1.0000 0.68482  0.18480  0.68482  Biso   1.000  I
  I832     1.0000 0.31518  0.81520  0.68482  Biso   1.000  I
  I833     1.0000 0.31518  0.68482  0.81520  Biso   1.000  I
  I834     1.0000 0.31518  0.31518  0.18480  Biso   1.000  I
  I835     1.0000 0.18480  0.18480  0.18480  Biso   1.000  I
  I836     1.0000 0.31518  0.18480  0.31518  Biso   1.000  I
  I837     1.0000 0.31518  0.31518  0.18480  Biso   1.000  I
  I838     1.0000 0.18480  0.31518  0.31518  Biso   1.000  I
  I839     1.0000 0.31518  0.18480  0.31518  Biso   1.000  I
  I840     1.0000 0.12501  0.87499  0.87499  Biso   1.000  I
  I841     1.0000 0.26467  0.73533  0.76469  Biso   1.000  I
  I842     1.0000 0.37502  0.87499  0.62503  Biso   1.000  I
  I843     1.0000 0.12501  0.62503  0.62503  Biso   1.000  I
  I844     1.0000 0.12501  0.37502  0.37502  Biso   1.000  I
  I845     1.0000 0.12501  0.12501  0.12501  Biso   1.000  I
  I846     1.0000 0.26467  0.23531  0.26467  Biso   1.000  I
  I847     1.0000 0.12501  0.37502  0.37502  Biso   1.000  I
  I848     1.0000 0.12501  0.12501  0.12501  Biso   1.000  I
  I849     1.0000 0.37502  0.37502  0.12501  Biso   1.000  I
  I850     1.0000 0.87499  0.37502  0.62503  Biso   1.000  I
  I851     1.0000 0.62503  0.37502  0.87499  Biso   1.000  I
  I852     1.0000 0.12501  0.87499  0.87499  Biso   1.000  I
  I853     1.0000 0.12501  0.62503  0.62503  Biso   1.000  I
  I854     1.0000 0.12501  0.87499  0.87499  Biso   1.000  I
  I855     1.0000 0.26467  0.76469  0.73533  Biso   1.000  I
  I856     1.0000 0.37502  0.62503  0.87499  Biso   1.000  I
  I857     1.0000 0.12501  0.62503  0.62503  Biso   1.000  I
  I858     1.0000 0.12501  0.37502  0.37502  Biso   1.000  I
  I859     1.0000 0.37502  0.12501  0.37502  Biso   1.000  I
  I860     1.0000 0.76469  0.76469  0.23531  Biso   1.000  I
  I861     1.0000 0.62503  0.62503  0.12501  Biso   1.000  I
  I862     1.0000 0.62503  0.87499  0.37502  Biso   1.000  I
  I863     1.0000 0.87499  0.62503  0.37502  Biso   1.000  I
  I864     1.0000 0.26467  0.26467  0.23531  Biso   1.000  I
  I865     1.0000 0.12501  0.37502  0.37502  Biso   1.000  I
  I866     1.0000 0.12501  0.12501  0.12501  Biso   1.000  I
  I867     1.0000 0.37502  0.12501  0.37502  Biso   1.000  I
  I868     1.0000 0.87499  0.62503  0.37502  Biso   1.000  I
  I869     1.0000 0.62503  0.87499  0.37502  Biso   1.000  I
  I870     1.0000 0.87499  0.62503  0.37502  Biso   1.000  I
  I871     1.0000 0.73533  0.73533  0.23531  Biso   1.000  I
  I872     1.0000 0.62503  0.87499  0.37502  Biso   1.000  I
  I873     1.0000 0.87499  0.87499  0.12501  Biso   1.000  I
  I874     1.0000 0.37502  0.37502  0.12501  Biso   1.000  I
  I875     1.0000 0.23531  0.23531  0.23531  Biso   1.000  I
  I876     1.0000 0.12501  0.37502  0.37502  Biso   1.000  I
  I877     1.0000 0.37502  0.12501  0.37502  Biso   1.000  I
  I878     1.0000 0.62503  0.62503  0.12501  Biso   1.000  I
  I879     1.0000 0.87499  0.87499  0.12501  Biso   1.000  I
  I880     1.0000 0.26467  0.23531  0.26467  Biso   1.000  I
  I881     1.0000 0.12501  0.37502  0.37502  Biso   1.000  I
  I882     1.0000 0.12501  0.12501  0.12501  Biso   1.000  I
  I883     1.0000 0.37502  0.37502  0.12501  Biso   1.000  I
  I884     1.0000 0.12501  0.87499  0.87499  Biso   1.000  I
  I885     1.0000 0.12501  0.62503  0.62503  Biso   1.000  I
  I886     1.0000 0.12501  0.12501  0.12501  Biso   1.000  I
  I887     1.0000 0.37502  0.12501  0.37502  Biso   1.000  I
  I888     1.0000 0.73533  0.26467  0.76469  Biso   1.000  I
  I889     1.0000 0.87499  0.12501  0.87499  Biso   1.000  I
  I890     1.0000 0.87499  0.37502  0.62503  Biso   1.000  I
  I891     1.0000 0.62503  0.12501  0.62503  Biso   1.000  I
  I892     1.0000 0.62503  0.12501  0.62503  Biso   1.000  I
  I893     1.0000 0.87499  0.12501  0.87499  Biso   1.000  I
  I894     1.0000 0.37502  0.37502  0.12501  Biso   1.000  I
  I895     1.0000 0.23531  0.26467  0.26467  Biso   1.000  I
  I896     1.0000 0.12501  0.12501  0.12501  Biso   1.000  I
  I897     1.0000 0.37502  0.12501  0.37502  Biso   1.000  I
  I898     1.0000 0.26467  0.26467  0.23531  Biso   1.000  I
  I899     1.0000 0.12501  0.37502  0.37502  Biso   1.000  I
  I900     1.0000 0.12501  0.12501  0.12501  Biso   1.000  I
  I901     1.0000 0.37502  0.12501  0.37502  Biso   1.000  I
  I902     1.0000 0.62503  0.12501  0.62503  Biso   1.000  I
  I903     1.0000 0.76469  0.26467  0.73533  Biso   1.000  I
  I904     1.0000 0.87499  0.12501  0.87499  Biso   1.000  I
  I905     1.0000 0.62503  0.37502  0.87499  Biso   1.000  I
  I906     1.0000 0.51468  0.98534  0.48532  Biso   1.000  I
  I907     1.0000 0.48532  0.01470  0.48532  Biso   1.000  I
  I908     1.0000 0.51468  0.01470  0.51468  Biso   1.000  I
  I909     1.0000 0.51468  0.48532  0.98534  Biso   1.000  I
  I910     1.0000 0.48532  0.48532  0.01470  Biso   1.000  I
  I911     1.0000 0.51468  0.51468  0.01470  Biso   1.000  I
  I912     1.0000 0.98534  0.51468  0.48532  Biso   1.000  I
  I913     1.0000 0.98534  0.48532  0.51468  Biso   1.000  I
  I914     1.0000 0.01470  0.48532  0.48532  Biso   1.000  I
  I915     1.0000 0.51468  0.48532  0.98534  Biso   1.000  I
  I916     1.0000 0.48532  0.51468  0.98534  Biso   1.000  I
  I917     1.0000 0.51468  0.51468  0.01470  Biso   1.000  I
  I918     1.0000 0.48532  0.98534  0.51468  Biso   1.000  I
  I919     1.0000 0.51468  0.98534  0.48532  Biso   1.000  I
  I920     1.0000 0.51468  0.01470  0.51468  Biso   1.000  I
  I921     1.0000 0.51468  0.98534  0.48532  Biso   1.000  I
  I922     1.0000 0.48532  0.01470  0.48532  Biso   1.000  I
  I923     1.0000 0.51468  0.01470  0.51468  Biso   1.000  I
  I924     1.0000 0.48532  0.48532  0.01470  Biso   1.000  I
  I925     1.0000 0.51468  0.51468  0.01470  Biso   1.000  I
  I926     1.0000 0.98534  0.98534  0.01470  Biso   1.000  I
  I927     1.0000 0.48532  0.98534  0.51468  Biso   1.000  I
  I928     1.0000 0.48532  0.48532  0.01470  Biso   1.000  I
  I929     1.0000 0.01470  0.01470  0.01470  Biso   1.000  I
  I930     1.0000 0.01470  0.51468  0.51468  Biso   1.000  I
  I931     1.0000 0.48532  0.48532  0.01470  Biso   1.000  I
  I932     1.0000 0.01470  0.01470  0.01470  Biso   1.000  I
  I933     1.0000 0.98534  0.98534  0.01470  Biso   1.000  I
  I934     1.0000 0.51468  0.51468  0.01470  Biso   1.000  I
  I935     1.0000 0.48532  0.98534  0.51468  Biso   1.000  I
  I936     1.0000 0.51468  0.98534  0.48532  Biso   1.000  I
  I937     1.0000 0.48532  0.01470  0.48532  Biso   1.000  I
  I938     1.0000 0.98534  0.51468  0.48532  Biso   1.000  I
  I939     1.0000 0.01470  0.51468  0.51468  Biso   1.000  I
  I940     1.0000 0.01470  0.48532  0.48532  Biso   1.000  I
  I941     1.0000 0.48532  0.51468  0.98534  Biso   1.000  I
  I942     1.0000 0.48532  0.48532  0.01470  Biso   1.000  I
  I943     1.0000 0.51468  0.51468  0.01470  Biso   1.000  I
  I944     1.0000 0.51468  0.48532  0.98534  Biso   1.000  I
  I945     1.0000 0.48532  0.51468  0.98534  Biso   1.000  I
  I946     1.0000 0.51468  0.51468  0.01470  Biso   1.000  I
  I947     1.0000 0.98534  0.51468  0.48532  Biso   1.000  I
  I948     1.0000 0.98534  0.48532  0.51468  Biso   1.000  I
  I949     1.0000 0.01470  0.51468  0.51468  Biso   1.000  I
  I950     1.0000 0.98534  0.48532  0.51468  Biso   1.000  I
  I951     1.0000 0.98534  0.98534  0.01470  Biso   1.000  I
  I952     1.0000 0.51468  0.51468  0.01470  Biso   1.000  I
  I953     1.0000 0.98534  0.51468  0.48532  Biso   1.000  I
  I954     1.0000 0.01470  0.51468  0.51468  Biso   1.000  I
  I955     1.0000 0.01470  0.48532  0.48532  Biso   1.000  I
  I956     1.0000 0.48532  0.48532  0.01470  Biso   1.000  I
  I957     1.0000 0.48532  0.48532  0.01470  Biso   1.000  I
  I958     1.0000 0.51468  0.01470  0.51468  Biso   1.000  I
  I959     1.0000 0.01470  0.01470  0.01470  Biso   1.000  I
  I960     1.0000 0.51468  0.98534  0.48532  Biso   1.000  I
  I961     1.0000 0.48532  0.01470  0.48532  Biso   1.000  I
  I962     1.0000 0.51468  0.01470  0.51468  Biso   1.000  I
  I963     1.0000 0.51468  0.48532  0.98534  Biso   1.000  I
  I964     1.0000 0.48532  0.48532  0.01470  Biso   1.000  I
  I965     1.0000 0.51468  0.51468  0.01470  Biso   1.000  I
  I966     1.0000 0.98534  0.98534  0.01470  Biso   1.000  I
  I967     1.0000 0.98534  0.01470  0.98534  Biso   1.000  I
  I968     1.0000 0.01470  0.01470  0.01470  Biso   1.000  I
  I969     1.0000 0.01470  0.98534  0.98534  Biso   1.000  I
  I970     1.0000 0.98534  0.51468  0.48532  Biso   1.000  I
  I971     1.0000 0.01470  0.51468  0.51468  Biso   1.000  I
  I972     1.0000 0.01470  0.48532  0.48532  Biso   1.000  I
  I973     1.0000 0.48532  0.51468  0.98534  Biso   1.000  I
  I974     1.0000 0.48532  0.48532  0.01470  Biso   1.000  I
  I975     1.0000 0.51468  0.51468  0.01470  Biso   1.000  I
  I976     1.0000 0.51468  0.48532  0.98534  Biso   1.000  I
  I977     1.0000 0.48532  0.51468  0.98534  Biso   1.000  I
  I978     1.0000 0.51468  0.51468  0.01470  Biso   1.000  I
  I979     1.0000 0.98534  0.48532  0.51468  Biso   1.000  I
  I980     1.0000 0.48532  0.98534  0.51468  Biso   1.000  I
  I981     1.0000 0.26467  0.26467  0.23531  Biso   1.000  I
  I982     1.0000 0.12501  0.37502  0.37502  Biso   1.000  I
  I983     1.0000 0.12501  0.12501  0.12501  Biso   1.000  I
  I984     1.0000 0.37502  0.12501  0.37502  Biso   1.000  I
  I985     1.0000 0.87499  0.62503  0.37502  Biso   1.000  I
  I986     1.0000 0.62503  0.87499  0.37502  Biso   1.000  I
  I987     1.0000 0.87499  0.12501  0.87499  Biso   1.000  I
  I988     1.0000 0.62503  0.12501  0.62503  Biso   1.000  I
  I989     1.0000 0.37502  0.87499  0.62503  Biso   1.000  I
  I990     1.0000 0.37502  0.62503  0.87499  Biso   1.000  I
  I991     1.0000 0.37502  0.37502  0.12501  Biso   1.000  I
  I992     1.0000 0.23531  0.26467  0.26467  Biso   1.000  I
  I993     1.0000 0.12501  0.12501  0.12501  Biso   1.000  I
  I994     1.0000 0.37502  0.12501  0.37502  Biso   1.000  I
  I995     1.0000 0.37502  0.37502  0.12501  Biso   1.000  I
  I996     1.0000 0.23531  0.23531  0.23531  Biso   1.000  I
  I997     1.0000 0.12501  0.37502  0.37502  Biso   1.000  I
  I998     1.0000 0.37502  0.12501  0.37502  Biso   1.000  I
  I999     1.0000 0.06517  0.93483  0.93483  Biso   1.000  I
  I1000    1.0000 0.43481  0.93483  0.56519  Biso   1.000  I
  I1001    1.0000 0.06517  0.56519  0.56519  Biso   1.000  I
  I1002    1.0000 0.06517  0.43481  0.43481  Biso   1.000  I
  I1003    1.0000 0.06517  0.06517  0.06517  Biso   1.000  I
  I1004    1.0000 0.06517  0.43481  0.43481  Biso   1.000  I
  I1005    1.0000 0.06517  0.06517  0.06517  Biso   1.000  I
  I1006    1.0000 0.43481  0.43481  0.06517  Biso   1.000  I
  I1007    1.0000 0.93483  0.43481  0.56519  Biso   1.000  I
  I1008    1.0000 0.56519  0.43481  0.93483  Biso   1.000  I
  I1009    1.0000 0.06517  0.93483  0.93483  Biso   1.000  I
  I1010    1.0000 0.06517  0.56519  0.56519  Biso   1.000  I
  I1011    1.0000 0.06517  0.93483  0.93483  Biso   1.000  I
  I1012    1.0000 0.43481  0.56519  0.93483  Biso   1.000  I
  I1013    1.0000 0.06517  0.56519  0.56519  Biso   1.000  I
  I1014    1.0000 0.06517  0.43481  0.43481  Biso   1.000  I
  I1015    1.0000 0.43481  0.06517  0.43481  Biso   1.000  I
  I1016    1.0000 0.56519  0.56519  0.06517  Biso   1.000  I
  I1017    1.0000 0.56519  0.93483  0.43481  Biso   1.000  I
  I1018    1.0000 0.93483  0.56519  0.43481  Biso   1.000  I
  I1019    1.0000 0.06517  0.43481  0.43481  Biso   1.000  I
  I1020    1.0000 0.06517  0.06517  0.06517  Biso   1.000  I
  I1021    1.0000 0.43481  0.06517  0.43481  Biso   1.000  I
  I1022    1.0000 0.93483  0.56519  0.43481  Biso   1.000  I
  I1023    1.0000 0.56519  0.93483  0.43481  Biso   1.000  I
  I1024    1.0000 0.93483  0.56519  0.43481  Biso   1.000  I
  I1025    1.0000 0.56519  0.93483  0.43481  Biso   1.000  I
  I1026    1.0000 0.93483  0.93483  0.06517  Biso   1.000  I
  I1027    1.0000 0.43481  0.43481  0.06517  Biso   1.000  I
  I1028    1.0000 0.06517  0.43481  0.43481  Biso   1.000  I
  I1029    1.0000 0.43481  0.06517  0.43481  Biso   1.000  I
  I1030    1.0000 0.56519  0.56519  0.06517  Biso   1.000  I
  I1031    1.0000 0.93483  0.93483  0.06517  Biso   1.000  I
  I1032    1.0000 0.06517  0.43481  0.43481  Biso   1.000  I
  I1033    1.0000 0.06517  0.06517  0.06517  Biso   1.000  I
  I1034    1.0000 0.43481  0.43481  0.06517  Biso   1.000  I
  I1035    1.0000 0.06517  0.93483  0.93483  Biso   1.000  I
  I1036    1.0000 0.06517  0.56519  0.56519  Biso   1.000  I
  I1037    1.0000 0.06517  0.06517  0.06517  Biso   1.000  I
  I1038    1.0000 0.43481  0.06517  0.43481  Biso   1.000  I
  I1039    1.0000 0.93483  0.06517  0.93483  Biso   1.000  I
  I1040    1.0000 0.93483  0.43481  0.56519  Biso   1.000  I
  I1041    1.0000 0.56519  0.06517  0.56519  Biso   1.000  I
  I1042    1.0000 0.56519  0.06517  0.56519  Biso   1.000  I
  I1043    1.0000 0.93483  0.06517  0.93483  Biso   1.000  I
  I1044    1.0000 0.43481  0.43481  0.06517  Biso   1.000  I
  I1045    1.0000 0.06517  0.06517  0.06517  Biso   1.000  I
  I1046    1.0000 0.43481  0.06517  0.43481  Biso   1.000  I
  I1047    1.0000 0.06517  0.43481  0.43481  Biso   1.000  I
  I1048    1.0000 0.06517  0.06517  0.06517  Biso   1.000  I
  I1049    1.0000 0.43481  0.06517  0.43481  Biso   1.000  I
  I1050    1.0000 0.56519  0.06517  0.56519  Biso   1.000  I
  I1051    1.0000 0.93483  0.06517  0.93483  Biso   1.000  I
  I1052    1.0000 0.56519  0.43481  0.93483  Biso   1.000  I
  I1053    1.0000 0.56519  0.06517  0.56519  Biso   1.000  I
  I1054    1.0000 0.56519  0.93483  0.43481  Biso   1.000  I
  I1055    1.0000 0.43481  0.43481  0.06517  Biso   1.000  I
  I1056    1.0000 0.56519  0.56519  0.06517  Biso   1.000  I
  I1057    1.0000 0.56519  0.43481  0.93483  Biso   1.000  I
  I1058    1.0000 0.06517  0.43481  0.43481  Biso   1.000  I
  I1059    1.0000 0.56519  0.56519  0.06517  Biso   1.000  I
  I1060    1.0000 0.56519  0.43481  0.93483  Biso   1.000  I
  I1061    1.0000 0.56519  0.93483  0.43481  Biso   1.000  I
  I1062    1.0000 0.56519  0.06517  0.56519  Biso   1.000  I
  I1063    1.0000 0.43481  0.93483  0.56519  Biso   1.000  I
  I1064    1.0000 0.43481  0.06517  0.43481  Biso   1.000  I
  I1065    1.0000 0.56519  0.06517  0.56519  Biso   1.000  I
  I1066    1.0000 0.56519  0.93483  0.43481  Biso   1.000  I
  I1067    1.0000 0.43481  0.06517  0.43481  Biso   1.000  I
  I1068    1.0000 0.06517  0.56519  0.56519  Biso   1.000  I
  I1069    1.0000 0.93483  0.56519  0.43481  Biso   1.000  I
  I1070    1.0000 0.56519  0.56519  0.06517  Biso   1.000  I
  I1071    1.0000 0.43481  0.56519  0.93483  Biso   1.000  I
  I1072    1.0000 0.43481  0.56519  0.93483  Biso   1.000  I
  I1073    1.0000 0.56519  0.56519  0.06517  Biso   1.000  I
  I1074    1.0000 0.06517  0.56519  0.56519  Biso   1.000  I
  I1075    1.0000 0.93483  0.56519  0.43481  Biso   1.000  I
  I1076    1.0000 0.06517  0.56519  0.56519  Biso   1.000  I
  I1077    1.0000 0.06517  0.43481  0.43481  Biso   1.000  I
  I1078    1.0000 0.93483  0.56519  0.43481  Biso   1.000  I
  I1079    1.0000 0.56519  0.06517  0.56519  Biso   1.000  I
  I1080    1.0000 0.56519  0.93483  0.43481  Biso   1.000  I
  I1081    1.0000 0.43481  0.43481  0.06517  Biso   1.000  I
  I1082    1.0000 0.56519  0.56519  0.06517  Biso   1.000  I
  I1083    1.0000 0.56519  0.43481  0.93483  Biso   1.000  I
  I1084    1.0000 0.06517  0.06517  0.06517  Biso   1.000  I
  I1085    1.0000 0.06517  0.56519  0.56519  Biso   1.000  I
  I1086    1.0000 0.93483  0.56519  0.43481  Biso   1.000  I
  I1087    1.0000 0.56519  0.56519  0.06517  Biso   1.000  I
  I1088    1.0000 0.43481  0.56519  0.93483  Biso   1.000  I
  I1089    1.0000 0.43481  0.56519  0.93483  Biso   1.000  I
  I1090    1.0000 0.56519  0.56519  0.06517  Biso   1.000  I
  I1091    1.0000 0.56519  0.43481  0.93483  Biso   1.000  I
  I1092    1.0000 0.06517  0.43481  0.43481  Biso   1.000  I
  I1093    1.0000 0.06517  0.06517  0.06517  Biso   1.000  I
  I1094    1.0000 0.43481  0.06517  0.43481  Biso   1.000  I
  I1095    1.0000 0.93483  0.56519  0.43481  Biso   1.000  I
  I1096    1.0000 0.56519  0.93483  0.43481  Biso   1.000  I
  I1097    1.0000 0.93483  0.06517  0.93483  Biso   1.000  I
  I1098    1.0000 0.56519  0.06517  0.56519  Biso   1.000  I
  I1099    1.0000 0.43481  0.56519  0.93483  Biso   1.000  I
  I1100    1.0000 0.06517  0.06517  0.06517  Biso   1.000  I
  I1101    1.0000 0.43481  0.06517  0.43481  Biso   1.000  I
  I1102    1.0000 0.06517  0.43481  0.43481  Biso   1.000  I
  I1103    1.0000 0.43481  0.06517  0.43481  Biso   1.000  I
  I1104    1.0000 0.01470  0.01470  0.01470  Biso   1.000  I
  I1105    1.0000 0.01470  0.48532  0.48532  Biso   1.000  I
  I1106    1.0000 0.01470  0.51468  0.51468  Biso   1.000  I
  I1107    1.0000 0.01470  0.98534  0.98534  Biso   1.000  I
  I1108    1.0000 0.01470  0.51468  0.51468  Biso   1.000  I
  I1109    1.0000 0.01470  0.98534  0.98534  Biso   1.000  I
  I1110    1.0000 0.51468  0.48532  0.98534  Biso   1.000  I
  I1111    1.0000 0.01470  0.48532  0.48532  Biso   1.000  I
  I1112    1.0000 0.48532  0.51468  0.98534  Biso   1.000  I
  I1113    1.0000 0.48532  0.48532  0.01470  Biso   1.000  I
  I1114    1.0000 0.51468  0.51468  0.01470  Biso   1.000  I
  I1115    1.0000 0.01470  0.01470  0.01470  Biso   1.000  I
  I1116    1.0000 0.01470  0.48532  0.48532  Biso   1.000  I
  I1117    1.0000 0.01470  0.01470  0.01470  Biso   1.000  I
  I1118    1.0000 0.51468  0.48532  0.98534  Biso   1.000  I
  I1119    1.0000 0.48532  0.48532  0.01470  Biso   1.000  I
  I1120    1.0000 0.51468  0.51468  0.01470  Biso   1.000  I
  I1121    1.0000 0.01470  0.48532  0.48532  Biso   1.000  I
  I1122    1.0000 0.98534  0.51468  0.48532  Biso   1.000  I
  I1123    1.0000 0.98534  0.48532  0.51468  Biso   1.000  I
  I1124    1.0000 0.01470  0.51468  0.51468  Biso   1.000  I
  I1125    1.0000 0.48532  0.98534  0.51468  Biso   1.000  I
  I1126    1.0000 0.51468  0.98534  0.48532  Biso   1.000  I
  I1127    1.0000 0.51468  0.01470  0.51468  Biso   1.000  I
  I1128    1.0000 0.48532  0.51468  0.98534  Biso   1.000  I
  I1129    1.0000 0.48532  0.98534  0.51468  Biso   1.000  I
  I1130    1.0000 0.48532  0.01470  0.48532  Biso   1.000  I
  I1131    1.0000 0.51468  0.01470  0.51468  Biso   1.000  I
  I1132    1.0000 0.98534  0.48532  0.51468  Biso   1.000  I
  I1133    1.0000 0.01470  0.51468  0.51468  Biso   1.000  I
  I1134    1.0000 0.01470  0.48532  0.48532  Biso   1.000  I
  I1135    1.0000 0.01470  0.51468  0.51468  Biso   1.000  I
  I1136    1.0000 0.01470  0.98534  0.98534  Biso   1.000  I
  I1137    1.0000 0.51468  0.98534  0.48532  Biso   1.000  I
  I1138    1.0000 0.01470  0.48532  0.48532  Biso   1.000  I
  I1139    1.0000 0.48532  0.98534  0.51468  Biso   1.000  I
  I1140    1.0000 0.48532  0.01470  0.48532  Biso   1.000  I
  I1141    1.0000 0.51468  0.01470  0.51468  Biso   1.000  I
  I1142    1.0000 0.98534  0.48532  0.51468  Biso   1.000  I
  I1143    1.0000 0.01470  0.51468  0.51468  Biso   1.000  I
  I1144    1.0000 0.01470  0.48532  0.48532  Biso   1.000  I
  I1145    1.0000 0.48532  0.98534  0.51468  Biso   1.000  I
  I1146    1.0000 0.48532  0.01470  0.48532  Biso   1.000  I
  I1147    1.0000 0.51468  0.01470  0.51468  Biso   1.000  I
  I1148    1.0000 0.51468  0.48532  0.98534  Biso   1.000  I
  I1149    1.0000 0.98534  0.51468  0.48532  Biso   1.000  I
  I1150    1.0000 0.98534  0.48532  0.51468  Biso   1.000  I
  I1151    1.0000 0.01470  0.51468  0.51468  Biso   1.000  I
  I1152    1.0000 0.51468  0.98534  0.48532  Biso   1.000  I
  I1153    1.0000 0.48532  0.48532  0.01470  Biso   1.000  I
  I1154    1.0000 0.01470  0.01470  0.01470  Biso   1.000  I
  I1155    1.0000 0.01470  0.51468  0.51468  Biso   1.000  I
  I1156    1.0000 0.51468  0.51468  0.01470  Biso   1.000  I
  I1157    1.0000 0.01470  0.01470  0.01470  Biso   1.000  I
  I1158    1.0000 0.01470  0.48532  0.48532  Biso   1.000  I
  I1159    1.0000 0.98534  0.01470  0.98534  Biso   1.000  I
  I1160    1.0000 0.51468  0.01470  0.51468  Biso   1.000  I
  I1161    1.0000 0.01470  0.01470  0.01470  Biso   1.000  I
  I1162    1.0000 0.48532  0.01470  0.48532  Biso   1.000  I
  I1163    1.0000 0.48532  0.01470  0.48532  Biso   1.000  I
  I1164    1.0000 0.01470  0.01470  0.01470  Biso   1.000  I
  I1165    1.0000 0.51468  0.51468  0.01470  Biso   1.000  I
  I1166    1.0000 0.51468  0.01470  0.51468  Biso   1.000  I
  I1167    1.0000 0.01470  0.51468  0.51468  Biso   1.000  I
  I1168    1.0000 0.51468  0.01470  0.51468  Biso   1.000  I
  I1169    1.0000 0.48532  0.01470  0.48532  Biso   1.000  I
  I1170    1.0000 0.01470  0.01470  0.01470  Biso   1.000  I
  I1171    1.0000 0.62503  0.12501  0.62503  Biso   1.000  I
  I1172    1.0000 0.62503  0.87499  0.37502  Biso   1.000  I
  I1173    1.0000 0.48532  0.51468  0.98534  Biso   1.000  I
  I1174    1.0000 0.62503  0.62503  0.12501  Biso   1.000  I
  I1175    1.0000 0.62503  0.37502  0.87499  Biso   1.000  I
  I1176    1.0000 0.12501  0.37502  0.37502  Biso   1.000  I
  I1177    1.0000 0.62503  0.62503  0.12501  Biso   1.000  I
  I1178    1.0000 0.62503  0.37502  0.87499  Biso   1.000  I
  I1179    1.0000 0.62503  0.87499  0.37502  Biso   1.000  I
  I1180    1.0000 0.48532  0.01470  0.48532  Biso   1.000  I
  I1181    1.0000 0.62503  0.12501  0.62503  Biso   1.000  I
  I1182    1.0000 0.48532  0.98534  0.51468  Biso   1.000  I
  I1183    1.0000 0.37502  0.12501  0.37502  Biso   1.000  I
  I1184    1.0000 0.62503  0.12501  0.62503  Biso   1.000  I
  I1185    1.0000 0.62503  0.87499  0.37502  Biso   1.000  I
  I1186    1.0000 0.37502  0.12501  0.37502  Biso   1.000  I
  I1187    1.0000 0.12501  0.62503  0.62503  Biso   1.000  I
  I1188    1.0000 0.87499  0.62503  0.37502  Biso   1.000  I
  I1189    1.0000 0.62503  0.62503  0.12501  Biso   1.000  I
  I1190    1.0000 0.37502  0.62503  0.87499  Biso   1.000  I
  I1191    1.0000 0.37502  0.62503  0.87499  Biso   1.000  I
  I1192    1.0000 0.62503  0.62503  0.12501  Biso   1.000  I
  I1193    1.0000 0.12501  0.62503  0.62503  Biso   1.000  I
  I1194    1.0000 0.87499  0.62503  0.37502  Biso   1.000  I
  I1195    1.0000 0.98534  0.48532  0.51468  Biso   1.000  I
  I1196    1.0000 0.12501  0.62503  0.62503  Biso   1.000  I
  I1197    1.0000 0.12501  0.37502  0.37502  Biso   1.000  I
  I1198    1.0000 0.87499  0.62503  0.37502  Biso   1.000  I
  I1199    1.0000 0.62503  0.12501  0.62503  Biso   1.000  I
  I1200    1.0000 0.62503  0.87499  0.37502  Biso   1.000  I
  I1201    1.0000 0.48532  0.51468  0.98534  Biso   1.000  I
  I1202    1.0000 0.62503  0.62503  0.12501  Biso   1.000  I
  I1203    1.0000 0.62503  0.37502  0.87499  Biso   1.000  I
  I1204    1.0000 0.12501  0.12501  0.12501  Biso   1.000  I
  I1205    1.0000 0.12501  0.62503  0.62503  Biso   1.000  I
  I1206    1.0000 0.87499  0.62503  0.37502  Biso   1.000  I
  I1207    1.0000 0.62503  0.62503  0.12501  Biso   1.000  I
  I1208    1.0000 0.37502  0.62503  0.87499  Biso   1.000  I
  I1209    1.0000 0.37502  0.62503  0.87499  Biso   1.000  I
  I1210    1.0000 0.48532  0.48532  0.01470  Biso   1.000  I
  I1211    1.0000 0.62503  0.62503  0.12501  Biso   1.000  I
  I1212    1.0000 0.62503  0.37502  0.87499  Biso   1.000  I
  I1213    1.0000 0.98534  0.51468  0.48532  Biso   1.000  I
  I1214    1.0000 0.98534  0.01470  0.98534  Biso   1.000  I
  I1215    1.0000 0.51468  0.01470  0.51468  Biso   1.000  I
  I1216    1.0000 0.98534  0.48532  0.51468  Biso   1.000  I
  I1217    1.0000 0.01470  0.51468  0.51468  Biso   1.000  I
  I1218    1.0000 0.01470  0.48532  0.48532  Biso   1.000  I
  I1219    1.0000 0.48532  0.01470  0.48532  Biso   1.000  I
  I1220    1.0000 0.01470  0.01470  0.01470  Biso   1.000  I
  I1221    1.0000 0.48532  0.01470  0.48532  Biso   1.000  I
  I1222    1.0000 0.51468  0.48532  0.98534  Biso   1.000  I
  I1223    1.0000 0.48532  0.48532  0.01470  Biso   1.000  I
  I1224    1.0000 0.51468  0.51468  0.01470  Biso   1.000  I
  I1225    1.0000 0.98534  0.01470  0.98534  Biso   1.000  I
  I1226    1.0000 0.51468  0.01470  0.51468  Biso   1.000  I
  I1227    1.0000 0.98534  0.51468  0.48532  Biso   1.000  I
  I1228    1.0000 0.48532  0.98534  0.51468  Biso   1.000  I
  I1229    1.0000 0.51468  0.98534  0.48532  Biso   1.000  I
  I1230    1.0000 0.51468  0.01470  0.51468  Biso   1.000  I
  I1231    1.0000 0.43481  0.43481  0.06517  Biso   1.000  I
  I1232    1.0000 0.56519  0.56519  0.06517  Biso   1.000  I
  I1233    1.0000 0.43481  0.56519  0.93483  Biso   1.000  I
  I1234    1.0000 0.43481  0.43481  0.06517  Biso   1.000  I
  I1235    1.0000 0.93483  0.43481  0.56519  Biso   1.000  I
  I1236    1.0000 0.06517  0.56519  0.56519  Biso   1.000  I
  I1237    1.0000 0.56519  0.06517  0.56519  Biso   1.000  I
  I1238    1.0000 0.43481  0.93483  0.56519  Biso   1.000  I
  I1239    1.0000 0.56519  0.06517  0.56519  Biso   1.000  I
  I1240    1.0000 0.43481  0.93483  0.56519  Biso   1.000  I
  I1241    1.0000 0.06517  0.56519  0.56519  Biso   1.000  I
  I1242    1.0000 0.93483  0.43481  0.56519  Biso   1.000  I
  I1243    1.0000 0.43481  0.06517  0.43481  Biso   1.000  I
  I1244    1.0000 0.56519  0.06517  0.56519  Biso   1.000  I
  I1245    1.0000 0.43481  0.93483  0.56519  Biso   1.000  I
  I1246    1.0000 0.06517  0.56519  0.56519  Biso   1.000  I
  I1247    1.0000 0.93483  0.43481  0.56519  Biso   1.000  I
  I1248    1.0000 0.56519  0.06517  0.56519  Biso   1.000  I
  I1249    1.0000 0.43481  0.93483  0.56519  Biso   1.000  I
  I1250    1.0000 0.93483  0.43481  0.56519  Biso   1.000  I
  I1251    1.0000 0.06517  0.56519  0.56519  Biso   1.000  I
  I1252    1.0000 0.93483  0.56519  0.43481  Biso   1.000  I
  I1253    1.0000 0.68482  0.18480  0.68482  Biso   1.000  I
  I1254    1.0000 0.68482  0.81520  0.31518  Biso   1.000  I
  I1255    1.0000 0.68482  0.68482  0.18480  Biso   1.000  I
  I1256    1.0000 0.68482  0.31518  0.81520  Biso   1.000  I
  I1257    1.0000 0.18480  0.31518  0.31518  Biso   1.000  I
  I1258    1.0000 0.68482  0.68482  0.18480  Biso   1.000  I
  I1259    1.0000 0.68482  0.31518  0.81520  Biso   1.000  I
  I1260    1.0000 0.68482  0.81520  0.31518  Biso   1.000  I
  I1261    1.0000 0.68482  0.18480  0.68482  Biso   1.000  I
  I1262    1.0000 0.31518  0.18480  0.31518  Biso   1.000  I
  I1263    1.0000 0.68482  0.18480  0.68482  Biso   1.000  I
  I1264    1.0000 0.68482  0.81520  0.31518  Biso   1.000  I
  I1265    1.0000 0.31518  0.18480  0.31518  Biso   1.000  I
  I1266    1.0000 0.18480  0.68482  0.68482  Biso   1.000  I
  I1267    1.0000 0.81520  0.68482  0.31518  Biso   1.000  I
  I1268    1.0000 0.68482  0.68482  0.18480  Biso   1.000  I
  I1269    1.0000 0.31518  0.68482  0.81520  Biso   1.000  I
  I1270    1.0000 0.31518  0.68482  0.81520  Biso   1.000  I
  I1271    1.0000 0.68482  0.68482  0.18480  Biso   1.000  I
  I1272    1.0000 0.18480  0.68482  0.68482  Biso   1.000  I
  I1273    1.0000 0.81520  0.68482  0.31518  Biso   1.000  I
  I1274    1.0000 0.18480  0.68482  0.68482  Biso   1.000  I
  I1275    1.0000 0.18480  0.31518  0.31518  Biso   1.000  I
  I1276    1.0000 0.81520  0.68482  0.31518  Biso   1.000  I
  I1277    1.0000 0.68482  0.18480  0.68482  Biso   1.000  I
  I1278    1.0000 0.68482  0.81520  0.31518  Biso   1.000  I
  I1279    1.0000 0.68482  0.68482  0.18480  Biso   1.000  I
  I1280    1.0000 0.68482  0.31518  0.81520  Biso   1.000  I
  I1281    1.0000 0.18480  0.18480  0.18480  Biso   1.000  I
  I1282    1.0000 0.18480  0.68482  0.68482  Biso   1.000  I
  I1283    1.0000 0.81520  0.68482  0.31518  Biso   1.000  I
  I1284    1.0000 0.68482  0.68482  0.18480  Biso   1.000  I
  I1285    1.0000 0.31518  0.68482  0.81520  Biso   1.000  I
  I1286    1.0000 0.31518  0.68482  0.81520  Biso   1.000  I
  I1287    1.0000 0.68482  0.68482  0.18480  Biso   1.000  I
  I1288    1.0000 0.68482  0.31518  0.81520  Biso   1.000  I
  I1289    1.0000 0.06517  0.56519  0.56519  Biso   1.000  I
  I1290    1.0000 0.06517  0.43481  0.43481  Biso   1.000  I
  I1291    1.0000 0.93483  0.43481  0.56519  Biso   1.000  I
  I1292    1.0000 0.43481  0.43481  0.06517  Biso   1.000  I
  I1293    1.0000 0.56519  0.56519  0.06517  Biso   1.000  I
  I1294    1.0000 0.56519  0.43481  0.93483  Biso   1.000  I
  I1295    1.0000 0.56519  0.93483  0.43481  Biso   1.000  I
  I1296    1.0000 0.56519  0.06517  0.56519  Biso   1.000  I
  I1297    1.0000 0.43481  0.93483  0.56519  Biso   1.000  I
  I1298    1.0000 0.51468  0.48532  0.98534  Biso   1.000  I
  I1299    1.0000 0.37502  0.37502  0.12501  Biso   1.000  I
  I1300    1.0000 0.62503  0.62503  0.12501  Biso   1.000  I
  I1301    1.0000 0.37502  0.62503  0.87499  Biso   1.000  I
  I1302    1.0000 0.37502  0.37502  0.12501  Biso   1.000  I
  I1303    1.0000 0.87499  0.37502  0.62503  Biso   1.000  I
  I1304    1.0000 0.12501  0.62503  0.62503  Biso   1.000  I
  I1305    1.0000 0.62503  0.12501  0.62503  Biso   1.000  I
  I1306    1.0000 0.37502  0.87499  0.62503  Biso   1.000  I
  I1307    1.0000 0.62503  0.12501  0.62503  Biso   1.000  I
  I1308    1.0000 0.37502  0.87499  0.62503  Biso   1.000  I
  I1309    1.0000 0.12501  0.62503  0.62503  Biso   1.000  I
  I1310    1.0000 0.87499  0.37502  0.62503  Biso   1.000  I
  I1311    1.0000 0.51468  0.98534  0.48532  Biso   1.000  I
  I1312    1.0000 0.37502  0.12501  0.37502  Biso   1.000  I
  I1313    1.0000 0.62503  0.12501  0.62503  Biso   1.000  I
  I1314    1.0000 0.37502  0.87499  0.62503  Biso   1.000  I
  I1315    1.0000 0.12501  0.62503  0.62503  Biso   1.000  I
  I1316    1.0000 0.87499  0.37502  0.62503  Biso   1.000  I
  I1317    1.0000 0.62503  0.12501  0.62503  Biso   1.000  I
  I1318    1.0000 0.37502  0.87499  0.62503  Biso   1.000  I
  I1319    1.0000 0.87499  0.37502  0.62503  Biso   1.000  I
  I1320    1.0000 0.01470  0.48532  0.48532  Biso   1.000  I
  I1321    1.0000 0.12501  0.62503  0.62503  Biso   1.000  I
  I1322    1.0000 0.87499  0.62503  0.37502  Biso   1.000  I
  I1323    1.0000 0.73533  0.26467  0.76469  Biso   1.000  I
  I1324    1.0000 0.76469  0.23531  0.76469  Biso   1.000  I
  I1325    1.0000 0.76469  0.26467  0.73533  Biso   1.000  I
  I1326    1.0000 0.76469  0.76469  0.23531  Biso   1.000  I
  I1327    1.0000 0.76469  0.73533  0.26467  Biso   1.000  I
  I1328    1.0000 0.73533  0.73533  0.23531  Biso   1.000  I
  I1329    1.0000 0.76469  0.76469  0.23531  Biso   1.000  I
  I1330    1.0000 0.76469  0.73533  0.26467  Biso   1.000  I
  I1331    1.0000 0.73533  0.76469  0.26467  Biso   1.000  I
  I1332    1.0000 0.73533  0.23531  0.73533  Biso   1.000  I
  I1333    1.0000 0.76469  0.23531  0.76469  Biso   1.000  I
  I1334    1.0000 0.76469  0.26467  0.73533  Biso   1.000  I
  I1335    1.0000 0.26467  0.23531  0.26467  Biso   1.000  I
  I1336    1.0000 0.26467  0.26467  0.23531  Biso   1.000  I
  I1337    1.0000 0.23531  0.23531  0.23531  Biso   1.000  I
  I1338    1.0000 0.76469  0.76469  0.23531  Biso   1.000  I
  I1339    1.0000 0.76469  0.73533  0.26467  Biso   1.000  I
  I1340    1.0000 0.73533  0.76469  0.26467  Biso   1.000  I
  I1341    1.0000 0.73533  0.23531  0.73533  Biso   1.000  I
  I1342    1.0000 0.73533  0.73533  0.23531  Biso   1.000  I
  I1343    1.0000 0.73533  0.26467  0.76469  Biso   1.000  I
  I1344    1.0000 0.76469  0.23531  0.76469  Biso   1.000  I
  I1345    1.0000 0.76469  0.26467  0.73533  Biso   1.000  I
  I1346    1.0000 0.26467  0.26467  0.23531  Biso   1.000  I
  I1347    1.0000 0.23531  0.26467  0.26467  Biso   1.000  I
  I1348    1.0000 0.23531  0.23531  0.23531  Biso   1.000  I
  I1349    1.0000 0.73533  0.26467  0.76469  Biso   1.000  I
  I1350    1.0000 0.76469  0.23531  0.76469  Biso   1.000  I
  I1351    1.0000 0.76469  0.26467  0.73533  Biso   1.000  I
  I1352    1.0000 0.76469  0.76469  0.23531  Biso   1.000  I
  I1353    1.0000 0.76469  0.73533  0.26467  Biso   1.000  I
  I1354    1.0000 0.73533  0.73533  0.23531  Biso   1.000  I
  I1355    1.0000 0.26467  0.26467  0.23531  Biso   1.000  I
  I1356    1.0000 0.23531  0.26467  0.26467  Biso   1.000  I
  I1357    1.0000 0.23531  0.23531  0.23531  Biso   1.000  I
  I1358    1.0000 0.23531  0.76469  0.76469  Biso   1.000  I
  I1359    1.0000 0.26467  0.76469  0.73533  Biso   1.000  I
  I1360    1.0000 0.26467  0.73533  0.76469  Biso   1.000  I
  I1361    1.0000 0.76469  0.76469  0.23531  Biso   1.000  I
  I1362    1.0000 0.73533  0.73533  0.23531  Biso   1.000  I
  I1363    1.0000 0.73533  0.76469  0.26467  Biso   1.000  I
  I1364    1.0000 0.76469  0.76469  0.23531  Biso   1.000  I
  I1365    1.0000 0.76469  0.73533  0.26467  Biso   1.000  I
  I1366    1.0000 0.73533  0.76469  0.26467  Biso   1.000  I
  I1367    1.0000 0.23531  0.73533  0.73533  Biso   1.000  I
  I1368    1.0000 0.23531  0.76469  0.76469  Biso   1.000  I
  I1369    1.0000 0.26467  0.76469  0.73533  Biso   1.000  I
  I1370    1.0000 0.23531  0.73533  0.73533  Biso   1.000  I
  I1371    1.0000 0.76469  0.76469  0.23531  Biso   1.000  I
  I1372    1.0000 0.76469  0.73533  0.26467  Biso   1.000  I
  I1373    1.0000 0.73533  0.76469  0.26467  Biso   1.000  I
  I1374    1.0000 0.23531  0.76469  0.76469  Biso   1.000  I
  I1375    1.0000 0.26467  0.76469  0.73533  Biso   1.000  I
  I1376    1.0000 0.26467  0.73533  0.76469  Biso   1.000  I
  I1377    1.0000 0.73533  0.73533  0.23531  Biso   1.000  I
  I1378    1.0000 0.23531  0.76469  0.76469  Biso   1.000  I
  I1379    1.0000 0.26467  0.76469  0.73533  Biso   1.000  I
  I1380    1.0000 0.26467  0.73533  0.76469  Biso   1.000  I
  I1381    1.0000 0.26467  0.23531  0.26467  Biso   1.000  I
  I1382    1.0000 0.76469  0.76469  0.23531  Biso   1.000  I
  I1383    1.0000 0.73533  0.73533  0.23531  Biso   1.000  I
  I1384    1.0000 0.73533  0.76469  0.26467  Biso   1.000  I
  I1385    1.0000 0.73533  0.26467  0.76469  Biso   1.000  I
  I1386    1.0000 0.76469  0.23531  0.76469  Biso   1.000  I
  I1387    1.0000 0.76469  0.26467  0.73533  Biso   1.000  I
  I1388    1.0000 0.73533  0.73533  0.23531  Biso   1.000  I
  I1389    1.0000 0.76469  0.76469  0.23531  Biso   1.000  I
  I1390    1.0000 0.76469  0.73533  0.26467  Biso   1.000  I
  I1391    1.0000 0.73533  0.76469  0.26467  Biso   1.000  I
  I1392    1.0000 0.73533  0.23531  0.73533  Biso   1.000  I
  I1393    1.0000 0.26467  0.23531  0.26467  Biso   1.000  I
  I1394    1.0000 0.26467  0.26467  0.23531  Biso   1.000  I
  I1395    1.0000 0.23531  0.26467  0.26467  Biso   1.000  I
  I1396    1.0000 0.23531  0.76469  0.76469  Biso   1.000  I
  I1397    1.0000 0.26467  0.76469  0.73533  Biso   1.000  I
  I1398    1.0000 0.26467  0.73533  0.76469  Biso   1.000  I
  I1399    1.0000 0.73533  0.73533  0.23531  Biso   1.000  I
  I1400    1.0000 0.76469  0.76469  0.23531  Biso   1.000  I
  I1401    1.0000 0.76469  0.73533  0.26467  Biso   1.000  I
  I1402    1.0000 0.73533  0.76469  0.26467  Biso   1.000  I
  I1403    1.0000 0.23531  0.73533  0.73533  Biso   1.000  I
  I1404    1.0000 0.23531  0.73533  0.73533  Biso   1.000  I
  I1405    1.0000 0.76469  0.76469  0.23531  Biso   1.000  I
  I1406    1.0000 0.76469  0.73533  0.26467  Biso   1.000  I
  I1407    1.0000 0.73533  0.76469  0.26467  Biso   1.000  I
  I1408    1.0000 0.73533  0.23531  0.73533  Biso   1.000  I
  I1409    1.0000 0.98534  0.51468  0.48532  Biso   1.000  I
  I1410    1.0000 0.12501  0.62503  0.62503  Biso   1.000  I
  I1411    1.0000 0.12501  0.37502  0.37502  Biso   1.000  I
  I1412    1.0000 0.87499  0.37502  0.62503  Biso   1.000  I
  I1413    1.0000 0.48532  0.51468  0.98534  Biso   1.000  I
  I1414    1.0000 0.37502  0.37502  0.12501  Biso   1.000  I
  I1415    1.0000 0.62503  0.62503  0.12501  Biso   1.000  I
  I1416    1.0000 0.62503  0.37502  0.87499  Biso   1.000  I
  I1417    1.0000 0.62503  0.87499  0.37502  Biso   1.000  I
  I1418    1.0000 0.48532  0.01470  0.48532  Biso   1.000  I
  I1419    1.0000 0.62503  0.12501  0.62503  Biso   1.000  I
  I1420    1.0000 0.37502  0.87499  0.62503  Biso   1.000  I
  I1421    1.0000 0.31518  0.31518  0.18480  Biso   1.000  I
  I1422    1.0000 0.68482  0.68482  0.18480  Biso   1.000  I
  I1423    1.0000 0.31518  0.68482  0.81520  Biso   1.000  I
  I1424    1.0000 0.31518  0.31518  0.18480  Biso   1.000  I
  I1425    1.0000 0.81520  0.31518  0.68482  Biso   1.000  I
  I1426    1.0000 0.18480  0.68482  0.68482  Biso   1.000  I
  I1427    1.0000 0.68482  0.18480  0.68482  Biso   1.000  I
  I1428    1.0000 0.31518  0.81520  0.68482  Biso   1.000  I
  I1429    1.0000 0.68482  0.18480  0.68482  Biso   1.000  I
  I1430    1.0000 0.31518  0.81520  0.68482  Biso   1.000  I
  I1431    1.0000 0.18480  0.68482  0.68482  Biso   1.000  I
  I1432    1.0000 0.81520  0.31518  0.68482  Biso   1.000  I
  I1433    1.0000 0.31518  0.18480  0.31518  Biso   1.000  I
  I1434    1.0000 0.68482  0.18480  0.68482  Biso   1.000  I
  I1435    1.0000 0.31518  0.81520  0.68482  Biso   1.000  I
  I1436    1.0000 0.18480  0.68482  0.68482  Biso   1.000  I
  I1437    1.0000 0.81520  0.31518  0.68482  Biso   1.000  I
  I1438    1.0000 0.68482  0.18480  0.68482  Biso   1.000  I
  I1439    1.0000 0.31518  0.81520  0.68482  Biso   1.000  I
  I1440    1.0000 0.81520  0.31518  0.68482  Biso   1.000  I
  I1441    1.0000 0.18480  0.68482  0.68482  Biso   1.000  I
  I1442    1.0000 0.81520  0.68482  0.31518  Biso   1.000  I
  I1443    1.0000 0.81520  0.18480  0.81520  Biso   1.000  I
  I1444    1.0000 0.81520  0.31518  0.68482  Biso   1.000  I
  I1445    1.0000 0.81520  0.68482  0.31518  Biso   1.000  I
  I1446    1.0000 0.68482  0.68482  0.18480  Biso   1.000  I
  I1447    1.0000 0.81520  0.81520  0.18480  Biso   1.000  I
  I1448    1.0000 0.81520  0.68482  0.31518  Biso   1.000  I
  I1449    1.0000 0.81520  0.81520  0.18480  Biso   1.000  I
  I1450    1.0000 0.81520  0.18480  0.81520  Biso   1.000  I
  I1451    1.0000 0.81520  0.31518  0.68482  Biso   1.000  I
  I1452    1.0000 0.68482  0.18480  0.68482  Biso   1.000  I
  I1453    1.0000 0.31518  0.31518  0.18480  Biso   1.000  I
  I1454    1.0000 0.18480  0.18480  0.18480  Biso   1.000  I
  I1455    1.0000 0.31518  0.18480  0.31518  Biso   1.000  I
  I1456    1.0000 0.81520  0.68482  0.31518  Biso   1.000  I
  I1457    1.0000 0.81520  0.81520  0.18480  Biso   1.000  I
  I1458    1.0000 0.81520  0.18480  0.81520  Biso   1.000  I
  I1459    1.0000 0.81520  0.31518  0.68482  Biso   1.000  I
  I1460    1.0000 0.18480  0.18480  0.18480  Biso   1.000  I
  I1461    1.0000 0.31518  0.31518  0.18480  Biso   1.000  I
  I1462    1.0000 0.81520  0.18480  0.81520  Biso   1.000  I
  I1463    1.0000 0.81520  0.31518  0.68482  Biso   1.000  I
  I1464    1.0000 0.81520  0.68482  0.31518  Biso   1.000  I
  I1465    1.0000 0.68482  0.68482  0.18480  Biso   1.000  I
  I1466    1.0000 0.81520  0.81520  0.18480  Biso   1.000  I
  I1467    1.0000 0.18480  0.31518  0.31518  Biso   1.000  I
  I1468    1.0000 0.18480  0.18480  0.18480  Biso   1.000  I
  I1469    1.0000 0.31518  0.31518  0.18480  Biso   1.000  I
  I1470    1.0000 0.31518  0.81520  0.68482  Biso   1.000  I
  I1471    1.0000 0.18480  0.81520  0.81520  Biso   1.000  I
  I1472    1.0000 0.68482  0.68482  0.18480  Biso   1.000  I
  I1473    1.0000 0.68482  0.81520  0.31518  Biso   1.000  I
  I1474    1.0000 0.81520  0.81520  0.18480  Biso   1.000  I
  I1475    1.0000 0.68482  0.81520  0.31518  Biso   1.000  I
  I1476    1.0000 0.81520  0.81520  0.18480  Biso   1.000  I
  I1477    1.0000 0.18480  0.81520  0.81520  Biso   1.000  I
  I1478    1.0000 0.31518  0.81520  0.68482  Biso   1.000  I
  I1479    1.0000 0.18480  0.68482  0.68482  Biso   1.000  I
  I1480    1.0000 0.68482  0.81520  0.31518  Biso   1.000  I
  I1481    1.0000 0.81520  0.81520  0.18480  Biso   1.000  I
  I1482    1.0000 0.31518  0.81520  0.68482  Biso   1.000  I
  I1483    1.0000 0.18480  0.81520  0.81520  Biso   1.000  I
  I1484    1.0000 0.31518  0.81520  0.68482  Biso   1.000  I
  I1485    1.0000 0.18480  0.81520  0.81520  Biso   1.000  I
  I1486    1.0000 0.68482  0.68482  0.18480  Biso   1.000  I
  I1487    1.0000 0.68482  0.81520  0.31518  Biso   1.000  I
  I1488    1.0000 0.81520  0.81520  0.18480  Biso   1.000  I
  I1489    1.0000 0.81520  0.18480  0.81520  Biso   1.000  I
  I1490    1.0000 0.81520  0.31518  0.68482  Biso   1.000  I
  I1491    1.0000 0.68482  0.31518  0.81520  Biso   1.000  I
  I1492    1.0000 0.81520  0.68482  0.31518  Biso   1.000  I
  I1493    1.0000 0.68482  0.81520  0.31518  Biso   1.000  I
  I1494    1.0000 0.81520  0.81520  0.18480  Biso   1.000  I
  I1495    1.0000 0.31518  0.31518  0.18480  Biso   1.000  I
  I1496    1.0000 0.18480  0.31518  0.31518  Biso   1.000  I
  I1497    1.0000 0.31518  0.18480  0.31518  Biso   1.000  I
  I1498    1.0000 0.31518  0.81520  0.68482  Biso   1.000  I
  I1499    1.0000 0.31518  0.68482  0.81520  Biso   1.000  I
  I1500    1.0000 0.18480  0.81520  0.81520  Biso   1.000  I
  I1501    1.0000 0.81520  0.68482  0.31518  Biso   1.000  I
  I1502    1.0000 0.68482  0.81520  0.31518  Biso   1.000  I
  I1503    1.0000 0.81520  0.81520  0.18480  Biso   1.000  I
  I1504    1.0000 0.81520  0.68482  0.31518  Biso   1.000  I
  I1505    1.0000 0.68482  0.81520  0.31518  Biso   1.000  I
  I1506    1.0000 0.81520  0.81520  0.18480  Biso   1.000  I
  I1507    1.0000 0.18480  0.68482  0.68482  Biso   1.000  I
  I1508    1.0000 0.18480  0.31518  0.31518  Biso   1.000  I
  I1509    1.0000 0.81520  0.31518  0.68482  Biso   1.000  I
  I1510    1.0000 0.31518  0.31518  0.18480  Biso   1.000  I
  I1511    1.0000 0.68482  0.68482  0.18480  Biso   1.000  I
  I1512    1.0000 0.68482  0.31518  0.81520  Biso   1.000  I
  I1513    1.0000 0.68482  0.81520  0.31518  Biso   1.000  I
  I1514    1.0000 0.68482  0.18480  0.68482  Biso   1.000  I
  I1515    1.0000 0.31518  0.81520  0.68482  Biso   1.000  I
  I1516    1.0000 0.26467  0.23531  0.26467  Biso   1.000  I
  I1517    1.0000 0.23531  0.26467  0.26467  Biso   1.000  I
  I1518    1.0000 0.23531  0.23531  0.23531  Biso   1.000  I
  I1519    1.0000 0.76469  0.76469  0.23531  Biso   1.000  I
  I1520    1.0000 0.76469  0.73533  0.26467  Biso   1.000  I
  I1521    1.0000 0.73533  0.76469  0.26467  Biso   1.000  I
  I1522    1.0000 0.23531  0.73533  0.73533  Biso   1.000  I
  I1523    1.0000 0.23531  0.76469  0.76469  Biso   1.000  I
  I1524    1.0000 0.26467  0.76469  0.73533  Biso   1.000  I
  I1525    1.0000 0.26467  0.23531  0.26467  Biso   1.000  I
  I1526    1.0000 0.23531  0.26467  0.26467  Biso   1.000  I
  I1527    1.0000 0.23531  0.23531  0.23531  Biso   1.000  I
  I1528    1.0000 0.73533  0.26467  0.76469  Biso   1.000  I
  I1529    1.0000 0.73533  0.23531  0.73533  Biso   1.000  I
  I1530    1.0000 0.76469  0.23531  0.76469  Biso   1.000  I
  I1531    1.0000 0.23531  0.76469  0.76469  Biso   1.000  I
  I1532    1.0000 0.26467  0.76469  0.73533  Biso   1.000  I
  I1533    1.0000 0.26467  0.73533  0.76469  Biso   1.000  I
  I1534    1.0000 0.73533  0.26467  0.76469  Biso   1.000  I
  I1535    1.0000 0.76469  0.23531  0.76469  Biso   1.000  I
  I1536    1.0000 0.76469  0.26467  0.73533  Biso   1.000  I
  I1537    1.0000 0.23531  0.73533  0.73533  Biso   1.000  I
  I1538    1.0000 0.23531  0.76469  0.76469  Biso   1.000  I
  I1539    1.0000 0.26467  0.73533  0.76469  Biso   1.000  I
  I1540    1.0000 0.76469  0.26467  0.73533  Biso   1.000  I
  I1541    1.0000 0.23531  0.73533  0.73533  Biso   1.000  I
  I1542    1.0000 0.23531  0.76469  0.76469  Biso   1.000  I
  I1543    1.0000 0.26467  0.73533  0.76469  Biso   1.000  I
  I1544    1.0000 0.26467  0.76469  0.73533  Biso   1.000  I
  I1545    1.0000 0.73533  0.26467  0.76469  Biso   1.000  I
  I1546    1.0000 0.73533  0.23531  0.73533  Biso   1.000  I
  I1547    1.0000 0.76469  0.23531  0.76469  Biso   1.000  I
  I1548    1.0000 0.26467  0.26467  0.23531  Biso   1.000  I
  I1549    1.0000 0.73533  0.26467  0.76469  Biso   1.000  I
  I1550    1.0000 0.76469  0.23531  0.76469  Biso   1.000  I
  I1551    1.0000 0.76469  0.26467  0.73533  Biso   1.000  I
  I1552    1.0000 0.23531  0.73533  0.73533  Biso   1.000  I
  I1553    1.0000 0.23531  0.76469  0.76469  Biso   1.000  I
  I1554    1.0000 0.26467  0.73533  0.76469  Biso   1.000  I
  I1555    1.0000 0.23531  0.76469  0.76469  Biso   1.000  I
  I1556    1.0000 0.26467  0.76469  0.73533  Biso   1.000  I
  I1557    1.0000 0.26467  0.73533  0.76469  Biso   1.000  I
  I1558    1.0000 0.73533  0.23531  0.73533  Biso   1.000  I
  I1559    1.0000 0.73533  0.26467  0.76469  Biso   1.000  I
  I1560    1.0000 0.76469  0.23531  0.76469  Biso   1.000  I
  I1561    1.0000 0.76469  0.26467  0.73533  Biso   1.000  I
  I1562    1.0000 0.23531  0.73533  0.73533  Biso   1.000  I
  I1563    1.0000 0.73533  0.23531  0.73533  Biso   1.000  I
  I1564    1.0000 0.23531  0.76469  0.76469  Biso   1.000  I
  I1565    1.0000 0.26467  0.76469  0.73533  Biso   1.000  I
  I1566    1.0000 0.26467  0.73533  0.76469  Biso   1.000  I
  I1567    1.0000 0.73533  0.73533  0.23531  Biso   1.000  I
  I1568    1.0000 0.87499  0.12501  0.87499  Biso   1.000  I
  I1569    1.0000 0.87499  0.37502  0.62503  Biso   1.000  I
  I1570    1.0000 0.87499  0.62503  0.37502  Biso   1.000  I
  I1571    1.0000 0.73533  0.76469  0.26467  Biso   1.000  I
  I1572    1.0000 0.62503  0.62503  0.12501  Biso   1.000  I
  I1573    1.0000 0.87499  0.87499  0.12501  Biso   1.000  I
  I1574    1.0000 0.87499  0.62503  0.37502  Biso   1.000  I
  I1575    1.0000 0.87499  0.87499  0.12501  Biso   1.000  I
  I1576    1.0000 0.73533  0.26467  0.76469  Biso   1.000  I
  I1577    1.0000 0.87499  0.12501  0.87499  Biso   1.000  I
  I1578    1.0000 0.87499  0.37502  0.62503  Biso   1.000  I
  I1579    1.0000 0.62503  0.12501  0.62503  Biso   1.000  I
  I1580    1.0000 0.37502  0.37502  0.12501  Biso   1.000  I
  I1581    1.0000 0.23531  0.26467  0.26467  Biso   1.000  I
  I1582    1.0000 0.12501  0.12501  0.12501  Biso   1.000  I
  I1583    1.0000 0.37502  0.12501  0.37502  Biso   1.000  I
  I1584    1.0000 0.87499  0.62503  0.37502  Biso   1.000  I
  I1585    1.0000 0.87499  0.87499  0.12501  Biso   1.000  I
  I1586    1.0000 0.87499  0.12501  0.87499  Biso   1.000  I
  I1587    1.0000 0.87499  0.37502  0.62503  Biso   1.000  I
  I1588    1.0000 0.12501  0.12501  0.12501  Biso   1.000  I
  I1589    1.0000 0.37502  0.37502  0.12501  Biso   1.000  I
  I1590    1.0000 0.87499  0.12501  0.87499  Biso   1.000  I
  I1591    1.0000 0.87499  0.37502  0.62503  Biso   1.000  I
  I1592    1.0000 0.87499  0.62503  0.37502  Biso   1.000  I
  I1593    1.0000 0.73533  0.76469  0.26467  Biso   1.000  I
  I1594    1.0000 0.62503  0.62503  0.12501  Biso   1.000  I
  I1595    1.0000 0.87499  0.87499  0.12501  Biso   1.000  I
  I1596    1.0000 0.26467  0.23531  0.26467  Biso   1.000  I
  I1597    1.0000 0.12501  0.37502  0.37502  Biso   1.000  I
  I1598    1.0000 0.12501  0.12501  0.12501  Biso   1.000  I
  I1599    1.0000 0.37502  0.37502  0.12501  Biso   1.000  I
  I1600    1.0000 0.37502  0.87499  0.62503  Biso   1.000  I
  I1601    1.0000 0.12501  0.87499  0.87499  Biso   1.000  I
  I1602    1.0000 0.76469  0.73533  0.26467  Biso   1.000  I
  I1603    1.0000 0.62503  0.62503  0.12501  Biso   1.000  I
  I1604    1.0000 0.62503  0.87499  0.37502  Biso   1.000  I
  I1605    1.0000 0.87499  0.87499  0.12501  Biso   1.000  I
  I1606    1.0000 0.62503  0.87499  0.37502  Biso   1.000  I
  I1607    1.0000 0.87499  0.87499  0.12501  Biso   1.000  I
  I1608    1.0000 0.12501  0.87499  0.87499  Biso   1.000  I
  I1609    1.0000 0.26467  0.73533  0.76469  Biso   1.000  I
  I1610    1.0000 0.37502  0.87499  0.62503  Biso   1.000  I
  I1611    1.0000 0.12501  0.62503  0.62503  Biso   1.000  I
  I1612    1.0000 0.62503  0.87499  0.37502  Biso   1.000  I
  I1613    1.0000 0.87499  0.87499  0.12501  Biso   1.000  I
  I1614    1.0000 0.37502  0.87499  0.62503  Biso   1.000  I
  I1615    1.0000 0.12501  0.87499  0.87499  Biso   1.000  I
  I1616    1.0000 0.37502  0.87499  0.62503  Biso   1.000  I
  I1617    1.0000 0.12501  0.87499  0.87499  Biso   1.000  I
  I1618    1.0000 0.76469  0.73533  0.26467  Biso   1.000  I
  I1619    1.0000 0.62503  0.62503  0.12501  Biso   1.000  I
  I1620    1.0000 0.62503  0.87499  0.37502  Biso   1.000  I
  I1621    1.0000 0.87499  0.87499  0.12501  Biso   1.000  I
  I1622    1.0000 0.73533  0.23531  0.73533  Biso   1.000  I
  I1623    1.0000 0.87499  0.12501  0.87499  Biso   1.000  I
  I1624    1.0000 0.87499  0.37502  0.62503  Biso   1.000  I
  I1625    1.0000 0.62503  0.37502  0.87499  Biso   1.000  I
  I1626    1.0000 0.87499  0.62503  0.37502  Biso   1.000  I
  I1627    1.0000 0.73533  0.73533  0.23531  Biso   1.000  I
  I1628    1.0000 0.62503  0.87499  0.37502  Biso   1.000  I
  I1629    1.0000 0.87499  0.87499  0.12501  Biso   1.000  I
  I1630    1.0000 0.37502  0.37502  0.12501  Biso   1.000  I
  I1631    1.0000 0.23531  0.23531  0.23531  Biso   1.000  I
  I1632    1.0000 0.12501  0.37502  0.37502  Biso   1.000  I
  I1633    1.0000 0.37502  0.12501  0.37502  Biso   1.000  I
  I1634    1.0000 0.23531  0.73533  0.73533  Biso   1.000  I
  I1635    1.0000 0.37502  0.87499  0.62503  Biso   1.000  I
  I1636    1.0000 0.37502  0.62503  0.87499  Biso   1.000  I
  I1637    1.0000 0.12501  0.87499  0.87499  Biso   1.000  I
  I1638    1.0000 0.87499  0.62503  0.37502  Biso   1.000  I
  I1639    1.0000 0.73533  0.73533  0.23531  Biso   1.000  I
  I1640    1.0000 0.62503  0.87499  0.37502  Biso   1.000  I
  I1641    1.0000 0.87499  0.87499  0.12501  Biso   1.000  I
  I1642    1.0000 0.87499  0.62503  0.37502  Biso   1.000  I
  I1643    1.0000 0.73533  0.73533  0.23531  Biso   1.000  I
  I1644    1.0000 0.62503  0.87499  0.37502  Biso   1.000  I
  I1645    1.0000 0.87499  0.87499  0.12501  Biso   1.000  I
  I1646    1.0000 0.23531  0.76469  0.76469  Biso   1.000  I
  I1647    1.0000 0.26467  0.76469  0.73533  Biso   1.000  I
  I1648    1.0000 0.26467  0.73533  0.76469  Biso   1.000  I
  I1649    1.0000 0.26467  0.23531  0.26467  Biso   1.000  I
  I1650    1.0000 0.26467  0.26467  0.23531  Biso   1.000  I
  I1651    1.0000 0.23531  0.23531  0.23531  Biso   1.000  I
  I1652    1.0000 0.73533  0.26467  0.76469  Biso   1.000  I
  I1653    1.0000 0.73533  0.23531  0.73533  Biso   1.000  I
  I1654    1.0000 0.76469  0.23531  0.76469  Biso   1.000  I
  I1655    1.0000 0.23531  0.26467  0.26467  Biso   1.000  I
  I1656    1.0000 0.76469  0.76469  0.23531  Biso   1.000  I
  I1657    1.0000 0.76469  0.73533  0.26467  Biso   1.000  I
  I1658    1.0000 0.73533  0.76469  0.26467  Biso   1.000  I
  I1659    1.0000 0.73533  0.23531  0.73533  Biso   1.000  I
  I1660    1.0000 0.76469  0.23531  0.76469  Biso   1.000  I
  I1661    1.0000 0.76469  0.26467  0.73533  Biso   1.000  I
  I1662    1.0000 0.73533  0.73533  0.23531  Biso   1.000  I
  I1663    1.0000 0.73533  0.26467  0.76469  Biso   1.000  I
  I1664    1.0000 0.76469  0.23531  0.76469  Biso   1.000  I
  I1665    1.0000 0.76469  0.26467  0.73533  Biso   1.000  I
  I1666    1.0000 0.23531  0.73533  0.73533  Biso   1.000  I
  I1667    1.0000 0.18480  0.31518  0.31518  Biso   1.000  I
  I1668    1.0000 0.18480  0.18480  0.18480  Biso   1.000  I
  I1669    1.0000 0.68482  0.81520  0.31518  Biso   1.000  I
  I1670    1.0000 0.81520  0.81520  0.18480  Biso   1.000  I
  I1671    1.0000 0.18480  0.81520  0.81520  Biso   1.000  I
  I1672    1.0000 0.31518  0.81520  0.68482  Biso   1.000  I
  I1673    1.0000 0.18480  0.68482  0.68482  Biso   1.000  I
  I1674    1.0000 0.18480  0.31518  0.31518  Biso   1.000  I
  I1675    1.0000 0.18480  0.18480  0.18480  Biso   1.000  I
  I1676    1.0000 0.31518  0.18480  0.31518  Biso   1.000  I
  I1677    1.0000 0.81520  0.18480  0.81520  Biso   1.000  I
  I1678    1.0000 0.68482  0.31518  0.81520  Biso   1.000  I
  I1679    1.0000 0.31518  0.68482  0.81520  Biso   1.000  I
  I1680    1.0000 0.18480  0.81520  0.81520  Biso   1.000  I
  I1681    1.0000 0.81520  0.18480  0.81520  Biso   1.000  I
  I1682    1.0000 0.68482  0.31518  0.81520  Biso   1.000  I
  I1683    1.0000 0.18480  0.81520  0.81520  Biso   1.000  I
  I1684    1.0000 0.31518  0.68482  0.81520  Biso   1.000  I
  I1685    1.0000 0.18480  0.81520  0.81520  Biso   1.000  I
  I1686    1.0000 0.31518  0.68482  0.81520  Biso   1.000  I
  I1687    1.0000 0.18480  0.68482  0.68482  Biso   1.000  I
  I1688    1.0000 0.68482  0.18480  0.68482  Biso   1.000  I
  I1689    1.0000 0.81520  0.18480  0.81520  Biso   1.000  I
  I1690    1.0000 0.68482  0.31518  0.81520  Biso   1.000  I
  I1691    1.0000 0.81520  0.18480  0.81520  Biso   1.000  I
  I1692    1.0000 0.68482  0.31518  0.81520  Biso   1.000  I
  I1693    1.0000 0.18480  0.81520  0.81520  Biso   1.000  I
  I1694    1.0000 0.31518  0.68482  0.81520  Biso   1.000  I
  I1695    1.0000 0.18480  0.68482  0.68482  Biso   1.000  I
  I1696    1.0000 0.31518  0.81520  0.68482  Biso   1.000  I
  I1697    1.0000 0.31518  0.68482  0.81520  Biso   1.000  I
  I1698    1.0000 0.18480  0.81520  0.81520  Biso   1.000  I
  I1699    1.0000 0.81520  0.18480  0.81520  Biso   1.000  I
  I1700    1.0000 0.81520  0.31518  0.68482  Biso   1.000  I
  I1701    1.0000 0.68482  0.31518  0.81520  Biso   1.000  I
  I1702    1.0000 0.31518  0.81520  0.68482  Biso   1.000  I
  I1703    1.0000 0.31518  0.68482  0.81520  Biso   1.000  I
  I1704    1.0000 0.18480  0.81520  0.81520  Biso   1.000  I
  I1705    1.0000 0.93483  0.06517  0.93483  Biso   1.000  I
  I1706    1.0000 0.93483  0.43481  0.56519  Biso   1.000  I
  I1707    1.0000 0.93483  0.56519  0.43481  Biso   1.000  I
  I1708    1.0000 0.56519  0.56519  0.06517  Biso   1.000  I
  I1709    1.0000 0.93483  0.93483  0.06517  Biso   1.000  I
  I1710    1.0000 0.93483  0.56519  0.43481  Biso   1.000  I
  I1711    1.0000 0.93483  0.93483  0.06517  Biso   1.000  I
  I1712    1.0000 0.93483  0.06517  0.93483  Biso   1.000  I
  I1713    1.0000 0.93483  0.43481  0.56519  Biso   1.000  I
  I1714    1.0000 0.56519  0.06517  0.56519  Biso   1.000  I
  I1715    1.0000 0.43481  0.43481  0.06517  Biso   1.000  I
  I1716    1.0000 0.06517  0.06517  0.06517  Biso   1.000  I
  I1717    1.0000 0.43481  0.06517  0.43481  Biso   1.000  I
  I1718    1.0000 0.93483  0.56519  0.43481  Biso   1.000  I
  I1719    1.0000 0.93483  0.93483  0.06517  Biso   1.000  I
  I1720    1.0000 0.93483  0.06517  0.93483  Biso   1.000  I
  I1721    1.0000 0.93483  0.43481  0.56519  Biso   1.000  I
  I1722    1.0000 0.06517  0.06517  0.06517  Biso   1.000  I
  I1723    1.0000 0.43481  0.43481  0.06517  Biso   1.000  I
  I1724    1.0000 0.93483  0.06517  0.93483  Biso   1.000  I
  I1725    1.0000 0.93483  0.43481  0.56519  Biso   1.000  I
  I1726    1.0000 0.93483  0.56519  0.43481  Biso   1.000  I
  I1727    1.0000 0.56519  0.56519  0.06517  Biso   1.000  I
  I1728    1.0000 0.93483  0.93483  0.06517  Biso   1.000  I
  I1729    1.0000 0.06517  0.43481  0.43481  Biso   1.000  I
  I1730    1.0000 0.06517  0.06517  0.06517  Biso   1.000  I
  I1731    1.0000 0.43481  0.43481  0.06517  Biso   1.000  I
  I1732    1.0000 0.43481  0.93483  0.56519  Biso   1.000  I
  I1733    1.0000 0.06517  0.93483  0.93483  Biso   1.000  I
  I1734    1.0000 0.56519  0.56519  0.06517  Biso   1.000  I
  I1735    1.0000 0.56519  0.93483  0.43481  Biso   1.000  I
  I1736    1.0000 0.93483  0.93483  0.06517  Biso   1.000  I
  I1737    1.0000 0.56519  0.93483  0.43481  Biso   1.000  I
  I1738    1.0000 0.93483  0.93483  0.06517  Biso   1.000  I
  I1739    1.0000 0.06517  0.93483  0.93483  Biso   1.000  I
  I1740    1.0000 0.43481  0.93483  0.56519  Biso   1.000  I
  I1741    1.0000 0.06517  0.56519  0.56519  Biso   1.000  I
  I1742    1.0000 0.56519  0.93483  0.43481  Biso   1.000  I
  I1743    1.0000 0.93483  0.93483  0.06517  Biso   1.000  I
  I1744    1.0000 0.43481  0.93483  0.56519  Biso   1.000  I
  I1745    1.0000 0.06517  0.93483  0.93483  Biso   1.000  I
  I1746    1.0000 0.43481  0.93483  0.56519  Biso   1.000  I
  I1747    1.0000 0.06517  0.93483  0.93483  Biso   1.000  I
  I1748    1.0000 0.56519  0.56519  0.06517  Biso   1.000  I
  I1749    1.0000 0.56519  0.93483  0.43481  Biso   1.000  I
  I1750    1.0000 0.93483  0.93483  0.06517  Biso   1.000  I
  I1751    1.0000 0.93483  0.06517  0.93483  Biso   1.000  I
  I1752    1.0000 0.93483  0.43481  0.56519  Biso   1.000  I
  I1753    1.0000 0.56519  0.43481  0.93483  Biso   1.000  I
  I1754    1.0000 0.93483  0.56519  0.43481  Biso   1.000  I
  I1755    1.0000 0.56519  0.93483  0.43481  Biso   1.000  I
  I1756    1.0000 0.93483  0.93483  0.06517  Biso   1.000  I
  I1757    1.0000 0.43481  0.43481  0.06517  Biso   1.000  I
  I1758    1.0000 0.06517  0.43481  0.43481  Biso   1.000  I
  I1759    1.0000 0.43481  0.06517  0.43481  Biso   1.000  I
  I1760    1.0000 0.43481  0.93483  0.56519  Biso   1.000  I
  I1761    1.0000 0.43481  0.56519  0.93483  Biso   1.000  I
  I1762    1.0000 0.06517  0.93483  0.93483  Biso   1.000  I
  I1763    1.0000 0.93483  0.56519  0.43481  Biso   1.000  I
  I1764    1.0000 0.56519  0.93483  0.43481  Biso   1.000  I
  I1765    1.0000 0.93483  0.93483  0.06517  Biso   1.000  I
  I1766    1.0000 0.93483  0.56519  0.43481  Biso   1.000  I
  I1767    1.0000 0.56519  0.93483  0.43481  Biso   1.000  I
  I1768    1.0000 0.93483  0.93483  0.06517  Biso   1.000  I
  I1769    1.0000 0.31518  0.68482  0.81520  Biso   1.000  I
  I1770    1.0000 0.18480  0.81520  0.81520  Biso   1.000  I
  I1771    1.0000 0.18480  0.18480  0.18480  Biso   1.000  I
  I1772    1.0000 0.31518  0.18480  0.31518  Biso   1.000  I
  I1773    1.0000 0.68482  0.18480  0.68482  Biso   1.000  I
  I1774    1.0000 0.81520  0.18480  0.81520  Biso   1.000  I
  I1775    1.0000 0.68482  0.31518  0.81520  Biso   1.000  I
  I1776    1.0000 0.81520  0.68482  0.31518  Biso   1.000  I
  I1777    1.0000 0.81520  0.81520  0.18480  Biso   1.000  I
  I1778    1.0000 0.81520  0.18480  0.81520  Biso   1.000  I
  I1779    1.0000 0.81520  0.31518  0.68482  Biso   1.000  I
  I1780    1.0000 0.68482  0.18480  0.68482  Biso   1.000  I
  I1781    1.0000 0.81520  0.18480  0.81520  Biso   1.000  I
  I1782    1.0000 0.81520  0.31518  0.68482  Biso   1.000  I
  I1783    1.0000 0.68482  0.31518  0.81520  Biso   1.000  I
  I1784    1.0000 0.12501  0.37502  0.37502  Biso   1.000  I
  I1785    1.0000 0.12501  0.12501  0.12501  Biso   1.000  I
  I1786    1.0000 0.62503  0.87499  0.37502  Biso   1.000  I
  I1787    1.0000 0.87499  0.87499  0.12501  Biso   1.000  I
  I1788    1.0000 0.12501  0.87499  0.87499  Biso   1.000  I
  I1789    1.0000 0.26467  0.73533  0.76469  Biso   1.000  I
  I1790    1.0000 0.37502  0.87499  0.62503  Biso   1.000  I
  I1791    1.0000 0.12501  0.62503  0.62503  Biso   1.000  I
  I1792    1.0000 0.26467  0.26467  0.23531  Biso   1.000  I
  I1793    1.0000 0.12501  0.37502  0.37502  Biso   1.000  I
  I1794    1.0000 0.12501  0.12501  0.12501  Biso   1.000  I
  I1795    1.0000 0.37502  0.12501  0.37502  Biso   1.000  I
  I1796    1.0000 0.87499  0.12501  0.87499  Biso   1.000  I
  I1797    1.0000 0.62503  0.37502  0.87499  Biso   1.000  I
  I1798    1.0000 0.37502  0.62503  0.87499  Biso   1.000  I
  I1799    1.0000 0.12501  0.87499  0.87499  Biso   1.000  I
  I1800    1.0000 0.87499  0.12501  0.87499  Biso   1.000  I
  I1801    1.0000 0.62503  0.37502  0.87499  Biso   1.000  I
  I1802    1.0000 0.12501  0.87499  0.87499  Biso   1.000  I
  I1803    1.0000 0.37502  0.62503  0.87499  Biso   1.000  I
  I1804    1.0000 0.12501  0.87499  0.87499  Biso   1.000  I
  I1805    1.0000 0.26467  0.76469  0.73533  Biso   1.000  I
  I1806    1.0000 0.37502  0.62503  0.87499  Biso   1.000  I
  I1807    1.0000 0.12501  0.62503  0.62503  Biso   1.000  I
  I1808    1.0000 0.62503  0.12501  0.62503  Biso   1.000  I
  I1809    1.0000 0.76469  0.26467  0.73533  Biso   1.000  I
  I1810    1.0000 0.87499  0.12501  0.87499  Biso   1.000  I
  I1811    1.0000 0.62503  0.37502  0.87499  Biso   1.000  I
  I1812    1.0000 0.87499  0.12501  0.87499  Biso   1.000  I
  I1813    1.0000 0.62503  0.37502  0.87499  Biso   1.000  I
  I1814    1.0000 0.12501  0.87499  0.87499  Biso   1.000  I
  I1815    1.0000 0.26467  0.76469  0.73533  Biso   1.000  I
  I1816    1.0000 0.37502  0.62503  0.87499  Biso   1.000  I
  I1817    1.0000 0.12501  0.62503  0.62503  Biso   1.000  I
  I1818    1.0000 0.23531  0.73533  0.73533  Biso   1.000  I
  I1819    1.0000 0.37502  0.87499  0.62503  Biso   1.000  I
  I1820    1.0000 0.37502  0.62503  0.87499  Biso   1.000  I
  I1821    1.0000 0.12501  0.87499  0.87499  Biso   1.000  I
  I1822    1.0000 0.73533  0.23531  0.73533  Biso   1.000  I
  I1823    1.0000 0.87499  0.12501  0.87499  Biso   1.000  I
  I1824    1.0000 0.87499  0.37502  0.62503  Biso   1.000  I
  I1825    1.0000 0.62503  0.37502  0.87499  Biso   1.000  I
  I1826    1.0000 0.23531  0.73533  0.73533  Biso   1.000  I
  I1827    1.0000 0.37502  0.87499  0.62503  Biso   1.000  I
  I1828    1.0000 0.37502  0.62503  0.87499  Biso   1.000  I
  I1829    1.0000 0.12501  0.87499  0.87499  Biso   1.000  I
  I1830    1.0000 0.98534  0.98534  0.01470  Biso   1.000  I
  I1831    1.0000 0.98534  0.51468  0.48532  Biso   1.000  I
  I1832    1.0000 0.98534  0.48532  0.51468  Biso   1.000  I
  I1833    1.0000 0.48532  0.48532  0.01470  Biso   1.000  I
  I1834    1.0000 0.98534  0.48532  0.51468  Biso   1.000  I
  I1835    1.0000 0.98534  0.01470  0.98534  Biso   1.000  I
  I1836    1.0000 0.98534  0.51468  0.48532  Biso   1.000  I
  I1837    1.0000 0.48532  0.01470  0.48532  Biso   1.000  I
  I1838    1.0000 0.51468  0.51468  0.01470  Biso   1.000  I
  I1839    1.0000 0.51468  0.01470  0.51468  Biso   1.000  I
  I1840    1.0000 0.98534  0.48532  0.51468  Biso   1.000  I
  I1841    1.0000 0.98534  0.01470  0.98534  Biso   1.000  I
  I1842    1.0000 0.98534  0.98534  0.01470  Biso   1.000  I
  I1843    1.0000 0.98534  0.51468  0.48532  Biso   1.000  I
  I1844    1.0000 0.98534  0.98534  0.01470  Biso   1.000  I
  I1845    1.0000 0.51468  0.51468  0.01470  Biso   1.000  I
  I1846    1.0000 0.98534  0.98534  0.01470  Biso   1.000  I
  I1847    1.0000 0.98534  0.51468  0.48532  Biso   1.000  I
  I1848    1.0000 0.98534  0.48532  0.51468  Biso   1.000  I
  I1849    1.0000 0.48532  0.48532  0.01470  Biso   1.000  I
  I1850    1.0000 0.01470  0.51468  0.51468  Biso   1.000  I
  I1851    1.0000 0.51468  0.51468  0.01470  Biso   1.000  I
  I1852    1.0000 0.51468  0.98534  0.48532  Biso   1.000  I
  I1853    1.0000 0.98534  0.98534  0.01470  Biso   1.000  I
  I1854    1.0000 0.48532  0.48532  0.01470  Biso   1.000  I
  I1855    1.0000 0.48532  0.98534  0.51468  Biso   1.000  I
  I1856    1.0000 0.48532  0.98534  0.51468  Biso   1.000  I
  I1857    1.0000 0.01470  0.98534  0.98534  Biso   1.000  I
  I1858    1.0000 0.51468  0.98534  0.48532  Biso   1.000  I
  I1859    1.0000 0.01470  0.48532  0.48532  Biso   1.000  I
  I1860    1.0000 0.48532  0.98534  0.51468  Biso   1.000  I
  I1861    1.0000 0.01470  0.98534  0.98534  Biso   1.000  I
  I1862    1.0000 0.51468  0.98534  0.48532  Biso   1.000  I
  I1863    1.0000 0.98534  0.98534  0.01470  Biso   1.000  I
  I1864    1.0000 0.51468  0.98534  0.48532  Biso   1.000  I
  I1865    1.0000 0.98534  0.98534  0.01470  Biso   1.000  I
  I1866    1.0000 0.48532  0.48532  0.01470  Biso   1.000  I
  I1867    1.0000 0.48532  0.98534  0.51468  Biso   1.000  I
  I1868    1.0000 0.98534  0.98534  0.01470  Biso   1.000  I
  I1869    1.0000 0.98534  0.51468  0.48532  Biso   1.000  I
  I1870    1.0000 0.48532  0.51468  0.98534  Biso   1.000  I
  I1871    1.0000 0.48532  0.48532  0.01470  Biso   1.000  I
  I1872    1.0000 0.51468  0.51468  0.01470  Biso   1.000  I
  I1873    1.0000 0.98534  0.48532  0.51468  Biso   1.000  I
  I1874    1.0000 0.48532  0.98534  0.51468  Biso   1.000  I
  I1875    1.0000 0.48532  0.01470  0.48532  Biso   1.000  I
  I1876    1.0000 0.51468  0.01470  0.51468  Biso   1.000  I
  I1877    1.0000 0.98534  0.01470  0.98534  Biso   1.000  I
  I1878    1.0000 0.51468  0.48532  0.98534  Biso   1.000  I
  I1879    1.0000 0.98534  0.51468  0.48532  Biso   1.000  I
  I1880    1.0000 0.98534  0.48532  0.51468  Biso   1.000  I
  I1881    1.0000 0.01470  0.51468  0.51468  Biso   1.000  I
  I1882    1.0000 0.51468  0.98534  0.48532  Biso   1.000  I
  I1883    1.0000 0.51468  0.98534  0.48532  Biso   1.000  I
  I1884    1.0000 0.98534  0.98534  0.01470  Biso   1.000  I
  I1885    1.0000 0.01470  0.48532  0.48532  Biso   1.000  I
  I1886    1.0000 0.48532  0.98534  0.51468  Biso   1.000  I
  I1887    1.0000 0.01470  0.98534  0.98534  Biso   1.000  I
  I1888    1.0000 0.98534  0.48532  0.51468  Biso   1.000  I
  I1889    1.0000 0.48532  0.98534  0.51468  Biso   1.000  I
  I1890    1.0000 0.37502  0.62503  0.87499  Biso   1.000  I
  I1891    1.0000 0.12501  0.87499  0.87499  Biso   1.000  I
  I1892    1.0000 0.12501  0.12501  0.12501  Biso   1.000  I
  I1893    1.0000 0.37502  0.12501  0.37502  Biso   1.000  I
  I1894    1.0000 0.62503  0.12501  0.62503  Biso   1.000  I
  I1895    1.0000 0.76469  0.26467  0.73533  Biso   1.000  I
  I1896    1.0000 0.87499  0.12501  0.87499  Biso   1.000  I
  I1897    1.0000 0.62503  0.37502  0.87499  Biso   1.000  I
  I1898    1.0000 0.87499  0.62503  0.37502  Biso   1.000  I
  I1899    1.0000 0.87499  0.87499  0.12501  Biso   1.000  I
  I1900    1.0000 0.73533  0.26467  0.76469  Biso   1.000  I
  I1901    1.0000 0.87499  0.12501  0.87499  Biso   1.000  I
  I1902    1.0000 0.87499  0.37502  0.62503  Biso   1.000  I
  I1903    1.0000 0.62503  0.12501  0.62503  Biso   1.000  I
  I1904    1.0000 0.73533  0.23531  0.73533  Biso   1.000  I
  I1905    1.0000 0.87499  0.12501  0.87499  Biso   1.000  I
  I1906    1.0000 0.87499  0.37502  0.62503  Biso   1.000  I
  I1907    1.0000 0.62503  0.37502  0.87499  Biso   1.000  I
  I1908    1.0000 0.06517  0.43481  0.43481  Biso   1.000  I
  I1909    1.0000 0.06517  0.06517  0.06517  Biso   1.000  I
  I1910    1.0000 0.56519  0.93483  0.43481  Biso   1.000  I
  I1911    1.0000 0.93483  0.93483  0.06517  Biso   1.000  I
  I1912    1.0000 0.06517  0.93483  0.93483  Biso   1.000  I
  I1913    1.0000 0.43481  0.93483  0.56519  Biso   1.000  I
  I1914    1.0000 0.06517  0.56519  0.56519  Biso   1.000  I
  I1915    1.0000 0.06517  0.43481  0.43481  Biso   1.000  I
  I1916    1.0000 0.06517  0.06517  0.06517  Biso   1.000  I
  I1917    1.0000 0.43481  0.06517  0.43481  Biso   1.000  I
  I1918    1.0000 0.93483  0.06517  0.93483  Biso   1.000  I
  I1919    1.0000 0.56519  0.43481  0.93483  Biso   1.000  I
  I1920    1.0000 0.43481  0.56519  0.93483  Biso   1.000  I
  I1921    1.0000 0.06517  0.93483  0.93483  Biso   1.000  I
  I1922    1.0000 0.93483  0.06517  0.93483  Biso   1.000  I
  I1923    1.0000 0.56519  0.43481  0.93483  Biso   1.000  I
  I1924    1.0000 0.06517  0.93483  0.93483  Biso   1.000  I
  I1925    1.0000 0.43481  0.56519  0.93483  Biso   1.000  I
  I1926    1.0000 0.06517  0.93483  0.93483  Biso   1.000  I
  I1927    1.0000 0.43481  0.56519  0.93483  Biso   1.000  I
  I1928    1.0000 0.06517  0.56519  0.56519  Biso   1.000  I
  I1929    1.0000 0.56519  0.06517  0.56519  Biso   1.000  I
  I1930    1.0000 0.93483  0.06517  0.93483  Biso   1.000  I
  I1931    1.0000 0.56519  0.43481  0.93483  Biso   1.000  I
  I1932    1.0000 0.93483  0.06517  0.93483  Biso   1.000  I
  I1933    1.0000 0.56519  0.43481  0.93483  Biso   1.000  I
  I1934    1.0000 0.06517  0.93483  0.93483  Biso   1.000  I
  I1935    1.0000 0.43481  0.56519  0.93483  Biso   1.000  I
  I1936    1.0000 0.06517  0.56519  0.56519  Biso   1.000  I
  I1937    1.0000 0.43481  0.93483  0.56519  Biso   1.000  I
  I1938    1.0000 0.43481  0.56519  0.93483  Biso   1.000  I
  I1939    1.0000 0.06517  0.93483  0.93483  Biso   1.000  I
  I1940    1.0000 0.93483  0.06517  0.93483  Biso   1.000  I
  I1941    1.0000 0.93483  0.43481  0.56519  Biso   1.000  I
  I1942    1.0000 0.56519  0.43481  0.93483  Biso   1.000  I
  I1943    1.0000 0.43481  0.93483  0.56519  Biso   1.000  I
  I1944    1.0000 0.43481  0.56519  0.93483  Biso   1.000  I
  I1945    1.0000 0.06517  0.93483  0.93483  Biso   1.000  I
  I1946    1.0000 0.56519  0.56519  0.06517  Biso   1.000  I
  I1947    1.0000 0.56519  0.06517  0.56519  Biso   1.000  I
  I1948    1.0000 0.06517  0.56519  0.56519  Biso   1.000  I
  I1949    1.0000 0.43481  0.56519  0.93483  Biso   1.000  I
  I1950    1.0000 0.06517  0.93483  0.93483  Biso   1.000  I
  I1951    1.0000 0.06517  0.06517  0.06517  Biso   1.000  I
  I1952    1.0000 0.43481  0.06517  0.43481  Biso   1.000  I
  I1953    1.0000 0.56519  0.06517  0.56519  Biso   1.000  I
  I1954    1.0000 0.93483  0.06517  0.93483  Biso   1.000  I
  I1955    1.0000 0.56519  0.43481  0.93483  Biso   1.000  I
  I1956    1.0000 0.93483  0.56519  0.43481  Biso   1.000  I
  I1957    1.0000 0.93483  0.93483  0.06517  Biso   1.000  I
  I1958    1.0000 0.93483  0.06517  0.93483  Biso   1.000  I
  I1959    1.0000 0.93483  0.43481  0.56519  Biso   1.000  I
  I1960    1.0000 0.56519  0.06517  0.56519  Biso   1.000  I
  I1961    1.0000 0.93483  0.06517  0.93483  Biso   1.000  I
  I1962    1.0000 0.93483  0.43481  0.56519  Biso   1.000  I
  I1963    1.0000 0.56519  0.43481  0.93483  Biso   1.000  I
  I1964    1.0000 0.01470  0.51468  0.51468  Biso   1.000  I
  I1965    1.0000 0.01470  0.98534  0.98534  Biso   1.000  I
  I1966    1.0000 0.48532  0.98534  0.51468  Biso   1.000  I
  I1967    1.0000 0.01470  0.98534  0.98534  Biso   1.000  I
  I1968    1.0000 0.51468  0.98534  0.48532  Biso   1.000  I
  I1969    1.0000 0.01470  0.48532  0.48532  Biso   1.000  I
  I1970    1.0000 0.01470  0.51468  0.51468  Biso   1.000  I
  I1971    1.0000 0.51468  0.01470  0.51468  Biso   1.000  I
  I1972    1.0000 0.01470  0.98534  0.98534  Biso   1.000  I
  I1973    1.0000 0.48532  0.51468  0.98534  Biso   1.000  I
  I1974    1.0000 0.51468  0.48532  0.98534  Biso   1.000  I
  I1975    1.0000 0.98534  0.01470  0.98534  Biso   1.000  I
  I1976    1.0000 0.01470  0.98534  0.98534  Biso   1.000  I
  I1977    1.0000 0.48532  0.51468  0.98534  Biso   1.000  I
  I1978    1.0000 0.98534  0.01470  0.98534  Biso   1.000  I
  I1979    1.0000 0.51468  0.48532  0.98534  Biso   1.000  I
  I1980    1.0000 0.51468  0.48532  0.98534  Biso   1.000  I
  I1981    1.0000 0.01470  0.48532  0.48532  Biso   1.000  I
  I1982    1.0000 0.48532  0.01470  0.48532  Biso   1.000  I
  I1983    1.0000 0.48532  0.51468  0.98534  Biso   1.000  I
  I1984    1.0000 0.01470  0.98534  0.98534  Biso   1.000  I
  I1985    1.0000 0.48532  0.51468  0.98534  Biso   1.000  I
  I1986    1.0000 0.51468  0.48532  0.98534  Biso   1.000  I
  I1987    1.0000 0.01470  0.48532  0.48532  Biso   1.000  I
  I1988    1.0000 0.51468  0.48532  0.98534  Biso   1.000  I
  I1989    1.0000 0.98534  0.01470  0.98534  Biso   1.000  I
  I1990    1.0000 0.01470  0.98534  0.98534  Biso   1.000  I
  I1991    1.0000 0.48532  0.51468  0.98534  Biso   1.000  I
  I1992    1.0000 0.51468  0.98534  0.48532  Biso   1.000  I
  I1993    1.0000 0.51468  0.48532  0.98534  Biso   1.000  I
  I1994    1.0000 0.62503  0.62503  0.12501  Biso   1.000  I
  I1995    1.0000 0.62503  0.12501  0.62503  Biso   1.000  I
  I1996    1.0000 0.12501  0.62503  0.62503  Biso   1.000  I
  I1997    1.0000 0.51468  0.48532  0.98534  Biso   1.000  I
  I1998    1.0000 0.98534  0.01470  0.98534  Biso   1.000  I
  I1999    1.0000 0.98534  0.01470  0.98534  Biso   1.000  I
  I2000    1.0000 0.51468  0.01470  0.51468  Biso   1.000  I
  I2001    1.0000 0.48532  0.01470  0.48532  Biso   1.000  I
  I2002    1.0000 0.48532  0.51468  0.98534  Biso   1.000  I
  I2003    1.0000 0.98534  0.48532  0.51468  Biso   1.000  I
  I2004    1.0000 0.98534  0.01470  0.98534  Biso   1.000  I
  I2005    1.0000 0.98534  0.51468  0.48532  Biso   1.000  I
  I2006    1.0000 0.48532  0.01470  0.48532  Biso   1.000  I
  I2007    1.0000 0.98534  0.51468  0.48532  Biso   1.000  I
  I2008    1.0000 0.48532  0.51468  0.98534  Biso   1.000  I
  I2009    1.0000 0.68482  0.68482  0.18480  Biso   1.000  I
  I2010    1.0000 0.68482  0.18480  0.68482  Biso   1.000  I
  I2011    1.0000 0.18480  0.68482  0.68482  Biso   1.000  I
  I2012    1.0000 0.76469  0.76469  0.23531  Biso   1.000  I
  I2013    1.0000 0.76469  0.73533  0.26467  Biso   1.000  I
  I2014    1.0000 0.73533  0.76469  0.26467  Biso   1.000  I
  I2015    1.0000 0.73533  0.26467  0.76469  Biso   1.000  I
  I2016    1.0000 0.76469  0.23531  0.76469  Biso   1.000  I
  I2017    1.0000 0.76469  0.26467  0.73533  Biso   1.000  I
  I2018    1.0000 0.23531  0.76469  0.76469  Biso   1.000  I
  I2019    1.0000 0.26467  0.76469  0.73533  Biso   1.000  I
  I2020    1.0000 0.26467  0.73533  0.76469  Biso   1.000  I
  I2021    1.0000 0.81520  0.68482  0.31518  Biso   1.000  I
  I2022    1.0000 0.68482  0.81520  0.31518  Biso   1.000  I
  I2023    1.0000 0.81520  0.81520  0.18480  Biso   1.000  I
  I2024    1.0000 0.81520  0.18480  0.81520  Biso   1.000  I
  I2025    1.0000 0.81520  0.31518  0.68482  Biso   1.000  I
  I2026    1.0000 0.68482  0.31518  0.81520  Biso   1.000  I
  I2027    1.0000 0.31518  0.81520  0.68482  Biso   1.000  I
  I2028    1.0000 0.31518  0.68482  0.81520  Biso   1.000  I
  I2029    1.0000 0.18480  0.81520  0.81520  Biso   1.000  I
  I2030    1.0000 0.87499  0.62503  0.37502  Biso   1.000  I
  I2031    1.0000 0.73533  0.73533  0.23531  Biso   1.000  I
  I2032    1.0000 0.62503  0.87499  0.37502  Biso   1.000  I
  I2033    1.0000 0.87499  0.87499  0.12501  Biso   1.000  I
  I2034    1.0000 0.73533  0.23531  0.73533  Biso   1.000  I
  I2035    1.0000 0.87499  0.12501  0.87499  Biso   1.000  I
  I2036    1.0000 0.87499  0.37502  0.62503  Biso   1.000  I
  I2037    1.0000 0.62503  0.37502  0.87499  Biso   1.000  I
  I2038    1.0000 0.23531  0.73533  0.73533  Biso   1.000  I
  I2039    1.0000 0.37502  0.87499  0.62503  Biso   1.000  I
  I2040    1.0000 0.37502  0.62503  0.87499  Biso   1.000  I
  I2041    1.0000 0.12501  0.87499  0.87499  Biso   1.000  I
  I2042    1.0000 0.93483  0.56519  0.43481  Biso   1.000  I
  I2043    1.0000 0.56519  0.93483  0.43481  Biso   1.000  I
  I2044    1.0000 0.93483  0.93483  0.06517  Biso   1.000  I
  I2045    1.0000 0.93483  0.06517  0.93483  Biso   1.000  I
  I2046    1.0000 0.93483  0.43481  0.56519  Biso   1.000  I
  I2047    1.0000 0.56519  0.43481  0.93483  Biso   1.000  I
  I2048    1.0000 0.43481  0.93483  0.56519  Biso   1.000  I
  I2049    1.0000 0.43481  0.56519  0.93483  Biso   1.000  I
  I2050    1.0000 0.06517  0.93483  0.93483  Biso   1.000  I
  I2051    1.0000 0.98534  0.48532  0.51468  Biso   1.000  I
  I2052    1.0000 0.48532  0.98534  0.51468  Biso   1.000  I
  I2053    1.0000 0.98534  0.51468  0.48532  Biso   1.000  I
  I2054    1.0000 0.48532  0.51468  0.98534  Biso   1.000  I
  I2055    1.0000 0.51468  0.98534  0.48532  Biso   1.000  I
  I2056    1.0000 0.51468  0.48532  0.98534  Biso   1.000  I
