data_image0
_cell_length_a       24.933
_cell_length_b       24.933
_cell_length_c       24.933
_cell_angle_alpha    90
_cell_angle_beta     90
_cell_angle_gamma    90

_symmetry_space_group_name_H-M    "P 1"
_symmetry_int_tables_number       1

loop_
  _symmetry_equiv_pos_as_xyz
  'x, y, z'

loop_
  _atom_site_label
  _atom_site_occupancy
  _atom_site_fract_x
  _atom_site_fract_y
  _atom_site_fract_z
  _atom_site_thermal_displace_type
  _atom_site_B_iso_or_equiv
  _atom_site_type_symbol
  C1       1.0000 0.50660  0.36959  0.47198  Biso   1.000  C
  C2       1.0000 0.54269  0.31990  0.46071  Biso   1.000  C
  C3       1.0000 0.49340  0.36959  0.52802  Biso   1.000  C
  H1       1.0000 0.52549  0.40232  0.46268  Biso   1.000  H
  H2       1.0000 0.47411  0.36771  0.45069  Biso   1.000  H
  C4       1.0000 0.50969  0.26852  0.47130  Biso   1.000  C
  H3       1.0000 0.55481  0.32042  0.42370  Biso   1.000  H
  H4       1.0000 0.57390  0.32062  0.48390  Biso   1.000  H
  C5       1.0000 0.45731  0.31990  0.53929  Biso   1.000  C
  H5       1.0000 0.47451  0.40232  0.53732  Biso   1.000  H
  H6       1.0000 0.52589  0.36771  0.54931  Biso   1.000  H
  N1       1.0000 0.54462  0.22252  0.46360  Biso   1.000  N
  C6       1.0000 0.49031  0.26852  0.52870  Biso   1.000  C
  H7       1.0000 0.47920  0.26659  0.44660  Biso   1.000  H
  H8       1.0000 0.44519  0.32042  0.57630  Biso   1.000  H
  H9       1.0000 0.42610  0.32062  0.51610  Biso   1.000  H
  C7       1.0000 0.53271  0.18851  0.42891  Biso   1.000  C
  N2       1.0000 0.45538  0.22252  0.53640  Biso   1.000  N
  H10      1.0000 0.52080  0.26659  0.55340  Biso   1.000  H
  C8       1.0000 0.56600  0.14178  0.41551  Biso   1.000  C
  H11      1.0000 0.50058  0.19300  0.41042  Biso   1.000  H
  C9       1.0000 0.46729  0.18851  0.57109  Biso   1.000  C
  C10      1.0000 0.55380  0.11010  0.37200  Biso   1.000  C
  C11      1.0000 0.61012  0.12798  0.44620  Biso   1.000  C
  C12      1.0000 0.43400  0.14178  0.58449  Biso   1.000  C
  H12      1.0000 0.49942  0.19300  0.58958  Biso   1.000  H
  H13      1.0000 0.52400  0.11860  0.35118  Biso   1.000  H
  C13      1.0000 0.58449  0.06602  0.35820  Biso   1.000  C
  H14      1.0000 0.61862  0.14880  0.47600  Biso   1.000  H
  C14      1.0000 0.64180  0.08451  0.43400  Biso   1.000  C
  C15      1.0000 0.44620  0.11010  0.62800  Biso   1.000  C
  C16      1.0000 0.38988  0.12798  0.55380  Biso   1.000  C
  C17      1.0000 0.62800  0.05378  0.38988  Biso   1.000  C
  C18      1.0000 0.57109  0.03269  0.31151  Biso   1.000  C
  C19      1.0000 0.68849  0.07111  0.46729  Biso   1.000  C
  H15      1.0000 0.47600  0.11860  0.64882  Biso   1.000  H
  C20      1.0000 0.41551  0.06602  0.64180  Biso   1.000  C
  H16      1.0000 0.38138  0.14880  0.52400  Biso   1.000  H
  C21      1.0000 0.35820  0.08451  0.56600  Biso   1.000  C
  H17      1.0000 0.64882  0.02398  0.38138  Biso   1.000  H
  N3       1.0000 0.53640  0.04460  0.27750  Biso   1.000  N
  H18      1.0000 0.58958  0.00060  0.30698  Biso   1.000  H
  N4       1.0000 0.72250  0.03642  0.45538  Biso   1.000  N
  H19      1.0000 0.69302  0.08960  0.49942  Biso   1.000  H
  C22      1.0000 0.37200  0.05378  0.61012  Biso   1.000  C
  C23      1.0000 0.42891  0.03269  0.68849  Biso   1.000  C
  C24      1.0000 0.31151  0.07111  0.53271  Biso   1.000  C
  C25      1.0000 0.52870  0.00971  0.23150  Biso   1.000  C
  C26      1.0000 0.76850  0.02868  0.49031  Biso   1.000  C
  H20      1.0000 0.35118  0.02398  0.61862  Biso   1.000  H
  N5       1.0000 0.46360  0.04460  0.72250  Biso   1.000  N
  H21      1.0000 0.41042  0.00060  0.69302  Biso   1.000  H
  N6       1.0000 0.27750  0.03642  0.54462  Biso   1.000  N
  H22      1.0000 0.30698  0.08960  0.50058  Biso   1.000  H
  C27      1.0000 0.53929  0.04271  0.18008  Biso   1.000  C
  C28      1.0000 0.47130  0.99029  0.23150  Biso   1.000  C
  H23      1.0000 0.55340  0.97918  0.23339  Biso   1.000  H
  H24      1.0000 0.76661  0.05338  0.52080  Biso   1.000  H
  C29      1.0000 0.81992  0.03931  0.45731  Biso   1.000  C
  C30      1.0000 0.76850  0.97132  0.50969  Biso   1.000  C
  C31      1.0000 0.47130  0.00971  0.76850  Biso   1.000  C
  C32      1.0000 0.23150  0.02868  0.50969  Biso   1.000  C
  H25      1.0000 0.57630  0.05479  0.17960  Biso   1.000  H
  H26      1.0000 0.51610  0.07392  0.17940  Biso   1.000  H
  C33      1.0000 0.52802  0.00662  0.13039  Biso   1.000  C
  H27      1.0000 0.44660  0.02082  0.23339  Biso   1.000  H
  N7       1.0000 0.46360  0.95540  0.27750  Biso   1.000  N
  C34      1.0000 0.46071  0.95729  0.18008  Biso   1.000  C
  H28      1.0000 0.82040  0.07628  0.44519  Biso   1.000  H
  H29      1.0000 0.82060  0.01608  0.42610  Biso   1.000  H
  C35      1.0000 0.86961  0.02800  0.49340  Biso   1.000  C
  N8       1.0000 0.72250  0.96358  0.54462  Biso   1.000  N
  H30      1.0000 0.76661  0.94662  0.47920  Biso   1.000  H
  C36      1.0000 0.81992  0.96069  0.54269  Biso   1.000  C
  C37      1.0000 0.46071  0.04271  0.81992  Biso   1.000  C
  C38      1.0000 0.52870  0.99029  0.76850  Biso   1.000  C
  H31      1.0000 0.44660  0.97918  0.76661  Biso   1.000  H
  H32      1.0000 0.23339  0.05338  0.47920  Biso   1.000  H
  C39      1.0000 0.18008  0.03931  0.54269  Biso   1.000  C
  C40      1.0000 0.23150  0.97132  0.49031  Biso   1.000  C
  H33      1.0000 0.53732  0.02551  0.09770  Biso   1.000  H
  C41      1.0000 0.47198  0.99338  0.13039  Biso   1.000  C
  H34      1.0000 0.54931  0.97409  0.13231  Biso   1.000  H
  C42      1.0000 0.42891  0.96731  0.31151  Biso   1.000  C
  H35      1.0000 0.42370  0.94521  0.17960  Biso   1.000  H
  H36      1.0000 0.48390  0.92608  0.17940  Biso   1.000  H
  H37      1.0000 0.90230  0.03730  0.47451  Biso   1.000  H
  H38      1.0000 0.86769  0.04929  0.52589  Biso   1.000  H
  C43      1.0000 0.86961  0.97200  0.50660  Biso   1.000  C
  C44      1.0000 0.68849  0.92889  0.53271  Biso   1.000  C
  H39      1.0000 0.82040  0.92372  0.55481  Biso   1.000  H
  H40      1.0000 0.82060  0.98392  0.57390  Biso   1.000  H
  H41      1.0000 0.42370  0.05479  0.82040  Biso   1.000  H
  H42      1.0000 0.48390  0.07392  0.82060  Biso   1.000  H
  C45      1.0000 0.47198  0.00662  0.86961  Biso   1.000  C
  H43      1.0000 0.55340  0.02082  0.76661  Biso   1.000  H
  N9       1.0000 0.53640  0.95540  0.72250  Biso   1.000  N
  C46      1.0000 0.53929  0.95729  0.81992  Biso   1.000  C
  H44      1.0000 0.17960  0.07628  0.55481  Biso   1.000  H
  H45      1.0000 0.17940  0.01608  0.57390  Biso   1.000  H
  C47      1.0000 0.13039  0.02800  0.50660  Biso   1.000  C
  N10      1.0000 0.27750  0.96358  0.45538  Biso   1.000  N
  H46      1.0000 0.23339  0.94662  0.52080  Biso   1.000  H
  C48      1.0000 0.18008  0.96069  0.45731  Biso   1.000  C
  H47      1.0000 0.45069  0.02591  0.13231  Biso   1.000  H
  H48      1.0000 0.46268  0.97449  0.09770  Biso   1.000  H
  C49      1.0000 0.41551  0.93398  0.35820  Biso   1.000  C
  H49      1.0000 0.41042  0.99940  0.30698  Biso   1.000  H
  H50      1.0000 0.90230  0.96270  0.52549  Biso   1.000  H
  H51      1.0000 0.86769  0.95071  0.47411  Biso   1.000  H
  C50      1.0000 0.64180  0.91549  0.56600  Biso   1.000  C
  H52      1.0000 0.69302  0.91040  0.50058  Biso   1.000  H
  H53      1.0000 0.46268  0.02551  0.90230  Biso   1.000  H
  C51      1.0000 0.52802  0.99338  0.86961  Biso   1.000  C
  H54      1.0000 0.45069  0.97409  0.86769  Biso   1.000  H
  C52      1.0000 0.57109  0.96731  0.68849  Biso   1.000  C
  H55      1.0000 0.57630  0.94521  0.82040  Biso   1.000  H
  H56      1.0000 0.51610  0.92608  0.82060  Biso   1.000  H
  H57      1.0000 0.09770  0.03730  0.52549  Biso   1.000  H
  H58      1.0000 0.13231  0.04929  0.47411  Biso   1.000  H
  C53      1.0000 0.13039  0.97200  0.49340  Biso   1.000  C
  C54      1.0000 0.31151  0.92889  0.46729  Biso   1.000  C
  H59      1.0000 0.17960  0.92372  0.44519  Biso   1.000  H
  H60      1.0000 0.17940  0.98392  0.42610  Biso   1.000  H
  C55      1.0000 0.37200  0.94622  0.38988  Biso   1.000  C
  C56      1.0000 0.44620  0.88990  0.37200  Biso   1.000  C
  C57      1.0000 0.61012  0.87202  0.55380  Biso   1.000  C
  C58      1.0000 0.62800  0.94622  0.61012  Biso   1.000  C
  H61      1.0000 0.54931  0.02591  0.86769  Biso   1.000  H
  H62      1.0000 0.53732  0.97449  0.90230  Biso   1.000  H
  C59      1.0000 0.58449  0.93398  0.64180  Biso   1.000  C
  H63      1.0000 0.58958  0.99940  0.69302  Biso   1.000  H
  H64      1.0000 0.09770  0.96270  0.47451  Biso   1.000  H
  H65      1.0000 0.13231  0.95071  0.52589  Biso   1.000  H
  C60      1.0000 0.35820  0.91549  0.43400  Biso   1.000  C
  H66      1.0000 0.30698  0.91040  0.49942  Biso   1.000  H
  H67      1.0000 0.35118  0.97602  0.38138  Biso   1.000  H
  H68      1.0000 0.47600  0.88140  0.35118  Biso   1.000  H
  C61      1.0000 0.43400  0.85822  0.41551  Biso   1.000  C
  H69      1.0000 0.61862  0.85120  0.52400  Biso   1.000  H
  C62      1.0000 0.56600  0.85822  0.58449  Biso   1.000  C
  H70      1.0000 0.64882  0.97602  0.61862  Biso   1.000  H
  C63      1.0000 0.55380  0.88990  0.62800  Biso   1.000  C
  C64      1.0000 0.38988  0.87202  0.44620  Biso   1.000  C
  C65      1.0000 0.46729  0.81149  0.42891  Biso   1.000  C
  C66      1.0000 0.53271  0.81149  0.57109  Biso   1.000  C
  H71      1.0000 0.52400  0.88140  0.64882  Biso   1.000  H
  H72      1.0000 0.38138  0.85120  0.47600  Biso   1.000  H
  N11      1.0000 0.45538  0.77748  0.46360  Biso   1.000  N
  H73      1.0000 0.49942  0.80700  0.41042  Biso   1.000  H
  N12      1.0000 0.54462  0.77748  0.53640  Biso   1.000  N
  H74      1.0000 0.50058  0.80700  0.58958  Biso   1.000  H
  C67      1.0000 0.49031  0.73148  0.47130  Biso   1.000  C
  C68      1.0000 0.50969  0.73148  0.52870  Biso   1.000  C
  H75      1.0000 0.52080  0.73341  0.44660  Biso   1.000  H
  C69      1.0000 0.45731  0.68010  0.46071  Biso   1.000  C
  H76      1.0000 0.47920  0.73341  0.55340  Biso   1.000  H
  C70      1.0000 0.54269  0.68010  0.53929  Biso   1.000  C
  H77      1.0000 0.44519  0.67958  0.42370  Biso   1.000  H
  H78      1.0000 0.42610  0.67938  0.48390  Biso   1.000  H
  C71      1.0000 0.49340  0.63041  0.47198  Biso   1.000  C
  H79      1.0000 0.55481  0.67958  0.57630  Biso   1.000  H
  H80      1.0000 0.57390  0.67938  0.51610  Biso   1.000  H
  C72      1.0000 0.50660  0.63041  0.52802  Biso   1.000  C
  H81      1.0000 0.47451  0.59768  0.46268  Biso   1.000  H
  H82      1.0000 0.52589  0.63229  0.45069  Biso   1.000  H
  H83      1.0000 0.52549  0.59768  0.53732  Biso   1.000  H
  H84      1.0000 0.47411  0.63229  0.54931  Biso   1.000  H
  C73      1.0000 0.50660  0.36959  0.47198  Biso   1.000  C
  C74      1.0000 0.54269  0.31990  0.46071  Biso   1.000  C
  C75      1.0000 0.49340  0.36959  0.52802  Biso   1.000  C
  H85      1.0000 0.52549  0.40232  0.46268  Biso   1.000  H
  H86      1.0000 0.47411  0.36771  0.45069  Biso   1.000  H
  C76      1.0000 0.50969  0.26852  0.47130  Biso   1.000  C
  H87      1.0000 0.55481  0.32042  0.42370  Biso   1.000  H
  H88      1.0000 0.57390  0.32062  0.48390  Biso   1.000  H
  C77      1.0000 0.45731  0.31990  0.53929  Biso   1.000  C
  H89      1.0000 0.47451  0.40232  0.53732  Biso   1.000  H
  H90      1.0000 0.52589  0.36771  0.54931  Biso   1.000  H
  N13      1.0000 0.54462  0.22252  0.46360  Biso   1.000  N
  C78      1.0000 0.49031  0.26852  0.52870  Biso   1.000  C
  H91      1.0000 0.47920  0.26659  0.44660  Biso   1.000  H
  H92      1.0000 0.44519  0.32042  0.57630  Biso   1.000  H
  H93      1.0000 0.42610  0.32062  0.51610  Biso   1.000  H
  C79      1.0000 0.53271  0.18851  0.42891  Biso   1.000  C
  N14      1.0000 0.45538  0.22252  0.53640  Biso   1.000  N
  H94      1.0000 0.52080  0.26659  0.55340  Biso   1.000  H
  C80      1.0000 0.56600  0.14178  0.41551  Biso   1.000  C
  H95      1.0000 0.50058  0.19300  0.41042  Biso   1.000  H
  C81      1.0000 0.46729  0.18851  0.57109  Biso   1.000  C
  C82      1.0000 0.55380  0.11010  0.37200  Biso   1.000  C
  C83      1.0000 0.61012  0.12798  0.44620  Biso   1.000  C
  C84      1.0000 0.43400  0.14178  0.58449  Biso   1.000  C
  H96      1.0000 0.49942  0.19300  0.58958  Biso   1.000  H
  H97      1.0000 0.52400  0.11860  0.35118  Biso   1.000  H
  C85      1.0000 0.58449  0.06602  0.35820  Biso   1.000  C
  H98      1.0000 0.61862  0.14880  0.47600  Biso   1.000  H
  C86      1.0000 0.64180  0.08451  0.43400  Biso   1.000  C
  C87      1.0000 0.44620  0.11010  0.62800  Biso   1.000  C
  C88      1.0000 0.38988  0.12798  0.55380  Biso   1.000  C
  C89      1.0000 0.62800  0.05378  0.38988  Biso   1.000  C
  C90      1.0000 0.57109  0.03269  0.31151  Biso   1.000  C
  C91      1.0000 0.68849  0.07111  0.46729  Biso   1.000  C
  H99      1.0000 0.47600  0.11860  0.64882  Biso   1.000  H
  C92      1.0000 0.41551  0.06602  0.64180  Biso   1.000  C
  H100     1.0000 0.38138  0.14880  0.52400  Biso   1.000  H
  C93      1.0000 0.35820  0.08451  0.56600  Biso   1.000  C
  H101     1.0000 0.64882  0.02398  0.38138  Biso   1.000  H
  N15      1.0000 0.53640  0.04460  0.27750  Biso   1.000  N
  H102     1.0000 0.58958  0.00060  0.30698  Biso   1.000  H
  N16      1.0000 0.72250  0.03642  0.45538  Biso   1.000  N
  H103     1.0000 0.69302  0.08960  0.49942  Biso   1.000  H
  C94      1.0000 0.37200  0.05378  0.61012  Biso   1.000  C
  C95      1.0000 0.42891  0.03269  0.68849  Biso   1.000  C
  C96      1.0000 0.31151  0.07111  0.53271  Biso   1.000  C
  C97      1.0000 0.52870  0.00971  0.23150  Biso   1.000  C
  C98      1.0000 0.76850  0.02868  0.49031  Biso   1.000  C
  H104     1.0000 0.35118  0.02398  0.61862  Biso   1.000  H
  N17      1.0000 0.46360  0.04460  0.72250  Biso   1.000  N
  H105     1.0000 0.41042  0.00060  0.69302  Biso   1.000  H
  N18      1.0000 0.27750  0.03642  0.54462  Biso   1.000  N
  H106     1.0000 0.30698  0.08960  0.50058  Biso   1.000  H
  C99      1.0000 0.53929  0.04271  0.18008  Biso   1.000  C
  C100     1.0000 0.47130  0.99029  0.23150  Biso   1.000  C
  H107     1.0000 0.55340  0.97918  0.23339  Biso   1.000  H
  H108     1.0000 0.76661  0.05338  0.52080  Biso   1.000  H
  C101     1.0000 0.81992  0.03931  0.45731  Biso   1.000  C
  C102     1.0000 0.76850  0.97132  0.50969  Biso   1.000  C
  C103     1.0000 0.47130  0.00971  0.76850  Biso   1.000  C
  C104     1.0000 0.23150  0.02868  0.50969  Biso   1.000  C
  H109     1.0000 0.57630  0.05479  0.17960  Biso   1.000  H
  H110     1.0000 0.51610  0.07392  0.17940  Biso   1.000  H
  C105     1.0000 0.52802  0.00662  0.13039  Biso   1.000  C
  H111     1.0000 0.44660  0.02082  0.23339  Biso   1.000  H
  N19      1.0000 0.46360  0.95540  0.27750  Biso   1.000  N
  C106     1.0000 0.46071  0.95729  0.18008  Biso   1.000  C
  H112     1.0000 0.82040  0.07628  0.44519  Biso   1.000  H
  H113     1.0000 0.82060  0.01608  0.42610  Biso   1.000  H
  C107     1.0000 0.86961  0.02800  0.49340  Biso   1.000  C
  N20      1.0000 0.72250  0.96358  0.54462  Biso   1.000  N
  H114     1.0000 0.76661  0.94662  0.47920  Biso   1.000  H
  C108     1.0000 0.81992  0.96069  0.54269  Biso   1.000  C
  C109     1.0000 0.46071  0.04271  0.81992  Biso   1.000  C
  C110     1.0000 0.52870  0.99029  0.76850  Biso   1.000  C
  H115     1.0000 0.44660  0.97918  0.76661  Biso   1.000  H
  H116     1.0000 0.23339  0.05338  0.47920  Biso   1.000  H
  C111     1.0000 0.18008  0.03931  0.54269  Biso   1.000  C
  C112     1.0000 0.23150  0.97132  0.49031  Biso   1.000  C
  H117     1.0000 0.53732  0.02551  0.09770  Biso   1.000  H
  C113     1.0000 0.47198  0.99338  0.13039  Biso   1.000  C
  H118     1.0000 0.54931  0.97409  0.13231  Biso   1.000  H
  C114     1.0000 0.42891  0.96731  0.31151  Biso   1.000  C
  H119     1.0000 0.42370  0.94521  0.17960  Biso   1.000  H
  H120     1.0000 0.48390  0.92608  0.17940  Biso   1.000  H
  H121     1.0000 0.90230  0.03730  0.47451  Biso   1.000  H
  H122     1.0000 0.86769  0.04929  0.52589  Biso   1.000  H
  C115     1.0000 0.86961  0.97200  0.50660  Biso   1.000  C
  C116     1.0000 0.68849  0.92889  0.53271  Biso   1.000  C
  H123     1.0000 0.82040  0.92372  0.55481  Biso   1.000  H
  H124     1.0000 0.82060  0.98392  0.57390  Biso   1.000  H
  H125     1.0000 0.42370  0.05479  0.82040  Biso   1.000  H
  H126     1.0000 0.48390  0.07392  0.82060  Biso   1.000  H
  C117     1.0000 0.47198  0.00662  0.86961  Biso   1.000  C
  H127     1.0000 0.55340  0.02082  0.76661  Biso   1.000  H
  N21      1.0000 0.53640  0.95540  0.72250  Biso   1.000  N
  C118     1.0000 0.53929  0.95729  0.81992  Biso   1.000  C
  H128     1.0000 0.17960  0.07628  0.55481  Biso   1.000  H
  H129     1.0000 0.17940  0.01608  0.57390  Biso   1.000  H
  C119     1.0000 0.13039  0.02800  0.50660  Biso   1.000  C
  N22      1.0000 0.27750  0.96358  0.45538  Biso   1.000  N
  H130     1.0000 0.23339  0.94662  0.52080  Biso   1.000  H
  C120     1.0000 0.18008  0.96069  0.45731  Biso   1.000  C
  H131     1.0000 0.45069  0.02591  0.13231  Biso   1.000  H
  H132     1.0000 0.46268  0.97449  0.09770  Biso   1.000  H
  C121     1.0000 0.41551  0.93398  0.35820  Biso   1.000  C
  H133     1.0000 0.41042  0.99940  0.30698  Biso   1.000  H
  H134     1.0000 0.90230  0.96270  0.52549  Biso   1.000  H
  H135     1.0000 0.86769  0.95071  0.47411  Biso   1.000  H
  C122     1.0000 0.64180  0.91549  0.56600  Biso   1.000  C
  H136     1.0000 0.69302  0.91040  0.50058  Biso   1.000  H
  H137     1.0000 0.46268  0.02551  0.90230  Biso   1.000  H
  C123     1.0000 0.52802  0.99338  0.86961  Biso   1.000  C
  H138     1.0000 0.45069  0.97409  0.86769  Biso   1.000  H
  C124     1.0000 0.57109  0.96731  0.68849  Biso   1.000  C
  H139     1.0000 0.57630  0.94521  0.82040  Biso   1.000  H
  H140     1.0000 0.51610  0.92608  0.82060  Biso   1.000  H
  H141     1.0000 0.09770  0.03730  0.52549  Biso   1.000  H
  H142     1.0000 0.13231  0.04929  0.47411  Biso   1.000  H
  C125     1.0000 0.13039  0.97200  0.49340  Biso   1.000  C
  C126     1.0000 0.31151  0.92889  0.46729  Biso   1.000  C
  H143     1.0000 0.17960  0.92372  0.44519  Biso   1.000  H
  H144     1.0000 0.17940  0.98392  0.42610  Biso   1.000  H
  C127     1.0000 0.37200  0.94622  0.38988  Biso   1.000  C
  C128     1.0000 0.44620  0.88990  0.37200  Biso   1.000  C
  C129     1.0000 0.61012  0.87202  0.55380  Biso   1.000  C
  C130     1.0000 0.62800  0.94622  0.61012  Biso   1.000  C
  H145     1.0000 0.54931  0.02591  0.86769  Biso   1.000  H
  H146     1.0000 0.53732  0.97449  0.90230  Biso   1.000  H
  C131     1.0000 0.58449  0.93398  0.64180  Biso   1.000  C
  H147     1.0000 0.58958  0.99940  0.69302  Biso   1.000  H
  H148     1.0000 0.09770  0.96270  0.47451  Biso   1.000  H
  H149     1.0000 0.13231  0.95071  0.52589  Biso   1.000  H
  C132     1.0000 0.35820  0.91549  0.43400  Biso   1.000  C
  H150     1.0000 0.30698  0.91040  0.49942  Biso   1.000  H
  H151     1.0000 0.35118  0.97602  0.38138  Biso   1.000  H
  H152     1.0000 0.47600  0.88140  0.35118  Biso   1.000  H
  C133     1.0000 0.43400  0.85822  0.41551  Biso   1.000  C
  H153     1.0000 0.61862  0.85120  0.52400  Biso   1.000  H
  C134     1.0000 0.56600  0.85822  0.58449  Biso   1.000  C
  H154     1.0000 0.64882  0.97602  0.61862  Biso   1.000  H
  C135     1.0000 0.55380  0.88990  0.62800  Biso   1.000  C
  C136     1.0000 0.38988  0.87202  0.44620  Biso   1.000  C
  C137     1.0000 0.46729  0.81149  0.42891  Biso   1.000  C
  C138     1.0000 0.53271  0.81149  0.57109  Biso   1.000  C
  H155     1.0000 0.52400  0.88140  0.64882  Biso   1.000  H
  H156     1.0000 0.38138  0.85120  0.47600  Biso   1.000  H
  N23      1.0000 0.45538  0.77748  0.46360  Biso   1.000  N
  H157     1.0000 0.49942  0.80700  0.41042  Biso   1.000  H
  N24      1.0000 0.54462  0.77748  0.53640  Biso   1.000  N
  H158     1.0000 0.50058  0.80700  0.58958  Biso   1.000  H
  C139     1.0000 0.49031  0.73148  0.47130  Biso   1.000  C
  C140     1.0000 0.50969  0.73148  0.52870  Biso   1.000  C
  H159     1.0000 0.52080  0.73341  0.44660  Biso   1.000  H
  C141     1.0000 0.45731  0.68010  0.46071  Biso   1.000  C
  H160     1.0000 0.47920  0.73341  0.55340  Biso   1.000  H
  C142     1.0000 0.54269  0.68010  0.53929  Biso   1.000  C
  H161     1.0000 0.44519  0.67958  0.42370  Biso   1.000  H
  H162     1.0000 0.42610  0.67938  0.48390  Biso   1.000  H
  C143     1.0000 0.49340  0.63041  0.47198  Biso   1.000  C
  H163     1.0000 0.55481  0.67958  0.57630  Biso   1.000  H
  H164     1.0000 0.57390  0.67938  0.51610  Biso   1.000  H
  C144     1.0000 0.50660  0.63041  0.52802  Biso   1.000  C
  H165     1.0000 0.47451  0.59768  0.46268  Biso   1.000  H
  H166     1.0000 0.52589  0.63229  0.45069  Biso   1.000  H
  H167     1.0000 0.52549  0.59768  0.53732  Biso   1.000  H
  H168     1.0000 0.47411  0.63229  0.54931  Biso   1.000  H
  C145     1.0000 0.47198  0.50660  0.36959  Biso   1.000  C
  C146     1.0000 0.46071  0.54269  0.31990  Biso   1.000  C
  C147     1.0000 0.52802  0.49340  0.36959  Biso   1.000  C
  H169     1.0000 0.46268  0.52549  0.40232  Biso   1.000  H
  H170     1.0000 0.45069  0.47411  0.36771  Biso   1.000  H
  C148     1.0000 0.47130  0.50969  0.26852  Biso   1.000  C
  H171     1.0000 0.42370  0.55481  0.32042  Biso   1.000  H
  H172     1.0000 0.48390  0.57390  0.32062  Biso   1.000  H
  C149     1.0000 0.53929  0.45731  0.31990  Biso   1.000  C
  H173     1.0000 0.53732  0.47451  0.40232  Biso   1.000  H
  H174     1.0000 0.54931  0.52589  0.36771  Biso   1.000  H
  C150     1.0000 0.52870  0.49031  0.26852  Biso   1.000  C
  N25      1.0000 0.46360  0.54462  0.22252  Biso   1.000  N
  H175     1.0000 0.44660  0.47920  0.26659  Biso   1.000  H
  H176     1.0000 0.57630  0.44519  0.32042  Biso   1.000  H
  H177     1.0000 0.51610  0.42610  0.32062  Biso   1.000  H
  N26      1.0000 0.53640  0.45538  0.22252  Biso   1.000  N
  H178     1.0000 0.55340  0.52080  0.26659  Biso   1.000  H
  C151     1.0000 0.42891  0.53271  0.18851  Biso   1.000  C
  C152     1.0000 0.57109  0.46729  0.18851  Biso   1.000  C
  C153     1.0000 0.41551  0.56600  0.14178  Biso   1.000  C
  H179     1.0000 0.41042  0.50058  0.19300  Biso   1.000  H
  C154     1.0000 0.58449  0.43400  0.14178  Biso   1.000  C
  H180     1.0000 0.58958  0.49942  0.19300  Biso   1.000  H
  C155     1.0000 0.37200  0.55380  0.11010  Biso   1.000  C
  C156     1.0000 0.44620  0.61012  0.12798  Biso   1.000  C
  C157     1.0000 0.55380  0.38988  0.12798  Biso   1.000  C
  C158     1.0000 0.62800  0.44620  0.11010  Biso   1.000  C
  H181     1.0000 0.35118  0.52400  0.11860  Biso   1.000  H
  C159     1.0000 0.35820  0.58449  0.06602  Biso   1.000  C
  C160     1.0000 0.43400  0.64180  0.08451  Biso   1.000  C
  H182     1.0000 0.47600  0.61862  0.14880  Biso   1.000  H
  C161     1.0000 0.56600  0.35820  0.08451  Biso   1.000  C
  H183     1.0000 0.52400  0.38138  0.14880  Biso   1.000  H
  C162     1.0000 0.64180  0.41551  0.06602  Biso   1.000  C
  H184     1.0000 0.64882  0.47600  0.11860  Biso   1.000  H
  C163     1.0000 0.38988  0.62800  0.05378  Biso   1.000  C
  C164     1.0000 0.31151  0.57109  0.03269  Biso   1.000  C
  C165     1.0000 0.46729  0.68849  0.07111  Biso   1.000  C
  C166     1.0000 0.53271  0.31151  0.07111  Biso   1.000  C
  C167     1.0000 0.61012  0.37200  0.05378  Biso   1.000  C
  C168     1.0000 0.68849  0.42891  0.03269  Biso   1.000  C
  H185     1.0000 0.38138  0.64882  0.02398  Biso   1.000  H
  N27      1.0000 0.27750  0.53640  0.04460  Biso   1.000  N
  H186     1.0000 0.30698  0.58958  0.00060  Biso   1.000  H
  N28      1.0000 0.45538  0.72250  0.03642  Biso   1.000  N
  H187     1.0000 0.49942  0.69302  0.08960  Biso   1.000  H
  N29      1.0000 0.54462  0.27750  0.03642  Biso   1.000  N
  H188     1.0000 0.50058  0.30698  0.08960  Biso   1.000  H
  H189     1.0000 0.61862  0.35118  0.02398  Biso   1.000  H
  N30      1.0000 0.72250  0.46360  0.04460  Biso   1.000  N
  H190     1.0000 0.69302  0.41042  0.00060  Biso   1.000  H
  C169     1.0000 0.23150  0.52870  0.00971  Biso   1.000  C
  C170     1.0000 0.49031  0.76850  0.02868  Biso   1.000  C
  C171     1.0000 0.50969  0.23150  0.02868  Biso   1.000  C
  C172     1.0000 0.76850  0.47130  0.00971  Biso   1.000  C
  C173     1.0000 0.23150  0.47130  0.99029  Biso   1.000  C
  C174     1.0000 0.18008  0.53929  0.04271  Biso   1.000  C
  H191     1.0000 0.23339  0.55340  0.97918  Biso   1.000  H
  C175     1.0000 0.50969  0.76850  0.97132  Biso   1.000  C
  H192     1.0000 0.52080  0.76661  0.05338  Biso   1.000  H
  C176     1.0000 0.45731  0.81992  0.03931  Biso   1.000  C
  H193     1.0000 0.47920  0.23339  0.05338  Biso   1.000  H
  C177     1.0000 0.54269  0.18008  0.03931  Biso   1.000  C
  C178     1.0000 0.49031  0.23150  0.97132  Biso   1.000  C
  C179     1.0000 0.81992  0.46071  0.04271  Biso   1.000  C
  C180     1.0000 0.76850  0.52870  0.99029  Biso   1.000  C
  H194     1.0000 0.76661  0.44660  0.97918  Biso   1.000  H
  N31      1.0000 0.27750  0.46360  0.95540  Biso   1.000  N
  H195     1.0000 0.23339  0.44660  0.02082  Biso   1.000  H
  C181     1.0000 0.18008  0.46071  0.95729  Biso   1.000  C
  H196     1.0000 0.17960  0.57630  0.05479  Biso   1.000  H
  H197     1.0000 0.17940  0.51610  0.07392  Biso   1.000  H
  C182     1.0000 0.13039  0.52802  0.00662  Biso   1.000  C
  N32      1.0000 0.54462  0.72250  0.96358  Biso   1.000  N
  H198     1.0000 0.47920  0.76661  0.94662  Biso   1.000  H
  C183     1.0000 0.54269  0.81992  0.96069  Biso   1.000  C
  H199     1.0000 0.44519  0.82040  0.07628  Biso   1.000  H
  H200     1.0000 0.42610  0.82060  0.01608  Biso   1.000  H
  C184     1.0000 0.49340  0.86961  0.02800  Biso   1.000  C
  H201     1.0000 0.55481  0.17960  0.07628  Biso   1.000  H
  H202     1.0000 0.57390  0.17940  0.01608  Biso   1.000  H
  C185     1.0000 0.50660  0.13039  0.02800  Biso   1.000  C
  N33      1.0000 0.45538  0.27750  0.96358  Biso   1.000  N
  H203     1.0000 0.52080  0.23339  0.94662  Biso   1.000  H
  C186     1.0000 0.45731  0.18008  0.96069  Biso   1.000  C
  H204     1.0000 0.82040  0.42370  0.05479  Biso   1.000  H
  H205     1.0000 0.82060  0.48390  0.07392  Biso   1.000  H
  C187     1.0000 0.86961  0.47198  0.00662  Biso   1.000  C
  H206     1.0000 0.76661  0.55340  0.02082  Biso   1.000  H
  N34      1.0000 0.72250  0.53640  0.95540  Biso   1.000  N
  C188     1.0000 0.81992  0.53929  0.95729  Biso   1.000  C
  C189     1.0000 0.31151  0.42891  0.96731  Biso   1.000  C
  H207     1.0000 0.17960  0.42370  0.94521  Biso   1.000  H
  H208     1.0000 0.17940  0.48390  0.92608  Biso   1.000  H
  C190     1.0000 0.13039  0.47198  0.99338  Biso   1.000  C
  H209     1.0000 0.09770  0.53732  0.02551  Biso   1.000  H
  H210     1.0000 0.13231  0.54931  0.97409  Biso   1.000  H
  C191     1.0000 0.53271  0.68849  0.92889  Biso   1.000  C
  H211     1.0000 0.55481  0.82040  0.92372  Biso   1.000  H
  H212     1.0000 0.57390  0.82060  0.98392  Biso   1.000  H
  C192     1.0000 0.50660  0.86961  0.97200  Biso   1.000  C
  H213     1.0000 0.47451  0.90230  0.03730  Biso   1.000  H
  H214     1.0000 0.52589  0.86769  0.04929  Biso   1.000  H
  H215     1.0000 0.52549  0.09770  0.03730  Biso   1.000  H
  H216     1.0000 0.47411  0.13231  0.04929  Biso   1.000  H
  C193     1.0000 0.49340  0.13039  0.97200  Biso   1.000  C
  C194     1.0000 0.46729  0.31151  0.92889  Biso   1.000  C
  H217     1.0000 0.44519  0.17960  0.92372  Biso   1.000  H
  H218     1.0000 0.42610  0.17940  0.98392  Biso   1.000  H
  H219     1.0000 0.90230  0.46268  0.02551  Biso   1.000  H
  C195     1.0000 0.86961  0.52802  0.99338  Biso   1.000  C
  H220     1.0000 0.86769  0.45069  0.97409  Biso   1.000  H
  C196     1.0000 0.68849  0.57109  0.96731  Biso   1.000  C
  H221     1.0000 0.82040  0.57630  0.94521  Biso   1.000  H
  H222     1.0000 0.82060  0.51610  0.92608  Biso   1.000  H
  C197     1.0000 0.35820  0.41551  0.93398  Biso   1.000  C
  H223     1.0000 0.30698  0.41042  0.99940  Biso   1.000  H
  H224     1.0000 0.13231  0.45069  0.02591  Biso   1.000  H
  H225     1.0000 0.09770  0.46268  0.97449  Biso   1.000  H
  C198     1.0000 0.56600  0.64180  0.91549  Biso   1.000  C
  H226     1.0000 0.50058  0.69302  0.91040  Biso   1.000  H
  H227     1.0000 0.52549  0.90230  0.96270  Biso   1.000  H
  H228     1.0000 0.47411  0.86769  0.95071  Biso   1.000  H
  H229     1.0000 0.47451  0.09770  0.96270  Biso   1.000  H
  H230     1.0000 0.52589  0.13231  0.95071  Biso   1.000  H
  C199     1.0000 0.43400  0.35820  0.91549  Biso   1.000  C
  H231     1.0000 0.49942  0.30698  0.91040  Biso   1.000  H
  H232     1.0000 0.86769  0.54931  0.02591  Biso   1.000  H
  H233     1.0000 0.90230  0.53732  0.97449  Biso   1.000  H
  C200     1.0000 0.64180  0.58449  0.93398  Biso   1.000  C
  H234     1.0000 0.69302  0.58958  0.99940  Biso   1.000  H
  C201     1.0000 0.38988  0.37200  0.94622  Biso   1.000  C
  C202     1.0000 0.37200  0.44620  0.88990  Biso   1.000  C
  C203     1.0000 0.61012  0.62800  0.94622  Biso   1.000  C
  C204     1.0000 0.55380  0.61012  0.87202  Biso   1.000  C
  C205     1.0000 0.44620  0.38988  0.87202  Biso   1.000  C
  C206     1.0000 0.62800  0.55380  0.88990  Biso   1.000  C
  H235     1.0000 0.38138  0.35118  0.97602  Biso   1.000  H
  C207     1.0000 0.41551  0.43400  0.85822  Biso   1.000  C
  H236     1.0000 0.35118  0.47600  0.88140  Biso   1.000  H
  H237     1.0000 0.61862  0.64882  0.97602  Biso   1.000  H
  C208     1.0000 0.58449  0.56600  0.85822  Biso   1.000  C
  H238     1.0000 0.52400  0.61862  0.85120  Biso   1.000  H
  H239     1.0000 0.47600  0.38138  0.85120  Biso   1.000  H
  H240     1.0000 0.64882  0.52400  0.88140  Biso   1.000  H
  C209     1.0000 0.42891  0.46729  0.81149  Biso   1.000  C
  C210     1.0000 0.57109  0.53271  0.81149  Biso   1.000  C
  N35      1.0000 0.46360  0.45538  0.77748  Biso   1.000  N
  H241     1.0000 0.41042  0.49942  0.80700  Biso   1.000  H
  N36      1.0000 0.53640  0.54462  0.77748  Biso   1.000  N
  H242     1.0000 0.58958  0.50058  0.80700  Biso   1.000  H
  C211     1.0000 0.47130  0.49031  0.73148  Biso   1.000  C
  C212     1.0000 0.52870  0.50969  0.73148  Biso   1.000  C
  H243     1.0000 0.44660  0.52080  0.73341  Biso   1.000  H
  C213     1.0000 0.46071  0.45731  0.68010  Biso   1.000  C
  H244     1.0000 0.55340  0.47920  0.73341  Biso   1.000  H
  C214     1.0000 0.53929  0.54269  0.68010  Biso   1.000  C
  H245     1.0000 0.42370  0.44519  0.67958  Biso   1.000  H
  H246     1.0000 0.48390  0.42610  0.67938  Biso   1.000  H
  C215     1.0000 0.47198  0.49340  0.63041  Biso   1.000  C
  H247     1.0000 0.57630  0.55481  0.67958  Biso   1.000  H
  H248     1.0000 0.51610  0.57390  0.67938  Biso   1.000  H
  C216     1.0000 0.52802  0.50660  0.63041  Biso   1.000  C
  H249     1.0000 0.46268  0.47451  0.59768  Biso   1.000  H
  H250     1.0000 0.45069  0.52589  0.63229  Biso   1.000  H
  H251     1.0000 0.53732  0.52549  0.59768  Biso   1.000  H
  H252     1.0000 0.54931  0.47411  0.63229  Biso   1.000  H
  C217     1.0000 0.47198  0.50660  0.36959  Biso   1.000  C
  C218     1.0000 0.46071  0.54269  0.31990  Biso   1.000  C
  C219     1.0000 0.52802  0.49340  0.36959  Biso   1.000  C
  H253     1.0000 0.46268  0.52549  0.40232  Biso   1.000  H
  H254     1.0000 0.45069  0.47411  0.36771  Biso   1.000  H
  C220     1.0000 0.47130  0.50969  0.26852  Biso   1.000  C
  H255     1.0000 0.42370  0.55481  0.32042  Biso   1.000  H
  H256     1.0000 0.48390  0.57390  0.32062  Biso   1.000  H
  C221     1.0000 0.53929  0.45731  0.31990  Biso   1.000  C
  H257     1.0000 0.53732  0.47451  0.40232  Biso   1.000  H
  H258     1.0000 0.54931  0.52589  0.36771  Biso   1.000  H
  C222     1.0000 0.52870  0.49031  0.26852  Biso   1.000  C
  N37      1.0000 0.46360  0.54462  0.22252  Biso   1.000  N
  H259     1.0000 0.44660  0.47920  0.26659  Biso   1.000  H
  H260     1.0000 0.57630  0.44519  0.32042  Biso   1.000  H
  H261     1.0000 0.51610  0.42610  0.32062  Biso   1.000  H
  N38      1.0000 0.53640  0.45538  0.22252  Biso   1.000  N
  H262     1.0000 0.55340  0.52080  0.26659  Biso   1.000  H
  C223     1.0000 0.42891  0.53271  0.18851  Biso   1.000  C
  C224     1.0000 0.57109  0.46729  0.18851  Biso   1.000  C
  C225     1.0000 0.41551  0.56600  0.14178  Biso   1.000  C
  H263     1.0000 0.41042  0.50058  0.19300  Biso   1.000  H
  C226     1.0000 0.58449  0.43400  0.14178  Biso   1.000  C
  H264     1.0000 0.58958  0.49942  0.19300  Biso   1.000  H
  C227     1.0000 0.37200  0.55380  0.11010  Biso   1.000  C
  C228     1.0000 0.44620  0.61012  0.12798  Biso   1.000  C
  C229     1.0000 0.55380  0.38988  0.12798  Biso   1.000  C
  C230     1.0000 0.62800  0.44620  0.11010  Biso   1.000  C
  H265     1.0000 0.35118  0.52400  0.11860  Biso   1.000  H
  C231     1.0000 0.35820  0.58449  0.06602  Biso   1.000  C
  C232     1.0000 0.43400  0.64180  0.08451  Biso   1.000  C
  H266     1.0000 0.47600  0.61862  0.14880  Biso   1.000  H
  C233     1.0000 0.56600  0.35820  0.08451  Biso   1.000  C
  H267     1.0000 0.52400  0.38138  0.14880  Biso   1.000  H
  C234     1.0000 0.64180  0.41551  0.06602  Biso   1.000  C
  H268     1.0000 0.64882  0.47600  0.11860  Biso   1.000  H
  C235     1.0000 0.38988  0.62800  0.05378  Biso   1.000  C
  C236     1.0000 0.31151  0.57109  0.03269  Biso   1.000  C
  C237     1.0000 0.46729  0.68849  0.07111  Biso   1.000  C
  C238     1.0000 0.53271  0.31151  0.07111  Biso   1.000  C
  C239     1.0000 0.61012  0.37200  0.05378  Biso   1.000  C
  C240     1.0000 0.68849  0.42891  0.03269  Biso   1.000  C
  H269     1.0000 0.38138  0.64882  0.02398  Biso   1.000  H
  N39      1.0000 0.27750  0.53640  0.04460  Biso   1.000  N
  H270     1.0000 0.30698  0.58958  0.00060  Biso   1.000  H
  N40      1.0000 0.45538  0.72250  0.03642  Biso   1.000  N
  H271     1.0000 0.49942  0.69302  0.08960  Biso   1.000  H
  N41      1.0000 0.54462  0.27750  0.03642  Biso   1.000  N
  H272     1.0000 0.50058  0.30698  0.08960  Biso   1.000  H
  H273     1.0000 0.61862  0.35118  0.02398  Biso   1.000  H
  N42      1.0000 0.72250  0.46360  0.04460  Biso   1.000  N
  H274     1.0000 0.69302  0.41042  0.00060  Biso   1.000  H
  C241     1.0000 0.23150  0.52870  0.00971  Biso   1.000  C
  C242     1.0000 0.49031  0.76850  0.02868  Biso   1.000  C
  C243     1.0000 0.50969  0.23150  0.02868  Biso   1.000  C
  C244     1.0000 0.76850  0.47130  0.00971  Biso   1.000  C
  C245     1.0000 0.23150  0.47130  0.99029  Biso   1.000  C
  C246     1.0000 0.18008  0.53929  0.04271  Biso   1.000  C
  H275     1.0000 0.23339  0.55340  0.97918  Biso   1.000  H
  C247     1.0000 0.50969  0.76850  0.97132  Biso   1.000  C
  H276     1.0000 0.52080  0.76661  0.05338  Biso   1.000  H
  C248     1.0000 0.45731  0.81992  0.03931  Biso   1.000  C
  H277     1.0000 0.47920  0.23339  0.05338  Biso   1.000  H
  C249     1.0000 0.54269  0.18008  0.03931  Biso   1.000  C
  C250     1.0000 0.49031  0.23150  0.97132  Biso   1.000  C
  C251     1.0000 0.81992  0.46071  0.04271  Biso   1.000  C
  C252     1.0000 0.76850  0.52870  0.99029  Biso   1.000  C
  H278     1.0000 0.76661  0.44660  0.97918  Biso   1.000  H
  N43      1.0000 0.27750  0.46360  0.95540  Biso   1.000  N
  H279     1.0000 0.23339  0.44660  0.02082  Biso   1.000  H
  C253     1.0000 0.18008  0.46071  0.95729  Biso   1.000  C
  H280     1.0000 0.17960  0.57630  0.05479  Biso   1.000  H
  H281     1.0000 0.17940  0.51610  0.07392  Biso   1.000  H
  C254     1.0000 0.13039  0.52802  0.00662  Biso   1.000  C
  N44      1.0000 0.54462  0.72250  0.96358  Biso   1.000  N
  H282     1.0000 0.47920  0.76661  0.94662  Biso   1.000  H
  C255     1.0000 0.54269  0.81992  0.96069  Biso   1.000  C
  H283     1.0000 0.44519  0.82040  0.07628  Biso   1.000  H
  H284     1.0000 0.42610  0.82060  0.01608  Biso   1.000  H
  C256     1.0000 0.49340  0.86961  0.02800  Biso   1.000  C
  H285     1.0000 0.55481  0.17960  0.07628  Biso   1.000  H
  H286     1.0000 0.57390  0.17940  0.01608  Biso   1.000  H
  C257     1.0000 0.50660  0.13039  0.02800  Biso   1.000  C
  N45      1.0000 0.45538  0.27750  0.96358  Biso   1.000  N
  H287     1.0000 0.52080  0.23339  0.94662  Biso   1.000  H
  C258     1.0000 0.45731  0.18008  0.96069  Biso   1.000  C
  H288     1.0000 0.82040  0.42370  0.05479  Biso   1.000  H
  H289     1.0000 0.82060  0.48390  0.07392  Biso   1.000  H
  C259     1.0000 0.86961  0.47198  0.00662  Biso   1.000  C
  H290     1.0000 0.76661  0.55340  0.02082  Biso   1.000  H
  N46      1.0000 0.72250  0.53640  0.95540  Biso   1.000  N
  C260     1.0000 0.81992  0.53929  0.95729  Biso   1.000  C
  C261     1.0000 0.31151  0.42891  0.96731  Biso   1.000  C
  H291     1.0000 0.17960  0.42370  0.94521  Biso   1.000  H
  H292     1.0000 0.17940  0.48390  0.92608  Biso   1.000  H
  C262     1.0000 0.13039  0.47198  0.99338  Biso   1.000  C
  H293     1.0000 0.09770  0.53732  0.02551  Biso   1.000  H
  H294     1.0000 0.13231  0.54931  0.97409  Biso   1.000  H
  C263     1.0000 0.53271  0.68849  0.92889  Biso   1.000  C
  H295     1.0000 0.55481  0.82040  0.92372  Biso   1.000  H
  H296     1.0000 0.57390  0.82060  0.98392  Biso   1.000  H
  C264     1.0000 0.50660  0.86961  0.97200  Biso   1.000  C
  H297     1.0000 0.47451  0.90230  0.03730  Biso   1.000  H
  H298     1.0000 0.52589  0.86769  0.04929  Biso   1.000  H
  H299     1.0000 0.52549  0.09770  0.03730  Biso   1.000  H
  H300     1.0000 0.47411  0.13231  0.04929  Biso   1.000  H
  C265     1.0000 0.49340  0.13039  0.97200  Biso   1.000  C
  C266     1.0000 0.46729  0.31151  0.92889  Biso   1.000  C
  H301     1.0000 0.44519  0.17960  0.92372  Biso   1.000  H
  H302     1.0000 0.42610  0.17940  0.98392  Biso   1.000  H
  H303     1.0000 0.90230  0.46268  0.02551  Biso   1.000  H
  C267     1.0000 0.86961  0.52802  0.99338  Biso   1.000  C
  H304     1.0000 0.86769  0.45069  0.97409  Biso   1.000  H
  C268     1.0000 0.68849  0.57109  0.96731  Biso   1.000  C
  H305     1.0000 0.82040  0.57630  0.94521  Biso   1.000  H
  H306     1.0000 0.82060  0.51610  0.92608  Biso   1.000  H
  C269     1.0000 0.35820  0.41551  0.93398  Biso   1.000  C
  H307     1.0000 0.30698  0.41042  0.99940  Biso   1.000  H
  H308     1.0000 0.13231  0.45069  0.02591  Biso   1.000  H
  H309     1.0000 0.09770  0.46268  0.97449  Biso   1.000  H
  C270     1.0000 0.56600  0.64180  0.91549  Biso   1.000  C
  H310     1.0000 0.50058  0.69302  0.91040  Biso   1.000  H
  H311     1.0000 0.52549  0.90230  0.96270  Biso   1.000  H
  H312     1.0000 0.47411  0.86769  0.95071  Biso   1.000  H
  H313     1.0000 0.47451  0.09770  0.96270  Biso   1.000  H
  H314     1.0000 0.52589  0.13231  0.95071  Biso   1.000  H
  C271     1.0000 0.43400  0.35820  0.91549  Biso   1.000  C
  H315     1.0000 0.49942  0.30698  0.91040  Biso   1.000  H
  H316     1.0000 0.86769  0.54931  0.02591  Biso   1.000  H
  H317     1.0000 0.90230  0.53732  0.97449  Biso   1.000  H
  C272     1.0000 0.64180  0.58449  0.93398  Biso   1.000  C
  H318     1.0000 0.69302  0.58958  0.99940  Biso   1.000  H
  C273     1.0000 0.38988  0.37200  0.94622  Biso   1.000  C
  C274     1.0000 0.37200  0.44620  0.88990  Biso   1.000  C
  C275     1.0000 0.61012  0.62800  0.94622  Biso   1.000  C
  C276     1.0000 0.55380  0.61012  0.87202  Biso   1.000  C
  C277     1.0000 0.44620  0.38988  0.87202  Biso   1.000  C
  C278     1.0000 0.62800  0.55380  0.88990  Biso   1.000  C
  H319     1.0000 0.38138  0.35118  0.97602  Biso   1.000  H
  C279     1.0000 0.41551  0.43400  0.85822  Biso   1.000  C
  H320     1.0000 0.35118  0.47600  0.88140  Biso   1.000  H
  H321     1.0000 0.61862  0.64882  0.97602  Biso   1.000  H
  C280     1.0000 0.58449  0.56600  0.85822  Biso   1.000  C
  H322     1.0000 0.52400  0.61862  0.85120  Biso   1.000  H
  H323     1.0000 0.47600  0.38138  0.85120  Biso   1.000  H
  H324     1.0000 0.64882  0.52400  0.88140  Biso   1.000  H
  C281     1.0000 0.42891  0.46729  0.81149  Biso   1.000  C
  C282     1.0000 0.57109  0.53271  0.81149  Biso   1.000  C
  N47      1.0000 0.46360  0.45538  0.77748  Biso   1.000  N
  H325     1.0000 0.41042  0.49942  0.80700  Biso   1.000  H
  N48      1.0000 0.53640  0.54462  0.77748  Biso   1.000  N
  H326     1.0000 0.58958  0.50058  0.80700  Biso   1.000  H
  C283     1.0000 0.47130  0.49031  0.73148  Biso   1.000  C
  C284     1.0000 0.52870  0.50969  0.73148  Biso   1.000  C
  H327     1.0000 0.44660  0.52080  0.73341  Biso   1.000  H
  C285     1.0000 0.46071  0.45731  0.68010  Biso   1.000  C
  H328     1.0000 0.55340  0.47920  0.73341  Biso   1.000  H
  C286     1.0000 0.53929  0.54269  0.68010  Biso   1.000  C
  H329     1.0000 0.42370  0.44519  0.67958  Biso   1.000  H
  H330     1.0000 0.48390  0.42610  0.67938  Biso   1.000  H
  C287     1.0000 0.47198  0.49340  0.63041  Biso   1.000  C
  H331     1.0000 0.57630  0.55481  0.67958  Biso   1.000  H
  H332     1.0000 0.51610  0.57390  0.67938  Biso   1.000  H
  C288     1.0000 0.52802  0.50660  0.63041  Biso   1.000  C
  H333     1.0000 0.46268  0.47451  0.59768  Biso   1.000  H
  H334     1.0000 0.45069  0.52589  0.63229  Biso   1.000  H
  H335     1.0000 0.53732  0.52549  0.59768  Biso   1.000  H
  H336     1.0000 0.54931  0.47411  0.63229  Biso   1.000  H
  C289     1.0000 0.36959  0.47198  0.50660  Biso   1.000  C
  C290     1.0000 0.31990  0.46071  0.54269  Biso   1.000  C
  C291     1.0000 0.36959  0.52802  0.49340  Biso   1.000  C
  H337     1.0000 0.40232  0.46268  0.52549  Biso   1.000  H
  H338     1.0000 0.36771  0.45069  0.47411  Biso   1.000  H
  C292     1.0000 0.26852  0.47130  0.50969  Biso   1.000  C
  H339     1.0000 0.32042  0.42370  0.55481  Biso   1.000  H
  H340     1.0000 0.32062  0.48390  0.57390  Biso   1.000  H
  C293     1.0000 0.31990  0.53929  0.45731  Biso   1.000  C
  H341     1.0000 0.40232  0.53732  0.47451  Biso   1.000  H
  H342     1.0000 0.36771  0.54931  0.52589  Biso   1.000  H
  N49      1.0000 0.22252  0.46360  0.54462  Biso   1.000  N
  C294     1.0000 0.26852  0.52870  0.49031  Biso   1.000  C
  H343     1.0000 0.26659  0.44660  0.47920  Biso   1.000  H
  H344     1.0000 0.32042  0.57630  0.44519  Biso   1.000  H
  H345     1.0000 0.32062  0.51610  0.42610  Biso   1.000  H
  C295     1.0000 0.18851  0.42891  0.53271  Biso   1.000  C
  N50      1.0000 0.22252  0.53640  0.45538  Biso   1.000  N
  H346     1.0000 0.26659  0.55340  0.52080  Biso   1.000  H
  C296     1.0000 0.14178  0.41551  0.56600  Biso   1.000  C
  H347     1.0000 0.19300  0.41042  0.50058  Biso   1.000  H
  C297     1.0000 0.18851  0.57109  0.46729  Biso   1.000  C
  C298     1.0000 0.12798  0.44620  0.61012  Biso   1.000  C
  C299     1.0000 0.11010  0.37200  0.55380  Biso   1.000  C
  C300     1.0000 0.14178  0.58449  0.43400  Biso   1.000  C
  H348     1.0000 0.19300  0.58958  0.49942  Biso   1.000  H
  H349     1.0000 0.14880  0.47600  0.61862  Biso   1.000  H
  C301     1.0000 0.08451  0.43400  0.64180  Biso   1.000  C
  H350     1.0000 0.11860  0.35118  0.52400  Biso   1.000  H
  C302     1.0000 0.06602  0.35820  0.58449  Biso   1.000  C
  C303     1.0000 0.11010  0.62800  0.44620  Biso   1.000  C
  C304     1.0000 0.12798  0.55380  0.38988  Biso   1.000  C
  C305     1.0000 0.05378  0.38988  0.62800  Biso   1.000  C
  C306     1.0000 0.07111  0.46729  0.68849  Biso   1.000  C
  C307     1.0000 0.03269  0.31151  0.57109  Biso   1.000  C
  H351     1.0000 0.11860  0.64882  0.47600  Biso   1.000  H
  C308     1.0000 0.06602  0.64180  0.41551  Biso   1.000  C
  H352     1.0000 0.14880  0.52400  0.38138  Biso   1.000  H
  C309     1.0000 0.08451  0.56600  0.35820  Biso   1.000  C
  H353     1.0000 0.02398  0.38138  0.64882  Biso   1.000  H
  N51      1.0000 0.03642  0.45538  0.72250  Biso   1.000  N
  H354     1.0000 0.08960  0.49942  0.69302  Biso   1.000  H
  N52      1.0000 0.04460  0.27750  0.53640  Biso   1.000  N
  H355     1.0000 0.00060  0.30698  0.58958  Biso   1.000  H
  C310     1.0000 0.05378  0.61012  0.37200  Biso   1.000  C
  C311     1.0000 0.03269  0.68849  0.42891  Biso   1.000  C
  C312     1.0000 0.07111  0.53271  0.31151  Biso   1.000  C
  C313     1.0000 0.02868  0.49031  0.76850  Biso   1.000  C
  C314     1.0000 0.00971  0.23150  0.52870  Biso   1.000  C
  H356     1.0000 0.02398  0.61862  0.35118  Biso   1.000  H
  N53      1.0000 0.04460  0.72250  0.46360  Biso   1.000  N
  H357     1.0000 0.00060  0.69302  0.41042  Biso   1.000  H
  N54      1.0000 0.03642  0.54462  0.27750  Biso   1.000  N
  H358     1.0000 0.08960  0.50058  0.30698  Biso   1.000  H
  H359     1.0000 0.05338  0.52080  0.76661  Biso   1.000  H
  C315     1.0000 0.03931  0.45731  0.81992  Biso   1.000  C
  C316     1.0000 0.97132  0.50969  0.76850  Biso   1.000  C
  C317     1.0000 0.04271  0.18008  0.53929  Biso   1.000  C
  C318     1.0000 0.99029  0.23150  0.47130  Biso   1.000  C
  H360     1.0000 0.97918  0.23339  0.55340  Biso   1.000  H
  C319     1.0000 0.00971  0.76850  0.47130  Biso   1.000  C
  C320     1.0000 0.02868  0.50969  0.23150  Biso   1.000  C
  H361     1.0000 0.07628  0.44519  0.82040  Biso   1.000  H
  H362     1.0000 0.01608  0.42610  0.82060  Biso   1.000  H
  C321     1.0000 0.02800  0.49340  0.86961  Biso   1.000  C
  N55      1.0000 0.96358  0.54462  0.72250  Biso   1.000  N
  H363     1.0000 0.94662  0.47920  0.76661  Biso   1.000  H
  C322     1.0000 0.96069  0.54269  0.81992  Biso   1.000  C
  H364     1.0000 0.05479  0.17960  0.57630  Biso   1.000  H
  H365     1.0000 0.07392  0.17940  0.51610  Biso   1.000  H
  C323     1.0000 0.00662  0.13039  0.52802  Biso   1.000  C
  H366     1.0000 0.02082  0.23339  0.44660  Biso   1.000  H
  N56      1.0000 0.95540  0.27750  0.46360  Biso   1.000  N
  C324     1.0000 0.95729  0.18008  0.46071  Biso   1.000  C
  C325     1.0000 0.04271  0.81992  0.46071  Biso   1.000  C
  C326     1.0000 0.99029  0.76850  0.52870  Biso   1.000  C
  H367     1.0000 0.97918  0.76661  0.44660  Biso   1.000  H
  H368     1.0000 0.05338  0.47920  0.23339  Biso   1.000  H
  C327     1.0000 0.03931  0.54269  0.18008  Biso   1.000  C
  C328     1.0000 0.97132  0.49031  0.23150  Biso   1.000  C
  H369     1.0000 0.03730  0.47451  0.90230  Biso   1.000  H
  H370     1.0000 0.04929  0.52589  0.86769  Biso   1.000  H
  C329     1.0000 0.97200  0.50660  0.86961  Biso   1.000  C
  C330     1.0000 0.92889  0.53271  0.68849  Biso   1.000  C
  H371     1.0000 0.92372  0.55481  0.82040  Biso   1.000  H
  H372     1.0000 0.98392  0.57390  0.82060  Biso   1.000  H
  H373     1.0000 0.02551  0.09770  0.53732  Biso   1.000  H
  C331     1.0000 0.99338  0.13039  0.47198  Biso   1.000  C
  H374     1.0000 0.97409  0.13231  0.54931  Biso   1.000  H
  C332     1.0000 0.96731  0.31151  0.42891  Biso   1.000  C
  H375     1.0000 0.94521  0.17960  0.42370  Biso   1.000  H
  H376     1.0000 0.92608  0.17940  0.48390  Biso   1.000  H
  H377     1.0000 0.05479  0.82040  0.42370  Biso   1.000  H
  H378     1.0000 0.07392  0.82060  0.48390  Biso   1.000  H
  C333     1.0000 0.00662  0.86961  0.47198  Biso   1.000  C
  H379     1.0000 0.02082  0.76661  0.55340  Biso   1.000  H
  N57      1.0000 0.95540  0.72250  0.53640  Biso   1.000  N
  C334     1.0000 0.95729  0.81992  0.53929  Biso   1.000  C
  H380     1.0000 0.07628  0.55481  0.17960  Biso   1.000  H
  H381     1.0000 0.01608  0.57390  0.17940  Biso   1.000  H
  C335     1.0000 0.02800  0.50660  0.13039  Biso   1.000  C
  N58      1.0000 0.96358  0.45538  0.27750  Biso   1.000  N
  H382     1.0000 0.94662  0.52080  0.23339  Biso   1.000  H
  C336     1.0000 0.96069  0.45731  0.18008  Biso   1.000  C
  H383     1.0000 0.96270  0.52549  0.90230  Biso   1.000  H
  H384     1.0000 0.95071  0.47411  0.86769  Biso   1.000  H
  C337     1.0000 0.91549  0.56600  0.64180  Biso   1.000  C
  H385     1.0000 0.91040  0.50058  0.69302  Biso   1.000  H
  H386     1.0000 0.02591  0.13231  0.45069  Biso   1.000  H
  H387     1.0000 0.97449  0.09770  0.46268  Biso   1.000  H
  C338     1.0000 0.93398  0.35820  0.41551  Biso   1.000  C
  H388     1.0000 0.99940  0.30698  0.41042  Biso   1.000  H
  H389     1.0000 0.02551  0.90230  0.46268  Biso   1.000  H
  C339     1.0000 0.99338  0.86961  0.52802  Biso   1.000  C
  H390     1.0000 0.97409  0.86769  0.45069  Biso   1.000  H
  C340     1.0000 0.96731  0.68849  0.57109  Biso   1.000  C
  H391     1.0000 0.94521  0.82040  0.57630  Biso   1.000  H
  H392     1.0000 0.92608  0.82060  0.51610  Biso   1.000  H
  H393     1.0000 0.03730  0.52549  0.09770  Biso   1.000  H
  H394     1.0000 0.04929  0.47411  0.13231  Biso   1.000  H
  C341     1.0000 0.97200  0.49340  0.13039  Biso   1.000  C
  C342     1.0000 0.92889  0.46729  0.31151  Biso   1.000  C
  H395     1.0000 0.92372  0.44519  0.17960  Biso   1.000  H
  H396     1.0000 0.98392  0.42610  0.17940  Biso   1.000  H
  C343     1.0000 0.94622  0.61012  0.62800  Biso   1.000  C
  C344     1.0000 0.87202  0.55380  0.61012  Biso   1.000  C
  C345     1.0000 0.88990  0.37200  0.44620  Biso   1.000  C
  C346     1.0000 0.94622  0.38988  0.37200  Biso   1.000  C
  H397     1.0000 0.02591  0.86769  0.54931  Biso   1.000  H
  H398     1.0000 0.97449  0.90230  0.53732  Biso   1.000  H
  C347     1.0000 0.93398  0.64180  0.58449  Biso   1.000  C
  H399     1.0000 0.99940  0.69302  0.58958  Biso   1.000  H
  H400     1.0000 0.96270  0.47451  0.09770  Biso   1.000  H
  H401     1.0000 0.95071  0.52589  0.13231  Biso   1.000  H
  C348     1.0000 0.91549  0.43400  0.35820  Biso   1.000  C
  H402     1.0000 0.91040  0.49942  0.30698  Biso   1.000  H
  H403     1.0000 0.97602  0.61862  0.64882  Biso   1.000  H
  H404     1.0000 0.85120  0.52400  0.61862  Biso   1.000  H
  C349     1.0000 0.85822  0.58449  0.56600  Biso   1.000  C
  H405     1.0000 0.88140  0.35118  0.47600  Biso   1.000  H
  C350     1.0000 0.85822  0.41551  0.43400  Biso   1.000  C
  H406     1.0000 0.97602  0.38138  0.35118  Biso   1.000  H
  C351     1.0000 0.88990  0.62800  0.55380  Biso   1.000  C
  C352     1.0000 0.87202  0.44620  0.38988  Biso   1.000  C
  C353     1.0000 0.81149  0.57109  0.53271  Biso   1.000  C
  C354     1.0000 0.81149  0.42891  0.46729  Biso   1.000  C
  H407     1.0000 0.88140  0.64882  0.52400  Biso   1.000  H
  H408     1.0000 0.85120  0.47600  0.38138  Biso   1.000  H
  N59      1.0000 0.77748  0.53640  0.54462  Biso   1.000  N
  H409     1.0000 0.80700  0.58958  0.50058  Biso   1.000  H
  N60      1.0000 0.77748  0.46360  0.45538  Biso   1.000  N
  H410     1.0000 0.80700  0.41042  0.49942  Biso   1.000  H
  C355     1.0000 0.73148  0.52870  0.50969  Biso   1.000  C
  C356     1.0000 0.73148  0.47130  0.49031  Biso   1.000  C
  H411     1.0000 0.73341  0.55340  0.47920  Biso   1.000  H
  C357     1.0000 0.68010  0.53929  0.54269  Biso   1.000  C
  H412     1.0000 0.73341  0.44660  0.52080  Biso   1.000  H
  C358     1.0000 0.68010  0.46071  0.45731  Biso   1.000  C
  H413     1.0000 0.67958  0.57630  0.55481  Biso   1.000  H
  H414     1.0000 0.67938  0.51610  0.57390  Biso   1.000  H
  C359     1.0000 0.63041  0.52802  0.50660  Biso   1.000  C
  H415     1.0000 0.67958  0.42370  0.44519  Biso   1.000  H
  H416     1.0000 0.67938  0.48390  0.42610  Biso   1.000  H
  C360     1.0000 0.63041  0.47198  0.49340  Biso   1.000  C
  H417     1.0000 0.59768  0.53732  0.52549  Biso   1.000  H
  H418     1.0000 0.63229  0.54931  0.47411  Biso   1.000  H
  H419     1.0000 0.59768  0.46268  0.47451  Biso   1.000  H
  H420     1.0000 0.63229  0.45069  0.52589  Biso   1.000  H
  C361     1.0000 0.36959  0.47198  0.50660  Biso   1.000  C
  C362     1.0000 0.31990  0.46071  0.54269  Biso   1.000  C
  C363     1.0000 0.36959  0.52802  0.49340  Biso   1.000  C
  H421     1.0000 0.40232  0.46268  0.52549  Biso   1.000  H
  H422     1.0000 0.36771  0.45069  0.47411  Biso   1.000  H
  C364     1.0000 0.26852  0.47130  0.50969  Biso   1.000  C
  H423     1.0000 0.32042  0.42370  0.55481  Biso   1.000  H
  H424     1.0000 0.32062  0.48390  0.57390  Biso   1.000  H
  C365     1.0000 0.31990  0.53929  0.45731  Biso   1.000  C
  H425     1.0000 0.40232  0.53732  0.47451  Biso   1.000  H
  H426     1.0000 0.36771  0.54931  0.52589  Biso   1.000  H
  N61      1.0000 0.22252  0.46360  0.54462  Biso   1.000  N
  C366     1.0000 0.26852  0.52870  0.49031  Biso   1.000  C
  H427     1.0000 0.26659  0.44660  0.47920  Biso   1.000  H
  H428     1.0000 0.32042  0.57630  0.44519  Biso   1.000  H
  H429     1.0000 0.32062  0.51610  0.42610  Biso   1.000  H
  C367     1.0000 0.18851  0.42891  0.53271  Biso   1.000  C
  N62      1.0000 0.22252  0.53640  0.45538  Biso   1.000  N
  H430     1.0000 0.26659  0.55340  0.52080  Biso   1.000  H
  C368     1.0000 0.14178  0.41551  0.56600  Biso   1.000  C
  H431     1.0000 0.19300  0.41042  0.50058  Biso   1.000  H
  C369     1.0000 0.18851  0.57109  0.46729  Biso   1.000  C
  C370     1.0000 0.12798  0.44620  0.61012  Biso   1.000  C
  C371     1.0000 0.11010  0.37200  0.55380  Biso   1.000  C
  C372     1.0000 0.14178  0.58449  0.43400  Biso   1.000  C
  H432     1.0000 0.19300  0.58958  0.49942  Biso   1.000  H
  H433     1.0000 0.14880  0.47600  0.61862  Biso   1.000  H
  C373     1.0000 0.08451  0.43400  0.64180  Biso   1.000  C
  H434     1.0000 0.11860  0.35118  0.52400  Biso   1.000  H
  C374     1.0000 0.06602  0.35820  0.58449  Biso   1.000  C
  C375     1.0000 0.11010  0.62800  0.44620  Biso   1.000  C
  C376     1.0000 0.12798  0.55380  0.38988  Biso   1.000  C
  C377     1.0000 0.05378  0.38988  0.62800  Biso   1.000  C
  C378     1.0000 0.07111  0.46729  0.68849  Biso   1.000  C
  C379     1.0000 0.03269  0.31151  0.57109  Biso   1.000  C
  H435     1.0000 0.11860  0.64882  0.47600  Biso   1.000  H
  C380     1.0000 0.06602  0.64180  0.41551  Biso   1.000  C
  H436     1.0000 0.14880  0.52400  0.38138  Biso   1.000  H
  C381     1.0000 0.08451  0.56600  0.35820  Biso   1.000  C
  H437     1.0000 0.02398  0.38138  0.64882  Biso   1.000  H
  N63      1.0000 0.03642  0.45538  0.72250  Biso   1.000  N
  H438     1.0000 0.08960  0.49942  0.69302  Biso   1.000  H
  N64      1.0000 0.04460  0.27750  0.53640  Biso   1.000  N
  H439     1.0000 0.00060  0.30698  0.58958  Biso   1.000  H
  C382     1.0000 0.05378  0.61012  0.37200  Biso   1.000  C
  C383     1.0000 0.03269  0.68849  0.42891  Biso   1.000  C
  C384     1.0000 0.07111  0.53271  0.31151  Biso   1.000  C
  C385     1.0000 0.02868  0.49031  0.76850  Biso   1.000  C
  C386     1.0000 0.00971  0.23150  0.52870  Biso   1.000  C
  H440     1.0000 0.02398  0.61862  0.35118  Biso   1.000  H
  N65      1.0000 0.04460  0.72250  0.46360  Biso   1.000  N
  H441     1.0000 0.00060  0.69302  0.41042  Biso   1.000  H
  N66      1.0000 0.03642  0.54462  0.27750  Biso   1.000  N
  H442     1.0000 0.08960  0.50058  0.30698  Biso   1.000  H
  H443     1.0000 0.05338  0.52080  0.76661  Biso   1.000  H
  C387     1.0000 0.03931  0.45731  0.81992  Biso   1.000  C
  C388     1.0000 0.97132  0.50969  0.76850  Biso   1.000  C
  C389     1.0000 0.04271  0.18008  0.53929  Biso   1.000  C
  C390     1.0000 0.99029  0.23150  0.47130  Biso   1.000  C
  H444     1.0000 0.97918  0.23339  0.55340  Biso   1.000  H
  C391     1.0000 0.00971  0.76850  0.47130  Biso   1.000  C
  C392     1.0000 0.02868  0.50969  0.23150  Biso   1.000  C
  H445     1.0000 0.07628  0.44519  0.82040  Biso   1.000  H
  H446     1.0000 0.01608  0.42610  0.82060  Biso   1.000  H
  C393     1.0000 0.02800  0.49340  0.86961  Biso   1.000  C
  N67      1.0000 0.96358  0.54462  0.72250  Biso   1.000  N
  H447     1.0000 0.94662  0.47920  0.76661  Biso   1.000  H
  C394     1.0000 0.96069  0.54269  0.81992  Biso   1.000  C
  H448     1.0000 0.05479  0.17960  0.57630  Biso   1.000  H
  H449     1.0000 0.07392  0.17940  0.51610  Biso   1.000  H
  C395     1.0000 0.00662  0.13039  0.52802  Biso   1.000  C
  H450     1.0000 0.02082  0.23339  0.44660  Biso   1.000  H
  N68      1.0000 0.95540  0.27750  0.46360  Biso   1.000  N
  C396     1.0000 0.95729  0.18008  0.46071  Biso   1.000  C
  C397     1.0000 0.04271  0.81992  0.46071  Biso   1.000  C
  C398     1.0000 0.99029  0.76850  0.52870  Biso   1.000  C
  H451     1.0000 0.97918  0.76661  0.44660  Biso   1.000  H
  H452     1.0000 0.05338  0.47920  0.23339  Biso   1.000  H
  C399     1.0000 0.03931  0.54269  0.18008  Biso   1.000  C
  C400     1.0000 0.97132  0.49031  0.23150  Biso   1.000  C
  H453     1.0000 0.03730  0.47451  0.90230  Biso   1.000  H
  H454     1.0000 0.04929  0.52589  0.86769  Biso   1.000  H
  C401     1.0000 0.97200  0.50660  0.86961  Biso   1.000  C
  C402     1.0000 0.92889  0.53271  0.68849  Biso   1.000  C
  H455     1.0000 0.92372  0.55481  0.82040  Biso   1.000  H
  H456     1.0000 0.98392  0.57390  0.82060  Biso   1.000  H
  H457     1.0000 0.02551  0.09770  0.53732  Biso   1.000  H
  C403     1.0000 0.99338  0.13039  0.47198  Biso   1.000  C
  H458     1.0000 0.97409  0.13231  0.54931  Biso   1.000  H
  C404     1.0000 0.96731  0.31151  0.42891  Biso   1.000  C
  H459     1.0000 0.94521  0.17960  0.42370  Biso   1.000  H
  H460     1.0000 0.92608  0.17940  0.48390  Biso   1.000  H
  H461     1.0000 0.05479  0.82040  0.42370  Biso   1.000  H
  H462     1.0000 0.07392  0.82060  0.48390  Biso   1.000  H
  C405     1.0000 0.00662  0.86961  0.47198  Biso   1.000  C
  H463     1.0000 0.02082  0.76661  0.55340  Biso   1.000  H
  N69      1.0000 0.95540  0.72250  0.53640  Biso   1.000  N
  C406     1.0000 0.95729  0.81992  0.53929  Biso   1.000  C
  H464     1.0000 0.07628  0.55481  0.17960  Biso   1.000  H
  H465     1.0000 0.01608  0.57390  0.17940  Biso   1.000  H
  C407     1.0000 0.02800  0.50660  0.13039  Biso   1.000  C
  N70      1.0000 0.96358  0.45538  0.27750  Biso   1.000  N
  H466     1.0000 0.94662  0.52080  0.23339  Biso   1.000  H
  C408     1.0000 0.96069  0.45731  0.18008  Biso   1.000  C
  H467     1.0000 0.96270  0.52549  0.90230  Biso   1.000  H
  H468     1.0000 0.95071  0.47411  0.86769  Biso   1.000  H
  C409     1.0000 0.91549  0.56600  0.64180  Biso   1.000  C
  H469     1.0000 0.91040  0.50058  0.69302  Biso   1.000  H
  H470     1.0000 0.02591  0.13231  0.45069  Biso   1.000  H
  H471     1.0000 0.97449  0.09770  0.46268  Biso   1.000  H
  C410     1.0000 0.93398  0.35820  0.41551  Biso   1.000  C
  H472     1.0000 0.99940  0.30698  0.41042  Biso   1.000  H
  H473     1.0000 0.02551  0.90230  0.46268  Biso   1.000  H
  C411     1.0000 0.99338  0.86961  0.52802  Biso   1.000  C
  H474     1.0000 0.97409  0.86769  0.45069  Biso   1.000  H
  C412     1.0000 0.96731  0.68849  0.57109  Biso   1.000  C
  H475     1.0000 0.94521  0.82040  0.57630  Biso   1.000  H
  H476     1.0000 0.92608  0.82060  0.51610  Biso   1.000  H
  H477     1.0000 0.03730  0.52549  0.09770  Biso   1.000  H
  H478     1.0000 0.04929  0.47411  0.13231  Biso   1.000  H
  C413     1.0000 0.97200  0.49340  0.13039  Biso   1.000  C
  C414     1.0000 0.92889  0.46729  0.31151  Biso   1.000  C
  H479     1.0000 0.92372  0.44519  0.17960  Biso   1.000  H
  H480     1.0000 0.98392  0.42610  0.17940  Biso   1.000  H
  C415     1.0000 0.94622  0.61012  0.62800  Biso   1.000  C
  C416     1.0000 0.87202  0.55380  0.61012  Biso   1.000  C
  C417     1.0000 0.88990  0.37200  0.44620  Biso   1.000  C
  C418     1.0000 0.94622  0.38988  0.37200  Biso   1.000  C
  H481     1.0000 0.02591  0.86769  0.54931  Biso   1.000  H
  H482     1.0000 0.97449  0.90230  0.53732  Biso   1.000  H
  C419     1.0000 0.93398  0.64180  0.58449  Biso   1.000  C
  H483     1.0000 0.99940  0.69302  0.58958  Biso   1.000  H
  H484     1.0000 0.96270  0.47451  0.09770  Biso   1.000  H
  H485     1.0000 0.95071  0.52589  0.13231  Biso   1.000  H
  C420     1.0000 0.91549  0.43400  0.35820  Biso   1.000  C
  H486     1.0000 0.91040  0.49942  0.30698  Biso   1.000  H
  H487     1.0000 0.97602  0.61862  0.64882  Biso   1.000  H
  H488     1.0000 0.85120  0.52400  0.61862  Biso   1.000  H
  C421     1.0000 0.85822  0.58449  0.56600  Biso   1.000  C
  H489     1.0000 0.88140  0.35118  0.47600  Biso   1.000  H
  C422     1.0000 0.85822  0.41551  0.43400  Biso   1.000  C
  H490     1.0000 0.97602  0.38138  0.35118  Biso   1.000  H
  C423     1.0000 0.88990  0.62800  0.55380  Biso   1.000  C
  C424     1.0000 0.87202  0.44620  0.38988  Biso   1.000  C
  C425     1.0000 0.81149  0.57109  0.53271  Biso   1.000  C
  C426     1.0000 0.81149  0.42891  0.46729  Biso   1.000  C
  H491     1.0000 0.88140  0.64882  0.52400  Biso   1.000  H
  H492     1.0000 0.85120  0.47600  0.38138  Biso   1.000  H
  N71      1.0000 0.77748  0.53640  0.54462  Biso   1.000  N
  H493     1.0000 0.80700  0.58958  0.50058  Biso   1.000  H
  N72      1.0000 0.77748  0.46360  0.45538  Biso   1.000  N
  H494     1.0000 0.80700  0.41042  0.49942  Biso   1.000  H
  C427     1.0000 0.73148  0.52870  0.50969  Biso   1.000  C
  C428     1.0000 0.73148  0.47130  0.49031  Biso   1.000  C
  H495     1.0000 0.73341  0.55340  0.47920  Biso   1.000  H
  C429     1.0000 0.68010  0.53929  0.54269  Biso   1.000  C
  H496     1.0000 0.73341  0.44660  0.52080  Biso   1.000  H
  C430     1.0000 0.68010  0.46071  0.45731  Biso   1.000  C
  H497     1.0000 0.67958  0.57630  0.55481  Biso   1.000  H
  H498     1.0000 0.67938  0.51610  0.57390  Biso   1.000  H
  C431     1.0000 0.63041  0.52802  0.50660  Biso   1.000  C
  H499     1.0000 0.67958  0.42370  0.44519  Biso   1.000  H
  H500     1.0000 0.67938  0.48390  0.42610  Biso   1.000  H
  C432     1.0000 0.63041  0.47198  0.49340  Biso   1.000  C
  H501     1.0000 0.59768  0.53732  0.52549  Biso   1.000  H
  H502     1.0000 0.63229  0.54931  0.47411  Biso   1.000  H
  H503     1.0000 0.59768  0.46268  0.47451  Biso   1.000  H
  H504     1.0000 0.63229  0.45069  0.52589  Biso   1.000  H
  C433     1.0000 0.39181  0.31601  0.33450  Biso   1.000  C
  C434     1.0000 0.36009  0.30381  0.37801  Biso   1.000  C
  C435     1.0000 0.37801  0.36009  0.30381  Biso   1.000  C
  C436     1.0000 0.43850  0.28272  0.32110  Biso   1.000  C
  H505     1.0000 0.36859  0.27401  0.39879  Biso   1.000  H
  C437     1.0000 0.31601  0.33450  0.39181  Biso   1.000  C
  H506     1.0000 0.39879  0.36859  0.27401  Biso   1.000  H
  C438     1.0000 0.33450  0.39181  0.31601  Biso   1.000  C
  N73      1.0000 0.47251  0.29459  0.28641  Biso   1.000  N
  H507     1.0000 0.44299  0.25059  0.33959  Biso   1.000  H
  C439     1.0000 0.30381  0.37801  0.36009  Biso   1.000  C
  C440     1.0000 0.28272  0.32110  0.43850  Biso   1.000  C
  C441     1.0000 0.32110  0.43850  0.28272  Biso   1.000  C
  C442     1.0000 0.51851  0.25970  0.27871  Biso   1.000  C
  H508     1.0000 0.27401  0.39879  0.36859  Biso   1.000  H
  N74      1.0000 0.29459  0.28641  0.47251  Biso   1.000  N
  H509     1.0000 0.25059  0.33959  0.44299  Biso   1.000  H
  N75      1.0000 0.28641  0.47251  0.29459  Biso   1.000  N
  H510     1.0000 0.33959  0.44299  0.25059  Biso   1.000  H
  C443     1.0000 0.51851  0.24028  0.22131  Biso   1.000  C
  H511     1.0000 0.51658  0.22921  0.30341  Biso   1.000  H
  C444     1.0000 0.56989  0.29270  0.28930  Biso   1.000  C
  C445     1.0000 0.25970  0.27871  0.51851  Biso   1.000  C
  C446     1.0000 0.27871  0.51851  0.25970  Biso   1.000  C
  N76      1.0000 0.47251  0.20539  0.21361  Biso   1.000  N
  H512     1.0000 0.51658  0.27081  0.19661  Biso   1.000  H
  C447     1.0000 0.56989  0.20732  0.21068  Biso   1.000  C
  H513     1.0000 0.57041  0.30482  0.32631  Biso   1.000  H
  H514     1.0000 0.57061  0.32391  0.26611  Biso   1.000  H
  C448     1.0000 0.61958  0.25661  0.27798  Biso   1.000  C
  C449     1.0000 0.24028  0.22131  0.51851  Biso   1.000  C
  H515     1.0000 0.22921  0.30341  0.51658  Biso   1.000  H
  C450     1.0000 0.29270  0.28930  0.56989  Biso   1.000  C
  C451     1.0000 0.22131  0.51851  0.24028  Biso   1.000  C
  H516     1.0000 0.30341  0.51658  0.22921  Biso   1.000  H
  C452     1.0000 0.28930  0.56989  0.29270  Biso   1.000  C
  C453     1.0000 0.43850  0.21730  0.17892  Biso   1.000  C
  H517     1.0000 0.57041  0.19520  0.17371  Biso   1.000  H
  H518     1.0000 0.57061  0.17611  0.23391  Biso   1.000  H
  C454     1.0000 0.61958  0.24341  0.22199  Biso   1.000  C
  H519     1.0000 0.65231  0.27550  0.28729  Biso   1.000  H
  H520     1.0000 0.61770  0.22408  0.29928  Biso   1.000  H
  N77      1.0000 0.20539  0.21361  0.47251  Biso   1.000  N
  H521     1.0000 0.27081  0.19661  0.51658  Biso   1.000  H
  C455     1.0000 0.20732  0.21068  0.56989  Biso   1.000  C
  H522     1.0000 0.30482  0.32631  0.57041  Biso   1.000  H
  H523     1.0000 0.32391  0.26611  0.57061  Biso   1.000  H
  C456     1.0000 0.25661  0.27798  0.61958  Biso   1.000  C
  N78      1.0000 0.21361  0.47251  0.20539  Biso   1.000  N
  H524     1.0000 0.19661  0.51658  0.27081  Biso   1.000  H
  C457     1.0000 0.21068  0.56989  0.20732  Biso   1.000  C
  H525     1.0000 0.32631  0.57041  0.30482  Biso   1.000  H
  H526     1.0000 0.26611  0.57061  0.32391  Biso   1.000  H
  C458     1.0000 0.27798  0.61958  0.25661  Biso   1.000  C
  C459     1.0000 0.39181  0.18401  0.16548  Biso   1.000  C
  H527     1.0000 0.44299  0.24939  0.16039  Biso   1.000  H
  H528     1.0000 0.65231  0.22448  0.21269  Biso   1.000  H
  H529     1.0000 0.61770  0.27590  0.20070  Biso   1.000  H
  C460     1.0000 0.21730  0.17892  0.43850  Biso   1.000  C
  H530     1.0000 0.19520  0.17371  0.57041  Biso   1.000  H
  H531     1.0000 0.17611  0.23391  0.57061  Biso   1.000  H
  C461     1.0000 0.24341  0.22199  0.61958  Biso   1.000  C
  H532     1.0000 0.27550  0.28729  0.65231  Biso   1.000  H
  H533     1.0000 0.22408  0.29928  0.61770  Biso   1.000  H
  C462     1.0000 0.17892  0.43850  0.21730  Biso   1.000  C
  H534     1.0000 0.17371  0.57041  0.19520  Biso   1.000  H
  H535     1.0000 0.23391  0.57061  0.17611  Biso   1.000  H
  C463     1.0000 0.22199  0.61958  0.24341  Biso   1.000  C
  H536     1.0000 0.28729  0.65231  0.27550  Biso   1.000  H
  H537     1.0000 0.29928  0.61770  0.22408  Biso   1.000  H
  C464     1.0000 0.36009  0.19621  0.12201  Biso   1.000  C
  C465     1.0000 0.37801  0.13989  0.19621  Biso   1.000  C
  C466     1.0000 0.18401  0.16548  0.39181  Biso   1.000  C
  H538     1.0000 0.24939  0.16039  0.44299  Biso   1.000  H
  H539     1.0000 0.22448  0.21269  0.65231  Biso   1.000  H
  H540     1.0000 0.27590  0.20070  0.61770  Biso   1.000  H
  C467     1.0000 0.16548  0.39181  0.18401  Biso   1.000  C
  H541     1.0000 0.16039  0.44299  0.24939  Biso   1.000  H
  H542     1.0000 0.21269  0.65231  0.22448  Biso   1.000  H
  H543     1.0000 0.20070  0.61770  0.27590  Biso   1.000  H
  H544     1.0000 0.36859  0.22601  0.10119  Biso   1.000  H
  C468     1.0000 0.31601  0.16548  0.10821  Biso   1.000  C
  H545     1.0000 0.39879  0.13139  0.22601  Biso   1.000  H
  C469     1.0000 0.33450  0.10821  0.18401  Biso   1.000  C
  C470     1.0000 0.19621  0.12201  0.36009  Biso   1.000  C
  C471     1.0000 0.13989  0.19621  0.37801  Biso   1.000  C
  C472     1.0000 0.19621  0.37801  0.13989  Biso   1.000  C
  C473     1.0000 0.12201  0.36009  0.19621  Biso   1.000  C
  C474     1.0000 0.30381  0.12201  0.13989  Biso   1.000  C
  C475     1.0000 0.28272  0.17892  0.06148  Biso   1.000  C
  C476     1.0000 0.32110  0.06148  0.21730  Biso   1.000  C
  H546     1.0000 0.22601  0.10119  0.36859  Biso   1.000  H
  C477     1.0000 0.16548  0.10821  0.31601  Biso   1.000  C
  C478     1.0000 0.10821  0.18401  0.33450  Biso   1.000  C
  H547     1.0000 0.13139  0.22601  0.39879  Biso   1.000  H
  H548     1.0000 0.22601  0.39879  0.13139  Biso   1.000  H
  C479     1.0000 0.18401  0.33450  0.10821  Biso   1.000  C
  H549     1.0000 0.10119  0.36859  0.22601  Biso   1.000  H
  C480     1.0000 0.10821  0.31601  0.16548  Biso   1.000  C
  H550     1.0000 0.27401  0.10119  0.13139  Biso   1.000  H
  N79      1.0000 0.29459  0.21361  0.02751  Biso   1.000  N
  H551     1.0000 0.25059  0.16039  0.05699  Biso   1.000  H
  N80      1.0000 0.28641  0.02751  0.20539  Biso   1.000  N
  H552     1.0000 0.33959  0.05699  0.24939  Biso   1.000  H
  C481     1.0000 0.12201  0.13989  0.30381  Biso   1.000  C
  C482     1.0000 0.17892  0.06148  0.28272  Biso   1.000  C
  C483     1.0000 0.06148  0.21730  0.32110  Biso   1.000  C
  C484     1.0000 0.13989  0.30381  0.12201  Biso   1.000  C
  C485     1.0000 0.21730  0.32110  0.06148  Biso   1.000  C
  C486     1.0000 0.06148  0.28272  0.17892  Biso   1.000  C
  C487     1.0000 0.25970  0.22131  0.98151  Biso   1.000  C
  C488     1.0000 0.27871  0.98151  0.24028  Biso   1.000  C
  H553     1.0000 0.10119  0.13139  0.27401  Biso   1.000  H
  N81      1.0000 0.21361  0.02751  0.29459  Biso   1.000  N
  H554     1.0000 0.16039  0.05699  0.25059  Biso   1.000  H
  N82      1.0000 0.02751  0.20539  0.28641  Biso   1.000  N
  H555     1.0000 0.05699  0.24939  0.33959  Biso   1.000  H
  H556     1.0000 0.13139  0.27401  0.10119  Biso   1.000  H
  N83      1.0000 0.20539  0.28641  0.02751  Biso   1.000  N
  H557     1.0000 0.24939  0.33959  0.05699  Biso   1.000  H
  N84      1.0000 0.02751  0.29459  0.21361  Biso   1.000  N
  H558     1.0000 0.05699  0.25059  0.16039  Biso   1.000  H
  C489     1.0000 0.24028  0.27871  0.98151  Biso   1.000  C
  H559     1.0000 0.22921  0.19661  0.98340  Biso   1.000  H
  C490     1.0000 0.29270  0.21068  0.93009  Biso   1.000  C
  C491     1.0000 0.22131  0.98151  0.25970  Biso   1.000  C
  H560     1.0000 0.30341  0.98340  0.27081  Biso   1.000  H
  C492     1.0000 0.28930  0.93009  0.20732  Biso   1.000  C
  C493     1.0000 0.98151  0.24028  0.27871  Biso   1.000  C
  C494     1.0000 0.98151  0.25970  0.22131  Biso   1.000  C
  H561     1.0000 0.27081  0.30341  0.98340  Biso   1.000  H
  C495     1.0000 0.20732  0.28930  0.93009  Biso   1.000  C
  H562     1.0000 0.30482  0.17371  0.92961  Biso   1.000  H
  H563     1.0000 0.32391  0.23391  0.92941  Biso   1.000  H
  C496     1.0000 0.25661  0.22199  0.88040  Biso   1.000  C
  H564     1.0000 0.19661  0.98340  0.22921  Biso   1.000  H
  C497     1.0000 0.21068  0.93009  0.29270  Biso   1.000  C
  H565     1.0000 0.32631  0.92961  0.19520  Biso   1.000  H
  H566     1.0000 0.26611  0.92941  0.17611  Biso   1.000  H
  C498     1.0000 0.27798  0.88040  0.24341  Biso   1.000  C
  H567     1.0000 0.98340  0.27081  0.30341  Biso   1.000  H
  C499     1.0000 0.93009  0.20732  0.28930  Biso   1.000  C
  H568     1.0000 0.98340  0.22921  0.19661  Biso   1.000  H
  C500     1.0000 0.93009  0.29270  0.21068  Biso   1.000  C
  H569     1.0000 0.19520  0.32631  0.92961  Biso   1.000  H
  H570     1.0000 0.17611  0.26611  0.92941  Biso   1.000  H
  C501     1.0000 0.24341  0.27798  0.88040  Biso   1.000  C
  H571     1.0000 0.27550  0.21269  0.84771  Biso   1.000  H
  H572     1.0000 0.22408  0.20070  0.88228  Biso   1.000  H
  H573     1.0000 0.17371  0.92961  0.30482  Biso   1.000  H
  H574     1.0000 0.23391  0.92941  0.32391  Biso   1.000  H
  C502     1.0000 0.22199  0.88040  0.25661  Biso   1.000  C
  H575     1.0000 0.28729  0.84771  0.22448  Biso   1.000  H
  H576     1.0000 0.29928  0.88228  0.27590  Biso   1.000  H
  H577     1.0000 0.92961  0.19520  0.32631  Biso   1.000  H
  H578     1.0000 0.92941  0.17611  0.26611  Biso   1.000  H
  C503     1.0000 0.88040  0.24341  0.27798  Biso   1.000  C
  H579     1.0000 0.92961  0.30482  0.17371  Biso   1.000  H
  H580     1.0000 0.92941  0.32391  0.23391  Biso   1.000  H
  C504     1.0000 0.88040  0.25661  0.22199  Biso   1.000  C
  H581     1.0000 0.22448  0.28729  0.84771  Biso   1.000  H
  H582     1.0000 0.27590  0.29928  0.88228  Biso   1.000  H
  H583     1.0000 0.21269  0.84771  0.27550  Biso   1.000  H
  H584     1.0000 0.20070  0.88228  0.22408  Biso   1.000  H
  H585     1.0000 0.84771  0.22448  0.28729  Biso   1.000  H
  H586     1.0000 0.88228  0.27590  0.29928  Biso   1.000  H
  H587     1.0000 0.84771  0.27550  0.21269  Biso   1.000  H
  H588     1.0000 0.88228  0.22408  0.20070  Biso   1.000  H
  C505     1.0000 0.63991  0.30381  0.62199  Biso   1.000  C
  C506     1.0000 0.68399  0.33450  0.60819  Biso   1.000  C
  H589     1.0000 0.63141  0.27401  0.60121  Biso   1.000  H
  C507     1.0000 0.60819  0.31601  0.66550  Biso   1.000  C
  C508     1.0000 0.71728  0.32110  0.56150  Biso   1.000  C
  C509     1.0000 0.69619  0.37801  0.63991  Biso   1.000  C
  C510     1.0000 0.62199  0.36009  0.69619  Biso   1.000  C
  C511     1.0000 0.56150  0.28272  0.67890  Biso   1.000  C
  N85      1.0000 0.70541  0.28641  0.52749  Biso   1.000  N
  H590     1.0000 0.74941  0.33959  0.55701  Biso   1.000  H
  H591     1.0000 0.72599  0.39879  0.63141  Biso   1.000  H
  C512     1.0000 0.66550  0.39181  0.68399  Biso   1.000  C
  H592     1.0000 0.60121  0.36859  0.72599  Biso   1.000  H
  N86      1.0000 0.52749  0.29459  0.71359  Biso   1.000  N
  H593     1.0000 0.55701  0.25059  0.66041  Biso   1.000  H
  C513     1.0000 0.74030  0.27871  0.48149  Biso   1.000  C
  C514     1.0000 0.67890  0.43850  0.71728  Biso   1.000  C
  C515     1.0000 0.48149  0.25970  0.72129  Biso   1.000  C
  C516     1.0000 0.70730  0.28930  0.43011  Biso   1.000  C
  C517     1.0000 0.75972  0.22131  0.48149  Biso   1.000  C
  H594     1.0000 0.77079  0.30341  0.48342  Biso   1.000  H
  N87      1.0000 0.71359  0.47251  0.70541  Biso   1.000  N
  H595     1.0000 0.66041  0.44299  0.74941  Biso   1.000  H
  C518     1.0000 0.48149  0.24028  0.77869  Biso   1.000  C
  H596     1.0000 0.48342  0.22921  0.69659  Biso   1.000  H
  C519     1.0000 0.43011  0.29270  0.71070  Biso   1.000  C
  H597     1.0000 0.69518  0.32631  0.42959  Biso   1.000  H
  H598     1.0000 0.67609  0.26611  0.42939  Biso   1.000  H
  C520     1.0000 0.74339  0.27798  0.38042  Biso   1.000  C
  N88      1.0000 0.79461  0.21361  0.52749  Biso   1.000  N
  H599     1.0000 0.72919  0.19661  0.48342  Biso   1.000  H
  C521     1.0000 0.79268  0.21068  0.43011  Biso   1.000  C
  C522     1.0000 0.72129  0.51851  0.74030  Biso   1.000  C
  N89      1.0000 0.52749  0.20539  0.78639  Biso   1.000  N
  H600     1.0000 0.48342  0.27081  0.80339  Biso   1.000  H
  C523     1.0000 0.43011  0.20732  0.78932  Biso   1.000  C
  H601     1.0000 0.42959  0.30482  0.67369  Biso   1.000  H
  H602     1.0000 0.42939  0.32391  0.73389  Biso   1.000  H
  C524     1.0000 0.38042  0.25661  0.72202  Biso   1.000  C
  C525     1.0000 0.75659  0.22199  0.38042  Biso   1.000  C
  H603     1.0000 0.72450  0.28729  0.34769  Biso   1.000  H
  H604     1.0000 0.77592  0.29928  0.38230  Biso   1.000  H
  C526     1.0000 0.78270  0.17892  0.56150  Biso   1.000  C
  H605     1.0000 0.80480  0.17371  0.42959  Biso   1.000  H
  H606     1.0000 0.82389  0.23391  0.42939  Biso   1.000  H
  C527     1.0000 0.77869  0.51851  0.75972  Biso   1.000  C
  H607     1.0000 0.69659  0.51658  0.77079  Biso   1.000  H
  C528     1.0000 0.71070  0.56989  0.70730  Biso   1.000  C
  C529     1.0000 0.56150  0.21730  0.82108  Biso   1.000  C
  H608     1.0000 0.42959  0.19520  0.82629  Biso   1.000  H
  H609     1.0000 0.42939  0.17611  0.76609  Biso   1.000  H
  C530     1.0000 0.38042  0.24341  0.77801  Biso   1.000  C
  H610     1.0000 0.34769  0.27550  0.71271  Biso   1.000  H
  H611     1.0000 0.38230  0.22408  0.70072  Biso   1.000  H
  H612     1.0000 0.77552  0.21269  0.34769  Biso   1.000  H
  H613     1.0000 0.72410  0.20070  0.38230  Biso   1.000  H
  C531     1.0000 0.81599  0.16548  0.60819  Biso   1.000  C
  H614     1.0000 0.75061  0.16039  0.55701  Biso   1.000  H
  N90      1.0000 0.78639  0.47251  0.79461  Biso   1.000  N
  H615     1.0000 0.80339  0.51658  0.72919  Biso   1.000  H
  C532     1.0000 0.78932  0.56989  0.79268  Biso   1.000  C
  H616     1.0000 0.67369  0.57041  0.69518  Biso   1.000  H
  H617     1.0000 0.73389  0.57061  0.67609  Biso   1.000  H
  C533     1.0000 0.72202  0.61958  0.74339  Biso   1.000  C
  C534     1.0000 0.60819  0.18401  0.83452  Biso   1.000  C
  H618     1.0000 0.55701  0.24939  0.83961  Biso   1.000  H
  H619     1.0000 0.34769  0.22448  0.78731  Biso   1.000  H
  H620     1.0000 0.38230  0.27590  0.79930  Biso   1.000  H
  C535     1.0000 0.80379  0.12201  0.63991  Biso   1.000  C
  C536     1.0000 0.86011  0.19621  0.62199  Biso   1.000  C
  C537     1.0000 0.82108  0.43850  0.78270  Biso   1.000  C
  H621     1.0000 0.82629  0.57041  0.80480  Biso   1.000  H
  H622     1.0000 0.76609  0.57061  0.82389  Biso   1.000  H
  C538     1.0000 0.77801  0.61958  0.75659  Biso   1.000  C
  H623     1.0000 0.71271  0.65231  0.72450  Biso   1.000  H
  H624     1.0000 0.70072  0.61770  0.77592  Biso   1.000  H
  C539     1.0000 0.63991  0.19621  0.87799  Biso   1.000  C
  C540     1.0000 0.62199  0.13989  0.80379  Biso   1.000  C
  H625     1.0000 0.77399  0.10119  0.63141  Biso   1.000  H
  C541     1.0000 0.83452  0.10821  0.68399  Biso   1.000  C
  H626     1.0000 0.86861  0.22601  0.60121  Biso   1.000  H
  C542     1.0000 0.89179  0.18401  0.66550  Biso   1.000  C
  C543     1.0000 0.83452  0.39181  0.81599  Biso   1.000  C
  H627     1.0000 0.83961  0.44299  0.75061  Biso   1.000  H
  H628     1.0000 0.78731  0.65231  0.77552  Biso   1.000  H
  H629     1.0000 0.79930  0.61770  0.72410  Biso   1.000  H
  H630     1.0000 0.63141  0.22601  0.89881  Biso   1.000  H
  C544     1.0000 0.68399  0.16548  0.89179  Biso   1.000  C
  C545     1.0000 0.66550  0.10821  0.81599  Biso   1.000  C
  H631     1.0000 0.60121  0.13139  0.77399  Biso   1.000  H
  C546     1.0000 0.87799  0.13989  0.69619  Biso   1.000  C
  C547     1.0000 0.82108  0.06148  0.71728  Biso   1.000  C
  C548     1.0000 0.93852  0.21730  0.67890  Biso   1.000  C
  C549     1.0000 0.87799  0.36009  0.80379  Biso   1.000  C
  C550     1.0000 0.80379  0.37801  0.86011  Biso   1.000  C
  C551     1.0000 0.69619  0.12201  0.86011  Biso   1.000  C
  C552     1.0000 0.71728  0.17892  0.93852  Biso   1.000  C
  C553     1.0000 0.67890  0.06148  0.78270  Biso   1.000  C
  H632     1.0000 0.89881  0.13139  0.72599  Biso   1.000  H
  N91      1.0000 0.78639  0.02751  0.70541  Biso   1.000  N
  H633     1.0000 0.83961  0.05699  0.74941  Biso   1.000  H
  N92      1.0000 0.97249  0.20539  0.71359  Biso   1.000  N
  H634     1.0000 0.94301  0.24939  0.66041  Biso   1.000  H
  C554     1.0000 0.89179  0.31601  0.83452  Biso   1.000  C
  H635     1.0000 0.89881  0.36859  0.77399  Biso   1.000  H
  H636     1.0000 0.77399  0.39879  0.86861  Biso   1.000  H
  C555     1.0000 0.81599  0.33450  0.89179  Biso   1.000  C
  H637     1.0000 0.72599  0.10119  0.86861  Biso   1.000  H
  N93      1.0000 0.70541  0.21361  0.97249  Biso   1.000  N
  H638     1.0000 0.74941  0.16039  0.94301  Biso   1.000  H
  N94      1.0000 0.71359  0.02751  0.79461  Biso   1.000  N
  H639     1.0000 0.66041  0.05699  0.75061  Biso   1.000  H
  C556     1.0000 0.77869  0.98151  0.74030  Biso   1.000  C
  C557     1.0000 0.01849  0.24028  0.72129  Biso   1.000  C
  C558     1.0000 0.93852  0.28272  0.82108  Biso   1.000  C
  C559     1.0000 0.86011  0.30381  0.87799  Biso   1.000  C
  C560     1.0000 0.78270  0.32110  0.93852  Biso   1.000  C
  C561     1.0000 0.74030  0.22131  0.01849  Biso   1.000  C
  C562     1.0000 0.72129  0.98151  0.75972  Biso   1.000  C
  H640     1.0000 0.80339  0.98340  0.77079  Biso   1.000  H
  C563     1.0000 0.78932  0.93009  0.70730  Biso   1.000  C
  C564     1.0000 0.01849  0.25970  0.77869  Biso   1.000  C
  H641     1.0000 0.01660  0.27081  0.69659  Biso   1.000  H
  C565     1.0000 0.06991  0.20732  0.71070  Biso   1.000  C
  N95      1.0000 0.97249  0.29459  0.78639  Biso   1.000  N
  H642     1.0000 0.94301  0.25059  0.83961  Biso   1.000  H
  H643     1.0000 0.86861  0.27401  0.89881  Biso   1.000  H
  N96      1.0000 0.79461  0.28641  0.97249  Biso   1.000  N
  H644     1.0000 0.75061  0.33959  0.94301  Biso   1.000  H
  C566     1.0000 0.75972  0.27871  0.01849  Biso   1.000  C
  H645     1.0000 0.77079  0.19661  0.01660  Biso   1.000  H
  C567     1.0000 0.70730  0.21068  0.06991  Biso   1.000  C
  H646     1.0000 0.69659  0.98340  0.72919  Biso   1.000  H
  C568     1.0000 0.71070  0.93009  0.79268  Biso   1.000  C
  H647     1.0000 0.82629  0.92961  0.69518  Biso   1.000  H
  H648     1.0000 0.76609  0.92941  0.67609  Biso   1.000  H
  C569     1.0000 0.77801  0.88040  0.74339  Biso   1.000  C
  H649     1.0000 0.01660  0.22921  0.80339  Biso   1.000  H
  C570     1.0000 0.06991  0.29270  0.78932  Biso   1.000  C
  H650     1.0000 0.07039  0.19520  0.67369  Biso   1.000  H
  H651     1.0000 0.07059  0.17611  0.73389  Biso   1.000  H
  C571     1.0000 0.11960  0.24341  0.72202  Biso   1.000  C
  H652     1.0000 0.72919  0.30341  0.01660  Biso   1.000  H
  C572     1.0000 0.79268  0.28930  0.06991  Biso   1.000  C
  H653     1.0000 0.69518  0.17371  0.07039  Biso   1.000  H
  H654     1.0000 0.67609  0.23391  0.07059  Biso   1.000  H
  C573     1.0000 0.74339  0.22199  0.11960  Biso   1.000  C
  H655     1.0000 0.67369  0.92961  0.80480  Biso   1.000  H
  H656     1.0000 0.73389  0.92941  0.82389  Biso   1.000  H
  C574     1.0000 0.72202  0.88040  0.75659  Biso   1.000  C
  H657     1.0000 0.78731  0.84771  0.72450  Biso   1.000  H
  H658     1.0000 0.79930  0.88228  0.77592  Biso   1.000  H
  H659     1.0000 0.07039  0.30482  0.82629  Biso   1.000  H
  H660     1.0000 0.07059  0.32391  0.76609  Biso   1.000  H
  C575     1.0000 0.11960  0.25661  0.77801  Biso   1.000  C
  H661     1.0000 0.15229  0.22448  0.71271  Biso   1.000  H
  H662     1.0000 0.11772  0.27590  0.70072  Biso   1.000  H
  H663     1.0000 0.80480  0.32631  0.07039  Biso   1.000  H
  H664     1.0000 0.82389  0.26611  0.07059  Biso   1.000  H
  C576     1.0000 0.75659  0.27798  0.11960  Biso   1.000  C
  H665     1.0000 0.72450  0.21269  0.15229  Biso   1.000  H
  H666     1.0000 0.77592  0.20070  0.11772  Biso   1.000  H
  H667     1.0000 0.71271  0.84771  0.77552  Biso   1.000  H
  H668     1.0000 0.70072  0.88228  0.72410  Biso   1.000  H
  H669     1.0000 0.15229  0.27550  0.78731  Biso   1.000  H
  H670     1.0000 0.11772  0.22408  0.79930  Biso   1.000  H
  H671     1.0000 0.77552  0.28729  0.15229  Biso   1.000  H
  H672     1.0000 0.72410  0.29928  0.11772  Biso   1.000  H
  C577     1.0000 0.62199  0.63991  0.30381  Biso   1.000  C
  C578     1.0000 0.66550  0.60819  0.31601  Biso   1.000  C
  H673     1.0000 0.60121  0.63141  0.27401  Biso   1.000  H
  C579     1.0000 0.60819  0.68399  0.33450  Biso   1.000  C
  C580     1.0000 0.67890  0.56150  0.28272  Biso   1.000  C
  C581     1.0000 0.69619  0.62199  0.36009  Biso   1.000  C
  C582     1.0000 0.63991  0.69619  0.37801  Biso   1.000  C
  C583     1.0000 0.56150  0.71728  0.32110  Biso   1.000  C
  N97      1.0000 0.71359  0.52749  0.29459  Biso   1.000  N
  H674     1.0000 0.66041  0.55701  0.25059  Biso   1.000  H
  H675     1.0000 0.72599  0.60121  0.36859  Biso   1.000  H
  C584     1.0000 0.68399  0.66550  0.39181  Biso   1.000  C
  H676     1.0000 0.63141  0.72599  0.39879  Biso   1.000  H
  N98      1.0000 0.52749  0.70541  0.28641  Biso   1.000  N
  H677     1.0000 0.55701  0.74941  0.33959  Biso   1.000  H
  C585     1.0000 0.72129  0.48149  0.25970  Biso   1.000  C
  C586     1.0000 0.71728  0.67890  0.43850  Biso   1.000  C
  C587     1.0000 0.48149  0.74030  0.27871  Biso   1.000  C
  C588     1.0000 0.71070  0.43011  0.29270  Biso   1.000  C
  C589     1.0000 0.77869  0.48149  0.24028  Biso   1.000  C
  H678     1.0000 0.69659  0.48342  0.22921  Biso   1.000  H
  N99      1.0000 0.70541  0.71359  0.47251  Biso   1.000  N
  H679     1.0000 0.74941  0.66041  0.44299  Biso   1.000  H
  C590     1.0000 0.48149  0.75972  0.22131  Biso   1.000  C
  H680     1.0000 0.48342  0.77079  0.30341  Biso   1.000  H
  C591     1.0000 0.43011  0.70730  0.28930  Biso   1.000  C
  C592     1.0000 0.72202  0.38042  0.25661  Biso   1.000  C
  H681     1.0000 0.67369  0.42959  0.30482  Biso   1.000  H
  H682     1.0000 0.73389  0.42939  0.32391  Biso   1.000  H
  C593     1.0000 0.78932  0.43011  0.20732  Biso   1.000  C
  N100     1.0000 0.78639  0.52749  0.20539  Biso   1.000  N
  H683     1.0000 0.80339  0.48342  0.27081  Biso   1.000  H
  C594     1.0000 0.74030  0.72129  0.51851  Biso   1.000  C
  N101     1.0000 0.52749  0.79461  0.21361  Biso   1.000  N
  H684     1.0000 0.48342  0.72919  0.19661  Biso   1.000  H
  C595     1.0000 0.43011  0.79268  0.21068  Biso   1.000  C
  H685     1.0000 0.42959  0.69518  0.32631  Biso   1.000  H
  H686     1.0000 0.42939  0.67609  0.26611  Biso   1.000  H
  C596     1.0000 0.38042  0.74339  0.27798  Biso   1.000  C
  C597     1.0000 0.77801  0.38042  0.24341  Biso   1.000  C
  H687     1.0000 0.71271  0.34769  0.27550  Biso   1.000  H
  H688     1.0000 0.70072  0.38230  0.22408  Biso   1.000  H
  H689     1.0000 0.82629  0.42959  0.19520  Biso   1.000  H
  H690     1.0000 0.76609  0.42939  0.17611  Biso   1.000  H
  C598     1.0000 0.82108  0.56150  0.21730  Biso   1.000  C
  C599     1.0000 0.75972  0.77869  0.51851  Biso   1.000  C
  H691     1.0000 0.77079  0.69659  0.51658  Biso   1.000  H
  C600     1.0000 0.70730  0.71070  0.56989  Biso   1.000  C
  C601     1.0000 0.56150  0.78270  0.17892  Biso   1.000  C
  H692     1.0000 0.42959  0.80480  0.17371  Biso   1.000  H
  H693     1.0000 0.42939  0.82389  0.23391  Biso   1.000  H
  C602     1.0000 0.38042  0.75659  0.22199  Biso   1.000  C
  H694     1.0000 0.34769  0.72450  0.28729  Biso   1.000  H
  H695     1.0000 0.38230  0.77592  0.29928  Biso   1.000  H
  H696     1.0000 0.78731  0.34769  0.22448  Biso   1.000  H
  H697     1.0000 0.79930  0.38230  0.27590  Biso   1.000  H
  C603     1.0000 0.83452  0.60819  0.18401  Biso   1.000  C
  H698     1.0000 0.83961  0.55701  0.24939  Biso   1.000  H
  N102     1.0000 0.79461  0.78639  0.47251  Biso   1.000  N
  H699     1.0000 0.72919  0.80339  0.51658  Biso   1.000  H
  C604     1.0000 0.79268  0.78932  0.56989  Biso   1.000  C
  H700     1.0000 0.69518  0.67369  0.57041  Biso   1.000  H
  H701     1.0000 0.67609  0.73389  0.57061  Biso   1.000  H
  C605     1.0000 0.74339  0.72202  0.61958  Biso   1.000  C
  C606     1.0000 0.60819  0.81599  0.16548  Biso   1.000  C
  H702     1.0000 0.55701  0.75061  0.16039  Biso   1.000  H
  H703     1.0000 0.34769  0.77552  0.21269  Biso   1.000  H
  H704     1.0000 0.38230  0.72410  0.20070  Biso   1.000  H
  C607     1.0000 0.87799  0.63991  0.19621  Biso   1.000  C
  C608     1.0000 0.80379  0.62199  0.13989  Biso   1.000  C
  C609     1.0000 0.78270  0.82108  0.43850  Biso   1.000  C
  H705     1.0000 0.80480  0.82629  0.57041  Biso   1.000  H
  H706     1.0000 0.82389  0.76609  0.57061  Biso   1.000  H
  C610     1.0000 0.75659  0.77801  0.61958  Biso   1.000  C
  H707     1.0000 0.72450  0.71271  0.65231  Biso   1.000  H
  H708     1.0000 0.77592  0.70072  0.61770  Biso   1.000  H
  C611     1.0000 0.62199  0.86011  0.19621  Biso   1.000  C
  C612     1.0000 0.63991  0.80379  0.12201  Biso   1.000  C
  H709     1.0000 0.89881  0.63141  0.22601  Biso   1.000  H
  C613     1.0000 0.89179  0.68399  0.16548  Biso   1.000  C
  H710     1.0000 0.77399  0.60121  0.13139  Biso   1.000  H
  C614     1.0000 0.81599  0.66550  0.10821  Biso   1.000  C
  C615     1.0000 0.81599  0.83452  0.39181  Biso   1.000  C
  H711     1.0000 0.75061  0.83961  0.44299  Biso   1.000  H
  H712     1.0000 0.77552  0.78731  0.65231  Biso   1.000  H
  H713     1.0000 0.72410  0.79930  0.61770  Biso   1.000  H
  H714     1.0000 0.60121  0.86861  0.22601  Biso   1.000  H
  C616     1.0000 0.66550  0.89179  0.18401  Biso   1.000  C
  C617     1.0000 0.68399  0.83452  0.10821  Biso   1.000  C
  H715     1.0000 0.63141  0.77399  0.10119  Biso   1.000  H
  C618     1.0000 0.86011  0.69619  0.12201  Biso   1.000  C
  C619     1.0000 0.93852  0.71728  0.17892  Biso   1.000  C
  C620     1.0000 0.78270  0.67890  0.06148  Biso   1.000  C
  C621     1.0000 0.86011  0.80379  0.37801  Biso   1.000  C
  C622     1.0000 0.80379  0.87799  0.36009  Biso   1.000  C
  C623     1.0000 0.69619  0.87799  0.13989  Biso   1.000  C
  C624     1.0000 0.67890  0.93852  0.21730  Biso   1.000  C
  C625     1.0000 0.71728  0.82108  0.06148  Biso   1.000  C
  H716     1.0000 0.86861  0.72599  0.10119  Biso   1.000  H
  N103     1.0000 0.97249  0.70541  0.21361  Biso   1.000  N
  H717     1.0000 0.94301  0.74941  0.16039  Biso   1.000  H
  N104     1.0000 0.79461  0.71359  0.02751  Biso   1.000  N
  H718     1.0000 0.75061  0.66041  0.05699  Biso   1.000  H
  C626     1.0000 0.89179  0.81599  0.33450  Biso   1.000  C
  H719     1.0000 0.86861  0.77399  0.39879  Biso   1.000  H
  H720     1.0000 0.77399  0.89881  0.36859  Biso   1.000  H
  C627     1.0000 0.83452  0.89179  0.31601  Biso   1.000  C
  H721     1.0000 0.72599  0.89881  0.13139  Biso   1.000  H
  N105     1.0000 0.71359  0.97249  0.20539  Biso   1.000  N
  H722     1.0000 0.66041  0.94301  0.24939  Biso   1.000  H
  N106     1.0000 0.70541  0.78639  0.02751  Biso   1.000  N
  H723     1.0000 0.74941  0.83961  0.05699  Biso   1.000  H
  C628     1.0000 0.01849  0.74030  0.22131  Biso   1.000  C
  C629     1.0000 0.75972  0.72129  0.98151  Biso   1.000  C
  C630     1.0000 0.93852  0.78270  0.32110  Biso   1.000  C
  C631     1.0000 0.87799  0.86011  0.30381  Biso   1.000  C
  C632     1.0000 0.82108  0.93852  0.28272  Biso   1.000  C
  C633     1.0000 0.72129  0.01849  0.24028  Biso   1.000  C
  C634     1.0000 0.74030  0.77869  0.98151  Biso   1.000  C
  C635     1.0000 0.01849  0.75972  0.27871  Biso   1.000  C
  H724     1.0000 0.01660  0.77079  0.19661  Biso   1.000  H
  C636     1.0000 0.06991  0.70730  0.21068  Biso   1.000  C
  H725     1.0000 0.72919  0.69659  0.98340  Biso   1.000  H
  C637     1.0000 0.79268  0.71070  0.93009  Biso   1.000  C
  N107     1.0000 0.97249  0.79461  0.28641  Biso   1.000  N
  H726     1.0000 0.94301  0.75061  0.33959  Biso   1.000  H
  H727     1.0000 0.89881  0.86861  0.27401  Biso   1.000  H
  N108     1.0000 0.78639  0.97249  0.29459  Biso   1.000  N
  H728     1.0000 0.83961  0.94301  0.25059  Biso   1.000  H
  C638     1.0000 0.77869  0.01849  0.25970  Biso   1.000  C
  H729     1.0000 0.69659  0.01660  0.27081  Biso   1.000  H
  C639     1.0000 0.71070  0.06991  0.20732  Biso   1.000  C
  H730     1.0000 0.77079  0.80339  0.98340  Biso   1.000  H
  C640     1.0000 0.70730  0.78932  0.93009  Biso   1.000  C
  H731     1.0000 0.01660  0.72919  0.30341  Biso   1.000  H
  C641     1.0000 0.06991  0.79268  0.28930  Biso   1.000  C
  H732     1.0000 0.07039  0.69518  0.17371  Biso   1.000  H
  H733     1.0000 0.07059  0.67609  0.23391  Biso   1.000  H
  C642     1.0000 0.11960  0.74339  0.22199  Biso   1.000  C
  H734     1.0000 0.80480  0.67369  0.92961  Biso   1.000  H
  H735     1.0000 0.82389  0.73389  0.92941  Biso   1.000  H
  C643     1.0000 0.75659  0.72202  0.88040  Biso   1.000  C
  H736     1.0000 0.80339  0.01660  0.22921  Biso   1.000  H
  C644     1.0000 0.78932  0.06991  0.29270  Biso   1.000  C
  H737     1.0000 0.67369  0.07039  0.19520  Biso   1.000  H
  H738     1.0000 0.73389  0.07059  0.17611  Biso   1.000  H
  C645     1.0000 0.72202  0.11960  0.24341  Biso   1.000  C
  H739     1.0000 0.69518  0.82629  0.92961  Biso   1.000  H
  H740     1.0000 0.67609  0.76609  0.92941  Biso   1.000  H
  C646     1.0000 0.74339  0.77801  0.88040  Biso   1.000  C
  H741     1.0000 0.07039  0.80480  0.32631  Biso   1.000  H
  H742     1.0000 0.07059  0.82389  0.26611  Biso   1.000  H
  C647     1.0000 0.11960  0.75659  0.27798  Biso   1.000  C
  H743     1.0000 0.15229  0.72450  0.21269  Biso   1.000  H
  H744     1.0000 0.11772  0.77592  0.20070  Biso   1.000  H
  H745     1.0000 0.77552  0.71271  0.84771  Biso   1.000  H
  H746     1.0000 0.72410  0.70072  0.88228  Biso   1.000  H
  H747     1.0000 0.82629  0.07039  0.30482  Biso   1.000  H
  H748     1.0000 0.76609  0.07059  0.32391  Biso   1.000  H
  C648     1.0000 0.77801  0.11960  0.25661  Biso   1.000  C
  H749     1.0000 0.71271  0.15229  0.22448  Biso   1.000  H
  H750     1.0000 0.70072  0.11772  0.27590  Biso   1.000  H
  H751     1.0000 0.72450  0.78731  0.84771  Biso   1.000  H
  H752     1.0000 0.77592  0.79930  0.88228  Biso   1.000  H
  H753     1.0000 0.15229  0.77552  0.28729  Biso   1.000  H
  H754     1.0000 0.11772  0.72410  0.29928  Biso   1.000  H
  H755     1.0000 0.78731  0.15229  0.27550  Biso   1.000  H
  H756     1.0000 0.79930  0.11772  0.22408  Biso   1.000  H
  C649     1.0000 0.30381  0.62199  0.63991  Biso   1.000  C
  C650     1.0000 0.31601  0.66550  0.60819  Biso   1.000  C
  H757     1.0000 0.27401  0.60121  0.63141  Biso   1.000  H
  C651     1.0000 0.33450  0.60819  0.68399  Biso   1.000  C
  C652     1.0000 0.28272  0.67890  0.56150  Biso   1.000  C
  C653     1.0000 0.36009  0.69619  0.62199  Biso   1.000  C
  C654     1.0000 0.37801  0.63991  0.69619  Biso   1.000  C
  C655     1.0000 0.32110  0.56150  0.71728  Biso   1.000  C
  N109     1.0000 0.29459  0.71359  0.52749  Biso   1.000  N
  H758     1.0000 0.25059  0.66041  0.55701  Biso   1.000  H
  C656     1.0000 0.39181  0.68399  0.66550  Biso   1.000  C
  H759     1.0000 0.36859  0.72599  0.60121  Biso   1.000  H
  H760     1.0000 0.39879  0.63141  0.72599  Biso   1.000  H
  N110     1.0000 0.28641  0.52749  0.70541  Biso   1.000  N
  H761     1.0000 0.33959  0.55701  0.74941  Biso   1.000  H
  C657     1.0000 0.25970  0.72129  0.48149  Biso   1.000  C
  C658     1.0000 0.43850  0.71728  0.67890  Biso   1.000  C
  C659     1.0000 0.27871  0.48149  0.74030  Biso   1.000  C
  C660     1.0000 0.29270  0.71070  0.43011  Biso   1.000  C
  C661     1.0000 0.24028  0.77869  0.48149  Biso   1.000  C
  H762     1.0000 0.22921  0.69659  0.48342  Biso   1.000  H
  N111     1.0000 0.47251  0.70541  0.71359  Biso   1.000  N
  H763     1.0000 0.44299  0.74941  0.66041  Biso   1.000  H
  C662     1.0000 0.22131  0.48149  0.75972  Biso   1.000  C
  H764     1.0000 0.30341  0.48342  0.77079  Biso   1.000  H
  C663     1.0000 0.28930  0.43011  0.70730  Biso   1.000  C
  C664     1.0000 0.25661  0.72202  0.38042  Biso   1.000  C
  H765     1.0000 0.30482  0.67369  0.42959  Biso   1.000  H
  H766     1.0000 0.32391  0.73389  0.42939  Biso   1.000  H
  C665     1.0000 0.20732  0.78932  0.43011  Biso   1.000  C
  N112     1.0000 0.20539  0.78639  0.52749  Biso   1.000  N
  H767     1.0000 0.27081  0.80339  0.48342  Biso   1.000  H
  C666     1.0000 0.51851  0.74030  0.72129  Biso   1.000  C
  N113     1.0000 0.21361  0.52749  0.79461  Biso   1.000  N
  H768     1.0000 0.19661  0.48342  0.72919  Biso   1.000  H
  C667     1.0000 0.21068  0.43011  0.79268  Biso   1.000  C
  H769     1.0000 0.32631  0.42959  0.69518  Biso   1.000  H
  H770     1.0000 0.26611  0.42939  0.67609  Biso   1.000  H
  C668     1.0000 0.27798  0.38042  0.74339  Biso   1.000  C
  C669     1.0000 0.24341  0.77801  0.38042  Biso   1.000  C
  H771     1.0000 0.27550  0.71271  0.34769  Biso   1.000  H
  H772     1.0000 0.22408  0.70072  0.38230  Biso   1.000  H
  H773     1.0000 0.19520  0.82629  0.42959  Biso   1.000  H
  H774     1.0000 0.17611  0.76609  0.42939  Biso   1.000  H
  C670     1.0000 0.21730  0.82108  0.56150  Biso   1.000  C
  H775     1.0000 0.51658  0.77079  0.69659  Biso   1.000  H
  C671     1.0000 0.56989  0.70730  0.71070  Biso   1.000  C
  C672     1.0000 0.51851  0.75972  0.77869  Biso   1.000  C
  C673     1.0000 0.17892  0.56150  0.78270  Biso   1.000  C
  H776     1.0000 0.17371  0.42959  0.80480  Biso   1.000  H
  H777     1.0000 0.23391  0.42939  0.82389  Biso   1.000  H
  C674     1.0000 0.22199  0.38042  0.75659  Biso   1.000  C
  H778     1.0000 0.28729  0.34769  0.72450  Biso   1.000  H
  H779     1.0000 0.29928  0.38230  0.77592  Biso   1.000  H
  H780     1.0000 0.22448  0.78731  0.34769  Biso   1.000  H
  H781     1.0000 0.27590  0.79930  0.38230  Biso   1.000  H
  C675     1.0000 0.18401  0.83452  0.60819  Biso   1.000  C
  H782     1.0000 0.24939  0.83961  0.55701  Biso   1.000  H
  H783     1.0000 0.57041  0.69518  0.67369  Biso   1.000  H
  H784     1.0000 0.57061  0.67609  0.73389  Biso   1.000  H
  C676     1.0000 0.61958  0.74339  0.72202  Biso   1.000  C
  N114     1.0000 0.47251  0.79461  0.78639  Biso   1.000  N
  H785     1.0000 0.51658  0.72919  0.80339  Biso   1.000  H
  C677     1.0000 0.56989  0.79268  0.78932  Biso   1.000  C
  C678     1.0000 0.16548  0.60819  0.81599  Biso   1.000  C
  H786     1.0000 0.16039  0.55701  0.75061  Biso   1.000  H
  H787     1.0000 0.21269  0.34769  0.77552  Biso   1.000  H
  H788     1.0000 0.20070  0.38230  0.72410  Biso   1.000  H
  C679     1.0000 0.13989  0.80379  0.62199  Biso   1.000  C
  C680     1.0000 0.19621  0.87799  0.63991  Biso   1.000  C
  H789     1.0000 0.65231  0.72450  0.71271  Biso   1.000  H
  H790     1.0000 0.61770  0.77592  0.70072  Biso   1.000  H
  C681     1.0000 0.61958  0.75659  0.77801  Biso   1.000  C
  C682     1.0000 0.43850  0.78270  0.82108  Biso   1.000  C
  H791     1.0000 0.57041  0.80480  0.82629  Biso   1.000  H
  H792     1.0000 0.57061  0.82389  0.76609  Biso   1.000  H
  C683     1.0000 0.12201  0.63991  0.80379  Biso   1.000  C
  C684     1.0000 0.19621  0.62199  0.86011  Biso   1.000  C
  H793     1.0000 0.13139  0.77399  0.60121  Biso   1.000  H
  C685     1.0000 0.10821  0.81599  0.66550  Biso   1.000  C
  H794     1.0000 0.22601  0.89881  0.63141  Biso   1.000  H
  C686     1.0000 0.16548  0.89179  0.68399  Biso   1.000  C
  H795     1.0000 0.65231  0.77552  0.78731  Biso   1.000  H
  H796     1.0000 0.61770  0.72410  0.79930  Biso   1.000  H
  C687     1.0000 0.39181  0.81599  0.83452  Biso   1.000  C
  H797     1.0000 0.44299  0.75061  0.83961  Biso   1.000  H
  C688     1.0000 0.10821  0.68399  0.83452  Biso   1.000  C
  H798     1.0000 0.10119  0.63141  0.77399  Biso   1.000  H
  H799     1.0000 0.22601  0.60121  0.86861  Biso   1.000  H
  C689     1.0000 0.18401  0.66550  0.89179  Biso   1.000  C
  C690     1.0000 0.12201  0.86011  0.69619  Biso   1.000  C
  C691     1.0000 0.06148  0.78270  0.67890  Biso   1.000  C
  C692     1.0000 0.17892  0.93852  0.71728  Biso   1.000  C
  C693     1.0000 0.36009  0.80379  0.87799  Biso   1.000  C
  C694     1.0000 0.37801  0.86011  0.80379  Biso   1.000  C
  C695     1.0000 0.06148  0.71728  0.82108  Biso   1.000  C
  C696     1.0000 0.13989  0.69619  0.87799  Biso   1.000  C
  C697     1.0000 0.21730  0.67890  0.93852  Biso   1.000  C
  H800     1.0000 0.10119  0.86861  0.72599  Biso   1.000  H
  N115     1.0000 0.02751  0.79461  0.71359  Biso   1.000  N
  H801     1.0000 0.05699  0.75061  0.66041  Biso   1.000  H
  N116     1.0000 0.21361  0.97249  0.70541  Biso   1.000  N
  H802     1.0000 0.16039  0.94301  0.74941  Biso   1.000  H
  H803     1.0000 0.36859  0.77399  0.89881  Biso   1.000  H
  C698     1.0000 0.31601  0.83452  0.89179  Biso   1.000  C
  C699     1.0000 0.33450  0.89179  0.81599  Biso   1.000  C
  H804     1.0000 0.39879  0.86861  0.77399  Biso   1.000  H
  N117     1.0000 0.02751  0.70541  0.78639  Biso   1.000  N
  H805     1.0000 0.05699  0.74941  0.83961  Biso   1.000  H
  H806     1.0000 0.13139  0.72599  0.89881  Biso   1.000  H
  N118     1.0000 0.20539  0.71359  0.97249  Biso   1.000  N
  H807     1.0000 0.24939  0.66041  0.94301  Biso   1.000  H
  C700     1.0000 0.98151  0.75972  0.72129  Biso   1.000  C
  C701     1.0000 0.22131  0.01849  0.74030  Biso   1.000  C
  C702     1.0000 0.30381  0.87799  0.86011  Biso   1.000  C
  C703     1.0000 0.28272  0.82108  0.93852  Biso   1.000  C
  C704     1.0000 0.32110  0.93852  0.78270  Biso   1.000  C
  C705     1.0000 0.98151  0.74030  0.77869  Biso   1.000  C
  C706     1.0000 0.24028  0.72129  0.01849  Biso   1.000  C
  H808     1.0000 0.98340  0.72919  0.69659  Biso   1.000  H
  C707     1.0000 0.93009  0.79268  0.71070  Biso   1.000  C
  C708     1.0000 0.27871  0.01849  0.75972  Biso   1.000  C
  H809     1.0000 0.19661  0.01660  0.77079  Biso   1.000  H
  C709     1.0000 0.21068  0.06991  0.70730  Biso   1.000  C
  H810     1.0000 0.27401  0.89881  0.86861  Biso   1.000  H
  N119     1.0000 0.29459  0.78639  0.97249  Biso   1.000  N
  H811     1.0000 0.25059  0.83961  0.94301  Biso   1.000  H
  N120     1.0000 0.28641  0.97249  0.79461  Biso   1.000  N
  H812     1.0000 0.33959  0.94301  0.75061  Biso   1.000  H
  H813     1.0000 0.98340  0.77079  0.80339  Biso   1.000  H
  C710     1.0000 0.93009  0.70730  0.78932  Biso   1.000  C
  C711     1.0000 0.25970  0.77869  0.01849  Biso   1.000  C
  H814     1.0000 0.27081  0.69659  0.01660  Biso   1.000  H
  C712     1.0000 0.20732  0.71070  0.06991  Biso   1.000  C
  H815     1.0000 0.92961  0.80480  0.67369  Biso   1.000  H
  H816     1.0000 0.92941  0.82389  0.73389  Biso   1.000  H
  C713     1.0000 0.88040  0.75659  0.72202  Biso   1.000  C
  H817     1.0000 0.30341  0.01660  0.72919  Biso   1.000  H
  C714     1.0000 0.28930  0.06991  0.79268  Biso   1.000  C
  H818     1.0000 0.17371  0.07039  0.69518  Biso   1.000  H
  H819     1.0000 0.23391  0.07059  0.67609  Biso   1.000  H
  C715     1.0000 0.22199  0.11960  0.74339  Biso   1.000  C
  H820     1.0000 0.92961  0.69518  0.82629  Biso   1.000  H
  H821     1.0000 0.92941  0.67609  0.76609  Biso   1.000  H
  C716     1.0000 0.88040  0.74339  0.77801  Biso   1.000  C
  H822     1.0000 0.22921  0.80339  0.01660  Biso   1.000  H
  C717     1.0000 0.29270  0.78932  0.06991  Biso   1.000  C
  H823     1.0000 0.19520  0.67369  0.07039  Biso   1.000  H
  H824     1.0000 0.17611  0.73389  0.07059  Biso   1.000  H
  C718     1.0000 0.24341  0.72202  0.11960  Biso   1.000  C
  H825     1.0000 0.84771  0.77552  0.71271  Biso   1.000  H
  H826     1.0000 0.88228  0.72410  0.70072  Biso   1.000  H
  H827     1.0000 0.32631  0.07039  0.80480  Biso   1.000  H
  H828     1.0000 0.26611  0.07059  0.82389  Biso   1.000  H
  C719     1.0000 0.27798  0.11960  0.75659  Biso   1.000  C
  H829     1.0000 0.21269  0.15229  0.72450  Biso   1.000  H
  H830     1.0000 0.20070  0.11772  0.77592  Biso   1.000  H
  H831     1.0000 0.84771  0.72450  0.78731  Biso   1.000  H
  H832     1.0000 0.88228  0.77592  0.79930  Biso   1.000  H
  H833     1.0000 0.30482  0.82629  0.07039  Biso   1.000  H
  H834     1.0000 0.32391  0.76609  0.07059  Biso   1.000  H
  C720     1.0000 0.25661  0.77801  0.11960  Biso   1.000  C
  H835     1.0000 0.22448  0.71271  0.15229  Biso   1.000  H
  H836     1.0000 0.27590  0.70072  0.11772  Biso   1.000  H
  H837     1.0000 0.28729  0.15229  0.77552  Biso   1.000  H
  H838     1.0000 0.29928  0.11772  0.72410  Biso   1.000  H
  H839     1.0000 0.27550  0.78731  0.15229  Biso   1.000  H
  H840     1.0000 0.22408  0.79930  0.11772  Biso   1.000  H
  I1       1.0000 0.30778  0.30778  0.19220  Biso   1.000  I
  I2       1.0000 0.23651  0.26351  0.26351  Biso   1.000  I
  I3       1.0000 0.26351  0.23651  0.26351  Biso   1.000  I
  I4       1.0000 0.23651  0.23651  0.23651  Biso   1.000  I
  I5       1.0000 0.37501  0.37501  0.12502  Biso   1.000  I
  I6       1.0000 0.19220  0.19220  0.19220  Biso   1.000  I
  I7       1.0000 0.30778  0.19220  0.30778  Biso   1.000  I
  I8       1.0000 0.19220  0.30778  0.30778  Biso   1.000  I
  I9       1.0000 0.44219  0.44219  0.05779  Biso   1.000  I
  I10      1.0000 0.26351  0.26351  0.23651  Biso   1.000  I
  I11      1.0000 0.12502  0.12502  0.12502  Biso   1.000  I
  I12      1.0000 0.37501  0.12502  0.37501  Biso   1.000  I
  I13      1.0000 0.12502  0.37501  0.37501  Biso   1.000  I
  I14      1.0000 0.51350  0.51350  0.01352  Biso   1.000  I
  I15      1.0000 0.51350  0.48650  0.98648  Biso   1.000  I
  I16      1.0000 0.48650  0.51350  0.98648  Biso   1.000  I
  I17      1.0000 0.05779  0.05779  0.05779  Biso   1.000  I
  I18      1.0000 0.44219  0.05779  0.44219  Biso   1.000  I
  I19      1.0000 0.05779  0.44219  0.44219  Biso   1.000  I
  I20      1.0000 0.44219  0.55781  0.94221  Biso   1.000  I
  I21      1.0000 0.55781  0.44219  0.94221  Biso   1.000  I
  I22      1.0000 0.55781  0.55781  0.05779  Biso   1.000  I
  I23      1.0000 0.98648  0.98648  0.01352  Biso   1.000  I
  I24      1.0000 0.98648  0.01352  0.98648  Biso   1.000  I
  I25      1.0000 0.01352  0.98648  0.98648  Biso   1.000  I
  I26      1.0000 0.51350  0.01352  0.51350  Biso   1.000  I
  I27      1.0000 0.48650  0.98648  0.51350  Biso   1.000  I
  I28      1.0000 0.51350  0.98648  0.48650  Biso   1.000  I
  I29      1.0000 0.01352  0.51350  0.51350  Biso   1.000  I
  I30      1.0000 0.98648  0.51350  0.48650  Biso   1.000  I
  I31      1.0000 0.98648  0.48650  0.51350  Biso   1.000  I
  I32      1.0000 0.48650  0.48650  0.01352  Biso   1.000  I
  I33      1.0000 0.37501  0.62499  0.87498  Biso   1.000  I
  I34      1.0000 0.62499  0.37501  0.87498  Biso   1.000  I
  I35      1.0000 0.62499  0.62499  0.12502  Biso   1.000  I
  I36      1.0000 0.94221  0.05779  0.94221  Biso   1.000  I
  I37      1.0000 0.05779  0.94221  0.94221  Biso   1.000  I
  I38      1.0000 0.94221  0.94221  0.05779  Biso   1.000  I
  I39      1.0000 0.55781  0.94221  0.44219  Biso   1.000  I
  I40      1.0000 0.44219  0.94221  0.55781  Biso   1.000  I
  I41      1.0000 0.55781  0.05779  0.55781  Biso   1.000  I
  I42      1.0000 0.94221  0.44219  0.55781  Biso   1.000  I
  I43      1.0000 0.94221  0.55781  0.44219  Biso   1.000  I
  I44      1.0000 0.05779  0.55781  0.55781  Biso   1.000  I
  I45      1.0000 0.30778  0.69222  0.80780  Biso   1.000  I
  I46      1.0000 0.69222  0.30778  0.80780  Biso   1.000  I
  I47      1.0000 0.69222  0.69222  0.19220  Biso   1.000  I
  I48      1.0000 0.01352  0.01352  0.01352  Biso   1.000  I
  I49      1.0000 0.87498  0.12502  0.87498  Biso   1.000  I
  I50      1.0000 0.12502  0.87498  0.87498  Biso   1.000  I
  I51      1.0000 0.87498  0.87498  0.12502  Biso   1.000  I
  I52      1.0000 0.48650  0.01352  0.48650  Biso   1.000  I
  I53      1.0000 0.62499  0.87498  0.37501  Biso   1.000  I
  I54      1.0000 0.37501  0.87498  0.62499  Biso   1.000  I
  I55      1.0000 0.62499  0.12502  0.62499  Biso   1.000  I
  I56      1.0000 0.01352  0.48650  0.48650  Biso   1.000  I
  I57      1.0000 0.87498  0.37501  0.62499  Biso   1.000  I
  I58      1.0000 0.87498  0.62499  0.37501  Biso   1.000  I
  I59      1.0000 0.12502  0.62499  0.62499  Biso   1.000  I
  I60      1.0000 0.23651  0.76349  0.76349  Biso   1.000  I
  I61      1.0000 0.26351  0.76349  0.73649  Biso   1.000  I
  I62      1.0000 0.23651  0.73649  0.73649  Biso   1.000  I
  I63      1.0000 0.73649  0.23651  0.73649  Biso   1.000  I
  I64      1.0000 0.76349  0.23651  0.76349  Biso   1.000  I
  I65      1.0000 0.76349  0.26351  0.73649  Biso   1.000  I
  I66      1.0000 0.76349  0.73649  0.26351  Biso   1.000  I
  I67      1.0000 0.76349  0.76349  0.23651  Biso   1.000  I
  I68      1.0000 0.73649  0.76349  0.26351  Biso   1.000  I
  I69      1.0000 0.80780  0.19220  0.80780  Biso   1.000  I
  I70      1.0000 0.19220  0.80780  0.80780  Biso   1.000  I
  I71      1.0000 0.80780  0.80780  0.19220  Biso   1.000  I
  I72      1.0000 0.69222  0.80780  0.30778  Biso   1.000  I
  I73      1.0000 0.30778  0.80780  0.69222  Biso   1.000  I
  I74      1.0000 0.69222  0.19220  0.69222  Biso   1.000  I
  I75      1.0000 0.80780  0.30778  0.69222  Biso   1.000  I
  I76      1.0000 0.80780  0.69222  0.30778  Biso   1.000  I
  I77      1.0000 0.19220  0.69222  0.69222  Biso   1.000  I
  I78      1.0000 0.19220  0.69222  0.69222  Biso   1.000  I
  I79      1.0000 0.30778  0.80780  0.69222  Biso   1.000  I
  I80      1.0000 0.19220  0.80780  0.80780  Biso   1.000  I
  I81      1.0000 0.80780  0.30778  0.69222  Biso   1.000  I
  I82      1.0000 0.80780  0.19220  0.80780  Biso   1.000  I
  I83      1.0000 0.69222  0.19220  0.69222  Biso   1.000  I
  I84      1.0000 0.69222  0.80780  0.30778  Biso   1.000  I
  I85      1.0000 0.80780  0.80780  0.19220  Biso   1.000  I
  I86      1.0000 0.80780  0.69222  0.30778  Biso   1.000  I
  I87      1.0000 0.73649  0.23651  0.73649  Biso   1.000  I
  I88      1.0000 0.73649  0.26351  0.76349  Biso   1.000  I
  I89      1.0000 0.76349  0.26351  0.73649  Biso   1.000  I
  I90      1.0000 0.26351  0.76349  0.73649  Biso   1.000  I
  I91      1.0000 0.23651  0.73649  0.73649  Biso   1.000  I
  I92      1.0000 0.26351  0.73649  0.76349  Biso   1.000  I
  I93      1.0000 0.76349  0.73649  0.26351  Biso   1.000  I
  I94      1.0000 0.73649  0.73649  0.23651  Biso   1.000  I
  I95      1.0000 0.73649  0.76349  0.26351  Biso   1.000  I
  I96      1.0000 0.76349  0.73649  0.26351  Biso   1.000  I
  I97      1.0000 0.73649  0.73649  0.23651  Biso   1.000  I
  I98      1.0000 0.76349  0.76349  0.23651  Biso   1.000  I
  I99      1.0000 0.23651  0.76349  0.76349  Biso   1.000  I
  I100     1.0000 0.23651  0.73649  0.73649  Biso   1.000  I
  I101     1.0000 0.26351  0.73649  0.76349  Biso   1.000  I
  I102     1.0000 0.76349  0.23651  0.76349  Biso   1.000  I
  I103     1.0000 0.73649  0.26351  0.76349  Biso   1.000  I
  I104     1.0000 0.76349  0.26351  0.73649  Biso   1.000  I
  I105     1.0000 0.73649  0.23651  0.73649  Biso   1.000  I
  I106     1.0000 0.76349  0.23651  0.76349  Biso   1.000  I
  I107     1.0000 0.73649  0.26351  0.76349  Biso   1.000  I
  I108     1.0000 0.73649  0.73649  0.23651  Biso   1.000  I
  I109     1.0000 0.76349  0.76349  0.23651  Biso   1.000  I
  I110     1.0000 0.73649  0.76349  0.26351  Biso   1.000  I
  I111     1.0000 0.23651  0.76349  0.76349  Biso   1.000  I
  I112     1.0000 0.26351  0.76349  0.73649  Biso   1.000  I
  I113     1.0000 0.26351  0.73649  0.76349  Biso   1.000  I
  I114     1.0000 0.12502  0.62499  0.62499  Biso   1.000  I
  I115     1.0000 0.26351  0.73649  0.76349  Biso   1.000  I
  I116     1.0000 0.37501  0.87498  0.62499  Biso   1.000  I
  I117     1.0000 0.12502  0.87498  0.87498  Biso   1.000  I
  I118     1.0000 0.87498  0.37501  0.62499  Biso   1.000  I
  I119     1.0000 0.73649  0.26351  0.76349  Biso   1.000  I
  I120     1.0000 0.87498  0.12502  0.87498  Biso   1.000  I
  I121     1.0000 0.62499  0.12502  0.62499  Biso   1.000  I
  I122     1.0000 0.62499  0.87498  0.37501  Biso   1.000  I
  I123     1.0000 0.73649  0.73649  0.23651  Biso   1.000  I
  I124     1.0000 0.87498  0.87498  0.12502  Biso   1.000  I
  I125     1.0000 0.87498  0.62499  0.37501  Biso   1.000  I
  I126     1.0000 0.80780  0.30778  0.69222  Biso   1.000  I
  I127     1.0000 0.69222  0.30778  0.80780  Biso   1.000  I
  I128     1.0000 0.69222  0.19220  0.69222  Biso   1.000  I
  I129     1.0000 0.30778  0.69222  0.80780  Biso   1.000  I
  I130     1.0000 0.19220  0.69222  0.69222  Biso   1.000  I
  I131     1.0000 0.30778  0.80780  0.69222  Biso   1.000  I
  I132     1.0000 0.69222  0.80780  0.30778  Biso   1.000  I
  I133     1.0000 0.69222  0.69222  0.19220  Biso   1.000  I
  I134     1.0000 0.80780  0.69222  0.30778  Biso   1.000  I
  I135     1.0000 0.80780  0.80780  0.19220  Biso   1.000  I
  I136     1.0000 0.69222  0.69222  0.19220  Biso   1.000  I
  I137     1.0000 0.80780  0.69222  0.30778  Biso   1.000  I
  I138     1.0000 0.30778  0.69222  0.80780  Biso   1.000  I
  I139     1.0000 0.19220  0.69222  0.69222  Biso   1.000  I
  I140     1.0000 0.19220  0.80780  0.80780  Biso   1.000  I
  I141     1.0000 0.80780  0.30778  0.69222  Biso   1.000  I
  I142     1.0000 0.69222  0.30778  0.80780  Biso   1.000  I
  I143     1.0000 0.80780  0.19220  0.80780  Biso   1.000  I
  I144     1.0000 0.69222  0.30778  0.80780  Biso   1.000  I
  I145     1.0000 0.80780  0.19220  0.80780  Biso   1.000  I
  I146     1.0000 0.69222  0.19220  0.69222  Biso   1.000  I
  I147     1.0000 0.69222  0.80780  0.30778  Biso   1.000  I
  I148     1.0000 0.80780  0.80780  0.19220  Biso   1.000  I
  I149     1.0000 0.69222  0.69222  0.19220  Biso   1.000  I
  I150     1.0000 0.30778  0.69222  0.80780  Biso   1.000  I
  I151     1.0000 0.30778  0.80780  0.69222  Biso   1.000  I
  I152     1.0000 0.19220  0.80780  0.80780  Biso   1.000  I
  I153     1.0000 0.05779  0.55781  0.55781  Biso   1.000  I
  I154     1.0000 0.44219  0.94221  0.55781  Biso   1.000  I
  I155     1.0000 0.05779  0.94221  0.94221  Biso   1.000  I
  I156     1.0000 0.94221  0.44219  0.55781  Biso   1.000  I
  I157     1.0000 0.94221  0.05779  0.94221  Biso   1.000  I
  I158     1.0000 0.55781  0.05779  0.55781  Biso   1.000  I
  I159     1.0000 0.55781  0.94221  0.44219  Biso   1.000  I
  I160     1.0000 0.94221  0.94221  0.05779  Biso   1.000  I
  I161     1.0000 0.94221  0.55781  0.44219  Biso   1.000  I
  I162     1.0000 0.87498  0.37501  0.62499  Biso   1.000  I
  I163     1.0000 0.76349  0.23651  0.76349  Biso   1.000  I
  I164     1.0000 0.62499  0.37501  0.87498  Biso   1.000  I
  I165     1.0000 0.62499  0.12502  0.62499  Biso   1.000  I
  I166     1.0000 0.37501  0.62499  0.87498  Biso   1.000  I
  I167     1.0000 0.23651  0.76349  0.76349  Biso   1.000  I
  I168     1.0000 0.12502  0.62499  0.62499  Biso   1.000  I
  I169     1.0000 0.37501  0.87498  0.62499  Biso   1.000  I
  I170     1.0000 0.62499  0.87498  0.37501  Biso   1.000  I
  I171     1.0000 0.76349  0.76349  0.23651  Biso   1.000  I
  I172     1.0000 0.62499  0.62499  0.12502  Biso   1.000  I
  I173     1.0000 0.87498  0.62499  0.37501  Biso   1.000  I
  I174     1.0000 0.87498  0.87498  0.12502  Biso   1.000  I
  I175     1.0000 0.73649  0.76349  0.26351  Biso   1.000  I
  I176     1.0000 0.62499  0.62499  0.12502  Biso   1.000  I
  I177     1.0000 0.87498  0.62499  0.37501  Biso   1.000  I
  I178     1.0000 0.37501  0.62499  0.87498  Biso   1.000  I
  I179     1.0000 0.26351  0.76349  0.73649  Biso   1.000  I
  I180     1.0000 0.12502  0.62499  0.62499  Biso   1.000  I
  I181     1.0000 0.12502  0.87498  0.87498  Biso   1.000  I
  I182     1.0000 0.87498  0.37501  0.62499  Biso   1.000  I
  I183     1.0000 0.73649  0.23651  0.73649  Biso   1.000  I
  I184     1.0000 0.62499  0.37501  0.87498  Biso   1.000  I
  I185     1.0000 0.87498  0.12502  0.87498  Biso   1.000  I
  I186     1.0000 0.62499  0.37501  0.87498  Biso   1.000  I
  I187     1.0000 0.76349  0.26351  0.73649  Biso   1.000  I
  I188     1.0000 0.87498  0.12502  0.87498  Biso   1.000  I
  I189     1.0000 0.62499  0.12502  0.62499  Biso   1.000  I
  I190     1.0000 0.62499  0.87498  0.37501  Biso   1.000  I
  I191     1.0000 0.76349  0.73649  0.26351  Biso   1.000  I
  I192     1.0000 0.87498  0.87498  0.12502  Biso   1.000  I
  I193     1.0000 0.62499  0.62499  0.12502  Biso   1.000  I
  I194     1.0000 0.37501  0.62499  0.87498  Biso   1.000  I
  I195     1.0000 0.23651  0.73649  0.73649  Biso   1.000  I
  I196     1.0000 0.37501  0.87498  0.62499  Biso   1.000  I
  I197     1.0000 0.12502  0.87498  0.87498  Biso   1.000  I
  I198     1.0000 0.98648  0.51350  0.48650  Biso   1.000  I
  I199     1.0000 0.01352  0.48650  0.48650  Biso   1.000  I
  I200     1.0000 0.98648  0.48650  0.51350  Biso   1.000  I
  I201     1.0000 0.51350  0.98648  0.48650  Biso   1.000  I
  I202     1.0000 0.48650  0.01352  0.48650  Biso   1.000  I
  I203     1.0000 0.51350  0.01352  0.51350  Biso   1.000  I
  I204     1.0000 0.98648  0.01352  0.98648  Biso   1.000  I
  I205     1.0000 0.01352  0.01352  0.01352  Biso   1.000  I
  I206     1.0000 0.98648  0.98648  0.01352  Biso   1.000  I
  I207     1.0000 0.98648  0.51350  0.48650  Biso   1.000  I
  I208     1.0000 0.01352  0.51350  0.51350  Biso   1.000  I
  I209     1.0000 0.01352  0.48650  0.48650  Biso   1.000  I
  I210     1.0000 0.01352  0.98648  0.98648  Biso   1.000  I
  I211     1.0000 0.01352  0.01352  0.01352  Biso   1.000  I
  I212     1.0000 0.98648  0.98648  0.01352  Biso   1.000  I
  I213     1.0000 0.51350  0.98648  0.48650  Biso   1.000  I
  I214     1.0000 0.48650  0.01352  0.48650  Biso   1.000  I
  I215     1.0000 0.48650  0.98648  0.51350  Biso   1.000  I
  I216     1.0000 0.48650  0.01352  0.48650  Biso   1.000  I
  I217     1.0000 0.51350  0.01352  0.51350  Biso   1.000  I
  I218     1.0000 0.48650  0.98648  0.51350  Biso   1.000  I
  I219     1.0000 0.98648  0.01352  0.98648  Biso   1.000  I
  I220     1.0000 0.01352  0.98648  0.98648  Biso   1.000  I
  I221     1.0000 0.01352  0.01352  0.01352  Biso   1.000  I
  I222     1.0000 0.01352  0.51350  0.51350  Biso   1.000  I
  I223     1.0000 0.01352  0.48650  0.48650  Biso   1.000  I
  I224     1.0000 0.98648  0.48650  0.51350  Biso   1.000  I
  I225     1.0000 0.94221  0.44219  0.55781  Biso   1.000  I
  I226     1.0000 0.55781  0.44219  0.94221  Biso   1.000  I
  I227     1.0000 0.55781  0.05779  0.55781  Biso   1.000  I
  I228     1.0000 0.44219  0.55781  0.94221  Biso   1.000  I
  I229     1.0000 0.05779  0.55781  0.55781  Biso   1.000  I
  I230     1.0000 0.44219  0.94221  0.55781  Biso   1.000  I
  I231     1.0000 0.55781  0.94221  0.44219  Biso   1.000  I
  I232     1.0000 0.55781  0.55781  0.05779  Biso   1.000  I
  I233     1.0000 0.94221  0.55781  0.44219  Biso   1.000  I
  I234     1.0000 0.94221  0.94221  0.05779  Biso   1.000  I
  I235     1.0000 0.55781  0.55781  0.05779  Biso   1.000  I
  I236     1.0000 0.94221  0.55781  0.44219  Biso   1.000  I
  I237     1.0000 0.44219  0.55781  0.94221  Biso   1.000  I
  I238     1.0000 0.05779  0.55781  0.55781  Biso   1.000  I
  I239     1.0000 0.05779  0.94221  0.94221  Biso   1.000  I
  I240     1.0000 0.94221  0.44219  0.55781  Biso   1.000  I
  I241     1.0000 0.55781  0.44219  0.94221  Biso   1.000  I
  I242     1.0000 0.94221  0.05779  0.94221  Biso   1.000  I
  I243     1.0000 0.55781  0.44219  0.94221  Biso   1.000  I
  I244     1.0000 0.94221  0.05779  0.94221  Biso   1.000  I
  I245     1.0000 0.55781  0.05779  0.55781  Biso   1.000  I
  I246     1.0000 0.55781  0.94221  0.44219  Biso   1.000  I
  I247     1.0000 0.94221  0.94221  0.05779  Biso   1.000  I
  I248     1.0000 0.55781  0.55781  0.05779  Biso   1.000  I
  I249     1.0000 0.44219  0.55781  0.94221  Biso   1.000  I
  I250     1.0000 0.44219  0.94221  0.55781  Biso   1.000  I
  I251     1.0000 0.05779  0.94221  0.94221  Biso   1.000  I
  I252     1.0000 0.05779  0.44219  0.44219  Biso   1.000  I
  I253     1.0000 0.94221  0.55781  0.44219  Biso   1.000  I
  I254     1.0000 0.44219  0.05779  0.44219  Biso   1.000  I
  I255     1.0000 0.55781  0.05779  0.55781  Biso   1.000  I
  I256     1.0000 0.55781  0.94221  0.44219  Biso   1.000  I
  I257     1.0000 0.05779  0.05779  0.05779  Biso   1.000  I
  I258     1.0000 0.94221  0.05779  0.94221  Biso   1.000  I
  I259     1.0000 0.05779  0.55781  0.55781  Biso   1.000  I
  I260     1.0000 0.05779  0.44219  0.44219  Biso   1.000  I
  I261     1.0000 0.94221  0.55781  0.44219  Biso   1.000  I
  I262     1.0000 0.05779  0.05779  0.05779  Biso   1.000  I
  I263     1.0000 0.05779  0.94221  0.94221  Biso   1.000  I
  I264     1.0000 0.44219  0.05779  0.44219  Biso   1.000  I
  I265     1.0000 0.55781  0.94221  0.44219  Biso   1.000  I
  I266     1.0000 0.55781  0.05779  0.55781  Biso   1.000  I
  I267     1.0000 0.44219  0.05779  0.44219  Biso   1.000  I
  I268     1.0000 0.05779  0.94221  0.94221  Biso   1.000  I
  I269     1.0000 0.05779  0.05779  0.05779  Biso   1.000  I
  I270     1.0000 0.94221  0.05779  0.94221  Biso   1.000  I
  I271     1.0000 0.05779  0.44219  0.44219  Biso   1.000  I
  I272     1.0000 0.05779  0.55781  0.55781  Biso   1.000  I
  I273     1.0000 0.01352  0.51350  0.51350  Biso   1.000  I
  I274     1.0000 0.48650  0.51350  0.98648  Biso   1.000  I
  I275     1.0000 0.51350  0.51350  0.01352  Biso   1.000  I
  I276     1.0000 0.48650  0.48650  0.01352  Biso   1.000  I
  I277     1.0000 0.48650  0.98648  0.51350  Biso   1.000  I
  I278     1.0000 0.51350  0.98648  0.48650  Biso   1.000  I
  I279     1.0000 0.48650  0.01352  0.48650  Biso   1.000  I
  I280     1.0000 0.51350  0.48650  0.98648  Biso   1.000  I
  I281     1.0000 0.51350  0.51350  0.01352  Biso   1.000  I
  I282     1.0000 0.48650  0.48650  0.01352  Biso   1.000  I
  I283     1.0000 0.98648  0.51350  0.48650  Biso   1.000  I
  I284     1.0000 0.98648  0.48650  0.51350  Biso   1.000  I
  I285     1.0000 0.01352  0.48650  0.48650  Biso   1.000  I
  I286     1.0000 0.51350  0.01352  0.51350  Biso   1.000  I
  I287     1.0000 0.48650  0.98648  0.51350  Biso   1.000  I
  I288     1.0000 0.48650  0.01352  0.48650  Biso   1.000  I
  I289     1.0000 0.51350  0.01352  0.51350  Biso   1.000  I
  I290     1.0000 0.51350  0.48650  0.98648  Biso   1.000  I
  I291     1.0000 0.48650  0.51350  0.98648  Biso   1.000  I
  I292     1.0000 0.48650  0.48650  0.01352  Biso   1.000  I
  I293     1.0000 0.98648  0.48650  0.51350  Biso   1.000  I
  I294     1.0000 0.01352  0.51350  0.51350  Biso   1.000  I
  I295     1.0000 0.01352  0.48650  0.48650  Biso   1.000  I
  I296     1.0000 0.98648  0.01352  0.98648  Biso   1.000  I
  I297     1.0000 0.48650  0.51350  0.98648  Biso   1.000  I
  I298     1.0000 0.98648  0.48650  0.51350  Biso   1.000  I
  I299     1.0000 0.01352  0.51350  0.51350  Biso   1.000  I
  I300     1.0000 0.01352  0.48650  0.48650  Biso   1.000  I
  I301     1.0000 0.51350  0.48650  0.98648  Biso   1.000  I
  I302     1.0000 0.51350  0.51350  0.01352  Biso   1.000  I
  I303     1.0000 0.48650  0.48650  0.01352  Biso   1.000  I
  I304     1.0000 0.98648  0.51350  0.48650  Biso   1.000  I
  I305     1.0000 0.98648  0.98648  0.01352  Biso   1.000  I
  I306     1.0000 0.98648  0.01352  0.98648  Biso   1.000  I
  I307     1.0000 0.01352  0.01352  0.01352  Biso   1.000  I
  I308     1.0000 0.98648  0.51350  0.48650  Biso   1.000  I
  I309     1.0000 0.48650  0.51350  0.98648  Biso   1.000  I
  I310     1.0000 0.51350  0.51350  0.01352  Biso   1.000  I
  I311     1.0000 0.48650  0.48650  0.01352  Biso   1.000  I
  I312     1.0000 0.98648  0.98648  0.01352  Biso   1.000  I
  I313     1.0000 0.01352  0.98648  0.98648  Biso   1.000  I
  I314     1.0000 0.01352  0.01352  0.01352  Biso   1.000  I
  I315     1.0000 0.48650  0.51350  0.98648  Biso   1.000  I
  I316     1.0000 0.51350  0.51350  0.01352  Biso   1.000  I
  I317     1.0000 0.48650  0.48650  0.01352  Biso   1.000  I
  I318     1.0000 0.01352  0.98648  0.98648  Biso   1.000  I
  I319     1.0000 0.51350  0.98648  0.48650  Biso   1.000  I
  I320     1.0000 0.48650  0.98648  0.51350  Biso   1.000  I
  I321     1.0000 0.48650  0.01352  0.48650  Biso   1.000  I
  I322     1.0000 0.51350  0.01352  0.51350  Biso   1.000  I
  I323     1.0000 0.01352  0.98648  0.98648  Biso   1.000  I
  I324     1.0000 0.51350  0.48650  0.98648  Biso   1.000  I
  I325     1.0000 0.51350  0.48650  0.98648  Biso   1.000  I
  I326     1.0000 0.51350  0.98648  0.48650  Biso   1.000  I
  I327     1.0000 0.98648  0.98648  0.01352  Biso   1.000  I
  I328     1.0000 0.98648  0.01352  0.98648  Biso   1.000  I
  I329     1.0000 0.01352  0.01352  0.01352  Biso   1.000  I
  I330     1.0000 0.12502  0.37501  0.37501  Biso   1.000  I
  I331     1.0000 0.87498  0.62499  0.37501  Biso   1.000  I
  I332     1.0000 0.48650  0.98648  0.51350  Biso   1.000  I
  I333     1.0000 0.37501  0.12502  0.37501  Biso   1.000  I
  I334     1.0000 0.62499  0.12502  0.62499  Biso   1.000  I
  I335     1.0000 0.62499  0.87498  0.37501  Biso   1.000  I
  I336     1.0000 0.12502  0.12502  0.12502  Biso   1.000  I
  I337     1.0000 0.87498  0.12502  0.87498  Biso   1.000  I
  I338     1.0000 0.98648  0.48650  0.51350  Biso   1.000  I
  I339     1.0000 0.12502  0.62499  0.62499  Biso   1.000  I
  I340     1.0000 0.12502  0.37501  0.37501  Biso   1.000  I
  I341     1.0000 0.87498  0.62499  0.37501  Biso   1.000  I
  I342     1.0000 0.12502  0.12502  0.12502  Biso   1.000  I
  I343     1.0000 0.12502  0.87498  0.87498  Biso   1.000  I
  I344     1.0000 0.37501  0.12502  0.37501  Biso   1.000  I
  I345     1.0000 0.62499  0.87498  0.37501  Biso   1.000  I
  I346     1.0000 0.62499  0.12502  0.62499  Biso   1.000  I
  I347     1.0000 0.37501  0.12502  0.37501  Biso   1.000  I
  I348     1.0000 0.98648  0.98648  0.01352  Biso   1.000  I
  I349     1.0000 0.12502  0.87498  0.87498  Biso   1.000  I
  I350     1.0000 0.12502  0.12502  0.12502  Biso   1.000  I
  I351     1.0000 0.87498  0.12502  0.87498  Biso   1.000  I
  I352     1.0000 0.12502  0.37501  0.37501  Biso   1.000  I
  I353     1.0000 0.12502  0.62499  0.62499  Biso   1.000  I
  I354     1.0000 0.44219  0.44219  0.05779  Biso   1.000  I
  I355     1.0000 0.44219  0.55781  0.94221  Biso   1.000  I
  I356     1.0000 0.55781  0.94221  0.44219  Biso   1.000  I
  I357     1.0000 0.44219  0.05779  0.44219  Biso   1.000  I
  I358     1.0000 0.44219  0.94221  0.55781  Biso   1.000  I
  I359     1.0000 0.44219  0.44219  0.05779  Biso   1.000  I
  I360     1.0000 0.55781  0.44219  0.94221  Biso   1.000  I
  I361     1.0000 0.94221  0.44219  0.55781  Biso   1.000  I
  I362     1.0000 0.05779  0.44219  0.44219  Biso   1.000  I
  I363     1.0000 0.94221  0.55781  0.44219  Biso   1.000  I
  I364     1.0000 0.44219  0.05779  0.44219  Biso   1.000  I
  I365     1.0000 0.44219  0.94221  0.55781  Biso   1.000  I
  I366     1.0000 0.44219  0.55781  0.94221  Biso   1.000  I
  I367     1.0000 0.44219  0.44219  0.05779  Biso   1.000  I
  I368     1.0000 0.55781  0.44219  0.94221  Biso   1.000  I
  I369     1.0000 0.05779  0.44219  0.44219  Biso   1.000  I
  I370     1.0000 0.94221  0.44219  0.55781  Biso   1.000  I
  I371     1.0000 0.05779  0.55781  0.55781  Biso   1.000  I
  I372     1.0000 0.05779  0.44219  0.44219  Biso   1.000  I
  I373     1.0000 0.94221  0.44219  0.55781  Biso   1.000  I
  I374     1.0000 0.44219  0.44219  0.05779  Biso   1.000  I
  I375     1.0000 0.55781  0.55781  0.05779  Biso   1.000  I
  I376     1.0000 0.55781  0.44219  0.94221  Biso   1.000  I
  I377     1.0000 0.05779  0.05779  0.05779  Biso   1.000  I
  I378     1.0000 0.94221  0.94221  0.05779  Biso   1.000  I
  I379     1.0000 0.44219  0.44219  0.05779  Biso   1.000  I
  I380     1.0000 0.55781  0.55781  0.05779  Biso   1.000  I
  I381     1.0000 0.05779  0.94221  0.94221  Biso   1.000  I
  I382     1.0000 0.05779  0.05779  0.05779  Biso   1.000  I
  I383     1.0000 0.94221  0.94221  0.05779  Biso   1.000  I
  I384     1.0000 0.44219  0.44219  0.05779  Biso   1.000  I
  I385     1.0000 0.55781  0.55781  0.05779  Biso   1.000  I
  I386     1.0000 0.44219  0.55781  0.94221  Biso   1.000  I
  I387     1.0000 0.44219  0.05779  0.44219  Biso   1.000  I
  I388     1.0000 0.55781  0.05779  0.55781  Biso   1.000  I
  I389     1.0000 0.44219  0.94221  0.55781  Biso   1.000  I
  I390     1.0000 0.94221  0.05779  0.94221  Biso   1.000  I
  I391     1.0000 0.05779  0.05779  0.05779  Biso   1.000  I
  I392     1.0000 0.94221  0.94221  0.05779  Biso   1.000  I
  I393     1.0000 0.19220  0.30778  0.30778  Biso   1.000  I
  I394     1.0000 0.80780  0.69222  0.30778  Biso   1.000  I
  I395     1.0000 0.30778  0.19220  0.30778  Biso   1.000  I
  I396     1.0000 0.69222  0.19220  0.69222  Biso   1.000  I
  I397     1.0000 0.69222  0.80780  0.30778  Biso   1.000  I
  I398     1.0000 0.19220  0.19220  0.19220  Biso   1.000  I
  I399     1.0000 0.80780  0.19220  0.80780  Biso   1.000  I
  I400     1.0000 0.19220  0.69222  0.69222  Biso   1.000  I
  I401     1.0000 0.19220  0.30778  0.30778  Biso   1.000  I
  I402     1.0000 0.80780  0.69222  0.30778  Biso   1.000  I
  I403     1.0000 0.19220  0.19220  0.19220  Biso   1.000  I
  I404     1.0000 0.19220  0.80780  0.80780  Biso   1.000  I
  I405     1.0000 0.30778  0.19220  0.30778  Biso   1.000  I
  I406     1.0000 0.69222  0.80780  0.30778  Biso   1.000  I
  I407     1.0000 0.69222  0.19220  0.69222  Biso   1.000  I
  I408     1.0000 0.30778  0.19220  0.30778  Biso   1.000  I
  I409     1.0000 0.19220  0.80780  0.80780  Biso   1.000  I
  I410     1.0000 0.19220  0.19220  0.19220  Biso   1.000  I
  I411     1.0000 0.80780  0.19220  0.80780  Biso   1.000  I
  I412     1.0000 0.19220  0.30778  0.30778  Biso   1.000  I
  I413     1.0000 0.19220  0.69222  0.69222  Biso   1.000  I
  I414     1.0000 0.37501  0.37501  0.12502  Biso   1.000  I
  I415     1.0000 0.37501  0.62499  0.87498  Biso   1.000  I
  I416     1.0000 0.62499  0.87498  0.37501  Biso   1.000  I
  I417     1.0000 0.51350  0.01352  0.51350  Biso   1.000  I
  I418     1.0000 0.37501  0.12502  0.37501  Biso   1.000  I
  I419     1.0000 0.37501  0.87498  0.62499  Biso   1.000  I
  I420     1.0000 0.37501  0.37501  0.12502  Biso   1.000  I
  I421     1.0000 0.62499  0.37501  0.87498  Biso   1.000  I
  I422     1.0000 0.87498  0.37501  0.62499  Biso   1.000  I
  I423     1.0000 0.01352  0.51350  0.51350  Biso   1.000  I
  I424     1.0000 0.12502  0.37501  0.37501  Biso   1.000  I
  I425     1.0000 0.87498  0.62499  0.37501  Biso   1.000  I
  I426     1.0000 0.37501  0.12502  0.37501  Biso   1.000  I
  I427     1.0000 0.37501  0.87498  0.62499  Biso   1.000  I
  I428     1.0000 0.37501  0.62499  0.87498  Biso   1.000  I
  I429     1.0000 0.51350  0.51350  0.01352  Biso   1.000  I
  I430     1.0000 0.37501  0.37501  0.12502  Biso   1.000  I
  I431     1.0000 0.62499  0.37501  0.87498  Biso   1.000  I
  I432     1.0000 0.12502  0.37501  0.37501  Biso   1.000  I
  I433     1.0000 0.87498  0.37501  0.62499  Biso   1.000  I
  I434     1.0000 0.98648  0.51350  0.48650  Biso   1.000  I
  I435     1.0000 0.12502  0.62499  0.62499  Biso   1.000  I
  I436     1.0000 0.12502  0.37501  0.37501  Biso   1.000  I
  I437     1.0000 0.87498  0.37501  0.62499  Biso   1.000  I
  I438     1.0000 0.48650  0.51350  0.98648  Biso   1.000  I
  I439     1.0000 0.37501  0.37501  0.12502  Biso   1.000  I
  I440     1.0000 0.62499  0.62499  0.12502  Biso   1.000  I
  I441     1.0000 0.62499  0.37501  0.87498  Biso   1.000  I
  I442     1.0000 0.12502  0.12502  0.12502  Biso   1.000  I
  I443     1.0000 0.87498  0.87498  0.12502  Biso   1.000  I
  I444     1.0000 0.37501  0.37501  0.12502  Biso   1.000  I
  I445     1.0000 0.62499  0.62499  0.12502  Biso   1.000  I
  I446     1.0000 0.98648  0.01352  0.98648  Biso   1.000  I
  I447     1.0000 0.12502  0.87498  0.87498  Biso   1.000  I
  I448     1.0000 0.12502  0.12502  0.12502  Biso   1.000  I
  I449     1.0000 0.87498  0.87498  0.12502  Biso   1.000  I
  I450     1.0000 0.51350  0.48650  0.98648  Biso   1.000  I
  I451     1.0000 0.37501  0.37501  0.12502  Biso   1.000  I
  I452     1.0000 0.62499  0.62499  0.12502  Biso   1.000  I
  I453     1.0000 0.37501  0.62499  0.87498  Biso   1.000  I
  I454     1.0000 0.51350  0.98648  0.48650  Biso   1.000  I
  I455     1.0000 0.37501  0.12502  0.37501  Biso   1.000  I
  I456     1.0000 0.62499  0.12502  0.62499  Biso   1.000  I
  I457     1.0000 0.37501  0.87498  0.62499  Biso   1.000  I
  I458     1.0000 0.01352  0.98648  0.98648  Biso   1.000  I
  I459     1.0000 0.87498  0.12502  0.87498  Biso   1.000  I
  I460     1.0000 0.12502  0.12502  0.12502  Biso   1.000  I
  I461     1.0000 0.87498  0.87498  0.12502  Biso   1.000  I
  I462     1.0000 0.26351  0.26351  0.23651  Biso   1.000  I
  I463     1.0000 0.26351  0.23651  0.26351  Biso   1.000  I
  I464     1.0000 0.23651  0.23651  0.23651  Biso   1.000  I
  I465     1.0000 0.73649  0.73649  0.23651  Biso   1.000  I
  I466     1.0000 0.76349  0.76349  0.23651  Biso   1.000  I
  I467     1.0000 0.73649  0.76349  0.26351  Biso   1.000  I
  I468     1.0000 0.26351  0.26351  0.23651  Biso   1.000  I
  I469     1.0000 0.23651  0.26351  0.26351  Biso   1.000  I
  I470     1.0000 0.23651  0.23651  0.23651  Biso   1.000  I
  I471     1.0000 0.76349  0.23651  0.76349  Biso   1.000  I
  I472     1.0000 0.73649  0.26351  0.76349  Biso   1.000  I
  I473     1.0000 0.76349  0.26351  0.73649  Biso   1.000  I
  I474     1.0000 0.76349  0.73649  0.26351  Biso   1.000  I
  I475     1.0000 0.73649  0.73649  0.23651  Biso   1.000  I
  I476     1.0000 0.76349  0.76349  0.23651  Biso   1.000  I
  I477     1.0000 0.26351  0.26351  0.23651  Biso   1.000  I
  I478     1.0000 0.23651  0.26351  0.26351  Biso   1.000  I
  I479     1.0000 0.26351  0.23651  0.26351  Biso   1.000  I
  I480     1.0000 0.73649  0.23651  0.73649  Biso   1.000  I
  I481     1.0000 0.73649  0.26351  0.76349  Biso   1.000  I
  I482     1.0000 0.76349  0.26351  0.73649  Biso   1.000  I
  I483     1.0000 0.23651  0.76349  0.76349  Biso   1.000  I
  I484     1.0000 0.26351  0.76349  0.73649  Biso   1.000  I
  I485     1.0000 0.26351  0.73649  0.76349  Biso   1.000  I
  I486     1.0000 0.26351  0.26351  0.23651  Biso   1.000  I
  I487     1.0000 0.26351  0.23651  0.26351  Biso   1.000  I
  I488     1.0000 0.23651  0.23651  0.23651  Biso   1.000  I
  I489     1.0000 0.73649  0.76349  0.26351  Biso   1.000  I
  I490     1.0000 0.26351  0.26351  0.23651  Biso   1.000  I
  I491     1.0000 0.23651  0.26351  0.26351  Biso   1.000  I
  I492     1.0000 0.26351  0.23651  0.26351  Biso   1.000  I
  I493     1.0000 0.26351  0.76349  0.73649  Biso   1.000  I
  I494     1.0000 0.23651  0.73649  0.73649  Biso   1.000  I
  I495     1.0000 0.26351  0.73649  0.76349  Biso   1.000  I
  I496     1.0000 0.23651  0.26351  0.26351  Biso   1.000  I
  I497     1.0000 0.76349  0.73649  0.26351  Biso   1.000  I
  I498     1.0000 0.73649  0.73649  0.23651  Biso   1.000  I
  I499     1.0000 0.76349  0.76349  0.23651  Biso   1.000  I
  I500     1.0000 0.76349  0.23651  0.76349  Biso   1.000  I
  I501     1.0000 0.73649  0.26351  0.76349  Biso   1.000  I
  I502     1.0000 0.76349  0.26351  0.73649  Biso   1.000  I
  I503     1.0000 0.23651  0.23651  0.23651  Biso   1.000  I
  I504     1.0000 0.23651  0.73649  0.73649  Biso   1.000  I
  I505     1.0000 0.26351  0.26351  0.23651  Biso   1.000  I
  I506     1.0000 0.23651  0.26351  0.26351  Biso   1.000  I
  I507     1.0000 0.26351  0.23651  0.26351  Biso   1.000  I
  I508     1.0000 0.73649  0.23651  0.73649  Biso   1.000  I
  I509     1.0000 0.23651  0.23651  0.23651  Biso   1.000  I
  I510     1.0000 0.23651  0.76349  0.76349  Biso   1.000  I
  I511     1.0000 0.26351  0.76349  0.73649  Biso   1.000  I
  I512     1.0000 0.26351  0.73649  0.76349  Biso   1.000  I
  I513     1.0000 0.30778  0.30778  0.19220  Biso   1.000  I
  I514     1.0000 0.30778  0.69222  0.80780  Biso   1.000  I
  I515     1.0000 0.69222  0.80780  0.30778  Biso   1.000  I
  I516     1.0000 0.30778  0.19220  0.30778  Biso   1.000  I
  I517     1.0000 0.30778  0.80780  0.69222  Biso   1.000  I
  I518     1.0000 0.30778  0.30778  0.19220  Biso   1.000  I
  I519     1.0000 0.69222  0.30778  0.80780  Biso   1.000  I
  I520     1.0000 0.80780  0.30778  0.69222  Biso   1.000  I
  I521     1.0000 0.19220  0.30778  0.30778  Biso   1.000  I
  I522     1.0000 0.80780  0.69222  0.30778  Biso   1.000  I
  I523     1.0000 0.30778  0.19220  0.30778  Biso   1.000  I
  I524     1.0000 0.30778  0.80780  0.69222  Biso   1.000  I
  I525     1.0000 0.30778  0.69222  0.80780  Biso   1.000  I
  I526     1.0000 0.30778  0.30778  0.19220  Biso   1.000  I
  I527     1.0000 0.69222  0.30778  0.80780  Biso   1.000  I
  I528     1.0000 0.19220  0.30778  0.30778  Biso   1.000  I
  I529     1.0000 0.80780  0.30778  0.69222  Biso   1.000  I
  I530     1.0000 0.19220  0.69222  0.69222  Biso   1.000  I
  I531     1.0000 0.19220  0.30778  0.30778  Biso   1.000  I
  I532     1.0000 0.80780  0.30778  0.69222  Biso   1.000  I
  I533     1.0000 0.30778  0.30778  0.19220  Biso   1.000  I
  I534     1.0000 0.69222  0.69222  0.19220  Biso   1.000  I
  I535     1.0000 0.69222  0.30778  0.80780  Biso   1.000  I
  I536     1.0000 0.19220  0.19220  0.19220  Biso   1.000  I
  I537     1.0000 0.80780  0.80780  0.19220  Biso   1.000  I
  I538     1.0000 0.30778  0.30778  0.19220  Biso   1.000  I
  I539     1.0000 0.69222  0.69222  0.19220  Biso   1.000  I
  I540     1.0000 0.19220  0.80780  0.80780  Biso   1.000  I
  I541     1.0000 0.19220  0.19220  0.19220  Biso   1.000  I
  I542     1.0000 0.80780  0.80780  0.19220  Biso   1.000  I
  I543     1.0000 0.30778  0.30778  0.19220  Biso   1.000  I
  I544     1.0000 0.69222  0.69222  0.19220  Biso   1.000  I
  I545     1.0000 0.30778  0.69222  0.80780  Biso   1.000  I
  I546     1.0000 0.30778  0.19220  0.30778  Biso   1.000  I
  I547     1.0000 0.69222  0.19220  0.69222  Biso   1.000  I
  I548     1.0000 0.30778  0.80780  0.69222  Biso   1.000  I
  I549     1.0000 0.80780  0.19220  0.80780  Biso   1.000  I
  I550     1.0000 0.19220  0.19220  0.19220  Biso   1.000  I
  I551     1.0000 0.80780  0.80780  0.19220  Biso   1.000  I
  I552     1.0000 0.19220  0.19220  0.19220  Biso   1.000  I
  I553     1.0000 0.30778  0.30778  0.19220  Biso   1.000  I
  I554     1.0000 0.69222  0.80780  0.30778  Biso   1.000  I
  I555     1.0000 0.80780  0.80780  0.19220  Biso   1.000  I
  I556     1.0000 0.69222  0.69222  0.19220  Biso   1.000  I
  I557     1.0000 0.19220  0.19220  0.19220  Biso   1.000  I
  I558     1.0000 0.19220  0.30778  0.30778  Biso   1.000  I
  I559     1.0000 0.30778  0.30778  0.19220  Biso   1.000  I
  I560     1.0000 0.80780  0.30778  0.69222  Biso   1.000  I
  I561     1.0000 0.69222  0.30778  0.80780  Biso   1.000  I
  I562     1.0000 0.80780  0.80780  0.19220  Biso   1.000  I
  I563     1.0000 0.69222  0.69222  0.19220  Biso   1.000  I
  I564     1.0000 0.19220  0.30778  0.30778  Biso   1.000  I
  I565     1.0000 0.30778  0.30778  0.19220  Biso   1.000  I
  I566     1.0000 0.80780  0.30778  0.69222  Biso   1.000  I
  I567     1.0000 0.69222  0.30778  0.80780  Biso   1.000  I
  I568     1.0000 0.69222  0.19220  0.69222  Biso   1.000  I
  I569     1.0000 0.30778  0.69222  0.80780  Biso   1.000  I
  I570     1.0000 0.30778  0.80780  0.69222  Biso   1.000  I
  I571     1.0000 0.19220  0.19220  0.19220  Biso   1.000  I
  I572     1.0000 0.30778  0.19220  0.30778  Biso   1.000  I
  I573     1.0000 0.30778  0.30778  0.19220  Biso   1.000  I
  I574     1.0000 0.30778  0.19220  0.30778  Biso   1.000  I
  I575     1.0000 0.30778  0.30778  0.19220  Biso   1.000  I
  I576     1.0000 0.30778  0.69222  0.80780  Biso   1.000  I
  I577     1.0000 0.19220  0.69222  0.69222  Biso   1.000  I
  I578     1.0000 0.30778  0.80780  0.69222  Biso   1.000  I
  I579     1.0000 0.80780  0.80780  0.19220  Biso   1.000  I
  I580     1.0000 0.69222  0.69222  0.19220  Biso   1.000  I
  I581     1.0000 0.80780  0.69222  0.30778  Biso   1.000  I
  I582     1.0000 0.80780  0.30778  0.69222  Biso   1.000  I
  I583     1.0000 0.69222  0.30778  0.80780  Biso   1.000  I
  I584     1.0000 0.80780  0.19220  0.80780  Biso   1.000  I
  I585     1.0000 0.30778  0.19220  0.30778  Biso   1.000  I
  I586     1.0000 0.19220  0.30778  0.30778  Biso   1.000  I
  I587     1.0000 0.30778  0.30778  0.19220  Biso   1.000  I
  I588     1.0000 0.30778  0.69222  0.80780  Biso   1.000  I
  I589     1.0000 0.30778  0.80780  0.69222  Biso   1.000  I
  I590     1.0000 0.19220  0.80780  0.80780  Biso   1.000  I
  I591     1.0000 0.23651  0.26351  0.26351  Biso   1.000  I
  I592     1.0000 0.26351  0.23651  0.26351  Biso   1.000  I
  I593     1.0000 0.23651  0.23651  0.23651  Biso   1.000  I
  I594     1.0000 0.23651  0.76349  0.76349  Biso   1.000  I
  I595     1.0000 0.26351  0.76349  0.73649  Biso   1.000  I
  I596     1.0000 0.23651  0.73649  0.73649  Biso   1.000  I
  I597     1.0000 0.76349  0.73649  0.26351  Biso   1.000  I
  I598     1.0000 0.73649  0.73649  0.23651  Biso   1.000  I
  I599     1.0000 0.76349  0.76349  0.23651  Biso   1.000  I
  I600     1.0000 0.26351  0.26351  0.23651  Biso   1.000  I
  I601     1.0000 0.23651  0.26351  0.26351  Biso   1.000  I
  I602     1.0000 0.23651  0.23651  0.23651  Biso   1.000  I
  I603     1.0000 0.23651  0.76349  0.76349  Biso   1.000  I
  I604     1.0000 0.23651  0.73649  0.73649  Biso   1.000  I
  I605     1.0000 0.26351  0.73649  0.76349  Biso   1.000  I
  I606     1.0000 0.23651  0.26351  0.26351  Biso   1.000  I
  I607     1.0000 0.26351  0.23651  0.26351  Biso   1.000  I
  I608     1.0000 0.23651  0.23651  0.23651  Biso   1.000  I
  I609     1.0000 0.73649  0.23651  0.73649  Biso   1.000  I
  I610     1.0000 0.76349  0.23651  0.76349  Biso   1.000  I
  I611     1.0000 0.76349  0.26351  0.73649  Biso   1.000  I
  I612     1.0000 0.73649  0.23651  0.73649  Biso   1.000  I
  I613     1.0000 0.76349  0.23651  0.76349  Biso   1.000  I
  I614     1.0000 0.73649  0.26351  0.76349  Biso   1.000  I
  I615     1.0000 0.26351  0.26351  0.23651  Biso   1.000  I
  I616     1.0000 0.26351  0.23651  0.26351  Biso   1.000  I
  I617     1.0000 0.23651  0.23651  0.23651  Biso   1.000  I
  I618     1.0000 0.73649  0.76349  0.26351  Biso   1.000  I
  I619     1.0000 0.26351  0.26351  0.23651  Biso   1.000  I
  I620     1.0000 0.23651  0.76349  0.76349  Biso   1.000  I
  I621     1.0000 0.23651  0.73649  0.73649  Biso   1.000  I
  I622     1.0000 0.26351  0.73649  0.76349  Biso   1.000  I
  I623     1.0000 0.26351  0.76349  0.73649  Biso   1.000  I
  I624     1.0000 0.23651  0.26351  0.26351  Biso   1.000  I
  I625     1.0000 0.26351  0.23651  0.26351  Biso   1.000  I
  I626     1.0000 0.23651  0.23651  0.23651  Biso   1.000  I
  I627     1.0000 0.76349  0.26351  0.73649  Biso   1.000  I
  I628     1.0000 0.26351  0.26351  0.23651  Biso   1.000  I
  I629     1.0000 0.73649  0.23651  0.73649  Biso   1.000  I
  I630     1.0000 0.76349  0.23651  0.76349  Biso   1.000  I
  I631     1.0000 0.73649  0.26351  0.76349  Biso   1.000  I
  I632     1.0000 0.23651  0.76349  0.76349  Biso   1.000  I
  I633     1.0000 0.26351  0.76349  0.73649  Biso   1.000  I
  I634     1.0000 0.26351  0.73649  0.76349  Biso   1.000  I
  I635     1.0000 0.26351  0.26351  0.23651  Biso   1.000  I
  I636     1.0000 0.26351  0.23651  0.26351  Biso   1.000  I
  I637     1.0000 0.23651  0.23651  0.23651  Biso   1.000  I
  I638     1.0000 0.73649  0.23651  0.73649  Biso   1.000  I
  I639     1.0000 0.76349  0.23651  0.76349  Biso   1.000  I
  I640     1.0000 0.73649  0.26351  0.76349  Biso   1.000  I
  I641     1.0000 0.23651  0.26351  0.26351  Biso   1.000  I
  I642     1.0000 0.26351  0.23651  0.26351  Biso   1.000  I
  I643     1.0000 0.23651  0.23651  0.23651  Biso   1.000  I
  I644     1.0000 0.76349  0.73649  0.26351  Biso   1.000  I
  I645     1.0000 0.76349  0.76349  0.23651  Biso   1.000  I
  I646     1.0000 0.73649  0.76349  0.26351  Biso   1.000  I
  I647     1.0000 0.76349  0.26351  0.73649  Biso   1.000  I
  I648     1.0000 0.26351  0.26351  0.23651  Biso   1.000  I
  I649     1.0000 0.23651  0.26351  0.26351  Biso   1.000  I
  I650     1.0000 0.26351  0.23651  0.26351  Biso   1.000  I
  I651     1.0000 0.76349  0.73649  0.26351  Biso   1.000  I
  I652     1.0000 0.73649  0.73649  0.23651  Biso   1.000  I
  I653     1.0000 0.73649  0.76349  0.26351  Biso   1.000  I
  I654     1.0000 0.23651  0.23651  0.23651  Biso   1.000  I
  I655     1.0000 0.76349  0.73649  0.26351  Biso   1.000  I
  I656     1.0000 0.76349  0.76349  0.23651  Biso   1.000  I
  I657     1.0000 0.73649  0.76349  0.26351  Biso   1.000  I
  I658     1.0000 0.23651  0.73649  0.73649  Biso   1.000  I
  I659     1.0000 0.26351  0.26351  0.23651  Biso   1.000  I
  I660     1.0000 0.23651  0.26351  0.26351  Biso   1.000  I
  I661     1.0000 0.26351  0.23651  0.26351  Biso   1.000  I
  I662     1.0000 0.73649  0.73649  0.23651  Biso   1.000  I
  I663     1.0000 0.23651  0.26351  0.26351  Biso   1.000  I
  I664     1.0000 0.26351  0.23651  0.26351  Biso   1.000  I
  I665     1.0000 0.23651  0.23651  0.23651  Biso   1.000  I
  I666     1.0000 0.76349  0.73649  0.26351  Biso   1.000  I
  I667     1.0000 0.76349  0.76349  0.23651  Biso   1.000  I
  I668     1.0000 0.73649  0.76349  0.26351  Biso   1.000  I
  I669     1.0000 0.23651  0.76349  0.76349  Biso   1.000  I
  I670     1.0000 0.26351  0.76349  0.73649  Biso   1.000  I
  I671     1.0000 0.23651  0.73649  0.73649  Biso   1.000  I
  I672     1.0000 0.26351  0.26351  0.23651  Biso   1.000  I
  I673     1.0000 0.23651  0.26351  0.26351  Biso   1.000  I
  I674     1.0000 0.23651  0.23651  0.23651  Biso   1.000  I
  I675     1.0000 0.76349  0.23651  0.76349  Biso   1.000  I
  I676     1.0000 0.73649  0.26351  0.76349  Biso   1.000  I
  I677     1.0000 0.76349  0.26351  0.73649  Biso   1.000  I
  I678     1.0000 0.26351  0.73649  0.76349  Biso   1.000  I
  I679     1.0000 0.73649  0.23651  0.73649  Biso   1.000  I
  I680     1.0000 0.26351  0.26351  0.23651  Biso   1.000  I
  I681     1.0000 0.23651  0.26351  0.26351  Biso   1.000  I
  I682     1.0000 0.26351  0.23651  0.26351  Biso   1.000  I
  I683     1.0000 0.73649  0.73649  0.23651  Biso   1.000  I
  I684     1.0000 0.12502  0.12502  0.12502  Biso   1.000  I
  I685     1.0000 0.37501  0.37501  0.12502  Biso   1.000  I
  I686     1.0000 0.62499  0.87498  0.37501  Biso   1.000  I
  I687     1.0000 0.76349  0.73649  0.26351  Biso   1.000  I
  I688     1.0000 0.87498  0.87498  0.12502  Biso   1.000  I
  I689     1.0000 0.62499  0.62499  0.12502  Biso   1.000  I
  I690     1.0000 0.12502  0.12502  0.12502  Biso   1.000  I
  I691     1.0000 0.26351  0.23651  0.26351  Biso   1.000  I
  I692     1.0000 0.12502  0.37501  0.37501  Biso   1.000  I
  I693     1.0000 0.37501  0.37501  0.12502  Biso   1.000  I
  I694     1.0000 0.87498  0.37501  0.62499  Biso   1.000  I
  I695     1.0000 0.62499  0.37501  0.87498  Biso   1.000  I
  I696     1.0000 0.87498  0.87498  0.12502  Biso   1.000  I
  I697     1.0000 0.62499  0.62499  0.12502  Biso   1.000  I
  I698     1.0000 0.12502  0.37501  0.37501  Biso   1.000  I
  I699     1.0000 0.37501  0.37501  0.12502  Biso   1.000  I
  I700     1.0000 0.87498  0.37501  0.62499  Biso   1.000  I
  I701     1.0000 0.76349  0.23651  0.76349  Biso   1.000  I
  I702     1.0000 0.62499  0.37501  0.87498  Biso   1.000  I
  I703     1.0000 0.62499  0.12502  0.62499  Biso   1.000  I
  I704     1.0000 0.37501  0.62499  0.87498  Biso   1.000  I
  I705     1.0000 0.37501  0.87498  0.62499  Biso   1.000  I
  I706     1.0000 0.12502  0.12502  0.12502  Biso   1.000  I
  I707     1.0000 0.23651  0.26351  0.26351  Biso   1.000  I
  I708     1.0000 0.37501  0.12502  0.37501  Biso   1.000  I
  I709     1.0000 0.37501  0.37501  0.12502  Biso   1.000  I
  I710     1.0000 0.37501  0.12502  0.37501  Biso   1.000  I
  I711     1.0000 0.37501  0.37501  0.12502  Biso   1.000  I
  I712     1.0000 0.37501  0.62499  0.87498  Biso   1.000  I
  I713     1.0000 0.23651  0.76349  0.76349  Biso   1.000  I
  I714     1.0000 0.12502  0.62499  0.62499  Biso   1.000  I
  I715     1.0000 0.37501  0.87498  0.62499  Biso   1.000  I
  I716     1.0000 0.87498  0.87498  0.12502  Biso   1.000  I
  I717     1.0000 0.73649  0.76349  0.26351  Biso   1.000  I
  I718     1.0000 0.62499  0.62499  0.12502  Biso   1.000  I
  I719     1.0000 0.87498  0.62499  0.37501  Biso   1.000  I
  I720     1.0000 0.87498  0.37501  0.62499  Biso   1.000  I
  I721     1.0000 0.73649  0.23651  0.73649  Biso   1.000  I
  I722     1.0000 0.62499  0.37501  0.87498  Biso   1.000  I
  I723     1.0000 0.87498  0.12502  0.87498  Biso   1.000  I
  I724     1.0000 0.37501  0.12502  0.37501  Biso   1.000  I
  I725     1.0000 0.23651  0.23651  0.23651  Biso   1.000  I
  I726     1.0000 0.12502  0.37501  0.37501  Biso   1.000  I
  I727     1.0000 0.37501  0.37501  0.12502  Biso   1.000  I
  I728     1.0000 0.37501  0.62499  0.87498  Biso   1.000  I
  I729     1.0000 0.23651  0.73649  0.73649  Biso   1.000  I
  I730     1.0000 0.37501  0.87498  0.62499  Biso   1.000  I
  I731     1.0000 0.12502  0.87498  0.87498  Biso   1.000  I
  I732     1.0000 0.19220  0.19220  0.19220  Biso   1.000  I
  I733     1.0000 0.19220  0.30778  0.30778  Biso   1.000  I
  I734     1.0000 0.19220  0.69222  0.69222  Biso   1.000  I
  I735     1.0000 0.30778  0.80780  0.69222  Biso   1.000  I
  I736     1.0000 0.19220  0.80780  0.80780  Biso   1.000  I
  I737     1.0000 0.80780  0.80780  0.19220  Biso   1.000  I
  I738     1.0000 0.69222  0.69222  0.19220  Biso   1.000  I
  I739     1.0000 0.19220  0.19220  0.19220  Biso   1.000  I
  I740     1.0000 0.19220  0.30778  0.30778  Biso   1.000  I
  I741     1.0000 0.30778  0.30778  0.19220  Biso   1.000  I
  I742     1.0000 0.19220  0.69222  0.69222  Biso   1.000  I
  I743     1.0000 0.19220  0.80780  0.80780  Biso   1.000  I
  I744     1.0000 0.19220  0.19220  0.19220  Biso   1.000  I
  I745     1.0000 0.30778  0.19220  0.30778  Biso   1.000  I
  I746     1.0000 0.80780  0.30778  0.69222  Biso   1.000  I
  I747     1.0000 0.80780  0.19220  0.80780  Biso   1.000  I
  I748     1.0000 0.69222  0.19220  0.69222  Biso   1.000  I
  I749     1.0000 0.80780  0.19220  0.80780  Biso   1.000  I
  I750     1.0000 0.69222  0.19220  0.69222  Biso   1.000  I
  I751     1.0000 0.19220  0.19220  0.19220  Biso   1.000  I
  I752     1.0000 0.30778  0.19220  0.30778  Biso   1.000  I
  I753     1.0000 0.30778  0.30778  0.19220  Biso   1.000  I
  I754     1.0000 0.30778  0.69222  0.80780  Biso   1.000  I
  I755     1.0000 0.19220  0.69222  0.69222  Biso   1.000  I
  I756     1.0000 0.19220  0.80780  0.80780  Biso   1.000  I
  I757     1.0000 0.19220  0.19220  0.19220  Biso   1.000  I
  I758     1.0000 0.30778  0.19220  0.30778  Biso   1.000  I
  I759     1.0000 0.19220  0.30778  0.30778  Biso   1.000  I
  I760     1.0000 0.69222  0.30778  0.80780  Biso   1.000  I
  I761     1.0000 0.80780  0.19220  0.80780  Biso   1.000  I
  I762     1.0000 0.69222  0.19220  0.69222  Biso   1.000  I
  I763     1.0000 0.30778  0.69222  0.80780  Biso   1.000  I
  I764     1.0000 0.30778  0.80780  0.69222  Biso   1.000  I
  I765     1.0000 0.19220  0.19220  0.19220  Biso   1.000  I
  I766     1.0000 0.30778  0.19220  0.30778  Biso   1.000  I
  I767     1.0000 0.30778  0.30778  0.19220  Biso   1.000  I
  I768     1.0000 0.80780  0.19220  0.80780  Biso   1.000  I
  I769     1.0000 0.69222  0.19220  0.69222  Biso   1.000  I
  I770     1.0000 0.19220  0.19220  0.19220  Biso   1.000  I
  I771     1.0000 0.30778  0.19220  0.30778  Biso   1.000  I
  I772     1.0000 0.19220  0.30778  0.30778  Biso   1.000  I
  I773     1.0000 0.69222  0.80780  0.30778  Biso   1.000  I
  I774     1.0000 0.80780  0.69222  0.30778  Biso   1.000  I
  I775     1.0000 0.30778  0.19220  0.30778  Biso   1.000  I
  I776     1.0000 0.19220  0.30778  0.30778  Biso   1.000  I
  I777     1.0000 0.69222  0.80780  0.30778  Biso   1.000  I
  I778     1.0000 0.69222  0.69222  0.19220  Biso   1.000  I
  I779     1.0000 0.80780  0.69222  0.30778  Biso   1.000  I
  I780     1.0000 0.69222  0.80780  0.30778  Biso   1.000  I
  I781     1.0000 0.80780  0.80780  0.19220  Biso   1.000  I
  I782     1.0000 0.80780  0.69222  0.30778  Biso   1.000  I
  I783     1.0000 0.30778  0.19220  0.30778  Biso   1.000  I
  I784     1.0000 0.19220  0.30778  0.30778  Biso   1.000  I
  I785     1.0000 0.30778  0.30778  0.19220  Biso   1.000  I
  I786     1.0000 0.19220  0.19220  0.19220  Biso   1.000  I
  I787     1.0000 0.30778  0.19220  0.30778  Biso   1.000  I
  I788     1.0000 0.19220  0.30778  0.30778  Biso   1.000  I
  I789     1.0000 0.69222  0.80780  0.30778  Biso   1.000  I
  I790     1.0000 0.80780  0.69222  0.30778  Biso   1.000  I
  I791     1.0000 0.19220  0.69222  0.69222  Biso   1.000  I
  I792     1.0000 0.19220  0.80780  0.80780  Biso   1.000  I
  I793     1.0000 0.19220  0.19220  0.19220  Biso   1.000  I
  I794     1.0000 0.19220  0.30778  0.30778  Biso   1.000  I
  I795     1.0000 0.30778  0.30778  0.19220  Biso   1.000  I
  I796     1.0000 0.80780  0.30778  0.69222  Biso   1.000  I
  I797     1.0000 0.69222  0.30778  0.80780  Biso   1.000  I
  I798     1.0000 0.30778  0.19220  0.30778  Biso   1.000  I
  I799     1.0000 0.19220  0.30778  0.30778  Biso   1.000  I
  I800     1.0000 0.30778  0.30778  0.19220  Biso   1.000  I
  I801     1.0000 0.05779  0.05779  0.05779  Biso   1.000  I
  I802     1.0000 0.44219  0.44219  0.05779  Biso   1.000  I
  I803     1.0000 0.55781  0.94221  0.44219  Biso   1.000  I
  I804     1.0000 0.94221  0.94221  0.05779  Biso   1.000  I
  I805     1.0000 0.55781  0.55781  0.05779  Biso   1.000  I
  I806     1.0000 0.05779  0.05779  0.05779  Biso   1.000  I
  I807     1.0000 0.05779  0.44219  0.44219  Biso   1.000  I
  I808     1.0000 0.44219  0.44219  0.05779  Biso   1.000  I
  I809     1.0000 0.94221  0.44219  0.55781  Biso   1.000  I
  I810     1.0000 0.55781  0.44219  0.94221  Biso   1.000  I
  I811     1.0000 0.94221  0.94221  0.05779  Biso   1.000  I
  I812     1.0000 0.55781  0.55781  0.05779  Biso   1.000  I
  I813     1.0000 0.05779  0.44219  0.44219  Biso   1.000  I
  I814     1.0000 0.44219  0.44219  0.05779  Biso   1.000  I
  I815     1.0000 0.94221  0.44219  0.55781  Biso   1.000  I
  I816     1.0000 0.55781  0.44219  0.94221  Biso   1.000  I
  I817     1.0000 0.55781  0.05779  0.55781  Biso   1.000  I
  I818     1.0000 0.44219  0.55781  0.94221  Biso   1.000  I
  I819     1.0000 0.44219  0.94221  0.55781  Biso   1.000  I
  I820     1.0000 0.05779  0.05779  0.05779  Biso   1.000  I
  I821     1.0000 0.44219  0.05779  0.44219  Biso   1.000  I
  I822     1.0000 0.44219  0.44219  0.05779  Biso   1.000  I
  I823     1.0000 0.44219  0.05779  0.44219  Biso   1.000  I
  I824     1.0000 0.44219  0.44219  0.05779  Biso   1.000  I
  I825     1.0000 0.44219  0.55781  0.94221  Biso   1.000  I
  I826     1.0000 0.05779  0.55781  0.55781  Biso   1.000  I
  I827     1.0000 0.44219  0.94221  0.55781  Biso   1.000  I
  I828     1.0000 0.94221  0.94221  0.05779  Biso   1.000  I
  I829     1.0000 0.55781  0.55781  0.05779  Biso   1.000  I
  I830     1.0000 0.94221  0.55781  0.44219  Biso   1.000  I
  I831     1.0000 0.94221  0.44219  0.55781  Biso   1.000  I
  I832     1.0000 0.55781  0.44219  0.94221  Biso   1.000  I
  I833     1.0000 0.94221  0.05779  0.94221  Biso   1.000  I
  I834     1.0000 0.44219  0.05779  0.44219  Biso   1.000  I
  I835     1.0000 0.05779  0.44219  0.44219  Biso   1.000  I
  I836     1.0000 0.44219  0.44219  0.05779  Biso   1.000  I
  I837     1.0000 0.44219  0.55781  0.94221  Biso   1.000  I
  I838     1.0000 0.44219  0.94221  0.55781  Biso   1.000  I
  I839     1.0000 0.05779  0.94221  0.94221  Biso   1.000  I
  I840     1.0000 0.12502  0.12502  0.12502  Biso   1.000  I
  I841     1.0000 0.12502  0.37501  0.37501  Biso   1.000  I
  I842     1.0000 0.12502  0.62499  0.62499  Biso   1.000  I
  I843     1.0000 0.26351  0.73649  0.76349  Biso   1.000  I
  I844     1.0000 0.37501  0.87498  0.62499  Biso   1.000  I
  I845     1.0000 0.12502  0.87498  0.87498  Biso   1.000  I
  I846     1.0000 0.87498  0.87498  0.12502  Biso   1.000  I
  I847     1.0000 0.62499  0.62499  0.12502  Biso   1.000  I
  I848     1.0000 0.12502  0.12502  0.12502  Biso   1.000  I
  I849     1.0000 0.26351  0.23651  0.26351  Biso   1.000  I
  I850     1.0000 0.12502  0.37501  0.37501  Biso   1.000  I
  I851     1.0000 0.37501  0.37501  0.12502  Biso   1.000  I
  I852     1.0000 0.12502  0.62499  0.62499  Biso   1.000  I
  I853     1.0000 0.12502  0.87498  0.87498  Biso   1.000  I
  I854     1.0000 0.12502  0.12502  0.12502  Biso   1.000  I
  I855     1.0000 0.37501  0.12502  0.37501  Biso   1.000  I
  I856     1.0000 0.87498  0.37501  0.62499  Biso   1.000  I
  I857     1.0000 0.73649  0.26351  0.76349  Biso   1.000  I
  I858     1.0000 0.87498  0.12502  0.87498  Biso   1.000  I
  I859     1.0000 0.62499  0.12502  0.62499  Biso   1.000  I
  I860     1.0000 0.87498  0.12502  0.87498  Biso   1.000  I
  I861     1.0000 0.62499  0.12502  0.62499  Biso   1.000  I
  I862     1.0000 0.12502  0.12502  0.12502  Biso   1.000  I
  I863     1.0000 0.23651  0.26351  0.26351  Biso   1.000  I
  I864     1.0000 0.37501  0.12502  0.37501  Biso   1.000  I
  I865     1.0000 0.37501  0.37501  0.12502  Biso   1.000  I
  I866     1.0000 0.37501  0.62499  0.87498  Biso   1.000  I
  I867     1.0000 0.26351  0.76349  0.73649  Biso   1.000  I
  I868     1.0000 0.12502  0.62499  0.62499  Biso   1.000  I
  I869     1.0000 0.12502  0.87498  0.87498  Biso   1.000  I
  I870     1.0000 0.12502  0.12502  0.12502  Biso   1.000  I
  I871     1.0000 0.26351  0.26351  0.23651  Biso   1.000  I
  I872     1.0000 0.37501  0.12502  0.37501  Biso   1.000  I
  I873     1.0000 0.12502  0.37501  0.37501  Biso   1.000  I
  I874     1.0000 0.62499  0.37501  0.87498  Biso   1.000  I
  I875     1.0000 0.76349  0.26351  0.73649  Biso   1.000  I
  I876     1.0000 0.87498  0.12502  0.87498  Biso   1.000  I
  I877     1.0000 0.62499  0.12502  0.62499  Biso   1.000  I
  I878     1.0000 0.37501  0.62499  0.87498  Biso   1.000  I
  I879     1.0000 0.37501  0.87498  0.62499  Biso   1.000  I
  I880     1.0000 0.12502  0.12502  0.12502  Biso   1.000  I
  I881     1.0000 0.23651  0.26351  0.26351  Biso   1.000  I
  I882     1.0000 0.37501  0.12502  0.37501  Biso   1.000  I
  I883     1.0000 0.37501  0.37501  0.12502  Biso   1.000  I
  I884     1.0000 0.87498  0.12502  0.87498  Biso   1.000  I
  I885     1.0000 0.62499  0.12502  0.62499  Biso   1.000  I
  I886     1.0000 0.12502  0.12502  0.12502  Biso   1.000  I
  I887     1.0000 0.26351  0.26351  0.23651  Biso   1.000  I
  I888     1.0000 0.37501  0.12502  0.37501  Biso   1.000  I
  I889     1.0000 0.12502  0.37501  0.37501  Biso   1.000  I
  I890     1.0000 0.62499  0.87498  0.37501  Biso   1.000  I
  I891     1.0000 0.87498  0.62499  0.37501  Biso   1.000  I
  I892     1.0000 0.37501  0.12502  0.37501  Biso   1.000  I
  I893     1.0000 0.12502  0.37501  0.37501  Biso   1.000  I
  I894     1.0000 0.62499  0.87498  0.37501  Biso   1.000  I
  I895     1.0000 0.76349  0.76349  0.23651  Biso   1.000  I
  I896     1.0000 0.62499  0.62499  0.12502  Biso   1.000  I
  I897     1.0000 0.87498  0.62499  0.37501  Biso   1.000  I
  I898     1.0000 0.62499  0.87498  0.37501  Biso   1.000  I
  I899     1.0000 0.73649  0.73649  0.23651  Biso   1.000  I
  I900     1.0000 0.87498  0.87498  0.12502  Biso   1.000  I
  I901     1.0000 0.87498  0.62499  0.37501  Biso   1.000  I
  I902     1.0000 0.37501  0.12502  0.37501  Biso   1.000  I
  I903     1.0000 0.23651  0.23651  0.23651  Biso   1.000  I
  I904     1.0000 0.12502  0.37501  0.37501  Biso   1.000  I
  I905     1.0000 0.37501  0.37501  0.12502  Biso   1.000  I
  I906     1.0000 0.12502  0.12502  0.12502  Biso   1.000  I
  I907     1.0000 0.26351  0.26351  0.23651  Biso   1.000  I
  I908     1.0000 0.37501  0.12502  0.37501  Biso   1.000  I
  I909     1.0000 0.12502  0.37501  0.37501  Biso   1.000  I
  I910     1.0000 0.62499  0.87498  0.37501  Biso   1.000  I
  I911     1.0000 0.87498  0.62499  0.37501  Biso   1.000  I
  I912     1.0000 0.12502  0.62499  0.62499  Biso   1.000  I
  I913     1.0000 0.12502  0.87498  0.87498  Biso   1.000  I
  I914     1.0000 0.12502  0.12502  0.12502  Biso   1.000  I
  I915     1.0000 0.26351  0.23651  0.26351  Biso   1.000  I
  I916     1.0000 0.12502  0.37501  0.37501  Biso   1.000  I
  I917     1.0000 0.37501  0.37501  0.12502  Biso   1.000  I
  I918     1.0000 0.87498  0.37501  0.62499  Biso   1.000  I
  I919     1.0000 0.62499  0.37501  0.87498  Biso   1.000  I
  I920     1.0000 0.37501  0.12502  0.37501  Biso   1.000  I
  I921     1.0000 0.23651  0.23651  0.23651  Biso   1.000  I
  I922     1.0000 0.12502  0.37501  0.37501  Biso   1.000  I
  I923     1.0000 0.37501  0.37501  0.12502  Biso   1.000  I
  I924     1.0000 0.98648  0.98648  0.01352  Biso   1.000  I
  I925     1.0000 0.51350  0.51350  0.01352  Biso   1.000  I
  I926     1.0000 0.48650  0.98648  0.51350  Biso   1.000  I
  I927     1.0000 0.48650  0.01352  0.48650  Biso   1.000  I
  I928     1.0000 0.51350  0.01352  0.51350  Biso   1.000  I
  I929     1.0000 0.01352  0.01352  0.01352  Biso   1.000  I
  I930     1.0000 0.48650  0.48650  0.01352  Biso   1.000  I
  I931     1.0000 0.98648  0.98648  0.01352  Biso   1.000  I
  I932     1.0000 0.98648  0.51350  0.48650  Biso   1.000  I
  I933     1.0000 0.01352  0.51350  0.51350  Biso   1.000  I
  I934     1.0000 0.98648  0.48650  0.51350  Biso   1.000  I
  I935     1.0000 0.51350  0.51350  0.01352  Biso   1.000  I
  I936     1.0000 0.98648  0.51350  0.48650  Biso   1.000  I
  I937     1.0000 0.01352  0.51350  0.51350  Biso   1.000  I
  I938     1.0000 0.01352  0.48650  0.48650  Biso   1.000  I
  I939     1.0000 0.48650  0.51350  0.98648  Biso   1.000  I
  I940     1.0000 0.51350  0.51350  0.01352  Biso   1.000  I
  I941     1.0000 0.48650  0.48650  0.01352  Biso   1.000  I
  I942     1.0000 0.01352  0.01352  0.01352  Biso   1.000  I
  I943     1.0000 0.48650  0.48650  0.01352  Biso   1.000  I
  I944     1.0000 0.98648  0.51350  0.48650  Biso   1.000  I
  I945     1.0000 0.01352  0.51350  0.51350  Biso   1.000  I
  I946     1.0000 0.98648  0.48650  0.51350  Biso   1.000  I
  I947     1.0000 0.51350  0.48650  0.98648  Biso   1.000  I
  I948     1.0000 0.01352  0.48650  0.48650  Biso   1.000  I
  I949     1.0000 0.48650  0.51350  0.98648  Biso   1.000  I
  I950     1.0000 0.51350  0.51350  0.01352  Biso   1.000  I
  I951     1.0000 0.48650  0.48650  0.01352  Biso   1.000  I
  I952     1.0000 0.51350  0.98648  0.48650  Biso   1.000  I
  I953     1.0000 0.51350  0.48650  0.98648  Biso   1.000  I
  I954     1.0000 0.51350  0.51350  0.01352  Biso   1.000  I
  I955     1.0000 0.48650  0.48650  0.01352  Biso   1.000  I
  I956     1.0000 0.51350  0.98648  0.48650  Biso   1.000  I
  I957     1.0000 0.48650  0.01352  0.48650  Biso   1.000  I
  I958     1.0000 0.51350  0.01352  0.51350  Biso   1.000  I
  I959     1.0000 0.98648  0.98648  0.01352  Biso   1.000  I
  I960     1.0000 0.51350  0.98648  0.48650  Biso   1.000  I
  I961     1.0000 0.51350  0.01352  0.51350  Biso   1.000  I
  I962     1.0000 0.48650  0.98648  0.51350  Biso   1.000  I
  I963     1.0000 0.51350  0.51350  0.01352  Biso   1.000  I
  I964     1.0000 0.48650  0.98648  0.51350  Biso   1.000  I
  I965     1.0000 0.51350  0.98648  0.48650  Biso   1.000  I
  I966     1.0000 0.51350  0.01352  0.51350  Biso   1.000  I
  I967     1.0000 0.48650  0.51350  0.98648  Biso   1.000  I
  I968     1.0000 0.51350  0.48650  0.98648  Biso   1.000  I
  I969     1.0000 0.51350  0.51350  0.01352  Biso   1.000  I
  I970     1.0000 0.48650  0.48650  0.01352  Biso   1.000  I
  I971     1.0000 0.98648  0.51350  0.48650  Biso   1.000  I
  I972     1.0000 0.01352  0.48650  0.48650  Biso   1.000  I
  I973     1.0000 0.98648  0.48650  0.51350  Biso   1.000  I
  I974     1.0000 0.48650  0.01352  0.48650  Biso   1.000  I
  I975     1.0000 0.01352  0.01352  0.01352  Biso   1.000  I
  I976     1.0000 0.48650  0.48650  0.01352  Biso   1.000  I
  I977     1.0000 0.01352  0.51350  0.51350  Biso   1.000  I
  I978     1.0000 0.98648  0.51350  0.48650  Biso   1.000  I
  I979     1.0000 0.01352  0.51350  0.51350  Biso   1.000  I
  I980     1.0000 0.01352  0.48650  0.48650  Biso   1.000  I
  I981     1.0000 0.48650  0.51350  0.98648  Biso   1.000  I
  I982     1.0000 0.51350  0.51350  0.01352  Biso   1.000  I
  I983     1.0000 0.48650  0.48650  0.01352  Biso   1.000  I
  I984     1.0000 0.98648  0.98648  0.01352  Biso   1.000  I
  I985     1.0000 0.01352  0.01352  0.01352  Biso   1.000  I
  I986     1.0000 0.01352  0.98648  0.98648  Biso   1.000  I
  I987     1.0000 0.51350  0.98648  0.48650  Biso   1.000  I
  I988     1.0000 0.51350  0.01352  0.51350  Biso   1.000  I
  I989     1.0000 0.48650  0.98648  0.51350  Biso   1.000  I
  I990     1.0000 0.98648  0.48650  0.51350  Biso   1.000  I
  I991     1.0000 0.51350  0.48650  0.98648  Biso   1.000  I
  I992     1.0000 0.48650  0.51350  0.98648  Biso   1.000  I
  I993     1.0000 0.51350  0.51350  0.01352  Biso   1.000  I
  I994     1.0000 0.51350  0.48650  0.98648  Biso   1.000  I
  I995     1.0000 0.51350  0.51350  0.01352  Biso   1.000  I
  I996     1.0000 0.48650  0.48650  0.01352  Biso   1.000  I
  I997     1.0000 0.48650  0.01352  0.48650  Biso   1.000  I
  I998     1.0000 0.98648  0.01352  0.98648  Biso   1.000  I
  I999     1.0000 0.05779  0.05779  0.05779  Biso   1.000  I
  I1000    1.0000 0.05779  0.44219  0.44219  Biso   1.000  I
  I1001    1.0000 0.05779  0.55781  0.55781  Biso   1.000  I
  I1002    1.0000 0.44219  0.94221  0.55781  Biso   1.000  I
  I1003    1.0000 0.05779  0.94221  0.94221  Biso   1.000  I
  I1004    1.0000 0.94221  0.94221  0.05779  Biso   1.000  I
  I1005    1.0000 0.55781  0.55781  0.05779  Biso   1.000  I
  I1006    1.0000 0.05779  0.05779  0.05779  Biso   1.000  I
  I1007    1.0000 0.05779  0.44219  0.44219  Biso   1.000  I
  I1008    1.0000 0.44219  0.44219  0.05779  Biso   1.000  I
  I1009    1.0000 0.05779  0.55781  0.55781  Biso   1.000  I
  I1010    1.0000 0.05779  0.94221  0.94221  Biso   1.000  I
  I1011    1.0000 0.05779  0.05779  0.05779  Biso   1.000  I
  I1012    1.0000 0.44219  0.05779  0.44219  Biso   1.000  I
  I1013    1.0000 0.94221  0.44219  0.55781  Biso   1.000  I
  I1014    1.0000 0.94221  0.05779  0.94221  Biso   1.000  I
  I1015    1.0000 0.55781  0.05779  0.55781  Biso   1.000  I
  I1016    1.0000 0.94221  0.05779  0.94221  Biso   1.000  I
  I1017    1.0000 0.55781  0.05779  0.55781  Biso   1.000  I
  I1018    1.0000 0.05779  0.05779  0.05779  Biso   1.000  I
  I1019    1.0000 0.44219  0.05779  0.44219  Biso   1.000  I
  I1020    1.0000 0.44219  0.44219  0.05779  Biso   1.000  I
  I1021    1.0000 0.44219  0.55781  0.94221  Biso   1.000  I
  I1022    1.0000 0.05779  0.55781  0.55781  Biso   1.000  I
  I1023    1.0000 0.05779  0.94221  0.94221  Biso   1.000  I
  I1024    1.0000 0.05779  0.05779  0.05779  Biso   1.000  I
  I1025    1.0000 0.44219  0.05779  0.44219  Biso   1.000  I
  I1026    1.0000 0.05779  0.44219  0.44219  Biso   1.000  I
  I1027    1.0000 0.55781  0.44219  0.94221  Biso   1.000  I
  I1028    1.0000 0.94221  0.05779  0.94221  Biso   1.000  I
  I1029    1.0000 0.55781  0.05779  0.55781  Biso   1.000  I
  I1030    1.0000 0.44219  0.55781  0.94221  Biso   1.000  I
  I1031    1.0000 0.44219  0.94221  0.55781  Biso   1.000  I
  I1032    1.0000 0.05779  0.05779  0.05779  Biso   1.000  I
  I1033    1.0000 0.44219  0.05779  0.44219  Biso   1.000  I
  I1034    1.0000 0.44219  0.44219  0.05779  Biso   1.000  I
  I1035    1.0000 0.94221  0.05779  0.94221  Biso   1.000  I
  I1036    1.0000 0.55781  0.05779  0.55781  Biso   1.000  I
  I1037    1.0000 0.05779  0.05779  0.05779  Biso   1.000  I
  I1038    1.0000 0.44219  0.05779  0.44219  Biso   1.000  I
  I1039    1.0000 0.05779  0.44219  0.44219  Biso   1.000  I
  I1040    1.0000 0.55781  0.94221  0.44219  Biso   1.000  I
  I1041    1.0000 0.94221  0.55781  0.44219  Biso   1.000  I
  I1042    1.0000 0.44219  0.05779  0.44219  Biso   1.000  I
  I1043    1.0000 0.05779  0.44219  0.44219  Biso   1.000  I
  I1044    1.0000 0.55781  0.94221  0.44219  Biso   1.000  I
  I1045    1.0000 0.55781  0.55781  0.05779  Biso   1.000  I
  I1046    1.0000 0.94221  0.55781  0.44219  Biso   1.000  I
  I1047    1.0000 0.55781  0.94221  0.44219  Biso   1.000  I
  I1048    1.0000 0.94221  0.94221  0.05779  Biso   1.000  I
  I1049    1.0000 0.94221  0.55781  0.44219  Biso   1.000  I
  I1050    1.0000 0.44219  0.05779  0.44219  Biso   1.000  I
  I1051    1.0000 0.05779  0.44219  0.44219  Biso   1.000  I
  I1052    1.0000 0.44219  0.44219  0.05779  Biso   1.000  I
  I1053    1.0000 0.05779  0.05779  0.05779  Biso   1.000  I
  I1054    1.0000 0.44219  0.05779  0.44219  Biso   1.000  I
  I1055    1.0000 0.05779  0.44219  0.44219  Biso   1.000  I
  I1056    1.0000 0.55781  0.94221  0.44219  Biso   1.000  I
  I1057    1.0000 0.94221  0.55781  0.44219  Biso   1.000  I
  I1058    1.0000 0.05779  0.55781  0.55781  Biso   1.000  I
  I1059    1.0000 0.05779  0.94221  0.94221  Biso   1.000  I
  I1060    1.0000 0.05779  0.05779  0.05779  Biso   1.000  I
  I1061    1.0000 0.05779  0.44219  0.44219  Biso   1.000  I
  I1062    1.0000 0.44219  0.44219  0.05779  Biso   1.000  I
  I1063    1.0000 0.94221  0.44219  0.55781  Biso   1.000  I
  I1064    1.0000 0.55781  0.44219  0.94221  Biso   1.000  I
  I1065    1.0000 0.44219  0.05779  0.44219  Biso   1.000  I
  I1066    1.0000 0.05779  0.44219  0.44219  Biso   1.000  I
  I1067    1.0000 0.44219  0.44219  0.05779  Biso   1.000  I
  I1068    1.0000 0.44219  0.05779  0.44219  Biso   1.000  I
  I1069    1.0000 0.05779  0.55781  0.55781  Biso   1.000  I
  I1070    1.0000 0.94221  0.55781  0.44219  Biso   1.000  I
  I1071    1.0000 0.05779  0.55781  0.55781  Biso   1.000  I
  I1072    1.0000 0.05779  0.44219  0.44219  Biso   1.000  I
  I1073    1.0000 0.94221  0.55781  0.44219  Biso   1.000  I
  I1074    1.0000 0.55781  0.55781  0.05779  Biso   1.000  I
  I1075    1.0000 0.44219  0.55781  0.94221  Biso   1.000  I
  I1076    1.0000 0.05779  0.55781  0.55781  Biso   1.000  I
  I1077    1.0000 0.94221  0.55781  0.44219  Biso   1.000  I
  I1078    1.0000 0.55781  0.55781  0.05779  Biso   1.000  I
  I1079    1.0000 0.44219  0.55781  0.94221  Biso   1.000  I
  I1080    1.0000 0.55781  0.55781  0.05779  Biso   1.000  I
  I1081    1.0000 0.55781  0.44219  0.94221  Biso   1.000  I
  I1082    1.0000 0.44219  0.05779  0.44219  Biso   1.000  I
  I1083    1.0000 0.55781  0.05779  0.55781  Biso   1.000  I
  I1084    1.0000 0.55781  0.94221  0.44219  Biso   1.000  I
  I1085    1.0000 0.55781  0.05779  0.55781  Biso   1.000  I
  I1086    1.0000 0.55781  0.94221  0.44219  Biso   1.000  I
  I1087    1.0000 0.55781  0.94221  0.44219  Biso   1.000  I
  I1088    1.0000 0.55781  0.05779  0.55781  Biso   1.000  I
  I1089    1.0000 0.55781  0.55781  0.05779  Biso   1.000  I
  I1090    1.0000 0.55781  0.44219  0.94221  Biso   1.000  I
  I1091    1.0000 0.05779  0.44219  0.44219  Biso   1.000  I
  I1092    1.0000 0.05779  0.55781  0.55781  Biso   1.000  I
  I1093    1.0000 0.94221  0.55781  0.44219  Biso   1.000  I
  I1094    1.0000 0.55781  0.55781  0.05779  Biso   1.000  I
  I1095    1.0000 0.44219  0.55781  0.94221  Biso   1.000  I
  I1096    1.0000 0.05779  0.05779  0.05779  Biso   1.000  I
  I1097    1.0000 0.55781  0.05779  0.55781  Biso   1.000  I
  I1098    1.0000 0.55781  0.94221  0.44219  Biso   1.000  I
  I1099    1.0000 0.44219  0.55781  0.94221  Biso   1.000  I
  I1100    1.0000 0.55781  0.55781  0.05779  Biso   1.000  I
  I1101    1.0000 0.55781  0.44219  0.94221  Biso   1.000  I
  I1102    1.0000 0.55781  0.55781  0.05779  Biso   1.000  I
  I1103    1.0000 0.55781  0.44219  0.94221  Biso   1.000  I
  I1104    1.0000 0.01352  0.98648  0.98648  Biso   1.000  I
  I1105    1.0000 0.01352  0.51350  0.51350  Biso   1.000  I
  I1106    1.0000 0.01352  0.48650  0.48650  Biso   1.000  I
  I1107    1.0000 0.01352  0.01352  0.01352  Biso   1.000  I
  I1108    1.0000 0.01352  0.01352  0.01352  Biso   1.000  I
  I1109    1.0000 0.48650  0.48650  0.01352  Biso   1.000  I
  I1110    1.0000 0.01352  0.51350  0.51350  Biso   1.000  I
  I1111    1.0000 0.51350  0.51350  0.01352  Biso   1.000  I
  I1112    1.0000 0.01352  0.48650  0.48650  Biso   1.000  I
  I1113    1.0000 0.01352  0.01352  0.01352  Biso   1.000  I
  I1114    1.0000 0.98648  0.01352  0.98648  Biso   1.000  I
  I1115    1.0000 0.51350  0.01352  0.51350  Biso   1.000  I
  I1116    1.0000 0.01352  0.01352  0.01352  Biso   1.000  I
  I1117    1.0000 0.48650  0.01352  0.48650  Biso   1.000  I
  I1118    1.0000 0.01352  0.01352  0.01352  Biso   1.000  I
  I1119    1.0000 0.48650  0.01352  0.48650  Biso   1.000  I
  I1120    1.0000 0.51350  0.01352  0.51350  Biso   1.000  I
  I1121    1.0000 0.51350  0.51350  0.01352  Biso   1.000  I
  I1122    1.0000 0.51350  0.48650  0.98648  Biso   1.000  I
  I1123    1.0000 0.51350  0.51350  0.01352  Biso   1.000  I
  I1124    1.0000 0.48650  0.48650  0.01352  Biso   1.000  I
  I1125    1.0000 0.01352  0.48650  0.48650  Biso   1.000  I
  I1126    1.0000 0.01352  0.01352  0.01352  Biso   1.000  I
  I1127    1.0000 0.51350  0.01352  0.51350  Biso   1.000  I
  I1128    1.0000 0.01352  0.51350  0.51350  Biso   1.000  I
  I1129    1.0000 0.48650  0.51350  0.98648  Biso   1.000  I
  I1130    1.0000 0.01352  0.01352  0.01352  Biso   1.000  I
  I1131    1.0000 0.48650  0.01352  0.48650  Biso   1.000  I
  I1132    1.0000 0.51350  0.48650  0.98648  Biso   1.000  I
  I1133    1.0000 0.51350  0.51350  0.01352  Biso   1.000  I
  I1134    1.0000 0.48650  0.48650  0.01352  Biso   1.000  I
  I1135    1.0000 0.48650  0.01352  0.48650  Biso   1.000  I
  I1136    1.0000 0.98648  0.01352  0.98648  Biso   1.000  I
  I1137    1.0000 0.51350  0.01352  0.51350  Biso   1.000  I
  I1138    1.0000 0.48650  0.51350  0.98648  Biso   1.000  I
  I1139    1.0000 0.01352  0.01352  0.01352  Biso   1.000  I
  I1140    1.0000 0.48650  0.01352  0.48650  Biso   1.000  I
  I1141    1.0000 0.98648  0.01352  0.98648  Biso   1.000  I
  I1142    1.0000 0.51350  0.01352  0.51350  Biso   1.000  I
  I1143    1.0000 0.98648  0.51350  0.48650  Biso   1.000  I
  I1144    1.0000 0.98648  0.48650  0.51350  Biso   1.000  I
  I1145    1.0000 0.01352  0.51350  0.51350  Biso   1.000  I
  I1146    1.0000 0.48650  0.98648  0.51350  Biso   1.000  I
  I1147    1.0000 0.48650  0.01352  0.48650  Biso   1.000  I
  I1148    1.0000 0.51350  0.01352  0.51350  Biso   1.000  I
  I1149    1.0000 0.98648  0.48650  0.51350  Biso   1.000  I
  I1150    1.0000 0.01352  0.51350  0.51350  Biso   1.000  I
  I1151    1.0000 0.01352  0.48650  0.48650  Biso   1.000  I
  I1152    1.0000 0.51350  0.98648  0.48650  Biso   1.000  I
  I1153    1.0000 0.98648  0.51350  0.48650  Biso   1.000  I
  I1154    1.0000 0.98648  0.48650  0.51350  Biso   1.000  I
  I1155    1.0000 0.01352  0.51350  0.51350  Biso   1.000  I
  I1156    1.0000 0.48650  0.98648  0.51350  Biso   1.000  I
  I1157    1.0000 0.48650  0.01352  0.48650  Biso   1.000  I
  I1158    1.0000 0.51350  0.01352  0.51350  Biso   1.000  I
  I1159    1.0000 0.01352  0.48650  0.48650  Biso   1.000  I
  I1160    1.0000 0.48650  0.98648  0.51350  Biso   1.000  I
  I1161    1.0000 0.48650  0.01352  0.48650  Biso   1.000  I
  I1162    1.0000 0.51350  0.01352  0.51350  Biso   1.000  I
  I1163    1.0000 0.98648  0.48650  0.51350  Biso   1.000  I
  I1164    1.0000 0.01352  0.51350  0.51350  Biso   1.000  I
  I1165    1.0000 0.01352  0.48650  0.48650  Biso   1.000  I
  I1166    1.0000 0.48650  0.98648  0.51350  Biso   1.000  I
  I1167    1.0000 0.51350  0.98648  0.48650  Biso   1.000  I
  I1168    1.0000 0.51350  0.01352  0.51350  Biso   1.000  I
  I1169    1.0000 0.98648  0.51350  0.48650  Biso   1.000  I
  I1170    1.0000 0.48650  0.51350  0.98648  Biso   1.000  I
  I1171    1.0000 0.01352  0.98648  0.98648  Biso   1.000  I
  I1172    1.0000 0.51350  0.98648  0.48650  Biso   1.000  I
  I1173    1.0000 0.01352  0.51350  0.51350  Biso   1.000  I
  I1174    1.0000 0.48650  0.98648  0.51350  Biso   1.000  I
  I1175    1.0000 0.48650  0.01352  0.48650  Biso   1.000  I
  I1176    1.0000 0.51350  0.01352  0.51350  Biso   1.000  I
  I1177    1.0000 0.01352  0.48650  0.48650  Biso   1.000  I
  I1178    1.0000 0.01352  0.48650  0.48650  Biso   1.000  I
  I1179    1.0000 0.01352  0.01352  0.01352  Biso   1.000  I
  I1180    1.0000 0.01352  0.98648  0.98648  Biso   1.000  I
  I1181    1.0000 0.01352  0.51350  0.51350  Biso   1.000  I
  I1182    1.0000 0.51350  0.48650  0.98648  Biso   1.000  I
  I1183    1.0000 0.01352  0.48650  0.48650  Biso   1.000  I
  I1184    1.0000 0.48650  0.51350  0.98648  Biso   1.000  I
  I1185    1.0000 0.51350  0.51350  0.01352  Biso   1.000  I
  I1186    1.0000 0.48650  0.48650  0.01352  Biso   1.000  I
  I1187    1.0000 0.51350  0.98648  0.48650  Biso   1.000  I
  I1188    1.0000 0.98648  0.51350  0.48650  Biso   1.000  I
  I1189    1.0000 0.98648  0.48650  0.51350  Biso   1.000  I
  I1190    1.0000 0.01352  0.51350  0.51350  Biso   1.000  I
  I1191    1.0000 0.51350  0.48650  0.98648  Biso   1.000  I
  I1192    1.0000 0.37501  0.12502  0.37501  Biso   1.000  I
  I1193    1.0000 0.12502  0.62499  0.62499  Biso   1.000  I
  I1194    1.0000 0.87498  0.62499  0.37501  Biso   1.000  I
  I1195    1.0000 0.98648  0.48650  0.51350  Biso   1.000  I
  I1196    1.0000 0.12502  0.62499  0.62499  Biso   1.000  I
  I1197    1.0000 0.12502  0.37501  0.37501  Biso   1.000  I
  I1198    1.0000 0.87498  0.62499  0.37501  Biso   1.000  I
  I1199    1.0000 0.62499  0.62499  0.12502  Biso   1.000  I
  I1200    1.0000 0.37501  0.62499  0.87498  Biso   1.000  I
  I1201    1.0000 0.12502  0.62499  0.62499  Biso   1.000  I
  I1202    1.0000 0.87498  0.62499  0.37501  Biso   1.000  I
  I1203    1.0000 0.62499  0.62499  0.12502  Biso   1.000  I
  I1204    1.0000 0.37501  0.62499  0.87498  Biso   1.000  I
  I1205    1.0000 0.62499  0.62499  0.12502  Biso   1.000  I
  I1206    1.0000 0.62499  0.37501  0.87498  Biso   1.000  I
  I1207    1.0000 0.48650  0.98648  0.51350  Biso   1.000  I
  I1208    1.0000 0.37501  0.12502  0.37501  Biso   1.000  I
  I1209    1.0000 0.62499  0.12502  0.62499  Biso   1.000  I
  I1210    1.0000 0.62499  0.87498  0.37501  Biso   1.000  I
  I1211    1.0000 0.62499  0.12502  0.62499  Biso   1.000  I
  I1212    1.0000 0.62499  0.87498  0.37501  Biso   1.000  I
  I1213    1.0000 0.62499  0.87498  0.37501  Biso   1.000  I
  I1214    1.0000 0.62499  0.12502  0.62499  Biso   1.000  I
  I1215    1.0000 0.62499  0.62499  0.12502  Biso   1.000  I
  I1216    1.0000 0.62499  0.37501  0.87498  Biso   1.000  I
  I1217    1.0000 0.12502  0.37501  0.37501  Biso   1.000  I
  I1218    1.0000 0.12502  0.62499  0.62499  Biso   1.000  I
  I1219    1.0000 0.87498  0.62499  0.37501  Biso   1.000  I
  I1220    1.0000 0.62499  0.62499  0.12502  Biso   1.000  I
  I1221    1.0000 0.37501  0.62499  0.87498  Biso   1.000  I
  I1222    1.0000 0.12502  0.12502  0.12502  Biso   1.000  I
  I1223    1.0000 0.62499  0.12502  0.62499  Biso   1.000  I
  I1224    1.0000 0.62499  0.87498  0.37501  Biso   1.000  I
  I1225    1.0000 0.37501  0.62499  0.87498  Biso   1.000  I
  I1226    1.0000 0.48650  0.48650  0.01352  Biso   1.000  I
  I1227    1.0000 0.62499  0.62499  0.12502  Biso   1.000  I
  I1228    1.0000 0.62499  0.37501  0.87498  Biso   1.000  I
  I1229    1.0000 0.62499  0.62499  0.12502  Biso   1.000  I
  I1230    1.0000 0.62499  0.37501  0.87498  Biso   1.000  I
  I1231    1.0000 0.44219  0.44219  0.05779  Biso   1.000  I
  I1232    1.0000 0.44219  0.44219  0.05779  Biso   1.000  I
  I1233    1.0000 0.55781  0.55781  0.05779  Biso   1.000  I
  I1234    1.0000 0.55781  0.44219  0.94221  Biso   1.000  I
  I1235    1.0000 0.94221  0.44219  0.55781  Biso   1.000  I
  I1236    1.0000 0.05779  0.55781  0.55781  Biso   1.000  I
  I1237    1.0000 0.55781  0.05779  0.55781  Biso   1.000  I
  I1238    1.0000 0.44219  0.94221  0.55781  Biso   1.000  I
  I1239    1.0000 0.05779  0.55781  0.55781  Biso   1.000  I
  I1240    1.0000 0.05779  0.44219  0.44219  Biso   1.000  I
  I1241    1.0000 0.94221  0.44219  0.55781  Biso   1.000  I
  I1242    1.0000 0.94221  0.44219  0.55781  Biso   1.000  I
  I1243    1.0000 0.05779  0.55781  0.55781  Biso   1.000  I
  I1244    1.0000 0.55781  0.05779  0.55781  Biso   1.000  I
  I1245    1.0000 0.44219  0.94221  0.55781  Biso   1.000  I
  I1246    1.0000 0.55781  0.05779  0.55781  Biso   1.000  I
  I1247    1.0000 0.44219  0.94221  0.55781  Biso   1.000  I
  I1248    1.0000 0.05779  0.55781  0.55781  Biso   1.000  I
  I1249    1.0000 0.94221  0.44219  0.55781  Biso   1.000  I
  I1250    1.0000 0.55781  0.94221  0.44219  Biso   1.000  I
  I1251    1.0000 0.55781  0.05779  0.55781  Biso   1.000  I
  I1252    1.0000 0.44219  0.94221  0.55781  Biso   1.000  I
  I1253    1.0000 0.44219  0.05779  0.44219  Biso   1.000  I
  I1254    1.0000 0.55781  0.05779  0.55781  Biso   1.000  I
  I1255    1.0000 0.44219  0.94221  0.55781  Biso   1.000  I
  I1256    1.0000 0.44219  0.44219  0.05779  Biso   1.000  I
  I1257    1.0000 0.55781  0.55781  0.05779  Biso   1.000  I
  I1258    1.0000 0.44219  0.55781  0.94221  Biso   1.000  I
  I1259    1.0000 0.94221  0.44219  0.55781  Biso   1.000  I
  I1260    1.0000 0.05779  0.55781  0.55781  Biso   1.000  I
  I1261    1.0000 0.94221  0.55781  0.44219  Biso   1.000  I
  I1262    1.0000 0.30778  0.19220  0.30778  Biso   1.000  I
  I1263    1.0000 0.19220  0.69222  0.69222  Biso   1.000  I
  I1264    1.0000 0.80780  0.69222  0.30778  Biso   1.000  I
  I1265    1.0000 0.19220  0.69222  0.69222  Biso   1.000  I
  I1266    1.0000 0.19220  0.30778  0.30778  Biso   1.000  I
  I1267    1.0000 0.80780  0.69222  0.30778  Biso   1.000  I
  I1268    1.0000 0.69222  0.69222  0.19220  Biso   1.000  I
  I1269    1.0000 0.30778  0.69222  0.80780  Biso   1.000  I
  I1270    1.0000 0.19220  0.69222  0.69222  Biso   1.000  I
  I1271    1.0000 0.80780  0.69222  0.30778  Biso   1.000  I
  I1272    1.0000 0.69222  0.69222  0.19220  Biso   1.000  I
  I1273    1.0000 0.30778  0.69222  0.80780  Biso   1.000  I
  I1274    1.0000 0.69222  0.69222  0.19220  Biso   1.000  I
  I1275    1.0000 0.69222  0.30778  0.80780  Biso   1.000  I
  I1276    1.0000 0.30778  0.19220  0.30778  Biso   1.000  I
  I1277    1.0000 0.69222  0.19220  0.69222  Biso   1.000  I
  I1278    1.0000 0.69222  0.80780  0.30778  Biso   1.000  I
  I1279    1.0000 0.69222  0.19220  0.69222  Biso   1.000  I
  I1280    1.0000 0.69222  0.80780  0.30778  Biso   1.000  I
  I1281    1.0000 0.69222  0.80780  0.30778  Biso   1.000  I
  I1282    1.0000 0.69222  0.19220  0.69222  Biso   1.000  I
  I1283    1.0000 0.69222  0.69222  0.19220  Biso   1.000  I
  I1284    1.0000 0.69222  0.30778  0.80780  Biso   1.000  I
  I1285    1.0000 0.19220  0.30778  0.30778  Biso   1.000  I
  I1286    1.0000 0.19220  0.69222  0.69222  Biso   1.000  I
  I1287    1.0000 0.80780  0.69222  0.30778  Biso   1.000  I
  I1288    1.0000 0.69222  0.69222  0.19220  Biso   1.000  I
  I1289    1.0000 0.30778  0.69222  0.80780  Biso   1.000  I
  I1290    1.0000 0.19220  0.19220  0.19220  Biso   1.000  I
  I1291    1.0000 0.69222  0.19220  0.69222  Biso   1.000  I
  I1292    1.0000 0.69222  0.80780  0.30778  Biso   1.000  I
  I1293    1.0000 0.30778  0.69222  0.80780  Biso   1.000  I
  I1294    1.0000 0.69222  0.69222  0.19220  Biso   1.000  I
  I1295    1.0000 0.69222  0.30778  0.80780  Biso   1.000  I
  I1296    1.0000 0.69222  0.69222  0.19220  Biso   1.000  I
  I1297    1.0000 0.69222  0.30778  0.80780  Biso   1.000  I
  I1298    1.0000 0.37501  0.37501  0.12502  Biso   1.000  I
  I1299    1.0000 0.48650  0.51350  0.98648  Biso   1.000  I
  I1300    1.0000 0.37501  0.37501  0.12502  Biso   1.000  I
  I1301    1.0000 0.62499  0.62499  0.12502  Biso   1.000  I
  I1302    1.0000 0.62499  0.37501  0.87498  Biso   1.000  I
  I1303    1.0000 0.87498  0.37501  0.62499  Biso   1.000  I
  I1304    1.0000 0.12502  0.62499  0.62499  Biso   1.000  I
  I1305    1.0000 0.62499  0.12502  0.62499  Biso   1.000  I
  I1306    1.0000 0.37501  0.87498  0.62499  Biso   1.000  I
  I1307    1.0000 0.98648  0.51350  0.48650  Biso   1.000  I
  I1308    1.0000 0.12502  0.62499  0.62499  Biso   1.000  I
  I1309    1.0000 0.12502  0.37501  0.37501  Biso   1.000  I
  I1310    1.0000 0.87498  0.37501  0.62499  Biso   1.000  I
  I1311    1.0000 0.87498  0.37501  0.62499  Biso   1.000  I
  I1312    1.0000 0.12502  0.62499  0.62499  Biso   1.000  I
  I1313    1.0000 0.62499  0.12502  0.62499  Biso   1.000  I
  I1314    1.0000 0.37501  0.87498  0.62499  Biso   1.000  I
  I1315    1.0000 0.62499  0.12502  0.62499  Biso   1.000  I
  I1316    1.0000 0.37501  0.87498  0.62499  Biso   1.000  I
  I1317    1.0000 0.12502  0.62499  0.62499  Biso   1.000  I
  I1318    1.0000 0.87498  0.37501  0.62499  Biso   1.000  I
  I1319    1.0000 0.62499  0.87498  0.37501  Biso   1.000  I
  I1320    1.0000 0.48650  0.01352  0.48650  Biso   1.000  I
  I1321    1.0000 0.62499  0.12502  0.62499  Biso   1.000  I
  I1322    1.0000 0.37501  0.87498  0.62499  Biso   1.000  I
  I1323    1.0000 0.51350  0.98648  0.48650  Biso   1.000  I
  I1324    1.0000 0.37501  0.12502  0.37501  Biso   1.000  I
  I1325    1.0000 0.62499  0.12502  0.62499  Biso   1.000  I
  I1326    1.0000 0.37501  0.87498  0.62499  Biso   1.000  I
  I1327    1.0000 0.51350  0.48650  0.98648  Biso   1.000  I
  I1328    1.0000 0.37501  0.37501  0.12502  Biso   1.000  I
  I1329    1.0000 0.62499  0.62499  0.12502  Biso   1.000  I
  I1330    1.0000 0.37501  0.62499  0.87498  Biso   1.000  I
  I1331    1.0000 0.87498  0.37501  0.62499  Biso   1.000  I
  I1332    1.0000 0.01352  0.48650  0.48650  Biso   1.000  I
  I1333    1.0000 0.12502  0.62499  0.62499  Biso   1.000  I
  I1334    1.0000 0.87498  0.62499  0.37501  Biso   1.000  I
  I1335    1.0000 0.26351  0.26351  0.23651  Biso   1.000  I
  I1336    1.0000 0.23651  0.26351  0.26351  Biso   1.000  I
  I1337    1.0000 0.23651  0.23651  0.23651  Biso   1.000  I
  I1338    1.0000 0.23651  0.76349  0.76349  Biso   1.000  I
  I1339    1.0000 0.26351  0.76349  0.73649  Biso   1.000  I
  I1340    1.0000 0.26351  0.73649  0.76349  Biso   1.000  I
  I1341    1.0000 0.73649  0.73649  0.23651  Biso   1.000  I
  I1342    1.0000 0.76349  0.76349  0.23651  Biso   1.000  I
  I1343    1.0000 0.73649  0.76349  0.26351  Biso   1.000  I
  I1344    1.0000 0.23651  0.76349  0.76349  Biso   1.000  I
  I1345    1.0000 0.26351  0.76349  0.73649  Biso   1.000  I
  I1346    1.0000 0.26351  0.73649  0.76349  Biso   1.000  I
  I1347    1.0000 0.26351  0.26351  0.23651  Biso   1.000  I
  I1348    1.0000 0.26351  0.23651  0.26351  Biso   1.000  I
  I1349    1.0000 0.23651  0.23651  0.23651  Biso   1.000  I
  I1350    1.0000 0.73649  0.73649  0.23651  Biso   1.000  I
  I1351    1.0000 0.76349  0.76349  0.23651  Biso   1.000  I
  I1352    1.0000 0.73649  0.76349  0.26351  Biso   1.000  I
  I1353    1.0000 0.76349  0.73649  0.26351  Biso   1.000  I
  I1354    1.0000 0.76349  0.76349  0.23651  Biso   1.000  I
  I1355    1.0000 0.73649  0.76349  0.26351  Biso   1.000  I
  I1356    1.0000 0.23651  0.73649  0.73649  Biso   1.000  I
  I1357    1.0000 0.23651  0.76349  0.76349  Biso   1.000  I
  I1358    1.0000 0.26351  0.76349  0.73649  Biso   1.000  I
  I1359    1.0000 0.26351  0.73649  0.76349  Biso   1.000  I
  I1360    1.0000 0.76349  0.76349  0.23651  Biso   1.000  I
  I1361    1.0000 0.73649  0.76349  0.26351  Biso   1.000  I
  I1362    1.0000 0.73649  0.73649  0.23651  Biso   1.000  I
  I1363    1.0000 0.76349  0.73649  0.26351  Biso   1.000  I
  I1364    1.0000 0.23651  0.76349  0.76349  Biso   1.000  I
  I1365    1.0000 0.26351  0.76349  0.73649  Biso   1.000  I
  I1366    1.0000 0.23651  0.73649  0.73649  Biso   1.000  I
  I1367    1.0000 0.76349  0.73649  0.26351  Biso   1.000  I
  I1368    1.0000 0.76349  0.76349  0.23651  Biso   1.000  I
  I1369    1.0000 0.73649  0.76349  0.26351  Biso   1.000  I
  I1370    1.0000 0.76349  0.23651  0.76349  Biso   1.000  I
  I1371    1.0000 0.76349  0.26351  0.73649  Biso   1.000  I
  I1372    1.0000 0.73649  0.23651  0.73649  Biso   1.000  I
  I1373    1.0000 0.23651  0.26351  0.26351  Biso   1.000  I
  I1374    1.0000 0.76349  0.23651  0.76349  Biso   1.000  I
  I1375    1.0000 0.73649  0.26351  0.76349  Biso   1.000  I
  I1376    1.0000 0.76349  0.26351  0.73649  Biso   1.000  I
  I1377    1.0000 0.76349  0.73649  0.26351  Biso   1.000  I
  I1378    1.0000 0.73649  0.73649  0.23651  Biso   1.000  I
  I1379    1.0000 0.76349  0.76349  0.23651  Biso   1.000  I
  I1380    1.0000 0.73649  0.26351  0.76349  Biso   1.000  I
  I1381    1.0000 0.76349  0.73649  0.26351  Biso   1.000  I
  I1382    1.0000 0.73649  0.73649  0.23651  Biso   1.000  I
  I1383    1.0000 0.76349  0.76349  0.23651  Biso   1.000  I
  I1384    1.0000 0.76349  0.73649  0.26351  Biso   1.000  I
  I1385    1.0000 0.76349  0.76349  0.23651  Biso   1.000  I
  I1386    1.0000 0.73649  0.73649  0.23651  Biso   1.000  I
  I1387    1.0000 0.76349  0.23651  0.76349  Biso   1.000  I
  I1388    1.0000 0.73649  0.26351  0.76349  Biso   1.000  I
  I1389    1.0000 0.76349  0.26351  0.73649  Biso   1.000  I
  I1390    1.0000 0.73649  0.76349  0.26351  Biso   1.000  I
  I1391    1.0000 0.73649  0.23651  0.73649  Biso   1.000  I
  I1392    1.0000 0.76349  0.23651  0.76349  Biso   1.000  I
  I1393    1.0000 0.76349  0.26351  0.73649  Biso   1.000  I
  I1394    1.0000 0.26351  0.26351  0.23651  Biso   1.000  I
  I1395    1.0000 0.26351  0.23651  0.26351  Biso   1.000  I
  I1396    1.0000 0.23651  0.23651  0.23651  Biso   1.000  I
  I1397    1.0000 0.23651  0.76349  0.76349  Biso   1.000  I
  I1398    1.0000 0.26351  0.76349  0.73649  Biso   1.000  I
  I1399    1.0000 0.26351  0.73649  0.76349  Biso   1.000  I
  I1400    1.0000 0.73649  0.73649  0.23651  Biso   1.000  I
  I1401    1.0000 0.76349  0.73649  0.26351  Biso   1.000  I
  I1402    1.0000 0.76349  0.76349  0.23651  Biso   1.000  I
  I1403    1.0000 0.73649  0.76349  0.26351  Biso   1.000  I
  I1404    1.0000 0.23651  0.73649  0.73649  Biso   1.000  I
  I1405    1.0000 0.26351  0.26351  0.23651  Biso   1.000  I
  I1406    1.0000 0.23651  0.26351  0.26351  Biso   1.000  I
  I1407    1.0000 0.26351  0.23651  0.26351  Biso   1.000  I
  I1408    1.0000 0.76349  0.23651  0.76349  Biso   1.000  I
  I1409    1.0000 0.73649  0.26351  0.76349  Biso   1.000  I
  I1410    1.0000 0.76349  0.26351  0.73649  Biso   1.000  I
  I1411    1.0000 0.73649  0.73649  0.23651  Biso   1.000  I
  I1412    1.0000 0.23651  0.73649  0.73649  Biso   1.000  I
  I1413    1.0000 0.76349  0.73649  0.26351  Biso   1.000  I
  I1414    1.0000 0.76349  0.76349  0.23651  Biso   1.000  I
  I1415    1.0000 0.73649  0.76349  0.26351  Biso   1.000  I
  I1416    1.0000 0.73649  0.23651  0.73649  Biso   1.000  I
  I1417    1.0000 0.76349  0.73649  0.26351  Biso   1.000  I
  I1418    1.0000 0.76349  0.76349  0.23651  Biso   1.000  I
  I1419    1.0000 0.73649  0.76349  0.26351  Biso   1.000  I
  I1420    1.0000 0.73649  0.23651  0.73649  Biso   1.000  I
  I1421    1.0000 0.30778  0.30778  0.19220  Biso   1.000  I
  I1422    1.0000 0.30778  0.30778  0.19220  Biso   1.000  I
  I1423    1.0000 0.69222  0.69222  0.19220  Biso   1.000  I
  I1424    1.0000 0.69222  0.30778  0.80780  Biso   1.000  I
  I1425    1.0000 0.80780  0.30778  0.69222  Biso   1.000  I
  I1426    1.0000 0.19220  0.69222  0.69222  Biso   1.000  I
  I1427    1.0000 0.69222  0.19220  0.69222  Biso   1.000  I
  I1428    1.0000 0.30778  0.80780  0.69222  Biso   1.000  I
  I1429    1.0000 0.19220  0.69222  0.69222  Biso   1.000  I
  I1430    1.0000 0.19220  0.30778  0.30778  Biso   1.000  I
  I1431    1.0000 0.80780  0.30778  0.69222  Biso   1.000  I
  I1432    1.0000 0.80780  0.30778  0.69222  Biso   1.000  I
  I1433    1.0000 0.19220  0.69222  0.69222  Biso   1.000  I
  I1434    1.0000 0.69222  0.19220  0.69222  Biso   1.000  I
  I1435    1.0000 0.30778  0.80780  0.69222  Biso   1.000  I
  I1436    1.0000 0.69222  0.19220  0.69222  Biso   1.000  I
  I1437    1.0000 0.30778  0.80780  0.69222  Biso   1.000  I
  I1438    1.0000 0.19220  0.69222  0.69222  Biso   1.000  I
  I1439    1.0000 0.80780  0.30778  0.69222  Biso   1.000  I
  I1440    1.0000 0.69222  0.80780  0.30778  Biso   1.000  I
  I1441    1.0000 0.69222  0.19220  0.69222  Biso   1.000  I
  I1442    1.0000 0.30778  0.80780  0.69222  Biso   1.000  I
  I1443    1.0000 0.30778  0.19220  0.30778  Biso   1.000  I
  I1444    1.0000 0.69222  0.19220  0.69222  Biso   1.000  I
  I1445    1.0000 0.30778  0.80780  0.69222  Biso   1.000  I
  I1446    1.0000 0.30778  0.30778  0.19220  Biso   1.000  I
  I1447    1.0000 0.69222  0.69222  0.19220  Biso   1.000  I
  I1448    1.0000 0.30778  0.69222  0.80780  Biso   1.000  I
  I1449    1.0000 0.80780  0.30778  0.69222  Biso   1.000  I
  I1450    1.0000 0.19220  0.69222  0.69222  Biso   1.000  I
  I1451    1.0000 0.80780  0.69222  0.30778  Biso   1.000  I
  I1452    1.0000 0.19220  0.19220  0.19220  Biso   1.000  I
  I1453    1.0000 0.19220  0.30778  0.30778  Biso   1.000  I
  I1454    1.0000 0.30778  0.30778  0.19220  Biso   1.000  I
  I1455    1.0000 0.30778  0.80780  0.69222  Biso   1.000  I
  I1456    1.0000 0.19220  0.80780  0.80780  Biso   1.000  I
  I1457    1.0000 0.69222  0.80780  0.30778  Biso   1.000  I
  I1458    1.0000 0.80780  0.80780  0.19220  Biso   1.000  I
  I1459    1.0000 0.69222  0.69222  0.19220  Biso   1.000  I
  I1460    1.0000 0.30778  0.80780  0.69222  Biso   1.000  I
  I1461    1.0000 0.19220  0.80780  0.80780  Biso   1.000  I
  I1462    1.0000 0.19220  0.19220  0.19220  Biso   1.000  I
  I1463    1.0000 0.30778  0.30778  0.19220  Biso   1.000  I
  I1464    1.0000 0.69222  0.80780  0.30778  Biso   1.000  I
  I1465    1.0000 0.80780  0.80780  0.19220  Biso   1.000  I
  I1466    1.0000 0.69222  0.69222  0.19220  Biso   1.000  I
  I1467    1.0000 0.69222  0.80780  0.30778  Biso   1.000  I
  I1468    1.0000 0.80780  0.80780  0.19220  Biso   1.000  I
  I1469    1.0000 0.30778  0.80780  0.69222  Biso   1.000  I
  I1470    1.0000 0.19220  0.80780  0.80780  Biso   1.000  I
  I1471    1.0000 0.69222  0.80780  0.30778  Biso   1.000  I
  I1472    1.0000 0.80780  0.80780  0.19220  Biso   1.000  I
  I1473    1.0000 0.19220  0.69222  0.69222  Biso   1.000  I
  I1474    1.0000 0.30778  0.80780  0.69222  Biso   1.000  I
  I1475    1.0000 0.19220  0.80780  0.80780  Biso   1.000  I
  I1476    1.0000 0.80780  0.80780  0.19220  Biso   1.000  I
  I1477    1.0000 0.80780  0.69222  0.30778  Biso   1.000  I
  I1478    1.0000 0.80780  0.30778  0.69222  Biso   1.000  I
  I1479    1.0000 0.80780  0.19220  0.80780  Biso   1.000  I
  I1480    1.0000 0.80780  0.30778  0.69222  Biso   1.000  I
  I1481    1.0000 0.80780  0.19220  0.80780  Biso   1.000  I
  I1482    1.0000 0.80780  0.80780  0.19220  Biso   1.000  I
  I1483    1.0000 0.69222  0.69222  0.19220  Biso   1.000  I
  I1484    1.0000 0.80780  0.69222  0.30778  Biso   1.000  I
  I1485    1.0000 0.80780  0.80780  0.19220  Biso   1.000  I
  I1486    1.0000 0.69222  0.69222  0.19220  Biso   1.000  I
  I1487    1.0000 0.80780  0.69222  0.30778  Biso   1.000  I
  I1488    1.0000 0.80780  0.80780  0.19220  Biso   1.000  I
  I1489    1.0000 0.80780  0.69222  0.30778  Biso   1.000  I
  I1490    1.0000 0.80780  0.30778  0.69222  Biso   1.000  I
  I1491    1.0000 0.80780  0.19220  0.80780  Biso   1.000  I
  I1492    1.0000 0.80780  0.30778  0.69222  Biso   1.000  I
  I1493    1.0000 0.80780  0.19220  0.80780  Biso   1.000  I
  I1494    1.0000 0.69222  0.19220  0.69222  Biso   1.000  I
  I1495    1.0000 0.19220  0.19220  0.19220  Biso   1.000  I
  I1496    1.0000 0.30778  0.19220  0.30778  Biso   1.000  I
  I1497    1.0000 0.30778  0.30778  0.19220  Biso   1.000  I
  I1498    1.0000 0.30778  0.69222  0.80780  Biso   1.000  I
  I1499    1.0000 0.30778  0.80780  0.69222  Biso   1.000  I
  I1500    1.0000 0.19220  0.80780  0.80780  Biso   1.000  I
  I1501    1.0000 0.69222  0.80780  0.30778  Biso   1.000  I
  I1502    1.0000 0.80780  0.80780  0.19220  Biso   1.000  I
  I1503    1.0000 0.80780  0.69222  0.30778  Biso   1.000  I
  I1504    1.0000 0.30778  0.19220  0.30778  Biso   1.000  I
  I1505    1.0000 0.19220  0.30778  0.30778  Biso   1.000  I
  I1506    1.0000 0.30778  0.30778  0.19220  Biso   1.000  I
  I1507    1.0000 0.80780  0.30778  0.69222  Biso   1.000  I
  I1508    1.0000 0.69222  0.30778  0.80780  Biso   1.000  I
  I1509    1.0000 0.80780  0.19220  0.80780  Biso   1.000  I
  I1510    1.0000 0.69222  0.80780  0.30778  Biso   1.000  I
  I1511    1.0000 0.80780  0.80780  0.19220  Biso   1.000  I
  I1512    1.0000 0.80780  0.69222  0.30778  Biso   1.000  I
  I1513    1.0000 0.69222  0.80780  0.30778  Biso   1.000  I
  I1514    1.0000 0.80780  0.80780  0.19220  Biso   1.000  I
  I1515    1.0000 0.80780  0.69222  0.30778  Biso   1.000  I
  I1516    1.0000 0.23651  0.26351  0.26351  Biso   1.000  I
  I1517    1.0000 0.26351  0.23651  0.26351  Biso   1.000  I
  I1518    1.0000 0.23651  0.23651  0.23651  Biso   1.000  I
  I1519    1.0000 0.23651  0.26351  0.26351  Biso   1.000  I
  I1520    1.0000 0.26351  0.23651  0.26351  Biso   1.000  I
  I1521    1.0000 0.23651  0.23651  0.23651  Biso   1.000  I
  I1522    1.0000 0.76349  0.73649  0.26351  Biso   1.000  I
  I1523    1.0000 0.76349  0.76349  0.23651  Biso   1.000  I
  I1524    1.0000 0.73649  0.76349  0.26351  Biso   1.000  I
  I1525    1.0000 0.73649  0.23651  0.73649  Biso   1.000  I
  I1526    1.0000 0.76349  0.23651  0.76349  Biso   1.000  I
  I1527    1.0000 0.76349  0.26351  0.73649  Biso   1.000  I
  I1528    1.0000 0.73649  0.23651  0.73649  Biso   1.000  I
  I1529    1.0000 0.76349  0.23651  0.76349  Biso   1.000  I
  I1530    1.0000 0.73649  0.26351  0.76349  Biso   1.000  I
  I1531    1.0000 0.23651  0.76349  0.76349  Biso   1.000  I
  I1532    1.0000 0.26351  0.76349  0.73649  Biso   1.000  I
  I1533    1.0000 0.26351  0.73649  0.76349  Biso   1.000  I
  I1534    1.0000 0.76349  0.23651  0.76349  Biso   1.000  I
  I1535    1.0000 0.73649  0.26351  0.76349  Biso   1.000  I
  I1536    1.0000 0.76349  0.26351  0.73649  Biso   1.000  I
  I1537    1.0000 0.23651  0.73649  0.73649  Biso   1.000  I
  I1538    1.0000 0.23651  0.76349  0.76349  Biso   1.000  I
  I1539    1.0000 0.26351  0.76349  0.73649  Biso   1.000  I
  I1540    1.0000 0.26351  0.73649  0.76349  Biso   1.000  I
  I1541    1.0000 0.26351  0.26351  0.23651  Biso   1.000  I
  I1542    1.0000 0.73649  0.23651  0.73649  Biso   1.000  I
  I1543    1.0000 0.76349  0.23651  0.76349  Biso   1.000  I
  I1544    1.0000 0.73649  0.26351  0.76349  Biso   1.000  I
  I1545    1.0000 0.73649  0.23651  0.73649  Biso   1.000  I
  I1546    1.0000 0.76349  0.23651  0.76349  Biso   1.000  I
  I1547    1.0000 0.73649  0.26351  0.76349  Biso   1.000  I
  I1548    1.0000 0.23651  0.76349  0.76349  Biso   1.000  I
  I1549    1.0000 0.26351  0.76349  0.73649  Biso   1.000  I
  I1550    1.0000 0.26351  0.73649  0.76349  Biso   1.000  I
  I1551    1.0000 0.76349  0.26351  0.73649  Biso   1.000  I
  I1552    1.0000 0.23651  0.76349  0.76349  Biso   1.000  I
  I1553    1.0000 0.23651  0.73649  0.73649  Biso   1.000  I
  I1554    1.0000 0.26351  0.73649  0.76349  Biso   1.000  I
  I1555    1.0000 0.76349  0.23651  0.76349  Biso   1.000  I
  I1556    1.0000 0.73649  0.26351  0.76349  Biso   1.000  I
  I1557    1.0000 0.76349  0.26351  0.73649  Biso   1.000  I
  I1558    1.0000 0.23651  0.73649  0.73649  Biso   1.000  I
  I1559    1.0000 0.23651  0.76349  0.76349  Biso   1.000  I
  I1560    1.0000 0.26351  0.76349  0.73649  Biso   1.000  I
  I1561    1.0000 0.26351  0.73649  0.76349  Biso   1.000  I
  I1562    1.0000 0.73649  0.23651  0.73649  Biso   1.000  I
  I1563    1.0000 0.73649  0.73649  0.23651  Biso   1.000  I
  I1564    1.0000 0.76349  0.23651  0.76349  Biso   1.000  I
  I1565    1.0000 0.73649  0.26351  0.76349  Biso   1.000  I
  I1566    1.0000 0.76349  0.26351  0.73649  Biso   1.000  I
  I1567    1.0000 0.23651  0.73649  0.73649  Biso   1.000  I
  I1568    1.0000 0.26351  0.26351  0.23651  Biso   1.000  I
  I1569    1.0000 0.23651  0.26351  0.26351  Biso   1.000  I
  I1570    1.0000 0.23651  0.23651  0.23651  Biso   1.000  I
  I1571    1.0000 0.76349  0.23651  0.76349  Biso   1.000  I
  I1572    1.0000 0.73649  0.26351  0.76349  Biso   1.000  I
  I1573    1.0000 0.76349  0.26351  0.73649  Biso   1.000  I
  I1574    1.0000 0.23651  0.76349  0.76349  Biso   1.000  I
  I1575    1.0000 0.23651  0.73649  0.73649  Biso   1.000  I
  I1576    1.0000 0.26351  0.73649  0.76349  Biso   1.000  I
  I1577    1.0000 0.26351  0.23651  0.26351  Biso   1.000  I
  I1578    1.0000 0.76349  0.73649  0.26351  Biso   1.000  I
  I1579    1.0000 0.76349  0.76349  0.23651  Biso   1.000  I
  I1580    1.0000 0.73649  0.76349  0.26351  Biso   1.000  I
  I1581    1.0000 0.23651  0.76349  0.76349  Biso   1.000  I
  I1582    1.0000 0.26351  0.76349  0.73649  Biso   1.000  I
  I1583    1.0000 0.23651  0.73649  0.73649  Biso   1.000  I
  I1584    1.0000 0.73649  0.23651  0.73649  Biso   1.000  I
  I1585    1.0000 0.23651  0.76349  0.76349  Biso   1.000  I
  I1586    1.0000 0.26351  0.76349  0.73649  Biso   1.000  I
  I1587    1.0000 0.26351  0.73649  0.76349  Biso   1.000  I
  I1588    1.0000 0.73649  0.73649  0.23651  Biso   1.000  I
  I1589    1.0000 0.12502  0.12502  0.12502  Biso   1.000  I
  I1590    1.0000 0.26351  0.23651  0.26351  Biso   1.000  I
  I1591    1.0000 0.12502  0.37501  0.37501  Biso   1.000  I
  I1592    1.0000 0.37501  0.37501  0.12502  Biso   1.000  I
  I1593    1.0000 0.37501  0.87498  0.62499  Biso   1.000  I
  I1594    1.0000 0.12502  0.87498  0.87498  Biso   1.000  I
  I1595    1.0000 0.62499  0.87498  0.37501  Biso   1.000  I
  I1596    1.0000 0.76349  0.73649  0.26351  Biso   1.000  I
  I1597    1.0000 0.87498  0.87498  0.12502  Biso   1.000  I
  I1598    1.0000 0.62499  0.62499  0.12502  Biso   1.000  I
  I1599    1.0000 0.37501  0.87498  0.62499  Biso   1.000  I
  I1600    1.0000 0.12502  0.87498  0.87498  Biso   1.000  I
  I1601    1.0000 0.12502  0.12502  0.12502  Biso   1.000  I
  I1602    1.0000 0.37501  0.37501  0.12502  Biso   1.000  I
  I1603    1.0000 0.62499  0.87498  0.37501  Biso   1.000  I
  I1604    1.0000 0.76349  0.73649  0.26351  Biso   1.000  I
  I1605    1.0000 0.87498  0.87498  0.12502  Biso   1.000  I
  I1606    1.0000 0.62499  0.62499  0.12502  Biso   1.000  I
  I1607    1.0000 0.62499  0.87498  0.37501  Biso   1.000  I
  I1608    1.0000 0.87498  0.87498  0.12502  Biso   1.000  I
  I1609    1.0000 0.37501  0.87498  0.62499  Biso   1.000  I
  I1610    1.0000 0.12502  0.87498  0.87498  Biso   1.000  I
  I1611    1.0000 0.62499  0.87498  0.37501  Biso   1.000  I
  I1612    1.0000 0.87498  0.87498  0.12502  Biso   1.000  I
  I1613    1.0000 0.12502  0.62499  0.62499  Biso   1.000  I
  I1614    1.0000 0.26351  0.73649  0.76349  Biso   1.000  I
  I1615    1.0000 0.37501  0.87498  0.62499  Biso   1.000  I
  I1616    1.0000 0.12502  0.87498  0.87498  Biso   1.000  I
  I1617    1.0000 0.87498  0.87498  0.12502  Biso   1.000  I
  I1618    1.0000 0.87498  0.62499  0.37501  Biso   1.000  I
  I1619    1.0000 0.87498  0.37501  0.62499  Biso   1.000  I
  I1620    1.0000 0.87498  0.12502  0.87498  Biso   1.000  I
  I1621    1.0000 0.87498  0.37501  0.62499  Biso   1.000  I
  I1622    1.0000 0.87498  0.12502  0.87498  Biso   1.000  I
  I1623    1.0000 0.87498  0.87498  0.12502  Biso   1.000  I
  I1624    1.0000 0.73649  0.76349  0.26351  Biso   1.000  I
  I1625    1.0000 0.62499  0.62499  0.12502  Biso   1.000  I
  I1626    1.0000 0.87498  0.62499  0.37501  Biso   1.000  I
  I1627    1.0000 0.87498  0.87498  0.12502  Biso   1.000  I
  I1628    1.0000 0.73649  0.76349  0.26351  Biso   1.000  I
  I1629    1.0000 0.62499  0.62499  0.12502  Biso   1.000  I
  I1630    1.0000 0.87498  0.62499  0.37501  Biso   1.000  I
  I1631    1.0000 0.87498  0.87498  0.12502  Biso   1.000  I
  I1632    1.0000 0.87498  0.62499  0.37501  Biso   1.000  I
  I1633    1.0000 0.87498  0.37501  0.62499  Biso   1.000  I
  I1634    1.0000 0.87498  0.12502  0.87498  Biso   1.000  I
  I1635    1.0000 0.87498  0.37501  0.62499  Biso   1.000  I
  I1636    1.0000 0.73649  0.26351  0.76349  Biso   1.000  I
  I1637    1.0000 0.87498  0.12502  0.87498  Biso   1.000  I
  I1638    1.0000 0.62499  0.12502  0.62499  Biso   1.000  I
  I1639    1.0000 0.12502  0.12502  0.12502  Biso   1.000  I
  I1640    1.0000 0.23651  0.26351  0.26351  Biso   1.000  I
  I1641    1.0000 0.37501  0.12502  0.37501  Biso   1.000  I
  I1642    1.0000 0.37501  0.37501  0.12502  Biso   1.000  I
  I1643    1.0000 0.37501  0.62499  0.87498  Biso   1.000  I
  I1644    1.0000 0.23651  0.73649  0.73649  Biso   1.000  I
  I1645    1.0000 0.37501  0.87498  0.62499  Biso   1.000  I
  I1646    1.0000 0.12502  0.87498  0.87498  Biso   1.000  I
  I1647    1.0000 0.62499  0.87498  0.37501  Biso   1.000  I
  I1648    1.0000 0.73649  0.73649  0.23651  Biso   1.000  I
  I1649    1.0000 0.87498  0.87498  0.12502  Biso   1.000  I
  I1650    1.0000 0.87498  0.62499  0.37501  Biso   1.000  I
  I1651    1.0000 0.37501  0.12502  0.37501  Biso   1.000  I
  I1652    1.0000 0.23651  0.23651  0.23651  Biso   1.000  I
  I1653    1.0000 0.12502  0.37501  0.37501  Biso   1.000  I
  I1654    1.0000 0.37501  0.37501  0.12502  Biso   1.000  I
  I1655    1.0000 0.87498  0.37501  0.62499  Biso   1.000  I
  I1656    1.0000 0.73649  0.23651  0.73649  Biso   1.000  I
  I1657    1.0000 0.62499  0.37501  0.87498  Biso   1.000  I
  I1658    1.0000 0.87498  0.12502  0.87498  Biso   1.000  I
  I1659    1.0000 0.62499  0.87498  0.37501  Biso   1.000  I
  I1660    1.0000 0.73649  0.73649  0.23651  Biso   1.000  I
  I1661    1.0000 0.87498  0.87498  0.12502  Biso   1.000  I
  I1662    1.0000 0.87498  0.62499  0.37501  Biso   1.000  I
  I1663    1.0000 0.62499  0.87498  0.37501  Biso   1.000  I
  I1664    1.0000 0.73649  0.73649  0.23651  Biso   1.000  I
  I1665    1.0000 0.87498  0.87498  0.12502  Biso   1.000  I
  I1666    1.0000 0.87498  0.62499  0.37501  Biso   1.000  I
  I1667    1.0000 0.19220  0.19220  0.19220  Biso   1.000  I
  I1668    1.0000 0.30778  0.19220  0.30778  Biso   1.000  I
  I1669    1.0000 0.19220  0.30778  0.30778  Biso   1.000  I
  I1670    1.0000 0.19220  0.19220  0.19220  Biso   1.000  I
  I1671    1.0000 0.30778  0.19220  0.30778  Biso   1.000  I
  I1672    1.0000 0.80780  0.80780  0.19220  Biso   1.000  I
  I1673    1.0000 0.80780  0.69222  0.30778  Biso   1.000  I
  I1674    1.0000 0.80780  0.30778  0.69222  Biso   1.000  I
  I1675    1.0000 0.80780  0.19220  0.80780  Biso   1.000  I
  I1676    1.0000 0.69222  0.19220  0.69222  Biso   1.000  I
  I1677    1.0000 0.69222  0.30778  0.80780  Biso   1.000  I
  I1678    1.0000 0.80780  0.19220  0.80780  Biso   1.000  I
  I1679    1.0000 0.69222  0.19220  0.69222  Biso   1.000  I
  I1680    1.0000 0.30778  0.69222  0.80780  Biso   1.000  I
  I1681    1.0000 0.19220  0.80780  0.80780  Biso   1.000  I
  I1682    1.0000 0.69222  0.30778  0.80780  Biso   1.000  I
  I1683    1.0000 0.80780  0.19220  0.80780  Biso   1.000  I
  I1684    1.0000 0.30778  0.69222  0.80780  Biso   1.000  I
  I1685    1.0000 0.19220  0.80780  0.80780  Biso   1.000  I
  I1686    1.0000 0.69222  0.30778  0.80780  Biso   1.000  I
  I1687    1.0000 0.80780  0.19220  0.80780  Biso   1.000  I
  I1688    1.0000 0.69222  0.19220  0.69222  Biso   1.000  I
  I1689    1.0000 0.69222  0.30778  0.80780  Biso   1.000  I
  I1690    1.0000 0.80780  0.19220  0.80780  Biso   1.000  I
  I1691    1.0000 0.30778  0.69222  0.80780  Biso   1.000  I
  I1692    1.0000 0.19220  0.80780  0.80780  Biso   1.000  I
  I1693    1.0000 0.30778  0.69222  0.80780  Biso   1.000  I
  I1694    1.0000 0.19220  0.69222  0.69222  Biso   1.000  I
  I1695    1.0000 0.19220  0.80780  0.80780  Biso   1.000  I
  I1696    1.0000 0.80780  0.30778  0.69222  Biso   1.000  I
  I1697    1.0000 0.69222  0.30778  0.80780  Biso   1.000  I
  I1698    1.0000 0.80780  0.19220  0.80780  Biso   1.000  I
  I1699    1.0000 0.30778  0.69222  0.80780  Biso   1.000  I
  I1700    1.0000 0.30778  0.80780  0.69222  Biso   1.000  I
  I1701    1.0000 0.19220  0.80780  0.80780  Biso   1.000  I
  I1702    1.0000 0.80780  0.30778  0.69222  Biso   1.000  I
  I1703    1.0000 0.69222  0.30778  0.80780  Biso   1.000  I
  I1704    1.0000 0.80780  0.19220  0.80780  Biso   1.000  I
  I1705    1.0000 0.19220  0.19220  0.19220  Biso   1.000  I
  I1706    1.0000 0.19220  0.30778  0.30778  Biso   1.000  I
  I1707    1.0000 0.69222  0.30778  0.80780  Biso   1.000  I
  I1708    1.0000 0.80780  0.19220  0.80780  Biso   1.000  I
  I1709    1.0000 0.30778  0.69222  0.80780  Biso   1.000  I
  I1710    1.0000 0.19220  0.69222  0.69222  Biso   1.000  I
  I1711    1.0000 0.19220  0.80780  0.80780  Biso   1.000  I
  I1712    1.0000 0.69222  0.80780  0.30778  Biso   1.000  I
  I1713    1.0000 0.80780  0.80780  0.19220  Biso   1.000  I
  I1714    1.0000 0.19220  0.69222  0.69222  Biso   1.000  I
  I1715    1.0000 0.30778  0.80780  0.69222  Biso   1.000  I
  I1716    1.0000 0.19220  0.80780  0.80780  Biso   1.000  I
  I1717    1.0000 0.30778  0.69222  0.80780  Biso   1.000  I
  I1718    1.0000 0.30778  0.80780  0.69222  Biso   1.000  I
  I1719    1.0000 0.19220  0.80780  0.80780  Biso   1.000  I
  I1720    1.0000 0.05779  0.05779  0.05779  Biso   1.000  I
  I1721    1.0000 0.05779  0.44219  0.44219  Biso   1.000  I
  I1722    1.0000 0.44219  0.44219  0.05779  Biso   1.000  I
  I1723    1.0000 0.44219  0.94221  0.55781  Biso   1.000  I
  I1724    1.0000 0.05779  0.94221  0.94221  Biso   1.000  I
  I1725    1.0000 0.55781  0.94221  0.44219  Biso   1.000  I
  I1726    1.0000 0.94221  0.94221  0.05779  Biso   1.000  I
  I1727    1.0000 0.55781  0.55781  0.05779  Biso   1.000  I
  I1728    1.0000 0.44219  0.94221  0.55781  Biso   1.000  I
  I1729    1.0000 0.05779  0.94221  0.94221  Biso   1.000  I
  I1730    1.0000 0.05779  0.05779  0.05779  Biso   1.000  I
  I1731    1.0000 0.44219  0.44219  0.05779  Biso   1.000  I
  I1732    1.0000 0.55781  0.94221  0.44219  Biso   1.000  I
  I1733    1.0000 0.94221  0.94221  0.05779  Biso   1.000  I
  I1734    1.0000 0.55781  0.55781  0.05779  Biso   1.000  I
  I1735    1.0000 0.55781  0.94221  0.44219  Biso   1.000  I
  I1736    1.0000 0.94221  0.94221  0.05779  Biso   1.000  I
  I1737    1.0000 0.44219  0.94221  0.55781  Biso   1.000  I
  I1738    1.0000 0.05779  0.94221  0.94221  Biso   1.000  I
  I1739    1.0000 0.55781  0.94221  0.44219  Biso   1.000  I
  I1740    1.0000 0.94221  0.94221  0.05779  Biso   1.000  I
  I1741    1.0000 0.05779  0.55781  0.55781  Biso   1.000  I
  I1742    1.0000 0.44219  0.94221  0.55781  Biso   1.000  I
  I1743    1.0000 0.05779  0.94221  0.94221  Biso   1.000  I
  I1744    1.0000 0.94221  0.94221  0.05779  Biso   1.000  I
  I1745    1.0000 0.94221  0.55781  0.44219  Biso   1.000  I
  I1746    1.0000 0.94221  0.44219  0.55781  Biso   1.000  I
  I1747    1.0000 0.94221  0.05779  0.94221  Biso   1.000  I
  I1748    1.0000 0.94221  0.44219  0.55781  Biso   1.000  I
  I1749    1.0000 0.94221  0.05779  0.94221  Biso   1.000  I
  I1750    1.0000 0.94221  0.94221  0.05779  Biso   1.000  I
  I1751    1.0000 0.55781  0.55781  0.05779  Biso   1.000  I
  I1752    1.0000 0.94221  0.55781  0.44219  Biso   1.000  I
  I1753    1.0000 0.94221  0.94221  0.05779  Biso   1.000  I
  I1754    1.0000 0.55781  0.55781  0.05779  Biso   1.000  I
  I1755    1.0000 0.94221  0.55781  0.44219  Biso   1.000  I
  I1756    1.0000 0.94221  0.94221  0.05779  Biso   1.000  I
  I1757    1.0000 0.94221  0.55781  0.44219  Biso   1.000  I
  I1758    1.0000 0.94221  0.44219  0.55781  Biso   1.000  I
  I1759    1.0000 0.94221  0.05779  0.94221  Biso   1.000  I
  I1760    1.0000 0.94221  0.44219  0.55781  Biso   1.000  I
  I1761    1.0000 0.94221  0.05779  0.94221  Biso   1.000  I
  I1762    1.0000 0.55781  0.05779  0.55781  Biso   1.000  I
  I1763    1.0000 0.05779  0.05779  0.05779  Biso   1.000  I
  I1764    1.0000 0.44219  0.05779  0.44219  Biso   1.000  I
  I1765    1.0000 0.44219  0.44219  0.05779  Biso   1.000  I
  I1766    1.0000 0.44219  0.55781  0.94221  Biso   1.000  I
  I1767    1.0000 0.44219  0.94221  0.55781  Biso   1.000  I
  I1768    1.0000 0.05779  0.94221  0.94221  Biso   1.000  I
  I1769    1.0000 0.55781  0.94221  0.44219  Biso   1.000  I
  I1770    1.0000 0.94221  0.94221  0.05779  Biso   1.000  I
  I1771    1.0000 0.94221  0.55781  0.44219  Biso   1.000  I
  I1772    1.0000 0.44219  0.05779  0.44219  Biso   1.000  I
  I1773    1.0000 0.05779  0.44219  0.44219  Biso   1.000  I
  I1774    1.0000 0.44219  0.44219  0.05779  Biso   1.000  I
  I1775    1.0000 0.94221  0.44219  0.55781  Biso   1.000  I
  I1776    1.0000 0.55781  0.44219  0.94221  Biso   1.000  I
  I1777    1.0000 0.94221  0.05779  0.94221  Biso   1.000  I
  I1778    1.0000 0.55781  0.94221  0.44219  Biso   1.000  I
  I1779    1.0000 0.94221  0.94221  0.05779  Biso   1.000  I
  I1780    1.0000 0.94221  0.55781  0.44219  Biso   1.000  I
  I1781    1.0000 0.55781  0.94221  0.44219  Biso   1.000  I
  I1782    1.0000 0.94221  0.94221  0.05779  Biso   1.000  I
  I1783    1.0000 0.94221  0.55781  0.44219  Biso   1.000  I
  I1784    1.0000 0.12502  0.12502  0.12502  Biso   1.000  I
  I1785    1.0000 0.26351  0.26351  0.23651  Biso   1.000  I
  I1786    1.0000 0.37501  0.12502  0.37501  Biso   1.000  I
  I1787    1.0000 0.12502  0.37501  0.37501  Biso   1.000  I
  I1788    1.0000 0.12502  0.12502  0.12502  Biso   1.000  I
  I1789    1.0000 0.37501  0.12502  0.37501  Biso   1.000  I
  I1790    1.0000 0.87498  0.87498  0.12502  Biso   1.000  I
  I1791    1.0000 0.87498  0.62499  0.37501  Biso   1.000  I
  I1792    1.0000 0.87498  0.37501  0.62499  Biso   1.000  I
  I1793    1.0000 0.73649  0.26351  0.76349  Biso   1.000  I
  I1794    1.0000 0.87498  0.12502  0.87498  Biso   1.000  I
  I1795    1.0000 0.62499  0.12502  0.62499  Biso   1.000  I
  I1796    1.0000 0.62499  0.37501  0.87498  Biso   1.000  I
  I1797    1.0000 0.76349  0.26351  0.73649  Biso   1.000  I
  I1798    1.0000 0.87498  0.12502  0.87498  Biso   1.000  I
  I1799    1.0000 0.62499  0.12502  0.62499  Biso   1.000  I
  I1800    1.0000 0.37501  0.62499  0.87498  Biso   1.000  I
  I1801    1.0000 0.12502  0.87498  0.87498  Biso   1.000  I
  I1802    1.0000 0.62499  0.37501  0.87498  Biso   1.000  I
  I1803    1.0000 0.87498  0.12502  0.87498  Biso   1.000  I
  I1804    1.0000 0.37501  0.62499  0.87498  Biso   1.000  I
  I1805    1.0000 0.12502  0.87498  0.87498  Biso   1.000  I
  I1806    1.0000 0.62499  0.37501  0.87498  Biso   1.000  I
  I1807    1.0000 0.76349  0.26351  0.73649  Biso   1.000  I
  I1808    1.0000 0.87498  0.12502  0.87498  Biso   1.000  I
  I1809    1.0000 0.62499  0.12502  0.62499  Biso   1.000  I
  I1810    1.0000 0.62499  0.37501  0.87498  Biso   1.000  I
  I1811    1.0000 0.87498  0.12502  0.87498  Biso   1.000  I
  I1812    1.0000 0.37501  0.62499  0.87498  Biso   1.000  I
  I1813    1.0000 0.12502  0.87498  0.87498  Biso   1.000  I
  I1814    1.0000 0.37501  0.62499  0.87498  Biso   1.000  I
  I1815    1.0000 0.26351  0.76349  0.73649  Biso   1.000  I
  I1816    1.0000 0.12502  0.62499  0.62499  Biso   1.000  I
  I1817    1.0000 0.12502  0.87498  0.87498  Biso   1.000  I
  I1818    1.0000 0.87498  0.37501  0.62499  Biso   1.000  I
  I1819    1.0000 0.73649  0.23651  0.73649  Biso   1.000  I
  I1820    1.0000 0.62499  0.37501  0.87498  Biso   1.000  I
  I1821    1.0000 0.87498  0.12502  0.87498  Biso   1.000  I
  I1822    1.0000 0.37501  0.62499  0.87498  Biso   1.000  I
  I1823    1.0000 0.23651  0.73649  0.73649  Biso   1.000  I
  I1824    1.0000 0.37501  0.87498  0.62499  Biso   1.000  I
  I1825    1.0000 0.12502  0.87498  0.87498  Biso   1.000  I
  I1826    1.0000 0.87498  0.37501  0.62499  Biso   1.000  I
  I1827    1.0000 0.73649  0.23651  0.73649  Biso   1.000  I
  I1828    1.0000 0.62499  0.37501  0.87498  Biso   1.000  I
  I1829    1.0000 0.87498  0.12502  0.87498  Biso   1.000  I
  I1830    1.0000 0.12502  0.12502  0.12502  Biso   1.000  I
  I1831    1.0000 0.12502  0.37501  0.37501  Biso   1.000  I
  I1832    1.0000 0.62499  0.37501  0.87498  Biso   1.000  I
  I1833    1.0000 0.87498  0.12502  0.87498  Biso   1.000  I
  I1834    1.0000 0.37501  0.62499  0.87498  Biso   1.000  I
  I1835    1.0000 0.26351  0.76349  0.73649  Biso   1.000  I
  I1836    1.0000 0.12502  0.62499  0.62499  Biso   1.000  I
  I1837    1.0000 0.12502  0.87498  0.87498  Biso   1.000  I
  I1838    1.0000 0.62499  0.87498  0.37501  Biso   1.000  I
  I1839    1.0000 0.87498  0.87498  0.12502  Biso   1.000  I
  I1840    1.0000 0.12502  0.62499  0.62499  Biso   1.000  I
  I1841    1.0000 0.26351  0.73649  0.76349  Biso   1.000  I
  I1842    1.0000 0.37501  0.87498  0.62499  Biso   1.000  I
  I1843    1.0000 0.12502  0.87498  0.87498  Biso   1.000  I
  I1844    1.0000 0.37501  0.62499  0.87498  Biso   1.000  I
  I1845    1.0000 0.23651  0.73649  0.73649  Biso   1.000  I
  I1846    1.0000 0.37501  0.87498  0.62499  Biso   1.000  I
  I1847    1.0000 0.12502  0.87498  0.87498  Biso   1.000  I
  I1848    1.0000 0.01352  0.51350  0.51350  Biso   1.000  I
  I1849    1.0000 0.51350  0.51350  0.01352  Biso   1.000  I
  I1850    1.0000 0.51350  0.98648  0.48650  Biso   1.000  I
  I1851    1.0000 0.98648  0.98648  0.01352  Biso   1.000  I
  I1852    1.0000 0.48650  0.98648  0.51350  Biso   1.000  I
  I1853    1.0000 0.48650  0.48650  0.01352  Biso   1.000  I
  I1854    1.0000 0.51350  0.98648  0.48650  Biso   1.000  I
  I1855    1.0000 0.98648  0.98648  0.01352  Biso   1.000  I
  I1856    1.0000 0.98648  0.98648  0.01352  Biso   1.000  I
  I1857    1.0000 0.51350  0.51350  0.01352  Biso   1.000  I
  I1858    1.0000 0.48650  0.98648  0.51350  Biso   1.000  I
  I1859    1.0000 0.48650  0.48650  0.01352  Biso   1.000  I
  I1860    1.0000 0.48650  0.98648  0.51350  Biso   1.000  I
  I1861    1.0000 0.01352  0.98648  0.98648  Biso   1.000  I
  I1862    1.0000 0.51350  0.98648  0.48650  Biso   1.000  I
  I1863    1.0000 0.98648  0.98648  0.01352  Biso   1.000  I
  I1864    1.0000 0.48650  0.98648  0.51350  Biso   1.000  I
  I1865    1.0000 0.01352  0.98648  0.98648  Biso   1.000  I
  I1866    1.0000 0.01352  0.48650  0.48650  Biso   1.000  I
  I1867    1.0000 0.51350  0.98648  0.48650  Biso   1.000  I
  I1868    1.0000 0.98648  0.01352  0.98648  Biso   1.000  I
  I1869    1.0000 0.98648  0.48650  0.51350  Biso   1.000  I
  I1870    1.0000 0.98648  0.51350  0.48650  Biso   1.000  I
  I1871    1.0000 0.98648  0.98648  0.01352  Biso   1.000  I
  I1872    1.0000 0.98648  0.51350  0.48650  Biso   1.000  I
  I1873    1.0000 0.98648  0.98648  0.01352  Biso   1.000  I
  I1874    1.0000 0.48650  0.48650  0.01352  Biso   1.000  I
  I1875    1.0000 0.98648  0.48650  0.51350  Biso   1.000  I
  I1876    1.0000 0.48650  0.48650  0.01352  Biso   1.000  I
  I1877    1.0000 0.98648  0.48650  0.51350  Biso   1.000  I
  I1878    1.0000 0.98648  0.01352  0.98648  Biso   1.000  I
  I1879    1.0000 0.98648  0.48650  0.51350  Biso   1.000  I
  I1880    1.0000 0.98648  0.51350  0.48650  Biso   1.000  I
  I1881    1.0000 0.98648  0.98648  0.01352  Biso   1.000  I
  I1882    1.0000 0.98648  0.51350  0.48650  Biso   1.000  I
  I1883    1.0000 0.48650  0.01352  0.48650  Biso   1.000  I
  I1884    1.0000 0.51350  0.01352  0.51350  Biso   1.000  I
  I1885    1.0000 0.51350  0.51350  0.01352  Biso   1.000  I
  I1886    1.0000 0.51350  0.51350  0.01352  Biso   1.000  I
  I1887    1.0000 0.48650  0.48650  0.01352  Biso   1.000  I
  I1888    1.0000 0.51350  0.48650  0.98648  Biso   1.000  I
  I1889    1.0000 0.51350  0.98648  0.48650  Biso   1.000  I
  I1890    1.0000 0.98648  0.98648  0.01352  Biso   1.000  I
  I1891    1.0000 0.48650  0.98648  0.51350  Biso   1.000  I
  I1892    1.0000 0.01352  0.98648  0.98648  Biso   1.000  I
  I1893    1.0000 0.98648  0.48650  0.51350  Biso   1.000  I
  I1894    1.0000 0.01352  0.51350  0.51350  Biso   1.000  I
  I1895    1.0000 0.01352  0.48650  0.48650  Biso   1.000  I
  I1896    1.0000 0.48650  0.98648  0.51350  Biso   1.000  I
  I1897    1.0000 0.51350  0.01352  0.51350  Biso   1.000  I
  I1898    1.0000 0.51350  0.98648  0.48650  Biso   1.000  I
  I1899    1.0000 0.98648  0.51350  0.48650  Biso   1.000  I
  I1900    1.0000 0.48650  0.51350  0.98648  Biso   1.000  I
  I1901    1.0000 0.98648  0.51350  0.48650  Biso   1.000  I
  I1902    1.0000 0.98648  0.98648  0.01352  Biso   1.000  I
  I1903    1.0000 0.48650  0.98648  0.51350  Biso   1.000  I
  I1904    1.0000 0.98648  0.48650  0.51350  Biso   1.000  I
  I1905    1.0000 0.48650  0.01352  0.48650  Biso   1.000  I
  I1906    1.0000 0.98648  0.01352  0.98648  Biso   1.000  I
  I1907    1.0000 0.98648  0.48650  0.51350  Biso   1.000  I
  I1908    1.0000 0.05779  0.05779  0.05779  Biso   1.000  I
  I1909    1.0000 0.44219  0.05779  0.44219  Biso   1.000  I
  I1910    1.0000 0.05779  0.44219  0.44219  Biso   1.000  I
  I1911    1.0000 0.05779  0.05779  0.05779  Biso   1.000  I
  I1912    1.0000 0.44219  0.05779  0.44219  Biso   1.000  I
  I1913    1.0000 0.94221  0.94221  0.05779  Biso   1.000  I
  I1914    1.0000 0.94221  0.55781  0.44219  Biso   1.000  I
  I1915    1.0000 0.94221  0.44219  0.55781  Biso   1.000  I
  I1916    1.0000 0.94221  0.05779  0.94221  Biso   1.000  I
  I1917    1.0000 0.55781  0.05779  0.55781  Biso   1.000  I
  I1918    1.0000 0.55781  0.44219  0.94221  Biso   1.000  I
  I1919    1.0000 0.94221  0.05779  0.94221  Biso   1.000  I
  I1920    1.0000 0.55781  0.05779  0.55781  Biso   1.000  I
  I1921    1.0000 0.44219  0.55781  0.94221  Biso   1.000  I
  I1922    1.0000 0.05779  0.94221  0.94221  Biso   1.000  I
  I1923    1.0000 0.55781  0.44219  0.94221  Biso   1.000  I
  I1924    1.0000 0.94221  0.05779  0.94221  Biso   1.000  I
  I1925    1.0000 0.44219  0.55781  0.94221  Biso   1.000  I
  I1926    1.0000 0.05779  0.94221  0.94221  Biso   1.000  I
  I1927    1.0000 0.55781  0.44219  0.94221  Biso   1.000  I
  I1928    1.0000 0.94221  0.05779  0.94221  Biso   1.000  I
  I1929    1.0000 0.55781  0.05779  0.55781  Biso   1.000  I
  I1930    1.0000 0.55781  0.44219  0.94221  Biso   1.000  I
  I1931    1.0000 0.94221  0.05779  0.94221  Biso   1.000  I
  I1932    1.0000 0.44219  0.55781  0.94221  Biso   1.000  I
  I1933    1.0000 0.05779  0.94221  0.94221  Biso   1.000  I
  I1934    1.0000 0.44219  0.55781  0.94221  Biso   1.000  I
  I1935    1.0000 0.05779  0.55781  0.55781  Biso   1.000  I
  I1936    1.0000 0.05779  0.94221  0.94221  Biso   1.000  I
  I1937    1.0000 0.94221  0.44219  0.55781  Biso   1.000  I
  I1938    1.0000 0.55781  0.44219  0.94221  Biso   1.000  I
  I1939    1.0000 0.94221  0.05779  0.94221  Biso   1.000  I
  I1940    1.0000 0.44219  0.55781  0.94221  Biso   1.000  I
  I1941    1.0000 0.44219  0.94221  0.55781  Biso   1.000  I
  I1942    1.0000 0.05779  0.94221  0.94221  Biso   1.000  I
  I1943    1.0000 0.94221  0.44219  0.55781  Biso   1.000  I
  I1944    1.0000 0.55781  0.44219  0.94221  Biso   1.000  I
  I1945    1.0000 0.94221  0.05779  0.94221  Biso   1.000  I
  I1946    1.0000 0.05779  0.05779  0.05779  Biso   1.000  I
  I1947    1.0000 0.05779  0.44219  0.44219  Biso   1.000  I
  I1948    1.0000 0.55781  0.44219  0.94221  Biso   1.000  I
  I1949    1.0000 0.94221  0.05779  0.94221  Biso   1.000  I
  I1950    1.0000 0.44219  0.55781  0.94221  Biso   1.000  I
  I1951    1.0000 0.05779  0.55781  0.55781  Biso   1.000  I
  I1952    1.0000 0.05779  0.94221  0.94221  Biso   1.000  I
  I1953    1.0000 0.55781  0.94221  0.44219  Biso   1.000  I
  I1954    1.0000 0.94221  0.94221  0.05779  Biso   1.000  I
  I1955    1.0000 0.05779  0.55781  0.55781  Biso   1.000  I
  I1956    1.0000 0.44219  0.94221  0.55781  Biso   1.000  I
  I1957    1.0000 0.05779  0.94221  0.94221  Biso   1.000  I
  I1958    1.0000 0.44219  0.55781  0.94221  Biso   1.000  I
  I1959    1.0000 0.44219  0.94221  0.55781  Biso   1.000  I
  I1960    1.0000 0.05779  0.94221  0.94221  Biso   1.000  I
  I1961    1.0000 0.55781  0.55781  0.05779  Biso   1.000  I
  I1962    1.0000 0.05779  0.55781  0.55781  Biso   1.000  I
  I1963    1.0000 0.55781  0.05779  0.55781  Biso   1.000  I
  I1964    1.0000 0.51350  0.01352  0.51350  Biso   1.000  I
  I1965    1.0000 0.01352  0.51350  0.51350  Biso   1.000  I
  I1966    1.0000 0.98648  0.01352  0.98648  Biso   1.000  I
  I1967    1.0000 0.51350  0.01352  0.51350  Biso   1.000  I
  I1968    1.0000 0.98648  0.01352  0.98648  Biso   1.000  I
  I1969    1.0000 0.98648  0.48650  0.51350  Biso   1.000  I
  I1970    1.0000 0.98648  0.51350  0.48650  Biso   1.000  I
  I1971    1.0000 0.48650  0.01352  0.48650  Biso   1.000  I
  I1972    1.0000 0.48650  0.51350  0.98648  Biso   1.000  I
  I1973    1.0000 0.48650  0.01352  0.48650  Biso   1.000  I
  I1974    1.0000 0.51350  0.48650  0.98648  Biso   1.000  I
  I1975    1.0000 0.98648  0.01352  0.98648  Biso   1.000  I
  I1976    1.0000 0.48650  0.51350  0.98648  Biso   1.000  I
  I1977    1.0000 0.01352  0.98648  0.98648  Biso   1.000  I
  I1978    1.0000 0.51350  0.48650  0.98648  Biso   1.000  I
  I1979    1.0000 0.98648  0.01352  0.98648  Biso   1.000  I
  I1980    1.0000 0.48650  0.51350  0.98648  Biso   1.000  I
  I1981    1.0000 0.48650  0.01352  0.48650  Biso   1.000  I
  I1982    1.0000 0.48650  0.51350  0.98648  Biso   1.000  I
  I1983    1.0000 0.01352  0.98648  0.98648  Biso   1.000  I
  I1984    1.0000 0.51350  0.48650  0.98648  Biso   1.000  I
  I1985    1.0000 0.98648  0.01352  0.98648  Biso   1.000  I
  I1986    1.0000 0.51350  0.48650  0.98648  Biso   1.000  I
  I1987    1.0000 0.01352  0.48650  0.48650  Biso   1.000  I
  I1988    1.0000 0.48650  0.51350  0.98648  Biso   1.000  I
  I1989    1.0000 0.01352  0.98648  0.98648  Biso   1.000  I
  I1990    1.0000 0.51350  0.48650  0.98648  Biso   1.000  I
  I1991    1.0000 0.98648  0.01352  0.98648  Biso   1.000  I
  I1992    1.0000 0.98648  0.51350  0.48650  Biso   1.000  I
  I1993    1.0000 0.48650  0.51350  0.98648  Biso   1.000  I
  I1994    1.0000 0.01352  0.98648  0.98648  Biso   1.000  I
  I1995    1.0000 0.01352  0.51350  0.51350  Biso   1.000  I
  I1996    1.0000 0.48650  0.51350  0.98648  Biso   1.000  I
  I1997    1.0000 0.01352  0.98648  0.98648  Biso   1.000  I
  I1998    1.0000 0.51350  0.48650  0.98648  Biso   1.000  I
  I1999    1.0000 0.01352  0.48650  0.48650  Biso   1.000  I
  I2000    1.0000 0.48650  0.98648  0.51350  Biso   1.000  I
  I2001    1.0000 0.01352  0.98648  0.98648  Biso   1.000  I
  I2002    1.0000 0.01352  0.48650  0.48650  Biso   1.000  I
  I2003    1.0000 0.51350  0.98648  0.48650  Biso   1.000  I
  I2004    1.0000 0.51350  0.48650  0.98648  Biso   1.000  I
  I2005    1.0000 0.51350  0.98648  0.48650  Biso   1.000  I
  I2006    1.0000 0.62499  0.62499  0.12502  Biso   1.000  I
  I2007    1.0000 0.12502  0.62499  0.62499  Biso   1.000  I
  I2008    1.0000 0.62499  0.12502  0.62499  Biso   1.000  I
  I2009    1.0000 0.69222  0.69222  0.19220  Biso   1.000  I
  I2010    1.0000 0.19220  0.69222  0.69222  Biso   1.000  I
  I2011    1.0000 0.69222  0.19220  0.69222  Biso   1.000  I
  I2012    1.0000 0.76349  0.73649  0.26351  Biso   1.000  I
  I2013    1.0000 0.76349  0.76349  0.23651  Biso   1.000  I
  I2014    1.0000 0.73649  0.76349  0.26351  Biso   1.000  I
  I2015    1.0000 0.23651  0.76349  0.76349  Biso   1.000  I
  I2016    1.0000 0.26351  0.76349  0.73649  Biso   1.000  I
  I2017    1.0000 0.26351  0.73649  0.76349  Biso   1.000  I
  I2018    1.0000 0.76349  0.23651  0.76349  Biso   1.000  I
  I2019    1.0000 0.73649  0.26351  0.76349  Biso   1.000  I
  I2020    1.0000 0.76349  0.26351  0.73649  Biso   1.000  I
  I2021    1.0000 0.69222  0.80780  0.30778  Biso   1.000  I
  I2022    1.0000 0.80780  0.80780  0.19220  Biso   1.000  I
  I2023    1.0000 0.80780  0.69222  0.30778  Biso   1.000  I
  I2024    1.0000 0.30778  0.69222  0.80780  Biso   1.000  I
  I2025    1.0000 0.30778  0.80780  0.69222  Biso   1.000  I
  I2026    1.0000 0.19220  0.80780  0.80780  Biso   1.000  I
  I2027    1.0000 0.80780  0.30778  0.69222  Biso   1.000  I
  I2028    1.0000 0.69222  0.30778  0.80780  Biso   1.000  I
  I2029    1.0000 0.80780  0.19220  0.80780  Biso   1.000  I
  I2030    1.0000 0.62499  0.87498  0.37501  Biso   1.000  I
  I2031    1.0000 0.73649  0.73649  0.23651  Biso   1.000  I
  I2032    1.0000 0.87498  0.87498  0.12502  Biso   1.000  I
  I2033    1.0000 0.87498  0.62499  0.37501  Biso   1.000  I
  I2034    1.0000 0.37501  0.62499  0.87498  Biso   1.000  I
  I2035    1.0000 0.23651  0.73649  0.73649  Biso   1.000  I
  I2036    1.0000 0.37501  0.87498  0.62499  Biso   1.000  I
  I2037    1.0000 0.12502  0.87498  0.87498  Biso   1.000  I
  I2038    1.0000 0.87498  0.37501  0.62499  Biso   1.000  I
  I2039    1.0000 0.73649  0.23651  0.73649  Biso   1.000  I
  I2040    1.0000 0.62499  0.37501  0.87498  Biso   1.000  I
  I2041    1.0000 0.87498  0.12502  0.87498  Biso   1.000  I
  I2042    1.0000 0.55781  0.94221  0.44219  Biso   1.000  I
  I2043    1.0000 0.94221  0.94221  0.05779  Biso   1.000  I
  I2044    1.0000 0.94221  0.55781  0.44219  Biso   1.000  I
  I2045    1.0000 0.44219  0.55781  0.94221  Biso   1.000  I
  I2046    1.0000 0.44219  0.94221  0.55781  Biso   1.000  I
  I2047    1.0000 0.05779  0.94221  0.94221  Biso   1.000  I
  I2048    1.0000 0.94221  0.44219  0.55781  Biso   1.000  I
  I2049    1.0000 0.55781  0.44219  0.94221  Biso   1.000  I
  I2050    1.0000 0.94221  0.05779  0.94221  Biso   1.000  I
  I2051    1.0000 0.48650  0.98648  0.51350  Biso   1.000  I
  I2052    1.0000 0.98648  0.48650  0.51350  Biso   1.000  I
  I2053    1.0000 0.51350  0.48650  0.98648  Biso   1.000  I
  I2054    1.0000 0.51350  0.98648  0.48650  Biso   1.000  I
  I2055    1.0000 0.98648  0.51350  0.48650  Biso   1.000  I
  I2056    1.0000 0.48650  0.51350  0.98648  Biso   1.000  I
  I2057    1.0000 0.30778  0.30778  0.19220  Biso   1.000  I
  I2058    1.0000 0.23651  0.26351  0.26351  Biso   1.000  I
  I2059    1.0000 0.23651  0.23651  0.23651  Biso   1.000  I
  I2060    1.0000 0.26351  0.23651  0.26351  Biso   1.000  I
  I2061    1.0000 0.37501  0.37501  0.12502  Biso   1.000  I
  I2062    1.0000 0.30778  0.19220  0.30778  Biso   1.000  I
  I2063    1.0000 0.19220  0.19220  0.19220  Biso   1.000  I
  I2064    1.0000 0.19220  0.30778  0.30778  Biso   1.000  I
  I2065    1.0000 0.44219  0.44219  0.05779  Biso   1.000  I
  I2066    1.0000 0.37501  0.12502  0.37501  Biso   1.000  I
  I2067    1.0000 0.26351  0.26351  0.23651  Biso   1.000  I
  I2068    1.0000 0.12502  0.12502  0.12502  Biso   1.000  I
  I2069    1.0000 0.12502  0.37501  0.37501  Biso   1.000  I
  I2070    1.0000 0.51350  0.51350  0.01352  Biso   1.000  I
  I2071    1.0000 0.51350  0.48650  0.98648  Biso   1.000  I
  I2072    1.0000 0.48650  0.51350  0.98648  Biso   1.000  I
  I2073    1.0000 0.44219  0.05779  0.44219  Biso   1.000  I
  I2074    1.0000 0.05779  0.05779  0.05779  Biso   1.000  I
  I2075    1.0000 0.05779  0.44219  0.44219  Biso   1.000  I
  I2076    1.0000 0.44219  0.55781  0.94221  Biso   1.000  I
  I2077    1.0000 0.55781  0.44219  0.94221  Biso   1.000  I
  I2078    1.0000 0.55781  0.55781  0.05779  Biso   1.000  I
  I2079    1.0000 0.51350  0.01352  0.51350  Biso   1.000  I
  I2080    1.0000 0.48650  0.98648  0.51350  Biso   1.000  I
  I2081    1.0000 0.51350  0.98648  0.48650  Biso   1.000  I
  I2082    1.0000 0.98648  0.98648  0.01352  Biso   1.000  I
  I2083    1.0000 0.98648  0.01352  0.98648  Biso   1.000  I
  I2084    1.0000 0.01352  0.98648  0.98648  Biso   1.000  I
  I2085    1.0000 0.01352  0.51350  0.51350  Biso   1.000  I
  I2086    1.0000 0.98648  0.51350  0.48650  Biso   1.000  I
  I2087    1.0000 0.98648  0.48650  0.51350  Biso   1.000  I
  I2088    1.0000 0.48650  0.48650  0.01352  Biso   1.000  I
  I2089    1.0000 0.37501  0.62499  0.87498  Biso   1.000  I
  I2090    1.0000 0.62499  0.37501  0.87498  Biso   1.000  I
  I2091    1.0000 0.62499  0.62499  0.12502  Biso   1.000  I
  I2092    1.0000 0.55781  0.94221  0.44219  Biso   1.000  I
  I2093    1.0000 0.44219  0.94221  0.55781  Biso   1.000  I
  I2094    1.0000 0.55781  0.05779  0.55781  Biso   1.000  I
  I2095    1.0000 0.94221  0.05779  0.94221  Biso   1.000  I
  I2096    1.0000 0.05779  0.94221  0.94221  Biso   1.000  I
  I2097    1.0000 0.94221  0.94221  0.05779  Biso   1.000  I
  I2098    1.0000 0.94221  0.44219  0.55781  Biso   1.000  I
  I2099    1.0000 0.94221  0.55781  0.44219  Biso   1.000  I
  I2100    1.0000 0.05779  0.55781  0.55781  Biso   1.000  I
  I2101    1.0000 0.30778  0.69222  0.80780  Biso   1.000  I
  I2102    1.0000 0.69222  0.30778  0.80780  Biso   1.000  I
  I2103    1.0000 0.69222  0.69222  0.19220  Biso   1.000  I
  I2104    1.0000 0.48650  0.01352  0.48650  Biso   1.000  I
  I2105    1.0000 0.62499  0.87498  0.37501  Biso   1.000  I
  I2106    1.0000 0.37501  0.87498  0.62499  Biso   1.000  I
  I2107    1.0000 0.62499  0.12502  0.62499  Biso   1.000  I
  I2108    1.0000 0.01352  0.01352  0.01352  Biso   1.000  I
  I2109    1.0000 0.87498  0.12502  0.87498  Biso   1.000  I
  I2110    1.0000 0.12502  0.87498  0.87498  Biso   1.000  I
  I2111    1.0000 0.87498  0.87498  0.12502  Biso   1.000  I
  I2112    1.0000 0.01352  0.48650  0.48650  Biso   1.000  I
  I2113    1.0000 0.87498  0.37501  0.62499  Biso   1.000  I
  I2114    1.0000 0.87498  0.62499  0.37501  Biso   1.000  I
  I2115    1.0000 0.12502  0.62499  0.62499  Biso   1.000  I
  I2116    1.0000 0.23651  0.76349  0.76349  Biso   1.000  I
  I2117    1.0000 0.26351  0.76349  0.73649  Biso   1.000  I
  I2118    1.0000 0.23651  0.73649  0.73649  Biso   1.000  I
  I2119    1.0000 0.73649  0.23651  0.73649  Biso   1.000  I
  I2120    1.0000 0.76349  0.26351  0.73649  Biso   1.000  I
  I2121    1.0000 0.76349  0.23651  0.76349  Biso   1.000  I
  I2122    1.0000 0.76349  0.76349  0.23651  Biso   1.000  I
  I2123    1.0000 0.73649  0.76349  0.26351  Biso   1.000  I
  I2124    1.0000 0.76349  0.73649  0.26351  Biso   1.000  I
  I2125    1.0000 0.69222  0.80780  0.30778  Biso   1.000  I
  I2126    1.0000 0.30778  0.80780  0.69222  Biso   1.000  I
  I2127    1.0000 0.69222  0.19220  0.69222  Biso   1.000  I
  I2128    1.0000 0.80780  0.19220  0.80780  Biso   1.000  I
  I2129    1.0000 0.19220  0.80780  0.80780  Biso   1.000  I
  I2130    1.0000 0.80780  0.80780  0.19220  Biso   1.000  I
  I2131    1.0000 0.80780  0.30778  0.69222  Biso   1.000  I
  I2132    1.0000 0.80780  0.69222  0.30778  Biso   1.000  I
  I2133    1.0000 0.19220  0.69222  0.69222  Biso   1.000  I
  I2134    1.0000 0.19220  0.69222  0.69222  Biso   1.000  I
  I2135    1.0000 0.30778  0.80780  0.69222  Biso   1.000  I
  I2136    1.0000 0.19220  0.80780  0.80780  Biso   1.000  I
  I2137    1.0000 0.80780  0.19220  0.80780  Biso   1.000  I
  I2138    1.0000 0.80780  0.30778  0.69222  Biso   1.000  I
  I2139    1.0000 0.69222  0.19220  0.69222  Biso   1.000  I
  I2140    1.0000 0.80780  0.69222  0.30778  Biso   1.000  I
  I2141    1.0000 0.69222  0.80780  0.30778  Biso   1.000  I
  I2142    1.0000 0.80780  0.80780  0.19220  Biso   1.000  I
  I2143    1.0000 0.76349  0.73649  0.26351  Biso   1.000  I
  I2144    1.0000 0.73649  0.73649  0.23651  Biso   1.000  I
  I2145    1.0000 0.76349  0.76349  0.23651  Biso   1.000  I
  I2146    1.0000 0.23651  0.76349  0.76349  Biso   1.000  I
  I2147    1.0000 0.23651  0.73649  0.73649  Biso   1.000  I
  I2148    1.0000 0.26351  0.73649  0.76349  Biso   1.000  I
  I2149    1.0000 0.76349  0.23651  0.76349  Biso   1.000  I
  I2150    1.0000 0.73649  0.26351  0.76349  Biso   1.000  I
  I2151    1.0000 0.76349  0.26351  0.73649  Biso   1.000  I
  I2152    1.0000 0.73649  0.23651  0.73649  Biso   1.000  I
  I2153    1.0000 0.73649  0.26351  0.76349  Biso   1.000  I
  I2154    1.0000 0.76349  0.26351  0.73649  Biso   1.000  I
  I2155    1.0000 0.26351  0.76349  0.73649  Biso   1.000  I
  I2156    1.0000 0.23651  0.73649  0.73649  Biso   1.000  I
  I2157    1.0000 0.26351  0.73649  0.76349  Biso   1.000  I
  I2158    1.0000 0.73649  0.73649  0.23651  Biso   1.000  I
  I2159    1.0000 0.73649  0.76349  0.26351  Biso   1.000  I
  I2160    1.0000 0.76349  0.73649  0.26351  Biso   1.000  I
  I2161    1.0000 0.73649  0.23651  0.73649  Biso   1.000  I
  I2162    1.0000 0.73649  0.26351  0.76349  Biso   1.000  I
  I2163    1.0000 0.76349  0.23651  0.76349  Biso   1.000  I
  I2164    1.0000 0.73649  0.73649  0.23651  Biso   1.000  I
  I2165    1.0000 0.76349  0.76349  0.23651  Biso   1.000  I
  I2166    1.0000 0.73649  0.76349  0.26351  Biso   1.000  I
  I2167    1.0000 0.23651  0.76349  0.76349  Biso   1.000  I
  I2168    1.0000 0.26351  0.76349  0.73649  Biso   1.000  I
  I2169    1.0000 0.26351  0.73649  0.76349  Biso   1.000  I
  I2170    1.0000 0.12502  0.62499  0.62499  Biso   1.000  I
  I2171    1.0000 0.26351  0.73649  0.76349  Biso   1.000  I
  I2172    1.0000 0.37501  0.87498  0.62499  Biso   1.000  I
  I2173    1.0000 0.12502  0.87498  0.87498  Biso   1.000  I
  I2174    1.0000 0.87498  0.12502  0.87498  Biso   1.000  I
  I2175    1.0000 0.73649  0.26351  0.76349  Biso   1.000  I
  I2176    1.0000 0.87498  0.37501  0.62499  Biso   1.000  I
  I2177    1.0000 0.62499  0.12502  0.62499  Biso   1.000  I
  I2178    1.0000 0.87498  0.62499  0.37501  Biso   1.000  I
  I2179    1.0000 0.73649  0.73649  0.23651  Biso   1.000  I
  I2180    1.0000 0.62499  0.87498  0.37501  Biso   1.000  I
  I2181    1.0000 0.87498  0.87498  0.12502  Biso   1.000  I
  I2182    1.0000 0.80780  0.80780  0.19220  Biso   1.000  I
  I2183    1.0000 0.69222  0.69222  0.19220  Biso   1.000  I
  I2184    1.0000 0.80780  0.69222  0.30778  Biso   1.000  I
  I2185    1.0000 0.30778  0.69222  0.80780  Biso   1.000  I
  I2186    1.0000 0.19220  0.69222  0.69222  Biso   1.000  I
  I2187    1.0000 0.19220  0.80780  0.80780  Biso   1.000  I
  I2188    1.0000 0.80780  0.30778  0.69222  Biso   1.000  I
  I2189    1.0000 0.69222  0.30778  0.80780  Biso   1.000  I
  I2190    1.0000 0.80780  0.19220  0.80780  Biso   1.000  I
  I2191    1.0000 0.80780  0.30778  0.69222  Biso   1.000  I
  I2192    1.0000 0.69222  0.30778  0.80780  Biso   1.000  I
  I2193    1.0000 0.69222  0.19220  0.69222  Biso   1.000  I
  I2194    1.0000 0.30778  0.69222  0.80780  Biso   1.000  I
  I2195    1.0000 0.19220  0.69222  0.69222  Biso   1.000  I
  I2196    1.0000 0.30778  0.80780  0.69222  Biso   1.000  I
  I2197    1.0000 0.80780  0.69222  0.30778  Biso   1.000  I
  I2198    1.0000 0.69222  0.80780  0.30778  Biso   1.000  I
  I2199    1.0000 0.69222  0.69222  0.19220  Biso   1.000  I
  I2200    1.0000 0.80780  0.19220  0.80780  Biso   1.000  I
  I2201    1.0000 0.69222  0.30778  0.80780  Biso   1.000  I
  I2202    1.0000 0.69222  0.19220  0.69222  Biso   1.000  I
  I2203    1.0000 0.69222  0.80780  0.30778  Biso   1.000  I
  I2204    1.0000 0.80780  0.80780  0.19220  Biso   1.000  I
  I2205    1.0000 0.69222  0.69222  0.19220  Biso   1.000  I
  I2206    1.0000 0.30778  0.69222  0.80780  Biso   1.000  I
  I2207    1.0000 0.30778  0.80780  0.69222  Biso   1.000  I
  I2208    1.0000 0.19220  0.80780  0.80780  Biso   1.000  I
  I2209    1.0000 0.05779  0.55781  0.55781  Biso   1.000  I
  I2210    1.0000 0.44219  0.94221  0.55781  Biso   1.000  I
  I2211    1.0000 0.05779  0.94221  0.94221  Biso   1.000  I
  I2212    1.0000 0.94221  0.05779  0.94221  Biso   1.000  I
  I2213    1.0000 0.94221  0.44219  0.55781  Biso   1.000  I
  I2214    1.0000 0.55781  0.05779  0.55781  Biso   1.000  I
  I2215    1.0000 0.94221  0.55781  0.44219  Biso   1.000  I
  I2216    1.0000 0.55781  0.94221  0.44219  Biso   1.000  I
  I2217    1.0000 0.94221  0.94221  0.05779  Biso   1.000  I
  I2218    1.0000 0.87498  0.87498  0.12502  Biso   1.000  I
  I2219    1.0000 0.73649  0.76349  0.26351  Biso   1.000  I
  I2220    1.0000 0.62499  0.62499  0.12502  Biso   1.000  I
  I2221    1.0000 0.87498  0.62499  0.37501  Biso   1.000  I
  I2222    1.0000 0.37501  0.62499  0.87498  Biso   1.000  I
  I2223    1.0000 0.26351  0.76349  0.73649  Biso   1.000  I
  I2224    1.0000 0.12502  0.62499  0.62499  Biso   1.000  I
  I2225    1.0000 0.12502  0.87498  0.87498  Biso   1.000  I
  I2226    1.0000 0.87498  0.37501  0.62499  Biso   1.000  I
  I2227    1.0000 0.73649  0.23651  0.73649  Biso   1.000  I
  I2228    1.0000 0.62499  0.37501  0.87498  Biso   1.000  I
  I2229    1.0000 0.87498  0.12502  0.87498  Biso   1.000  I
  I2230    1.0000 0.87498  0.37501  0.62499  Biso   1.000  I
  I2231    1.0000 0.76349  0.23651  0.76349  Biso   1.000  I
  I2232    1.0000 0.62499  0.37501  0.87498  Biso   1.000  I
  I2233    1.0000 0.62499  0.12502  0.62499  Biso   1.000  I
  I2234    1.0000 0.37501  0.62499  0.87498  Biso   1.000  I
  I2235    1.0000 0.23651  0.76349  0.76349  Biso   1.000  I
  I2236    1.0000 0.12502  0.62499  0.62499  Biso   1.000  I
  I2237    1.0000 0.37501  0.87498  0.62499  Biso   1.000  I
  I2238    1.0000 0.87498  0.62499  0.37501  Biso   1.000  I
  I2239    1.0000 0.76349  0.76349  0.23651  Biso   1.000  I
  I2240    1.0000 0.62499  0.87498  0.37501  Biso   1.000  I
  I2241    1.0000 0.62499  0.62499  0.12502  Biso   1.000  I
  I2242    1.0000 0.87498  0.12502  0.87498  Biso   1.000  I
  I2243    1.0000 0.76349  0.26351  0.73649  Biso   1.000  I
  I2244    1.0000 0.62499  0.37501  0.87498  Biso   1.000  I
  I2245    1.0000 0.62499  0.12502  0.62499  Biso   1.000  I
  I2246    1.0000 0.62499  0.87498  0.37501  Biso   1.000  I
  I2247    1.0000 0.76349  0.73649  0.26351  Biso   1.000  I
  I2248    1.0000 0.87498  0.87498  0.12502  Biso   1.000  I
  I2249    1.0000 0.62499  0.62499  0.12502  Biso   1.000  I
  I2250    1.0000 0.37501  0.62499  0.87498  Biso   1.000  I
  I2251    1.0000 0.23651  0.73649  0.73649  Biso   1.000  I
  I2252    1.0000 0.37501  0.87498  0.62499  Biso   1.000  I
  I2253    1.0000 0.12502  0.87498  0.87498  Biso   1.000  I
  I2254    1.0000 0.98648  0.51350  0.48650  Biso   1.000  I
  I2255    1.0000 0.01352  0.48650  0.48650  Biso   1.000  I
  I2256    1.0000 0.98648  0.48650  0.51350  Biso   1.000  I
  I2257    1.0000 0.51350  0.98648  0.48650  Biso   1.000  I
  I2258    1.0000 0.48650  0.01352  0.48650  Biso   1.000  I
  I2259    1.0000 0.51350  0.01352  0.51350  Biso   1.000  I
  I2260    1.0000 0.98648  0.01352  0.98648  Biso   1.000  I
  I2261    1.0000 0.01352  0.01352  0.01352  Biso   1.000  I
  I2262    1.0000 0.98648  0.98648  0.01352  Biso   1.000  I
  I2263    1.0000 0.01352  0.98648  0.98648  Biso   1.000  I
  I2264    1.0000 0.01352  0.01352  0.01352  Biso   1.000  I
  I2265    1.0000 0.98648  0.98648  0.01352  Biso   1.000  I
  I2266    1.0000 0.98648  0.51350  0.48650  Biso   1.000  I
  I2267    1.0000 0.01352  0.51350  0.51350  Biso   1.000  I
  I2268    1.0000 0.01352  0.48650  0.48650  Biso   1.000  I
  I2269    1.0000 0.48650  0.98648  0.51350  Biso   1.000  I
  I2270    1.0000 0.51350  0.98648  0.48650  Biso   1.000  I
  I2271    1.0000 0.48650  0.01352  0.48650  Biso   1.000  I
  I2272    1.0000 0.01352  0.51350  0.51350  Biso   1.000  I
  I2273    1.0000 0.01352  0.48650  0.48650  Biso   1.000  I
  I2274    1.0000 0.98648  0.48650  0.51350  Biso   1.000  I
  I2275    1.0000 0.48650  0.98648  0.51350  Biso   1.000  I
  I2276    1.0000 0.48650  0.01352  0.48650  Biso   1.000  I
  I2277    1.0000 0.51350  0.01352  0.51350  Biso   1.000  I
  I2278    1.0000 0.98648  0.01352  0.98648  Biso   1.000  I
  I2279    1.0000 0.01352  0.98648  0.98648  Biso   1.000  I
  I2280    1.0000 0.01352  0.01352  0.01352  Biso   1.000  I
  I2281    1.0000 0.94221  0.94221  0.05779  Biso   1.000  I
  I2282    1.0000 0.55781  0.55781  0.05779  Biso   1.000  I
  I2283    1.0000 0.94221  0.55781  0.44219  Biso   1.000  I
  I2284    1.0000 0.44219  0.55781  0.94221  Biso   1.000  I
  I2285    1.0000 0.05779  0.55781  0.55781  Biso   1.000  I
  I2286    1.0000 0.05779  0.94221  0.94221  Biso   1.000  I
  I2287    1.0000 0.94221  0.44219  0.55781  Biso   1.000  I
  I2288    1.0000 0.55781  0.44219  0.94221  Biso   1.000  I
  I2289    1.0000 0.94221  0.05779  0.94221  Biso   1.000  I
  I2290    1.0000 0.94221  0.44219  0.55781  Biso   1.000  I
  I2291    1.0000 0.55781  0.44219  0.94221  Biso   1.000  I
  I2292    1.0000 0.55781  0.05779  0.55781  Biso   1.000  I
  I2293    1.0000 0.44219  0.55781  0.94221  Biso   1.000  I
  I2294    1.0000 0.05779  0.55781  0.55781  Biso   1.000  I
  I2295    1.0000 0.44219  0.94221  0.55781  Biso   1.000  I
  I2296    1.0000 0.94221  0.55781  0.44219  Biso   1.000  I
  I2297    1.0000 0.55781  0.94221  0.44219  Biso   1.000  I
  I2298    1.0000 0.55781  0.55781  0.05779  Biso   1.000  I
  I2299    1.0000 0.94221  0.05779  0.94221  Biso   1.000  I
  I2300    1.0000 0.55781  0.44219  0.94221  Biso   1.000  I
  I2301    1.0000 0.55781  0.05779  0.55781  Biso   1.000  I
  I2302    1.0000 0.55781  0.94221  0.44219  Biso   1.000  I
  I2303    1.0000 0.94221  0.94221  0.05779  Biso   1.000  I
  I2304    1.0000 0.55781  0.55781  0.05779  Biso   1.000  I
  I2305    1.0000 0.44219  0.55781  0.94221  Biso   1.000  I
  I2306    1.0000 0.44219  0.94221  0.55781  Biso   1.000  I
  I2307    1.0000 0.05779  0.94221  0.94221  Biso   1.000  I
  I2308    1.0000 0.05779  0.44219  0.44219  Biso   1.000  I
  I2309    1.0000 0.94221  0.55781  0.44219  Biso   1.000  I
  I2310    1.0000 0.44219  0.05779  0.44219  Biso   1.000  I
  I2311    1.0000 0.55781  0.05779  0.55781  Biso   1.000  I
  I2312    1.0000 0.55781  0.94221  0.44219  Biso   1.000  I
  I2313    1.0000 0.05779  0.05779  0.05779  Biso   1.000  I
  I2314    1.0000 0.94221  0.05779  0.94221  Biso   1.000  I
  I2315    1.0000 0.05779  0.05779  0.05779  Biso   1.000  I
  I2316    1.0000 0.05779  0.94221  0.94221  Biso   1.000  I
  I2317    1.0000 0.05779  0.55781  0.55781  Biso   1.000  I
  I2318    1.0000 0.05779  0.44219  0.44219  Biso   1.000  I
  I2319    1.0000 0.94221  0.55781  0.44219  Biso   1.000  I
  I2320    1.0000 0.55781  0.94221  0.44219  Biso   1.000  I
  I2321    1.0000 0.44219  0.05779  0.44219  Biso   1.000  I
  I2322    1.0000 0.05779  0.44219  0.44219  Biso   1.000  I
  I2323    1.0000 0.05779  0.55781  0.55781  Biso   1.000  I
  I2324    1.0000 0.44219  0.05779  0.44219  Biso   1.000  I
  I2325    1.0000 0.55781  0.05779  0.55781  Biso   1.000  I
  I2326    1.0000 0.05779  0.94221  0.94221  Biso   1.000  I
  I2327    1.0000 0.05779  0.05779  0.05779  Biso   1.000  I
  I2328    1.0000 0.94221  0.05779  0.94221  Biso   1.000  I
  I2329    1.0000 0.98648  0.01352  0.98648  Biso   1.000  I
  I2330    1.0000 0.51350  0.48650  0.98648  Biso   1.000  I
  I2331    1.0000 0.48650  0.51350  0.98648  Biso   1.000  I
  I2332    1.0000 0.48650  0.48650  0.01352  Biso   1.000  I
  I2333    1.0000 0.98648  0.48650  0.51350  Biso   1.000  I
  I2334    1.0000 0.01352  0.51350  0.51350  Biso   1.000  I
  I2335    1.0000 0.01352  0.48650  0.48650  Biso   1.000  I
  I2336    1.0000 0.51350  0.48650  0.98648  Biso   1.000  I
  I2337    1.0000 0.51350  0.51350  0.01352  Biso   1.000  I
  I2338    1.0000 0.48650  0.48650  0.01352  Biso   1.000  I
  I2339    1.0000 0.98648  0.51350  0.48650  Biso   1.000  I
  I2340    1.0000 0.98648  0.48650  0.51350  Biso   1.000  I
  I2341    1.0000 0.01352  0.48650  0.48650  Biso   1.000  I
  I2342    1.0000 0.98648  0.98648  0.01352  Biso   1.000  I
  I2343    1.0000 0.98648  0.01352  0.98648  Biso   1.000  I
  I2344    1.0000 0.01352  0.01352  0.01352  Biso   1.000  I
  I2345    1.0000 0.98648  0.51350  0.48650  Biso   1.000  I
  I2346    1.0000 0.48650  0.51350  0.98648  Biso   1.000  I
  I2347    1.0000 0.51350  0.51350  0.01352  Biso   1.000  I
  I2348    1.0000 0.48650  0.48650  0.01352  Biso   1.000  I
  I2349    1.0000 0.98648  0.98648  0.01352  Biso   1.000  I
  I2350    1.0000 0.01352  0.98648  0.98648  Biso   1.000  I
  I2351    1.0000 0.01352  0.01352  0.01352  Biso   1.000  I
  I2352    1.0000 0.01352  0.51350  0.51350  Biso   1.000  I
  I2353    1.0000 0.48650  0.51350  0.98648  Biso   1.000  I
  I2354    1.0000 0.51350  0.51350  0.01352  Biso   1.000  I
  I2355    1.0000 0.48650  0.48650  0.01352  Biso   1.000  I
  I2356    1.0000 0.48650  0.98648  0.51350  Biso   1.000  I
  I2357    1.0000 0.51350  0.98648  0.48650  Biso   1.000  I
  I2358    1.0000 0.48650  0.01352  0.48650  Biso   1.000  I
  I2359    1.0000 0.51350  0.51350  0.01352  Biso   1.000  I
  I2360    1.0000 0.98648  0.51350  0.48650  Biso   1.000  I
  I2361    1.0000 0.98648  0.48650  0.51350  Biso   1.000  I
  I2362    1.0000 0.01352  0.48650  0.48650  Biso   1.000  I
  I2363    1.0000 0.51350  0.01352  0.51350  Biso   1.000  I
  I2364    1.0000 0.01352  0.51350  0.51350  Biso   1.000  I
  I2365    1.0000 0.48650  0.98648  0.51350  Biso   1.000  I
  I2366    1.0000 0.48650  0.01352  0.48650  Biso   1.000  I
  I2367    1.0000 0.51350  0.01352  0.51350  Biso   1.000  I
  I2368    1.0000 0.51350  0.48650  0.98648  Biso   1.000  I
  I2369    1.0000 0.48650  0.51350  0.98648  Biso   1.000  I
  I2370    1.0000 0.48650  0.48650  0.01352  Biso   1.000  I
  I2371    1.0000 0.01352  0.98648  0.98648  Biso   1.000  I
  I2372    1.0000 0.48650  0.51350  0.98648  Biso   1.000  I
  I2373    1.0000 0.51350  0.51350  0.01352  Biso   1.000  I
  I2374    1.0000 0.48650  0.48650  0.01352  Biso   1.000  I
  I2375    1.0000 0.51350  0.98648  0.48650  Biso   1.000  I
  I2376    1.0000 0.48650  0.98648  0.51350  Biso   1.000  I
  I2377    1.0000 0.48650  0.01352  0.48650  Biso   1.000  I
  I2378    1.0000 0.51350  0.01352  0.51350  Biso   1.000  I
  I2379    1.0000 0.01352  0.98648  0.98648  Biso   1.000  I
  I2380    1.0000 0.51350  0.48650  0.98648  Biso   1.000  I
  I2381    1.0000 0.51350  0.48650  0.98648  Biso   1.000  I
  I2382    1.0000 0.51350  0.98648  0.48650  Biso   1.000  I
  I2383    1.0000 0.98648  0.98648  0.01352  Biso   1.000  I
  I2384    1.0000 0.98648  0.01352  0.98648  Biso   1.000  I
  I2385    1.0000 0.01352  0.01352  0.01352  Biso   1.000  I
  I2386    1.0000 0.12502  0.37501  0.37501  Biso   1.000  I
  I2387    1.0000 0.87498  0.62499  0.37501  Biso   1.000  I
  I2388    1.0000 0.48650  0.98648  0.51350  Biso   1.000  I
  I2389    1.0000 0.37501  0.12502  0.37501  Biso   1.000  I
  I2390    1.0000 0.62499  0.12502  0.62499  Biso   1.000  I
  I2391    1.0000 0.62499  0.87498  0.37501  Biso   1.000  I
  I2392    1.0000 0.12502  0.12502  0.12502  Biso   1.000  I
  I2393    1.0000 0.87498  0.12502  0.87498  Biso   1.000  I
  I2394    1.0000 0.12502  0.12502  0.12502  Biso   1.000  I
  I2395    1.0000 0.12502  0.87498  0.87498  Biso   1.000  I
  I2396    1.0000 0.98648  0.48650  0.51350  Biso   1.000  I
  I2397    1.0000 0.12502  0.62499  0.62499  Biso   1.000  I
  I2398    1.0000 0.12502  0.37501  0.37501  Biso   1.000  I
  I2399    1.0000 0.87498  0.62499  0.37501  Biso   1.000  I
  I2400    1.0000 0.62499  0.87498  0.37501  Biso   1.000  I
  I2401    1.0000 0.37501  0.12502  0.37501  Biso   1.000  I
  I2402    1.0000 0.12502  0.37501  0.37501  Biso   1.000  I
  I2403    1.0000 0.12502  0.62499  0.62499  Biso   1.000  I
  I2404    1.0000 0.37501  0.12502  0.37501  Biso   1.000  I
  I2405    1.0000 0.62499  0.12502  0.62499  Biso   1.000  I
  I2406    1.0000 0.98648  0.98648  0.01352  Biso   1.000  I
  I2407    1.0000 0.12502  0.87498  0.87498  Biso   1.000  I
  I2408    1.0000 0.12502  0.12502  0.12502  Biso   1.000  I
  I2409    1.0000 0.87498  0.12502  0.87498  Biso   1.000  I
  I2410    1.0000 0.44219  0.44219  0.05779  Biso   1.000  I
  I2411    1.0000 0.55781  0.44219  0.94221  Biso   1.000  I
  I2412    1.0000 0.05779  0.55781  0.55781  Biso   1.000  I
  I2413    1.0000 0.05779  0.44219  0.44219  Biso   1.000  I
  I2414    1.0000 0.94221  0.44219  0.55781  Biso   1.000  I
  I2415    1.0000 0.44219  0.44219  0.05779  Biso   1.000  I
  I2416    1.0000 0.55781  0.55781  0.05779  Biso   1.000  I
  I2417    1.0000 0.55781  0.44219  0.94221  Biso   1.000  I
  I2418    1.0000 0.94221  0.44219  0.55781  Biso   1.000  I
  I2419    1.0000 0.05779  0.44219  0.44219  Biso   1.000  I
  I2420    1.0000 0.05779  0.05779  0.05779  Biso   1.000  I
  I2421    1.0000 0.94221  0.94221  0.05779  Biso   1.000  I
  I2422    1.0000 0.44219  0.44219  0.05779  Biso   1.000  I
  I2423    1.0000 0.55781  0.55781  0.05779  Biso   1.000  I
  I2424    1.0000 0.05779  0.94221  0.94221  Biso   1.000  I
  I2425    1.0000 0.05779  0.05779  0.05779  Biso   1.000  I
  I2426    1.0000 0.94221  0.94221  0.05779  Biso   1.000  I
  I2427    1.0000 0.44219  0.44219  0.05779  Biso   1.000  I
  I2428    1.0000 0.44219  0.55781  0.94221  Biso   1.000  I
  I2429    1.0000 0.55781  0.94221  0.44219  Biso   1.000  I
  I2430    1.0000 0.44219  0.05779  0.44219  Biso   1.000  I
  I2431    1.0000 0.44219  0.94221  0.55781  Biso   1.000  I
  I2432    1.0000 0.94221  0.44219  0.55781  Biso   1.000  I
  I2433    1.0000 0.05779  0.44219  0.44219  Biso   1.000  I
  I2434    1.0000 0.94221  0.55781  0.44219  Biso   1.000  I
  I2435    1.0000 0.44219  0.05779  0.44219  Biso   1.000  I
  I2436    1.0000 0.44219  0.94221  0.55781  Biso   1.000  I
  I2437    1.0000 0.44219  0.55781  0.94221  Biso   1.000  I
  I2438    1.0000 0.44219  0.44219  0.05779  Biso   1.000  I
  I2439    1.0000 0.55781  0.44219  0.94221  Biso   1.000  I
  I2440    1.0000 0.44219  0.44219  0.05779  Biso   1.000  I
  I2441    1.0000 0.55781  0.55781  0.05779  Biso   1.000  I
  I2442    1.0000 0.44219  0.55781  0.94221  Biso   1.000  I
  I2443    1.0000 0.44219  0.05779  0.44219  Biso   1.000  I
  I2444    1.0000 0.55781  0.05779  0.55781  Biso   1.000  I
  I2445    1.0000 0.44219  0.94221  0.55781  Biso   1.000  I
  I2446    1.0000 0.94221  0.05779  0.94221  Biso   1.000  I
  I2447    1.0000 0.05779  0.05779  0.05779  Biso   1.000  I
  I2448    1.0000 0.94221  0.94221  0.05779  Biso   1.000  I
  I2449    1.0000 0.19220  0.30778  0.30778  Biso   1.000  I
  I2450    1.0000 0.80780  0.69222  0.30778  Biso   1.000  I
  I2451    1.0000 0.30778  0.19220  0.30778  Biso   1.000  I
  I2452    1.0000 0.69222  0.19220  0.69222  Biso   1.000  I
  I2453    1.0000 0.69222  0.80780  0.30778  Biso   1.000  I
  I2454    1.0000 0.19220  0.19220  0.19220  Biso   1.000  I
  I2455    1.0000 0.80780  0.19220  0.80780  Biso   1.000  I
  I2456    1.0000 0.19220  0.19220  0.19220  Biso   1.000  I
  I2457    1.0000 0.19220  0.80780  0.80780  Biso   1.000  I
  I2458    1.0000 0.19220  0.69222  0.69222  Biso   1.000  I
  I2459    1.0000 0.19220  0.30778  0.30778  Biso   1.000  I
  I2460    1.0000 0.80780  0.69222  0.30778  Biso   1.000  I
  I2461    1.0000 0.69222  0.80780  0.30778  Biso   1.000  I
  I2462    1.0000 0.30778  0.19220  0.30778  Biso   1.000  I
  I2463    1.0000 0.19220  0.30778  0.30778  Biso   1.000  I
  I2464    1.0000 0.19220  0.69222  0.69222  Biso   1.000  I
  I2465    1.0000 0.30778  0.19220  0.30778  Biso   1.000  I
  I2466    1.0000 0.69222  0.19220  0.69222  Biso   1.000  I
  I2467    1.0000 0.19220  0.80780  0.80780  Biso   1.000  I
  I2468    1.0000 0.19220  0.19220  0.19220  Biso   1.000  I
  I2469    1.0000 0.80780  0.19220  0.80780  Biso   1.000  I
  I2470    1.0000 0.37501  0.37501  0.12502  Biso   1.000  I
  I2471    1.0000 0.62499  0.37501  0.87498  Biso   1.000  I
  I2472    1.0000 0.98648  0.51350  0.48650  Biso   1.000  I
  I2473    1.0000 0.12502  0.62499  0.62499  Biso   1.000  I
  I2474    1.0000 0.12502  0.37501  0.37501  Biso   1.000  I
  I2475    1.0000 0.87498  0.37501  0.62499  Biso   1.000  I
  I2476    1.0000 0.48650  0.51350  0.98648  Biso   1.000  I
  I2477    1.0000 0.37501  0.37501  0.12502  Biso   1.000  I
  I2478    1.0000 0.62499  0.62499  0.12502  Biso   1.000  I
  I2479    1.0000 0.62499  0.37501  0.87498  Biso   1.000  I
  I2480    1.0000 0.87498  0.37501  0.62499  Biso   1.000  I
  I2481    1.0000 0.12502  0.37501  0.37501  Biso   1.000  I
  I2482    1.0000 0.12502  0.12502  0.12502  Biso   1.000  I
  I2483    1.0000 0.87498  0.87498  0.12502  Biso   1.000  I
  I2484    1.0000 0.37501  0.37501  0.12502  Biso   1.000  I
  I2485    1.0000 0.62499  0.62499  0.12502  Biso   1.000  I
  I2486    1.0000 0.98648  0.01352  0.98648  Biso   1.000  I
  I2487    1.0000 0.12502  0.87498  0.87498  Biso   1.000  I
  I2488    1.0000 0.12502  0.12502  0.12502  Biso   1.000  I
  I2489    1.0000 0.87498  0.87498  0.12502  Biso   1.000  I
  I2490    1.0000 0.37501  0.37501  0.12502  Biso   1.000  I
  I2491    1.0000 0.37501  0.62499  0.87498  Biso   1.000  I
  I2492    1.0000 0.62499  0.87498  0.37501  Biso   1.000  I
  I2493    1.0000 0.51350  0.01352  0.51350  Biso   1.000  I
  I2494    1.0000 0.37501  0.12502  0.37501  Biso   1.000  I
  I2495    1.0000 0.37501  0.87498  0.62499  Biso   1.000  I
  I2496    1.0000 0.87498  0.37501  0.62499  Biso   1.000  I
  I2497    1.0000 0.01352  0.51350  0.51350  Biso   1.000  I
  I2498    1.0000 0.12502  0.37501  0.37501  Biso   1.000  I
  I2499    1.0000 0.87498  0.62499  0.37501  Biso   1.000  I
  I2500    1.0000 0.37501  0.12502  0.37501  Biso   1.000  I
  I2501    1.0000 0.37501  0.87498  0.62499  Biso   1.000  I
  I2502    1.0000 0.37501  0.62499  0.87498  Biso   1.000  I
  I2503    1.0000 0.51350  0.51350  0.01352  Biso   1.000  I
  I2504    1.0000 0.37501  0.37501  0.12502  Biso   1.000  I
  I2505    1.0000 0.62499  0.37501  0.87498  Biso   1.000  I
  I2506    1.0000 0.51350  0.48650  0.98648  Biso   1.000  I
  I2507    1.0000 0.37501  0.37501  0.12502  Biso   1.000  I
  I2508    1.0000 0.62499  0.62499  0.12502  Biso   1.000  I
  I2509    1.0000 0.37501  0.62499  0.87498  Biso   1.000  I
  I2510    1.0000 0.51350  0.98648  0.48650  Biso   1.000  I
  I2511    1.0000 0.37501  0.12502  0.37501  Biso   1.000  I
  I2512    1.0000 0.62499  0.12502  0.62499  Biso   1.000  I
  I2513    1.0000 0.37501  0.87498  0.62499  Biso   1.000  I
  I2514    1.0000 0.01352  0.98648  0.98648  Biso   1.000  I
  I2515    1.0000 0.87498  0.12502  0.87498  Biso   1.000  I
  I2516    1.0000 0.12502  0.12502  0.12502  Biso   1.000  I
  I2517    1.0000 0.87498  0.87498  0.12502  Biso   1.000  I
  I2518    1.0000 0.26351  0.26351  0.23651  Biso   1.000  I
  I2519    1.0000 0.23651  0.23651  0.23651  Biso   1.000  I
  I2520    1.0000 0.26351  0.23651  0.26351  Biso   1.000  I
  I2521    1.0000 0.73649  0.73649  0.23651  Biso   1.000  I
  I2522    1.0000 0.76349  0.76349  0.23651  Biso   1.000  I
  I2523    1.0000 0.73649  0.76349  0.26351  Biso   1.000  I
  I2524    1.0000 0.26351  0.26351  0.23651  Biso   1.000  I
  I2525    1.0000 0.23651  0.26351  0.26351  Biso   1.000  I
  I2526    1.0000 0.23651  0.23651  0.23651  Biso   1.000  I
  I2527    1.0000 0.73649  0.26351  0.76349  Biso   1.000  I
  I2528    1.0000 0.76349  0.26351  0.73649  Biso   1.000  I
  I2529    1.0000 0.76349  0.23651  0.76349  Biso   1.000  I
  I2530    1.0000 0.73649  0.73649  0.23651  Biso   1.000  I
  I2531    1.0000 0.76349  0.76349  0.23651  Biso   1.000  I
  I2532    1.0000 0.76349  0.73649  0.26351  Biso   1.000  I
  I2533    1.0000 0.26351  0.26351  0.23651  Biso   1.000  I
  I2534    1.0000 0.23651  0.26351  0.26351  Biso   1.000  I
  I2535    1.0000 0.26351  0.23651  0.26351  Biso   1.000  I
  I2536    1.0000 0.73649  0.23651  0.73649  Biso   1.000  I
  I2537    1.0000 0.73649  0.26351  0.76349  Biso   1.000  I
  I2538    1.0000 0.76349  0.26351  0.73649  Biso   1.000  I
  I2539    1.0000 0.26351  0.26351  0.23651  Biso   1.000  I
  I2540    1.0000 0.23651  0.26351  0.26351  Biso   1.000  I
  I2541    1.0000 0.26351  0.23651  0.26351  Biso   1.000  I
  I2542    1.0000 0.26351  0.76349  0.73649  Biso   1.000  I
  I2543    1.0000 0.23651  0.73649  0.73649  Biso   1.000  I
  I2544    1.0000 0.26351  0.73649  0.76349  Biso   1.000  I
  I2545    1.0000 0.23651  0.76349  0.76349  Biso   1.000  I
  I2546    1.0000 0.26351  0.76349  0.73649  Biso   1.000  I
  I2547    1.0000 0.26351  0.73649  0.76349  Biso   1.000  I
  I2548    1.0000 0.26351  0.26351  0.23651  Biso   1.000  I
  I2549    1.0000 0.23651  0.23651  0.23651  Biso   1.000  I
  I2550    1.0000 0.26351  0.23651  0.26351  Biso   1.000  I
  I2551    1.0000 0.73649  0.76349  0.26351  Biso   1.000  I
  I2552    1.0000 0.73649  0.73649  0.23651  Biso   1.000  I
  I2553    1.0000 0.76349  0.76349  0.23651  Biso   1.000  I
  I2554    1.0000 0.76349  0.73649  0.26351  Biso   1.000  I
  I2555    1.0000 0.23651  0.26351  0.26351  Biso   1.000  I
  I2556    1.0000 0.23651  0.23651  0.23651  Biso   1.000  I
  I2557    1.0000 0.23651  0.76349  0.76349  Biso   1.000  I
  I2558    1.0000 0.26351  0.76349  0.73649  Biso   1.000  I
  I2559    1.0000 0.26351  0.73649  0.76349  Biso   1.000  I
  I2560    1.0000 0.23651  0.23651  0.23651  Biso   1.000  I
  I2561    1.0000 0.73649  0.26351  0.76349  Biso   1.000  I
  I2562    1.0000 0.76349  0.26351  0.73649  Biso   1.000  I
  I2563    1.0000 0.76349  0.23651  0.76349  Biso   1.000  I
  I2564    1.0000 0.23651  0.73649  0.73649  Biso   1.000  I
  I2565    1.0000 0.26351  0.26351  0.23651  Biso   1.000  I
  I2566    1.0000 0.23651  0.26351  0.26351  Biso   1.000  I
  I2567    1.0000 0.26351  0.23651  0.26351  Biso   1.000  I
  I2568    1.0000 0.73649  0.23651  0.73649  Biso   1.000  I
  I2569    1.0000 0.30778  0.30778  0.19220  Biso   1.000  I
  I2570    1.0000 0.69222  0.30778  0.80780  Biso   1.000  I
  I2571    1.0000 0.19220  0.69222  0.69222  Biso   1.000  I
  I2572    1.0000 0.19220  0.30778  0.30778  Biso   1.000  I
  I2573    1.0000 0.80780  0.30778  0.69222  Biso   1.000  I
  I2574    1.0000 0.30778  0.30778  0.19220  Biso   1.000  I
  I2575    1.0000 0.69222  0.69222  0.19220  Biso   1.000  I
  I2576    1.0000 0.69222  0.30778  0.80780  Biso   1.000  I
  I2577    1.0000 0.80780  0.30778  0.69222  Biso   1.000  I
  I2578    1.0000 0.19220  0.30778  0.30778  Biso   1.000  I
  I2579    1.0000 0.19220  0.19220  0.19220  Biso   1.000  I
  I2580    1.0000 0.80780  0.80780  0.19220  Biso   1.000  I
  I2581    1.0000 0.30778  0.30778  0.19220  Biso   1.000  I
  I2582    1.0000 0.69222  0.69222  0.19220  Biso   1.000  I
  I2583    1.0000 0.19220  0.80780  0.80780  Biso   1.000  I
  I2584    1.0000 0.19220  0.19220  0.19220  Biso   1.000  I
  I2585    1.0000 0.80780  0.80780  0.19220  Biso   1.000  I
  I2586    1.0000 0.30778  0.30778  0.19220  Biso   1.000  I
  I2587    1.0000 0.30778  0.69222  0.80780  Biso   1.000  I
  I2588    1.0000 0.69222  0.80780  0.30778  Biso   1.000  I
  I2589    1.0000 0.30778  0.19220  0.30778  Biso   1.000  I
  I2590    1.0000 0.30778  0.80780  0.69222  Biso   1.000  I
  I2591    1.0000 0.80780  0.30778  0.69222  Biso   1.000  I
  I2592    1.0000 0.19220  0.30778  0.30778  Biso   1.000  I
  I2593    1.0000 0.80780  0.69222  0.30778  Biso   1.000  I
  I2594    1.0000 0.30778  0.19220  0.30778  Biso   1.000  I
  I2595    1.0000 0.30778  0.80780  0.69222  Biso   1.000  I
  I2596    1.0000 0.30778  0.69222  0.80780  Biso   1.000  I
  I2597    1.0000 0.30778  0.30778  0.19220  Biso   1.000  I
  I2598    1.0000 0.69222  0.30778  0.80780  Biso   1.000  I
  I2599    1.0000 0.30778  0.30778  0.19220  Biso   1.000  I
  I2600    1.0000 0.69222  0.69222  0.19220  Biso   1.000  I
  I2601    1.0000 0.30778  0.69222  0.80780  Biso   1.000  I
  I2602    1.0000 0.30778  0.19220  0.30778  Biso   1.000  I
  I2603    1.0000 0.69222  0.19220  0.69222  Biso   1.000  I
  I2604    1.0000 0.30778  0.80780  0.69222  Biso   1.000  I
  I2605    1.0000 0.80780  0.19220  0.80780  Biso   1.000  I
  I2606    1.0000 0.19220  0.19220  0.19220  Biso   1.000  I
  I2607    1.0000 0.80780  0.80780  0.19220  Biso   1.000  I
  I2608    1.0000 0.19220  0.19220  0.19220  Biso   1.000  I
  I2609    1.0000 0.30778  0.30778  0.19220  Biso   1.000  I
  I2610    1.0000 0.69222  0.80780  0.30778  Biso   1.000  I
  I2611    1.0000 0.80780  0.80780  0.19220  Biso   1.000  I
  I2612    1.0000 0.69222  0.69222  0.19220  Biso   1.000  I
  I2613    1.0000 0.19220  0.19220  0.19220  Biso   1.000  I
  I2614    1.0000 0.19220  0.30778  0.30778  Biso   1.000  I
  I2615    1.0000 0.30778  0.30778  0.19220  Biso   1.000  I
  I2616    1.0000 0.80780  0.30778  0.69222  Biso   1.000  I
  I2617    1.0000 0.69222  0.30778  0.80780  Biso   1.000  I
  I2618    1.0000 0.80780  0.80780  0.19220  Biso   1.000  I
  I2619    1.0000 0.69222  0.69222  0.19220  Biso   1.000  I
  I2620    1.0000 0.19220  0.30778  0.30778  Biso   1.000  I
  I2621    1.0000 0.30778  0.30778  0.19220  Biso   1.000  I
  I2622    1.0000 0.80780  0.30778  0.69222  Biso   1.000  I
  I2623    1.0000 0.69222  0.30778  0.80780  Biso   1.000  I
  I2624    1.0000 0.69222  0.19220  0.69222  Biso   1.000  I
  I2625    1.0000 0.30778  0.19220  0.30778  Biso   1.000  I
  I2626    1.0000 0.30778  0.30778  0.19220  Biso   1.000  I
  I2627    1.0000 0.30778  0.69222  0.80780  Biso   1.000  I
  I2628    1.0000 0.19220  0.69222  0.69222  Biso   1.000  I
  I2629    1.0000 0.30778  0.80780  0.69222  Biso   1.000  I
  I2630    1.0000 0.30778  0.69222  0.80780  Biso   1.000  I
  I2631    1.0000 0.30778  0.80780  0.69222  Biso   1.000  I
  I2632    1.0000 0.30778  0.19220  0.30778  Biso   1.000  I
  I2633    1.0000 0.19220  0.19220  0.19220  Biso   1.000  I
  I2634    1.0000 0.30778  0.30778  0.19220  Biso   1.000  I
  I2635    1.0000 0.80780  0.69222  0.30778  Biso   1.000  I
  I2636    1.0000 0.80780  0.80780  0.19220  Biso   1.000  I
  I2637    1.0000 0.69222  0.69222  0.19220  Biso   1.000  I
  I2638    1.0000 0.30778  0.69222  0.80780  Biso   1.000  I
  I2639    1.0000 0.30778  0.80780  0.69222  Biso   1.000  I
  I2640    1.0000 0.19220  0.80780  0.80780  Biso   1.000  I
  I2641    1.0000 0.80780  0.19220  0.80780  Biso   1.000  I
  I2642    1.0000 0.80780  0.30778  0.69222  Biso   1.000  I
  I2643    1.0000 0.69222  0.30778  0.80780  Biso   1.000  I
  I2644    1.0000 0.30778  0.19220  0.30778  Biso   1.000  I
  I2645    1.0000 0.19220  0.30778  0.30778  Biso   1.000  I
  I2646    1.0000 0.30778  0.30778  0.19220  Biso   1.000  I
  I2647    1.0000 0.23651  0.26351  0.26351  Biso   1.000  I
  I2648    1.0000 0.26351  0.23651  0.26351  Biso   1.000  I
  I2649    1.0000 0.23651  0.23651  0.23651  Biso   1.000  I
  I2650    1.0000 0.73649  0.23651  0.73649  Biso   1.000  I
  I2651    1.0000 0.76349  0.23651  0.76349  Biso   1.000  I
  I2652    1.0000 0.76349  0.26351  0.73649  Biso   1.000  I
  I2653    1.0000 0.23651  0.76349  0.76349  Biso   1.000  I
  I2654    1.0000 0.26351  0.76349  0.73649  Biso   1.000  I
  I2655    1.0000 0.26351  0.73649  0.76349  Biso   1.000  I
  I2656    1.0000 0.26351  0.26351  0.23651  Biso   1.000  I
  I2657    1.0000 0.26351  0.23651  0.26351  Biso   1.000  I
  I2658    1.0000 0.23651  0.23651  0.23651  Biso   1.000  I
  I2659    1.0000 0.73649  0.23651  0.73649  Biso   1.000  I
  I2660    1.0000 0.76349  0.23651  0.76349  Biso   1.000  I
  I2661    1.0000 0.73649  0.26351  0.76349  Biso   1.000  I
  I2662    1.0000 0.23651  0.26351  0.26351  Biso   1.000  I
  I2663    1.0000 0.26351  0.23651  0.26351  Biso   1.000  I
  I2664    1.0000 0.23651  0.23651  0.23651  Biso   1.000  I
  I2665    1.0000 0.76349  0.73649  0.26351  Biso   1.000  I
  I2666    1.0000 0.76349  0.76349  0.23651  Biso   1.000  I
  I2667    1.0000 0.73649  0.76349  0.26351  Biso   1.000  I
  I2668    1.0000 0.76349  0.26351  0.73649  Biso   1.000  I
  I2669    1.0000 0.73649  0.23651  0.73649  Biso   1.000  I
  I2670    1.0000 0.76349  0.23651  0.76349  Biso   1.000  I
  I2671    1.0000 0.73649  0.26351  0.76349  Biso   1.000  I
  I2672    1.0000 0.26351  0.26351  0.23651  Biso   1.000  I
  I2673    1.0000 0.26351  0.26351  0.23651  Biso   1.000  I
  I2674    1.0000 0.23651  0.26351  0.26351  Biso   1.000  I
  I2675    1.0000 0.26351  0.23651  0.26351  Biso   1.000  I
  I2676    1.0000 0.76349  0.73649  0.26351  Biso   1.000  I
  I2677    1.0000 0.73649  0.73649  0.23651  Biso   1.000  I
  I2678    1.0000 0.73649  0.76349  0.26351  Biso   1.000  I
  I2679    1.0000 0.23651  0.23651  0.23651  Biso   1.000  I
  I2680    1.0000 0.76349  0.73649  0.26351  Biso   1.000  I
  I2681    1.0000 0.76349  0.76349  0.23651  Biso   1.000  I
  I2682    1.0000 0.73649  0.76349  0.26351  Biso   1.000  I
  I2683    1.0000 0.23651  0.73649  0.73649  Biso   1.000  I
  I2684    1.0000 0.26351  0.26351  0.23651  Biso   1.000  I
  I2685    1.0000 0.23651  0.26351  0.26351  Biso   1.000  I
  I2686    1.0000 0.26351  0.23651  0.26351  Biso   1.000  I
  I2687    1.0000 0.73649  0.73649  0.23651  Biso   1.000  I
  I2688    1.0000 0.23651  0.26351  0.26351  Biso   1.000  I
  I2689    1.0000 0.23651  0.23651  0.23651  Biso   1.000  I
  I2690    1.0000 0.26351  0.23651  0.26351  Biso   1.000  I
  I2691    1.0000 0.23651  0.76349  0.76349  Biso   1.000  I
  I2692    1.0000 0.26351  0.76349  0.73649  Biso   1.000  I
  I2693    1.0000 0.23651  0.73649  0.73649  Biso   1.000  I
  I2694    1.0000 0.73649  0.73649  0.23651  Biso   1.000  I
  I2695    1.0000 0.76349  0.76349  0.23651  Biso   1.000  I
  I2696    1.0000 0.76349  0.73649  0.26351  Biso   1.000  I
  I2697    1.0000 0.26351  0.26351  0.23651  Biso   1.000  I
  I2698    1.0000 0.23651  0.26351  0.26351  Biso   1.000  I
  I2699    1.0000 0.23651  0.23651  0.23651  Biso   1.000  I
  I2700    1.0000 0.23651  0.76349  0.76349  Biso   1.000  I
  I2701    1.0000 0.23651  0.73649  0.73649  Biso   1.000  I
  I2702    1.0000 0.26351  0.73649  0.76349  Biso   1.000  I
  I2703    1.0000 0.73649  0.23651  0.73649  Biso   1.000  I
  I2704    1.0000 0.76349  0.23651  0.76349  Biso   1.000  I
  I2705    1.0000 0.73649  0.26351  0.76349  Biso   1.000  I
  I2706    1.0000 0.26351  0.26351  0.23651  Biso   1.000  I
  I2707    1.0000 0.26351  0.23651  0.26351  Biso   1.000  I
  I2708    1.0000 0.23651  0.23651  0.23651  Biso   1.000  I
  I2709    1.0000 0.73649  0.76349  0.26351  Biso   1.000  I
  I2710    1.0000 0.26351  0.26351  0.23651  Biso   1.000  I
  I2711    1.0000 0.23651  0.76349  0.76349  Biso   1.000  I
  I2712    1.0000 0.23651  0.73649  0.73649  Biso   1.000  I
  I2713    1.0000 0.26351  0.73649  0.76349  Biso   1.000  I
  I2714    1.0000 0.26351  0.76349  0.73649  Biso   1.000  I
  I2715    1.0000 0.23651  0.26351  0.26351  Biso   1.000  I
  I2716    1.0000 0.26351  0.23651  0.26351  Biso   1.000  I
  I2717    1.0000 0.23651  0.23651  0.23651  Biso   1.000  I
  I2718    1.0000 0.76349  0.26351  0.73649  Biso   1.000  I
  I2719    1.0000 0.23651  0.26351  0.26351  Biso   1.000  I
  I2720    1.0000 0.26351  0.23651  0.26351  Biso   1.000  I
  I2721    1.0000 0.23651  0.23651  0.23651  Biso   1.000  I
  I2722    1.0000 0.76349  0.73649  0.26351  Biso   1.000  I
  I2723    1.0000 0.76349  0.76349  0.23651  Biso   1.000  I
  I2724    1.0000 0.73649  0.76349  0.26351  Biso   1.000  I
  I2725    1.0000 0.23651  0.76349  0.76349  Biso   1.000  I
  I2726    1.0000 0.26351  0.76349  0.73649  Biso   1.000  I
  I2727    1.0000 0.23651  0.73649  0.73649  Biso   1.000  I
  I2728    1.0000 0.26351  0.26351  0.23651  Biso   1.000  I
  I2729    1.0000 0.23651  0.26351  0.26351  Biso   1.000  I
  I2730    1.0000 0.23651  0.23651  0.23651  Biso   1.000  I
  I2731    1.0000 0.73649  0.26351  0.76349  Biso   1.000  I
  I2732    1.0000 0.76349  0.26351  0.73649  Biso   1.000  I
  I2733    1.0000 0.76349  0.23651  0.76349  Biso   1.000  I
  I2734    1.0000 0.26351  0.73649  0.76349  Biso   1.000  I
  I2735    1.0000 0.73649  0.23651  0.73649  Biso   1.000  I
  I2736    1.0000 0.26351  0.26351  0.23651  Biso   1.000  I
  I2737    1.0000 0.23651  0.26351  0.26351  Biso   1.000  I
  I2738    1.0000 0.26351  0.23651  0.26351  Biso   1.000  I
  I2739    1.0000 0.73649  0.73649  0.23651  Biso   1.000  I
  I2740    1.0000 0.12502  0.12502  0.12502  Biso   1.000  I
  I2741    1.0000 0.37501  0.37501  0.12502  Biso   1.000  I
  I2742    1.0000 0.62499  0.87498  0.37501  Biso   1.000  I
  I2743    1.0000 0.76349  0.73649  0.26351  Biso   1.000  I
  I2744    1.0000 0.87498  0.87498  0.12502  Biso   1.000  I
  I2745    1.0000 0.62499  0.62499  0.12502  Biso   1.000  I
  I2746    1.0000 0.12502  0.12502  0.12502  Biso   1.000  I
  I2747    1.0000 0.26351  0.23651  0.26351  Biso   1.000  I
  I2748    1.0000 0.12502  0.37501  0.37501  Biso   1.000  I
  I2749    1.0000 0.37501  0.37501  0.12502  Biso   1.000  I
  I2750    1.0000 0.87498  0.37501  0.62499  Biso   1.000  I
  I2751    1.0000 0.62499  0.37501  0.87498  Biso   1.000  I
  I2752    1.0000 0.87498  0.87498  0.12502  Biso   1.000  I
  I2753    1.0000 0.62499  0.62499  0.12502  Biso   1.000  I
  I2754    1.0000 0.12502  0.37501  0.37501  Biso   1.000  I
  I2755    1.0000 0.37501  0.37501  0.12502  Biso   1.000  I
  I2756    1.0000 0.87498  0.37501  0.62499  Biso   1.000  I
  I2757    1.0000 0.76349  0.23651  0.76349  Biso   1.000  I
  I2758    1.0000 0.62499  0.37501  0.87498  Biso   1.000  I
  I2759    1.0000 0.62499  0.12502  0.62499  Biso   1.000  I
  I2760    1.0000 0.37501  0.12502  0.37501  Biso   1.000  I
  I2761    1.0000 0.37501  0.37501  0.12502  Biso   1.000  I
  I2762    1.0000 0.37501  0.62499  0.87498  Biso   1.000  I
  I2763    1.0000 0.23651  0.76349  0.76349  Biso   1.000  I
  I2764    1.0000 0.12502  0.62499  0.62499  Biso   1.000  I
  I2765    1.0000 0.37501  0.87498  0.62499  Biso   1.000  I
  I2766    1.0000 0.37501  0.62499  0.87498  Biso   1.000  I
  I2767    1.0000 0.37501  0.87498  0.62499  Biso   1.000  I
  I2768    1.0000 0.37501  0.12502  0.37501  Biso   1.000  I
  I2769    1.0000 0.23651  0.26351  0.26351  Biso   1.000  I
  I2770    1.0000 0.12502  0.12502  0.12502  Biso   1.000  I
  I2771    1.0000 0.37501  0.37501  0.12502  Biso   1.000  I
  I2772    1.0000 0.87498  0.62499  0.37501  Biso   1.000  I
  I2773    1.0000 0.73649  0.76349  0.26351  Biso   1.000  I
  I2774    1.0000 0.87498  0.87498  0.12502  Biso   1.000  I
  I2775    1.0000 0.62499  0.62499  0.12502  Biso   1.000  I
  I2776    1.0000 0.37501  0.62499  0.87498  Biso   1.000  I
  I2777    1.0000 0.23651  0.73649  0.73649  Biso   1.000  I
  I2778    1.0000 0.37501  0.87498  0.62499  Biso   1.000  I
  I2779    1.0000 0.12502  0.87498  0.87498  Biso   1.000  I
  I2780    1.0000 0.87498  0.12502  0.87498  Biso   1.000  I
  I2781    1.0000 0.73649  0.23651  0.73649  Biso   1.000  I
  I2782    1.0000 0.87498  0.37501  0.62499  Biso   1.000  I
  I2783    1.0000 0.62499  0.37501  0.87498  Biso   1.000  I
  I2784    1.0000 0.37501  0.12502  0.37501  Biso   1.000  I
  I2785    1.0000 0.23651  0.23651  0.23651  Biso   1.000  I
  I2786    1.0000 0.12502  0.37501  0.37501  Biso   1.000  I
  I2787    1.0000 0.37501  0.37501  0.12502  Biso   1.000  I
  I2788    1.0000 0.19220  0.19220  0.19220  Biso   1.000  I
  I2789    1.0000 0.30778  0.19220  0.30778  Biso   1.000  I
  I2790    1.0000 0.80780  0.30778  0.69222  Biso   1.000  I
  I2791    1.0000 0.80780  0.19220  0.80780  Biso   1.000  I
  I2792    1.0000 0.69222  0.19220  0.69222  Biso   1.000  I
  I2793    1.0000 0.30778  0.69222  0.80780  Biso   1.000  I
  I2794    1.0000 0.30778  0.80780  0.69222  Biso   1.000  I
  I2795    1.0000 0.19220  0.19220  0.19220  Biso   1.000  I
  I2796    1.0000 0.30778  0.19220  0.30778  Biso   1.000  I
  I2797    1.0000 0.30778  0.30778  0.19220  Biso   1.000  I
  I2798    1.0000 0.80780  0.19220  0.80780  Biso   1.000  I
  I2799    1.0000 0.69222  0.19220  0.69222  Biso   1.000  I
  I2800    1.0000 0.19220  0.19220  0.19220  Biso   1.000  I
  I2801    1.0000 0.30778  0.19220  0.30778  Biso   1.000  I
  I2802    1.0000 0.19220  0.30778  0.30778  Biso   1.000  I
  I2803    1.0000 0.69222  0.80780  0.30778  Biso   1.000  I
  I2804    1.0000 0.80780  0.69222  0.30778  Biso   1.000  I
  I2805    1.0000 0.69222  0.30778  0.80780  Biso   1.000  I
  I2806    1.0000 0.80780  0.19220  0.80780  Biso   1.000  I
  I2807    1.0000 0.69222  0.19220  0.69222  Biso   1.000  I
  I2808    1.0000 0.30778  0.19220  0.30778  Biso   1.000  I
  I2809    1.0000 0.19220  0.30778  0.30778  Biso   1.000  I
  I2810    1.0000 0.69222  0.80780  0.30778  Biso   1.000  I
  I2811    1.0000 0.69222  0.69222  0.19220  Biso   1.000  I
  I2812    1.0000 0.80780  0.69222  0.30778  Biso   1.000  I
  I2813    1.0000 0.69222  0.80780  0.30778  Biso   1.000  I
  I2814    1.0000 0.80780  0.80780  0.19220  Biso   1.000  I
  I2815    1.0000 0.80780  0.69222  0.30778  Biso   1.000  I
  I2816    1.0000 0.30778  0.19220  0.30778  Biso   1.000  I
  I2817    1.0000 0.19220  0.30778  0.30778  Biso   1.000  I
  I2818    1.0000 0.30778  0.30778  0.19220  Biso   1.000  I
  I2819    1.0000 0.19220  0.19220  0.19220  Biso   1.000  I
  I2820    1.0000 0.19220  0.30778  0.30778  Biso   1.000  I
  I2821    1.0000 0.19220  0.69222  0.69222  Biso   1.000  I
  I2822    1.0000 0.30778  0.80780  0.69222  Biso   1.000  I
  I2823    1.0000 0.19220  0.80780  0.80780  Biso   1.000  I
  I2824    1.0000 0.80780  0.80780  0.19220  Biso   1.000  I
  I2825    1.0000 0.69222  0.69222  0.19220  Biso   1.000  I
  I2826    1.0000 0.19220  0.19220  0.19220  Biso   1.000  I
  I2827    1.0000 0.19220  0.30778  0.30778  Biso   1.000  I
  I2828    1.0000 0.30778  0.30778  0.19220  Biso   1.000  I
  I2829    1.0000 0.19220  0.69222  0.69222  Biso   1.000  I
  I2830    1.0000 0.19220  0.80780  0.80780  Biso   1.000  I
  I2831    1.0000 0.80780  0.19220  0.80780  Biso   1.000  I
  I2832    1.0000 0.69222  0.19220  0.69222  Biso   1.000  I
  I2833    1.0000 0.19220  0.19220  0.19220  Biso   1.000  I
  I2834    1.0000 0.30778  0.19220  0.30778  Biso   1.000  I
  I2835    1.0000 0.30778  0.30778  0.19220  Biso   1.000  I
  I2836    1.0000 0.30778  0.69222  0.80780  Biso   1.000  I
  I2837    1.0000 0.19220  0.69222  0.69222  Biso   1.000  I
  I2838    1.0000 0.19220  0.80780  0.80780  Biso   1.000  I
  I2839    1.0000 0.19220  0.19220  0.19220  Biso   1.000  I
  I2840    1.0000 0.30778  0.19220  0.30778  Biso   1.000  I
  I2841    1.0000 0.19220  0.30778  0.30778  Biso   1.000  I
  I2842    1.0000 0.30778  0.19220  0.30778  Biso   1.000  I
  I2843    1.0000 0.19220  0.19220  0.19220  Biso   1.000  I
  I2844    1.0000 0.19220  0.30778  0.30778  Biso   1.000  I
  I2845    1.0000 0.69222  0.80780  0.30778  Biso   1.000  I
  I2846    1.0000 0.80780  0.69222  0.30778  Biso   1.000  I
  I2847    1.0000 0.19220  0.69222  0.69222  Biso   1.000  I
  I2848    1.0000 0.19220  0.80780  0.80780  Biso   1.000  I
  I2849    1.0000 0.19220  0.19220  0.19220  Biso   1.000  I
  I2850    1.0000 0.19220  0.30778  0.30778  Biso   1.000  I
  I2851    1.0000 0.30778  0.30778  0.19220  Biso   1.000  I
  I2852    1.0000 0.80780  0.30778  0.69222  Biso   1.000  I
  I2853    1.0000 0.69222  0.30778  0.80780  Biso   1.000  I
  I2854    1.0000 0.30778  0.19220  0.30778  Biso   1.000  I
  I2855    1.0000 0.19220  0.30778  0.30778  Biso   1.000  I
  I2856    1.0000 0.30778  0.30778  0.19220  Biso   1.000  I
  I2857    1.0000 0.05779  0.05779  0.05779  Biso   1.000  I
  I2858    1.0000 0.44219  0.44219  0.05779  Biso   1.000  I
  I2859    1.0000 0.55781  0.94221  0.44219  Biso   1.000  I
  I2860    1.0000 0.94221  0.94221  0.05779  Biso   1.000  I
  I2861    1.0000 0.55781  0.55781  0.05779  Biso   1.000  I
  I2862    1.0000 0.05779  0.05779  0.05779  Biso   1.000  I
  I2863    1.0000 0.05779  0.44219  0.44219  Biso   1.000  I
  I2864    1.0000 0.44219  0.44219  0.05779  Biso   1.000  I
  I2865    1.0000 0.94221  0.44219  0.55781  Biso   1.000  I
  I2866    1.0000 0.55781  0.44219  0.94221  Biso   1.000  I
  I2867    1.0000 0.94221  0.94221  0.05779  Biso   1.000  I
  I2868    1.0000 0.55781  0.55781  0.05779  Biso   1.000  I
  I2869    1.0000 0.05779  0.44219  0.44219  Biso   1.000  I
  I2870    1.0000 0.44219  0.44219  0.05779  Biso   1.000  I
  I2871    1.0000 0.94221  0.44219  0.55781  Biso   1.000  I
  I2872    1.0000 0.55781  0.44219  0.94221  Biso   1.000  I
  I2873    1.0000 0.55781  0.05779  0.55781  Biso   1.000  I
  I2874    1.0000 0.44219  0.05779  0.44219  Biso   1.000  I
  I2875    1.0000 0.44219  0.44219  0.05779  Biso   1.000  I
  I2876    1.0000 0.44219  0.55781  0.94221  Biso   1.000  I
  I2877    1.0000 0.05779  0.55781  0.55781  Biso   1.000  I
  I2878    1.0000 0.44219  0.94221  0.55781  Biso   1.000  I
  I2879    1.0000 0.44219  0.55781  0.94221  Biso   1.000  I
  I2880    1.0000 0.44219  0.94221  0.55781  Biso   1.000  I
  I2881    1.0000 0.44219  0.05779  0.44219  Biso   1.000  I
  I2882    1.0000 0.05779  0.05779  0.05779  Biso   1.000  I
  I2883    1.0000 0.44219  0.44219  0.05779  Biso   1.000  I
  I2884    1.0000 0.94221  0.55781  0.44219  Biso   1.000  I
  I2885    1.0000 0.94221  0.94221  0.05779  Biso   1.000  I
  I2886    1.0000 0.55781  0.55781  0.05779  Biso   1.000  I
  I2887    1.0000 0.44219  0.55781  0.94221  Biso   1.000  I
  I2888    1.0000 0.44219  0.94221  0.55781  Biso   1.000  I
  I2889    1.0000 0.05779  0.94221  0.94221  Biso   1.000  I
  I2890    1.0000 0.94221  0.05779  0.94221  Biso   1.000  I
  I2891    1.0000 0.94221  0.44219  0.55781  Biso   1.000  I
  I2892    1.0000 0.55781  0.44219  0.94221  Biso   1.000  I
  I2893    1.0000 0.44219  0.05779  0.44219  Biso   1.000  I
  I2894    1.0000 0.05779  0.44219  0.44219  Biso   1.000  I
  I2895    1.0000 0.44219  0.44219  0.05779  Biso   1.000  I
  I2896    1.0000 0.12502  0.12502  0.12502  Biso   1.000  I
  I2897    1.0000 0.37501  0.12502  0.37501  Biso   1.000  I
  I2898    1.0000 0.87498  0.37501  0.62499  Biso   1.000  I
  I2899    1.0000 0.73649  0.26351  0.76349  Biso   1.000  I
  I2900    1.0000 0.87498  0.12502  0.87498  Biso   1.000  I
  I2901    1.0000 0.62499  0.12502  0.62499  Biso   1.000  I
  I2902    1.0000 0.37501  0.62499  0.87498  Biso   1.000  I
  I2903    1.0000 0.37501  0.87498  0.62499  Biso   1.000  I
  I2904    1.0000 0.12502  0.12502  0.12502  Biso   1.000  I
  I2905    1.0000 0.23651  0.26351  0.26351  Biso   1.000  I
  I2906    1.0000 0.37501  0.12502  0.37501  Biso   1.000  I
  I2907    1.0000 0.37501  0.37501  0.12502  Biso   1.000  I
  I2908    1.0000 0.87498  0.12502  0.87498  Biso   1.000  I
  I2909    1.0000 0.62499  0.12502  0.62499  Biso   1.000  I
  I2910    1.0000 0.12502  0.12502  0.12502  Biso   1.000  I
  I2911    1.0000 0.26351  0.26351  0.23651  Biso   1.000  I
  I2912    1.0000 0.37501  0.12502  0.37501  Biso   1.000  I
  I2913    1.0000 0.12502  0.37501  0.37501  Biso   1.000  I
  I2914    1.0000 0.62499  0.87498  0.37501  Biso   1.000  I
  I2915    1.0000 0.87498  0.62499  0.37501  Biso   1.000  I
  I2916    1.0000 0.62499  0.37501  0.87498  Biso   1.000  I
  I2917    1.0000 0.76349  0.26351  0.73649  Biso   1.000  I
  I2918    1.0000 0.87498  0.12502  0.87498  Biso   1.000  I
  I2919    1.0000 0.62499  0.12502  0.62499  Biso   1.000  I
  I2920    1.0000 0.37501  0.12502  0.37501  Biso   1.000  I
  I2921    1.0000 0.12502  0.37501  0.37501  Biso   1.000  I
  I2922    1.0000 0.62499  0.87498  0.37501  Biso   1.000  I
  I2923    1.0000 0.76349  0.76349  0.23651  Biso   1.000  I
  I2924    1.0000 0.62499  0.62499  0.12502  Biso   1.000  I
  I2925    1.0000 0.87498  0.62499  0.37501  Biso   1.000  I
  I2926    1.0000 0.62499  0.87498  0.37501  Biso   1.000  I
  I2927    1.0000 0.73649  0.73649  0.23651  Biso   1.000  I
  I2928    1.0000 0.87498  0.87498  0.12502  Biso   1.000  I
  I2929    1.0000 0.87498  0.62499  0.37501  Biso   1.000  I
  I2930    1.0000 0.37501  0.12502  0.37501  Biso   1.000  I
  I2931    1.0000 0.23651  0.23651  0.23651  Biso   1.000  I
  I2932    1.0000 0.12502  0.37501  0.37501  Biso   1.000  I
  I2933    1.0000 0.37501  0.37501  0.12502  Biso   1.000  I
  I2934    1.0000 0.12502  0.12502  0.12502  Biso   1.000  I
  I2935    1.0000 0.12502  0.37501  0.37501  Biso   1.000  I
  I2936    1.0000 0.12502  0.62499  0.62499  Biso   1.000  I
  I2937    1.0000 0.26351  0.73649  0.76349  Biso   1.000  I
  I2938    1.0000 0.37501  0.87498  0.62499  Biso   1.000  I
  I2939    1.0000 0.12502  0.87498  0.87498  Biso   1.000  I
  I2940    1.0000 0.87498  0.87498  0.12502  Biso   1.000  I
  I2941    1.0000 0.62499  0.62499  0.12502  Biso   1.000  I
  I2942    1.0000 0.12502  0.12502  0.12502  Biso   1.000  I
  I2943    1.0000 0.26351  0.23651  0.26351  Biso   1.000  I
  I2944    1.0000 0.12502  0.37501  0.37501  Biso   1.000  I
  I2945    1.0000 0.37501  0.37501  0.12502  Biso   1.000  I
  I2946    1.0000 0.12502  0.62499  0.62499  Biso   1.000  I
  I2947    1.0000 0.12502  0.87498  0.87498  Biso   1.000  I
  I2948    1.0000 0.87498  0.12502  0.87498  Biso   1.000  I
  I2949    1.0000 0.62499  0.12502  0.62499  Biso   1.000  I
  I2950    1.0000 0.12502  0.12502  0.12502  Biso   1.000  I
  I2951    1.0000 0.23651  0.26351  0.26351  Biso   1.000  I
  I2952    1.0000 0.37501  0.12502  0.37501  Biso   1.000  I
  I2953    1.0000 0.37501  0.37501  0.12502  Biso   1.000  I
  I2954    1.0000 0.37501  0.62499  0.87498  Biso   1.000  I
  I2955    1.0000 0.26351  0.76349  0.73649  Biso   1.000  I
  I2956    1.0000 0.12502  0.62499  0.62499  Biso   1.000  I
  I2957    1.0000 0.12502  0.87498  0.87498  Biso   1.000  I
  I2958    1.0000 0.12502  0.12502  0.12502  Biso   1.000  I
  I2959    1.0000 0.26351  0.26351  0.23651  Biso   1.000  I
  I2960    1.0000 0.37501  0.12502  0.37501  Biso   1.000  I
  I2961    1.0000 0.12502  0.37501  0.37501  Biso   1.000  I
  I2962    1.0000 0.37501  0.12502  0.37501  Biso   1.000  I
  I2963    1.0000 0.26351  0.26351  0.23651  Biso   1.000  I
  I2964    1.0000 0.12502  0.12502  0.12502  Biso   1.000  I
  I2965    1.0000 0.12502  0.37501  0.37501  Biso   1.000  I
  I2966    1.0000 0.62499  0.87498  0.37501  Biso   1.000  I
  I2967    1.0000 0.87498  0.62499  0.37501  Biso   1.000  I
  I2968    1.0000 0.12502  0.62499  0.62499  Biso   1.000  I
  I2969    1.0000 0.12502  0.87498  0.87498  Biso   1.000  I
  I2970    1.0000 0.12502  0.12502  0.12502  Biso   1.000  I
  I2971    1.0000 0.26351  0.23651  0.26351  Biso   1.000  I
  I2972    1.0000 0.12502  0.37501  0.37501  Biso   1.000  I
  I2973    1.0000 0.37501  0.37501  0.12502  Biso   1.000  I
  I2974    1.0000 0.87498  0.37501  0.62499  Biso   1.000  I
  I2975    1.0000 0.62499  0.37501  0.87498  Biso   1.000  I
  I2976    1.0000 0.37501  0.12502  0.37501  Biso   1.000  I
  I2977    1.0000 0.23651  0.23651  0.23651  Biso   1.000  I
  I2978    1.0000 0.12502  0.37501  0.37501  Biso   1.000  I
  I2979    1.0000 0.37501  0.37501  0.12502  Biso   1.000  I
  I2980    1.0000 0.98648  0.98648  0.01352  Biso   1.000  I
  I2981    1.0000 0.51350  0.51350  0.01352  Biso   1.000  I
  I2982    1.0000 0.48650  0.98648  0.51350  Biso   1.000  I
  I2983    1.0000 0.48650  0.01352  0.48650  Biso   1.000  I
  I2984    1.0000 0.51350  0.01352  0.51350  Biso   1.000  I
  I2985    1.0000 0.01352  0.01352  0.01352  Biso   1.000  I
  I2986    1.0000 0.48650  0.48650  0.01352  Biso   1.000  I
  I2987    1.0000 0.98648  0.98648  0.01352  Biso   1.000  I
  I2988    1.0000 0.98648  0.51350  0.48650  Biso   1.000  I
  I2989    1.0000 0.01352  0.51350  0.51350  Biso   1.000  I
  I2990    1.0000 0.98648  0.48650  0.51350  Biso   1.000  I
  I2991    1.0000 0.51350  0.51350  0.01352  Biso   1.000  I
  I2992    1.0000 0.98648  0.51350  0.48650  Biso   1.000  I
  I2993    1.0000 0.01352  0.51350  0.51350  Biso   1.000  I
  I2994    1.0000 0.01352  0.48650  0.48650  Biso   1.000  I
  I2995    1.0000 0.48650  0.51350  0.98648  Biso   1.000  I
  I2996    1.0000 0.51350  0.51350  0.01352  Biso   1.000  I
  I2997    1.0000 0.48650  0.48650  0.01352  Biso   1.000  I
  I2998    1.0000 0.01352  0.01352  0.01352  Biso   1.000  I
  I2999    1.0000 0.48650  0.48650  0.01352  Biso   1.000  I
  I3000    1.0000 0.98648  0.51350  0.48650  Biso   1.000  I
  I3001    1.0000 0.98648  0.48650  0.51350  Biso   1.000  I
  I3002    1.0000 0.01352  0.51350  0.51350  Biso   1.000  I
  I3003    1.0000 0.51350  0.48650  0.98648  Biso   1.000  I
  I3004    1.0000 0.01352  0.48650  0.48650  Biso   1.000  I
  I3005    1.0000 0.48650  0.51350  0.98648  Biso   1.000  I
  I3006    1.0000 0.51350  0.51350  0.01352  Biso   1.000  I
  I3007    1.0000 0.48650  0.48650  0.01352  Biso   1.000  I
  I3008    1.0000 0.51350  0.98648  0.48650  Biso   1.000  I
  I3009    1.0000 0.48650  0.98648  0.51350  Biso   1.000  I
  I3010    1.0000 0.51350  0.98648  0.48650  Biso   1.000  I
  I3011    1.0000 0.51350  0.01352  0.51350  Biso   1.000  I
  I3012    1.0000 0.51350  0.48650  0.98648  Biso   1.000  I
  I3013    1.0000 0.48650  0.51350  0.98648  Biso   1.000  I
  I3014    1.0000 0.51350  0.51350  0.01352  Biso   1.000  I
  I3015    1.0000 0.51350  0.48650  0.98648  Biso   1.000  I
  I3016    1.0000 0.51350  0.51350  0.01352  Biso   1.000  I
  I3017    1.0000 0.48650  0.48650  0.01352  Biso   1.000  I
  I3018    1.0000 0.98648  0.51350  0.48650  Biso   1.000  I
  I3019    1.0000 0.98648  0.48650  0.51350  Biso   1.000  I
  I3020    1.0000 0.01352  0.48650  0.48650  Biso   1.000  I
  I3021    1.0000 0.51350  0.98648  0.48650  Biso   1.000  I
  I3022    1.0000 0.48650  0.01352  0.48650  Biso   1.000  I
  I3023    1.0000 0.51350  0.01352  0.51350  Biso   1.000  I
  I3024    1.0000 0.48650  0.48650  0.01352  Biso   1.000  I
  I3025    1.0000 0.51350  0.98648  0.48650  Biso   1.000  I
  I3026    1.0000 0.48650  0.01352  0.48650  Biso   1.000  I
  I3027    1.0000 0.51350  0.01352  0.51350  Biso   1.000  I
  I3028    1.0000 0.48650  0.98648  0.51350  Biso   1.000  I
  I3029    1.0000 0.98648  0.98648  0.01352  Biso   1.000  I
  I3030    1.0000 0.51350  0.51350  0.01352  Biso   1.000  I
  I3031    1.0000 0.01352  0.51350  0.51350  Biso   1.000  I
  I3032    1.0000 0.01352  0.01352  0.01352  Biso   1.000  I
  I3033    1.0000 0.48650  0.48650  0.01352  Biso   1.000  I
  I3034    1.0000 0.51350  0.48650  0.98648  Biso   1.000  I
  I3035    1.0000 0.51350  0.51350  0.01352  Biso   1.000  I
  I3036    1.0000 0.48650  0.48650  0.01352  Biso   1.000  I
  I3037    1.0000 0.51350  0.98648  0.48650  Biso   1.000  I
  I3038    1.0000 0.48650  0.01352  0.48650  Biso   1.000  I
  I3039    1.0000 0.51350  0.01352  0.51350  Biso   1.000  I
  I3040    1.0000 0.98648  0.98648  0.01352  Biso   1.000  I
  I3041    1.0000 0.98648  0.01352  0.98648  Biso   1.000  I
  I3042    1.0000 0.01352  0.01352  0.01352  Biso   1.000  I
  I3043    1.0000 0.01352  0.98648  0.98648  Biso   1.000  I
  I3044    1.0000 0.98648  0.51350  0.48650  Biso   1.000  I
  I3045    1.0000 0.01352  0.51350  0.51350  Biso   1.000  I
  I3046    1.0000 0.01352  0.48650  0.48650  Biso   1.000  I
  I3047    1.0000 0.48650  0.51350  0.98648  Biso   1.000  I
  I3048    1.0000 0.51350  0.51350  0.01352  Biso   1.000  I
  I3049    1.0000 0.48650  0.48650  0.01352  Biso   1.000  I
  I3050    1.0000 0.48650  0.98648  0.51350  Biso   1.000  I
  I3051    1.0000 0.98648  0.48650  0.51350  Biso   1.000  I
  I3052    1.0000 0.51350  0.48650  0.98648  Biso   1.000  I
  I3053    1.0000 0.48650  0.51350  0.98648  Biso   1.000  I
  I3054    1.0000 0.51350  0.51350  0.01352  Biso   1.000  I
  I3055    1.0000 0.05779  0.05779  0.05779  Biso   1.000  I
  I3056    1.0000 0.44219  0.05779  0.44219  Biso   1.000  I
  I3057    1.0000 0.94221  0.44219  0.55781  Biso   1.000  I
  I3058    1.0000 0.94221  0.05779  0.94221  Biso   1.000  I
  I3059    1.0000 0.55781  0.05779  0.55781  Biso   1.000  I
  I3060    1.0000 0.44219  0.55781  0.94221  Biso   1.000  I
  I3061    1.0000 0.44219  0.94221  0.55781  Biso   1.000  I
  I3062    1.0000 0.05779  0.05779  0.05779  Biso   1.000  I
  I3063    1.0000 0.44219  0.05779  0.44219  Biso   1.000  I
  I3064    1.0000 0.44219  0.44219  0.05779  Biso   1.000  I
  I3065    1.0000 0.94221  0.05779  0.94221  Biso   1.000  I
  I3066    1.0000 0.55781  0.05779  0.55781  Biso   1.000  I
  I3067    1.0000 0.05779  0.05779  0.05779  Biso   1.000  I
  I3068    1.0000 0.44219  0.05779  0.44219  Biso   1.000  I
  I3069    1.0000 0.05779  0.44219  0.44219  Biso   1.000  I
  I3070    1.0000 0.55781  0.94221  0.44219  Biso   1.000  I
  I3071    1.0000 0.94221  0.55781  0.44219  Biso   1.000  I
  I3072    1.0000 0.55781  0.44219  0.94221  Biso   1.000  I
  I3073    1.0000 0.94221  0.05779  0.94221  Biso   1.000  I
  I3074    1.0000 0.55781  0.05779  0.55781  Biso   1.000  I
  I3075    1.0000 0.44219  0.05779  0.44219  Biso   1.000  I
  I3076    1.0000 0.05779  0.44219  0.44219  Biso   1.000  I
  I3077    1.0000 0.55781  0.94221  0.44219  Biso   1.000  I
  I3078    1.0000 0.55781  0.55781  0.05779  Biso   1.000  I
  I3079    1.0000 0.94221  0.55781  0.44219  Biso   1.000  I
  I3080    1.0000 0.55781  0.94221  0.44219  Biso   1.000  I
  I3081    1.0000 0.94221  0.94221  0.05779  Biso   1.000  I
  I3082    1.0000 0.94221  0.55781  0.44219  Biso   1.000  I
  I3083    1.0000 0.44219  0.05779  0.44219  Biso   1.000  I
  I3084    1.0000 0.05779  0.44219  0.44219  Biso   1.000  I
  I3085    1.0000 0.44219  0.44219  0.05779  Biso   1.000  I
  I3086    1.0000 0.05779  0.05779  0.05779  Biso   1.000  I
  I3087    1.0000 0.05779  0.44219  0.44219  Biso   1.000  I
  I3088    1.0000 0.05779  0.55781  0.55781  Biso   1.000  I
  I3089    1.0000 0.44219  0.94221  0.55781  Biso   1.000  I
  I3090    1.0000 0.05779  0.94221  0.94221  Biso   1.000  I
  I3091    1.0000 0.94221  0.94221  0.05779  Biso   1.000  I
  I3092    1.0000 0.55781  0.55781  0.05779  Biso   1.000  I
  I3093    1.0000 0.05779  0.05779  0.05779  Biso   1.000  I
  I3094    1.0000 0.05779  0.44219  0.44219  Biso   1.000  I
  I3095    1.0000 0.44219  0.44219  0.05779  Biso   1.000  I
  I3096    1.0000 0.05779  0.55781  0.55781  Biso   1.000  I
  I3097    1.0000 0.05779  0.94221  0.94221  Biso   1.000  I
  I3098    1.0000 0.94221  0.05779  0.94221  Biso   1.000  I
  I3099    1.0000 0.55781  0.05779  0.55781  Biso   1.000  I
  I3100    1.0000 0.05779  0.05779  0.05779  Biso   1.000  I
  I3101    1.0000 0.44219  0.05779  0.44219  Biso   1.000  I
  I3102    1.0000 0.44219  0.44219  0.05779  Biso   1.000  I
  I3103    1.0000 0.44219  0.55781  0.94221  Biso   1.000  I
  I3104    1.0000 0.05779  0.55781  0.55781  Biso   1.000  I
  I3105    1.0000 0.05779  0.94221  0.94221  Biso   1.000  I
  I3106    1.0000 0.05779  0.05779  0.05779  Biso   1.000  I
  I3107    1.0000 0.44219  0.05779  0.44219  Biso   1.000  I
  I3108    1.0000 0.05779  0.44219  0.44219  Biso   1.000  I
  I3109    1.0000 0.44219  0.05779  0.44219  Biso   1.000  I
  I3110    1.0000 0.05779  0.05779  0.05779  Biso   1.000  I
  I3111    1.0000 0.05779  0.44219  0.44219  Biso   1.000  I
  I3112    1.0000 0.55781  0.94221  0.44219  Biso   1.000  I
  I3113    1.0000 0.94221  0.55781  0.44219  Biso   1.000  I
  I3114    1.0000 0.05779  0.55781  0.55781  Biso   1.000  I
  I3115    1.0000 0.05779  0.94221  0.94221  Biso   1.000  I
  I3116    1.0000 0.05779  0.05779  0.05779  Biso   1.000  I
  I3117    1.0000 0.05779  0.44219  0.44219  Biso   1.000  I
  I3118    1.0000 0.44219  0.44219  0.05779  Biso   1.000  I
  I3119    1.0000 0.94221  0.44219  0.55781  Biso   1.000  I
  I3120    1.0000 0.55781  0.44219  0.94221  Biso   1.000  I
  I3121    1.0000 0.44219  0.05779  0.44219  Biso   1.000  I
  I3122    1.0000 0.05779  0.44219  0.44219  Biso   1.000  I
  I3123    1.0000 0.44219  0.44219  0.05779  Biso   1.000  I
  I3124    1.0000 0.44219  0.05779  0.44219  Biso   1.000  I
  I3125    1.0000 0.05779  0.55781  0.55781  Biso   1.000  I
  I3126    1.0000 0.94221  0.55781  0.44219  Biso   1.000  I
  I3127    1.0000 0.05779  0.55781  0.55781  Biso   1.000  I
  I3128    1.0000 0.05779  0.44219  0.44219  Biso   1.000  I
  I3129    1.0000 0.94221  0.55781  0.44219  Biso   1.000  I
  I3130    1.0000 0.55781  0.55781  0.05779  Biso   1.000  I
  I3131    1.0000 0.44219  0.55781  0.94221  Biso   1.000  I
  I3132    1.0000 0.05779  0.55781  0.55781  Biso   1.000  I
  I3133    1.0000 0.94221  0.55781  0.44219  Biso   1.000  I
  I3134    1.0000 0.55781  0.55781  0.05779  Biso   1.000  I
  I3135    1.0000 0.44219  0.55781  0.94221  Biso   1.000  I
  I3136    1.0000 0.55781  0.94221  0.44219  Biso   1.000  I
  I3137    1.0000 0.55781  0.05779  0.55781  Biso   1.000  I
  I3138    1.0000 0.55781  0.55781  0.05779  Biso   1.000  I
  I3139    1.0000 0.55781  0.44219  0.94221  Biso   1.000  I
  I3140    1.0000 0.55781  0.55781  0.05779  Biso   1.000  I
  I3141    1.0000 0.55781  0.44219  0.94221  Biso   1.000  I
  I3142    1.0000 0.05779  0.44219  0.44219  Biso   1.000  I
  I3143    1.0000 0.55781  0.05779  0.55781  Biso   1.000  I
  I3144    1.0000 0.55781  0.94221  0.44219  Biso   1.000  I
  I3145    1.0000 0.44219  0.05779  0.44219  Biso   1.000  I
  I3146    1.0000 0.55781  0.05779  0.55781  Biso   1.000  I
  I3147    1.0000 0.55781  0.94221  0.44219  Biso   1.000  I
  I3148    1.0000 0.55781  0.55781  0.05779  Biso   1.000  I
  I3149    1.0000 0.55781  0.44219  0.94221  Biso   1.000  I
  I3150    1.0000 0.55781  0.05779  0.55781  Biso   1.000  I
  I3151    1.0000 0.55781  0.94221  0.44219  Biso   1.000  I
  I3152    1.0000 0.05779  0.05779  0.05779  Biso   1.000  I
  I3153    1.0000 0.05779  0.55781  0.55781  Biso   1.000  I
  I3154    1.0000 0.94221  0.55781  0.44219  Biso   1.000  I
  I3155    1.0000 0.55781  0.55781  0.05779  Biso   1.000  I
  I3156    1.0000 0.44219  0.55781  0.94221  Biso   1.000  I
  I3157    1.0000 0.44219  0.55781  0.94221  Biso   1.000  I
  I3158    1.0000 0.55781  0.55781  0.05779  Biso   1.000  I
  I3159    1.0000 0.55781  0.44219  0.94221  Biso   1.000  I
  I3160    1.0000 0.98648  0.01352  0.98648  Biso   1.000  I
  I3161    1.0000 0.51350  0.01352  0.51350  Biso   1.000  I
  I3162    1.0000 0.01352  0.01352  0.01352  Biso   1.000  I
  I3163    1.0000 0.48650  0.01352  0.48650  Biso   1.000  I
  I3164    1.0000 0.51350  0.48650  0.98648  Biso   1.000  I
  I3165    1.0000 0.51350  0.51350  0.01352  Biso   1.000  I
  I3166    1.0000 0.48650  0.48650  0.01352  Biso   1.000  I
  I3167    1.0000 0.48650  0.01352  0.48650  Biso   1.000  I
  I3168    1.0000 0.98648  0.01352  0.98648  Biso   1.000  I
  I3169    1.0000 0.51350  0.01352  0.51350  Biso   1.000  I
  I3170    1.0000 0.48650  0.51350  0.98648  Biso   1.000  I
  I3171    1.0000 0.01352  0.01352  0.01352  Biso   1.000  I
  I3172    1.0000 0.48650  0.01352  0.48650  Biso   1.000  I
  I3173    1.0000 0.98648  0.01352  0.98648  Biso   1.000  I
  I3174    1.0000 0.51350  0.01352  0.51350  Biso   1.000  I
  I3175    1.0000 0.98648  0.51350  0.48650  Biso   1.000  I
  I3176    1.0000 0.98648  0.48650  0.51350  Biso   1.000  I
  I3177    1.0000 0.01352  0.51350  0.51350  Biso   1.000  I
  I3178    1.0000 0.48650  0.98648  0.51350  Biso   1.000  I
  I3179    1.0000 0.48650  0.01352  0.48650  Biso   1.000  I
  I3180    1.0000 0.51350  0.01352  0.51350  Biso   1.000  I
  I3181    1.0000 0.98648  0.48650  0.51350  Biso   1.000  I
  I3182    1.0000 0.01352  0.51350  0.51350  Biso   1.000  I
  I3183    1.0000 0.01352  0.48650  0.48650  Biso   1.000  I
  I3184    1.0000 0.48650  0.51350  0.98648  Biso   1.000  I
  I3185    1.0000 0.51350  0.51350  0.01352  Biso   1.000  I
  I3186    1.0000 0.48650  0.48650  0.01352  Biso   1.000  I
  I3187    1.0000 0.01352  0.01352  0.01352  Biso   1.000  I
  I3188    1.0000 0.48650  0.01352  0.48650  Biso   1.000  I
  I3189    1.0000 0.51350  0.98648  0.48650  Biso   1.000  I
  I3190    1.0000 0.98648  0.51350  0.48650  Biso   1.000  I
  I3191    1.0000 0.98648  0.48650  0.51350  Biso   1.000  I
  I3192    1.0000 0.01352  0.51350  0.51350  Biso   1.000  I
  I3193    1.0000 0.48650  0.98648  0.51350  Biso   1.000  I
  I3194    1.0000 0.48650  0.01352  0.48650  Biso   1.000  I
  I3195    1.0000 0.51350  0.01352  0.51350  Biso   1.000  I
  I3196    1.0000 0.51350  0.48650  0.98648  Biso   1.000  I
  I3197    1.0000 0.01352  0.48650  0.48650  Biso   1.000  I
  I3198    1.0000 0.48650  0.98648  0.51350  Biso   1.000  I
  I3199    1.0000 0.48650  0.01352  0.48650  Biso   1.000  I
  I3200    1.0000 0.51350  0.01352  0.51350  Biso   1.000  I
  I3201    1.0000 0.98648  0.48650  0.51350  Biso   1.000  I
  I3202    1.0000 0.01352  0.51350  0.51350  Biso   1.000  I
  I3203    1.0000 0.01352  0.48650  0.48650  Biso   1.000  I
  I3204    1.0000 0.48650  0.98648  0.51350  Biso   1.000  I
  I3205    1.0000 0.51350  0.98648  0.48650  Biso   1.000  I
  I3206    1.0000 0.51350  0.01352  0.51350  Biso   1.000  I
  I3207    1.0000 0.98648  0.51350  0.48650  Biso   1.000  I
  I3208    1.0000 0.48650  0.51350  0.98648  Biso   1.000  I
  I3209    1.0000 0.01352  0.98648  0.98648  Biso   1.000  I
  I3210    1.0000 0.01352  0.51350  0.51350  Biso   1.000  I
  I3211    1.0000 0.01352  0.48650  0.48650  Biso   1.000  I
  I3212    1.0000 0.01352  0.01352  0.01352  Biso   1.000  I
  I3213    1.0000 0.01352  0.01352  0.01352  Biso   1.000  I
  I3214    1.0000 0.48650  0.48650  0.01352  Biso   1.000  I
  I3215    1.0000 0.01352  0.51350  0.51350  Biso   1.000  I
  I3216    1.0000 0.51350  0.51350  0.01352  Biso   1.000  I
  I3217    1.0000 0.01352  0.48650  0.48650  Biso   1.000  I
  I3218    1.0000 0.01352  0.01352  0.01352  Biso   1.000  I
  I3219    1.0000 0.01352  0.01352  0.01352  Biso   1.000  I
  I3220    1.0000 0.48650  0.01352  0.48650  Biso   1.000  I
  I3221    1.0000 0.51350  0.01352  0.51350  Biso   1.000  I
  I3222    1.0000 0.51350  0.51350  0.01352  Biso   1.000  I
  I3223    1.0000 0.01352  0.48650  0.48650  Biso   1.000  I
  I3224    1.0000 0.01352  0.01352  0.01352  Biso   1.000  I
  I3225    1.0000 0.51350  0.01352  0.51350  Biso   1.000  I
  I3226    1.0000 0.01352  0.51350  0.51350  Biso   1.000  I
  I3227    1.0000 0.51350  0.98648  0.48650  Biso   1.000  I
  I3228    1.0000 0.01352  0.98648  0.98648  Biso   1.000  I
  I3229    1.0000 0.01352  0.51350  0.51350  Biso   1.000  I
  I3230    1.0000 0.48650  0.98648  0.51350  Biso   1.000  I
  I3231    1.0000 0.48650  0.01352  0.48650  Biso   1.000  I
  I3232    1.0000 0.51350  0.01352  0.51350  Biso   1.000  I
  I3233    1.0000 0.01352  0.48650  0.48650  Biso   1.000  I
  I3234    1.0000 0.01352  0.48650  0.48650  Biso   1.000  I
  I3235    1.0000 0.01352  0.01352  0.01352  Biso   1.000  I
  I3236    1.0000 0.01352  0.98648  0.98648  Biso   1.000  I
  I3237    1.0000 0.01352  0.51350  0.51350  Biso   1.000  I
  I3238    1.0000 0.51350  0.48650  0.98648  Biso   1.000  I
  I3239    1.0000 0.01352  0.48650  0.48650  Biso   1.000  I
  I3240    1.0000 0.48650  0.51350  0.98648  Biso   1.000  I
  I3241    1.0000 0.51350  0.51350  0.01352  Biso   1.000  I
  I3242    1.0000 0.48650  0.48650  0.01352  Biso   1.000  I
  I3243    1.0000 0.51350  0.98648  0.48650  Biso   1.000  I
  I3244    1.0000 0.98648  0.51350  0.48650  Biso   1.000  I
  I3245    1.0000 0.98648  0.48650  0.51350  Biso   1.000  I
  I3246    1.0000 0.01352  0.51350  0.51350  Biso   1.000  I
  I3247    1.0000 0.51350  0.48650  0.98648  Biso   1.000  I
  I3248    1.0000 0.37501  0.12502  0.37501  Biso   1.000  I
  I3249    1.0000 0.12502  0.62499  0.62499  Biso   1.000  I
  I3250    1.0000 0.87498  0.62499  0.37501  Biso   1.000  I
  I3251    1.0000 0.98648  0.48650  0.51350  Biso   1.000  I
  I3252    1.0000 0.12502  0.62499  0.62499  Biso   1.000  I
  I3253    1.0000 0.12502  0.37501  0.37501  Biso   1.000  I
  I3254    1.0000 0.87498  0.62499  0.37501  Biso   1.000  I
  I3255    1.0000 0.62499  0.62499  0.12502  Biso   1.000  I
  I3256    1.0000 0.37501  0.62499  0.87498  Biso   1.000  I
  I3257    1.0000 0.12502  0.62499  0.62499  Biso   1.000  I
  I3258    1.0000 0.87498  0.62499  0.37501  Biso   1.000  I
  I3259    1.0000 0.62499  0.62499  0.12502  Biso   1.000  I
  I3260    1.0000 0.37501  0.62499  0.87498  Biso   1.000  I
  I3261    1.0000 0.62499  0.87498  0.37501  Biso   1.000  I
  I3262    1.0000 0.62499  0.12502  0.62499  Biso   1.000  I
  I3263    1.0000 0.62499  0.62499  0.12502  Biso   1.000  I
  I3264    1.0000 0.62499  0.37501  0.87498  Biso   1.000  I
  I3265    1.0000 0.62499  0.62499  0.12502  Biso   1.000  I
  I3266    1.0000 0.62499  0.37501  0.87498  Biso   1.000  I
  I3267    1.0000 0.12502  0.37501  0.37501  Biso   1.000  I
  I3268    1.0000 0.62499  0.12502  0.62499  Biso   1.000  I
  I3269    1.0000 0.62499  0.87498  0.37501  Biso   1.000  I
  I3270    1.0000 0.48650  0.98648  0.51350  Biso   1.000  I
  I3271    1.0000 0.37501  0.12502  0.37501  Biso   1.000  I
  I3272    1.0000 0.62499  0.12502  0.62499  Biso   1.000  I
  I3273    1.0000 0.62499  0.87498  0.37501  Biso   1.000  I
  I3274    1.0000 0.62499  0.62499  0.12502  Biso   1.000  I
  I3275    1.0000 0.62499  0.37501  0.87498  Biso   1.000  I
  I3276    1.0000 0.62499  0.12502  0.62499  Biso   1.000  I
  I3277    1.0000 0.62499  0.87498  0.37501  Biso   1.000  I
  I3278    1.0000 0.12502  0.12502  0.12502  Biso   1.000  I
  I3279    1.0000 0.12502  0.62499  0.62499  Biso   1.000  I
  I3280    1.0000 0.87498  0.62499  0.37501  Biso   1.000  I
  I3281    1.0000 0.62499  0.62499  0.12502  Biso   1.000  I
  I3282    1.0000 0.37501  0.62499  0.87498  Biso   1.000  I
  I3283    1.0000 0.37501  0.62499  0.87498  Biso   1.000  I
  I3284    1.0000 0.48650  0.48650  0.01352  Biso   1.000  I
  I3285    1.0000 0.62499  0.62499  0.12502  Biso   1.000  I
  I3286    1.0000 0.62499  0.37501  0.87498  Biso   1.000  I
  I3287    1.0000 0.44219  0.44219  0.05779  Biso   1.000  I
  I3288    1.0000 0.55781  0.55781  0.05779  Biso   1.000  I
  I3289    1.0000 0.55781  0.44219  0.94221  Biso   1.000  I
  I3290    1.0000 0.94221  0.44219  0.55781  Biso   1.000  I
  I3291    1.0000 0.05779  0.55781  0.55781  Biso   1.000  I
  I3292    1.0000 0.55781  0.05779  0.55781  Biso   1.000  I
  I3293    1.0000 0.44219  0.94221  0.55781  Biso   1.000  I
  I3294    1.0000 0.05779  0.55781  0.55781  Biso   1.000  I
  I3295    1.0000 0.05779  0.44219  0.44219  Biso   1.000  I
  I3296    1.0000 0.94221  0.44219  0.55781  Biso   1.000  I
  I3297    1.0000 0.44219  0.44219  0.05779  Biso   1.000  I
  I3298    1.0000 0.94221  0.44219  0.55781  Biso   1.000  I
  I3299    1.0000 0.05779  0.55781  0.55781  Biso   1.000  I
  I3300    1.0000 0.55781  0.05779  0.55781  Biso   1.000  I
  I3301    1.0000 0.44219  0.94221  0.55781  Biso   1.000  I
  I3302    1.0000 0.55781  0.05779  0.55781  Biso   1.000  I
  I3303    1.0000 0.44219  0.94221  0.55781  Biso   1.000  I
  I3304    1.0000 0.05779  0.55781  0.55781  Biso   1.000  I
  I3305    1.0000 0.94221  0.44219  0.55781  Biso   1.000  I
  I3306    1.0000 0.55781  0.94221  0.44219  Biso   1.000  I
  I3307    1.0000 0.55781  0.05779  0.55781  Biso   1.000  I
  I3308    1.0000 0.44219  0.94221  0.55781  Biso   1.000  I
  I3309    1.0000 0.44219  0.05779  0.44219  Biso   1.000  I
  I3310    1.0000 0.55781  0.05779  0.55781  Biso   1.000  I
  I3311    1.0000 0.44219  0.94221  0.55781  Biso   1.000  I
  I3312    1.0000 0.44219  0.44219  0.05779  Biso   1.000  I
  I3313    1.0000 0.55781  0.55781  0.05779  Biso   1.000  I
  I3314    1.0000 0.44219  0.55781  0.94221  Biso   1.000  I
  I3315    1.0000 0.94221  0.44219  0.55781  Biso   1.000  I
  I3316    1.0000 0.05779  0.55781  0.55781  Biso   1.000  I
  I3317    1.0000 0.94221  0.55781  0.44219  Biso   1.000  I
  I3318    1.0000 0.30778  0.19220  0.30778  Biso   1.000  I
  I3319    1.0000 0.19220  0.69222  0.69222  Biso   1.000  I
  I3320    1.0000 0.80780  0.69222  0.30778  Biso   1.000  I
  I3321    1.0000 0.19220  0.69222  0.69222  Biso   1.000  I
  I3322    1.0000 0.19220  0.30778  0.30778  Biso   1.000  I
  I3323    1.0000 0.80780  0.69222  0.30778  Biso   1.000  I
  I3324    1.0000 0.69222  0.69222  0.19220  Biso   1.000  I
  I3325    1.0000 0.30778  0.69222  0.80780  Biso   1.000  I
  I3326    1.0000 0.19220  0.69222  0.69222  Biso   1.000  I
  I3327    1.0000 0.80780  0.69222  0.30778  Biso   1.000  I
  I3328    1.0000 0.69222  0.69222  0.19220  Biso   1.000  I
  I3329    1.0000 0.30778  0.69222  0.80780  Biso   1.000  I
  I3330    1.0000 0.69222  0.80780  0.30778  Biso   1.000  I
  I3331    1.0000 0.69222  0.19220  0.69222  Biso   1.000  I
  I3332    1.0000 0.69222  0.69222  0.19220  Biso   1.000  I
  I3333    1.0000 0.69222  0.30778  0.80780  Biso   1.000  I
  I3334    1.0000 0.69222  0.69222  0.19220  Biso   1.000  I
  I3335    1.0000 0.69222  0.30778  0.80780  Biso   1.000  I
  I3336    1.0000 0.19220  0.30778  0.30778  Biso   1.000  I
  I3337    1.0000 0.69222  0.19220  0.69222  Biso   1.000  I
  I3338    1.0000 0.69222  0.80780  0.30778  Biso   1.000  I
  I3339    1.0000 0.30778  0.19220  0.30778  Biso   1.000  I
  I3340    1.0000 0.69222  0.19220  0.69222  Biso   1.000  I
  I3341    1.0000 0.69222  0.80780  0.30778  Biso   1.000  I
  I3342    1.0000 0.69222  0.69222  0.19220  Biso   1.000  I
  I3343    1.0000 0.69222  0.30778  0.80780  Biso   1.000  I
  I3344    1.0000 0.69222  0.19220  0.69222  Biso   1.000  I
  I3345    1.0000 0.69222  0.80780  0.30778  Biso   1.000  I
  I3346    1.0000 0.19220  0.19220  0.19220  Biso   1.000  I
  I3347    1.0000 0.19220  0.69222  0.69222  Biso   1.000  I
  I3348    1.0000 0.80780  0.69222  0.30778  Biso   1.000  I
  I3349    1.0000 0.69222  0.69222  0.19220  Biso   1.000  I
  I3350    1.0000 0.30778  0.69222  0.80780  Biso   1.000  I
  I3351    1.0000 0.30778  0.69222  0.80780  Biso   1.000  I
  I3352    1.0000 0.69222  0.69222  0.19220  Biso   1.000  I
  I3353    1.0000 0.69222  0.30778  0.80780  Biso   1.000  I
  I3354    1.0000 0.48650  0.51350  0.98648  Biso   1.000  I
  I3355    1.0000 0.37501  0.37501  0.12502  Biso   1.000  I
  I3356    1.0000 0.62499  0.62499  0.12502  Biso   1.000  I
  I3357    1.0000 0.62499  0.37501  0.87498  Biso   1.000  I
  I3358    1.0000 0.87498  0.37501  0.62499  Biso   1.000  I
  I3359    1.0000 0.12502  0.62499  0.62499  Biso   1.000  I
  I3360    1.0000 0.62499  0.12502  0.62499  Biso   1.000  I
  I3361    1.0000 0.37501  0.87498  0.62499  Biso   1.000  I
  I3362    1.0000 0.98648  0.51350  0.48650  Biso   1.000  I
  I3363    1.0000 0.12502  0.62499  0.62499  Biso   1.000  I
  I3364    1.0000 0.12502  0.37501  0.37501  Biso   1.000  I
  I3365    1.0000 0.87498  0.37501  0.62499  Biso   1.000  I
  I3366    1.0000 0.37501  0.37501  0.12502  Biso   1.000  I
  I3367    1.0000 0.87498  0.37501  0.62499  Biso   1.000  I
  I3368    1.0000 0.12502  0.62499  0.62499  Biso   1.000  I
  I3369    1.0000 0.62499  0.12502  0.62499  Biso   1.000  I
  I3370    1.0000 0.37501  0.87498  0.62499  Biso   1.000  I
  I3371    1.0000 0.62499  0.12502  0.62499  Biso   1.000  I
  I3372    1.0000 0.37501  0.87498  0.62499  Biso   1.000  I
  I3373    1.0000 0.12502  0.62499  0.62499  Biso   1.000  I
  I3374    1.0000 0.87498  0.37501  0.62499  Biso   1.000  I
  I3375    1.0000 0.62499  0.87498  0.37501  Biso   1.000  I
  I3376    1.0000 0.48650  0.01352  0.48650  Biso   1.000  I
  I3377    1.0000 0.62499  0.12502  0.62499  Biso   1.000  I
  I3378    1.0000 0.37501  0.87498  0.62499  Biso   1.000  I
  I3379    1.0000 0.51350  0.98648  0.48650  Biso   1.000  I
  I3380    1.0000 0.37501  0.12502  0.37501  Biso   1.000  I
  I3381    1.0000 0.62499  0.12502  0.62499  Biso   1.000  I
  I3382    1.0000 0.37501  0.87498  0.62499  Biso   1.000  I
  I3383    1.0000 0.51350  0.48650  0.98648  Biso   1.000  I
  I3384    1.0000 0.37501  0.37501  0.12502  Biso   1.000  I
  I3385    1.0000 0.62499  0.62499  0.12502  Biso   1.000  I
  I3386    1.0000 0.37501  0.62499  0.87498  Biso   1.000  I
  I3387    1.0000 0.87498  0.37501  0.62499  Biso   1.000  I
  I3388    1.0000 0.01352  0.48650  0.48650  Biso   1.000  I
  I3389    1.0000 0.12502  0.62499  0.62499  Biso   1.000  I
  I3390    1.0000 0.87498  0.62499  0.37501  Biso   1.000  I
  I3391    1.0000 0.26351  0.26351  0.23651  Biso   1.000  I
  I3392    1.0000 0.23651  0.26351  0.26351  Biso   1.000  I
  I3393    1.0000 0.23651  0.23651  0.23651  Biso   1.000  I
  I3394    1.0000 0.23651  0.76349  0.76349  Biso   1.000  I
  I3395    1.0000 0.26351  0.76349  0.73649  Biso   1.000  I
  I3396    1.0000 0.26351  0.73649  0.76349  Biso   1.000  I
  I3397    1.0000 0.73649  0.73649  0.23651  Biso   1.000  I
  I3398    1.0000 0.76349  0.76349  0.23651  Biso   1.000  I
  I3399    1.0000 0.73649  0.76349  0.26351  Biso   1.000  I
  I3400    1.0000 0.23651  0.76349  0.76349  Biso   1.000  I
  I3401    1.0000 0.26351  0.76349  0.73649  Biso   1.000  I
  I3402    1.0000 0.26351  0.73649  0.76349  Biso   1.000  I
  I3403    1.0000 0.26351  0.26351  0.23651  Biso   1.000  I
  I3404    1.0000 0.23651  0.23651  0.23651  Biso   1.000  I
  I3405    1.0000 0.26351  0.23651  0.26351  Biso   1.000  I
  I3406    1.0000 0.73649  0.73649  0.23651  Biso   1.000  I
  I3407    1.0000 0.76349  0.76349  0.23651  Biso   1.000  I
  I3408    1.0000 0.73649  0.76349  0.26351  Biso   1.000  I
  I3409    1.0000 0.76349  0.76349  0.23651  Biso   1.000  I
  I3410    1.0000 0.73649  0.76349  0.26351  Biso   1.000  I
  I3411    1.0000 0.76349  0.73649  0.26351  Biso   1.000  I
  I3412    1.0000 0.23651  0.73649  0.73649  Biso   1.000  I
  I3413    1.0000 0.23651  0.76349  0.76349  Biso   1.000  I
  I3414    1.0000 0.26351  0.76349  0.73649  Biso   1.000  I
  I3415    1.0000 0.26351  0.73649  0.76349  Biso   1.000  I
  I3416    1.0000 0.73649  0.73649  0.23651  Biso   1.000  I
  I3417    1.0000 0.76349  0.76349  0.23651  Biso   1.000  I
  I3418    1.0000 0.73649  0.76349  0.26351  Biso   1.000  I
  I3419    1.0000 0.76349  0.73649  0.26351  Biso   1.000  I
  I3420    1.0000 0.23651  0.76349  0.76349  Biso   1.000  I
  I3421    1.0000 0.26351  0.76349  0.73649  Biso   1.000  I
  I3422    1.0000 0.23651  0.73649  0.73649  Biso   1.000  I
  I3423    1.0000 0.76349  0.73649  0.26351  Biso   1.000  I
  I3424    1.0000 0.76349  0.76349  0.23651  Biso   1.000  I
  I3425    1.0000 0.73649  0.73649  0.23651  Biso   1.000  I
  I3426    1.0000 0.76349  0.23651  0.76349  Biso   1.000  I
  I3427    1.0000 0.73649  0.26351  0.76349  Biso   1.000  I
  I3428    1.0000 0.76349  0.26351  0.73649  Biso   1.000  I
  I3429    1.0000 0.76349  0.73649  0.26351  Biso   1.000  I
  I3430    1.0000 0.76349  0.76349  0.23651  Biso   1.000  I
  I3431    1.0000 0.73649  0.76349  0.26351  Biso   1.000  I
  I3432    1.0000 0.76349  0.23651  0.76349  Biso   1.000  I
  I3433    1.0000 0.76349  0.26351  0.73649  Biso   1.000  I
  I3434    1.0000 0.73649  0.23651  0.73649  Biso   1.000  I
  I3435    1.0000 0.73649  0.76349  0.26351  Biso   1.000  I
  I3436    1.0000 0.73649  0.23651  0.73649  Biso   1.000  I
  I3437    1.0000 0.76349  0.23651  0.76349  Biso   1.000  I
  I3438    1.0000 0.76349  0.26351  0.73649  Biso   1.000  I
  I3439    1.0000 0.26351  0.26351  0.23651  Biso   1.000  I
  I3440    1.0000 0.26351  0.23651  0.26351  Biso   1.000  I
  I3441    1.0000 0.23651  0.23651  0.23651  Biso   1.000  I
  I3442    1.0000 0.73649  0.26351  0.76349  Biso   1.000  I
  I3443    1.0000 0.76349  0.73649  0.26351  Biso   1.000  I
  I3444    1.0000 0.73649  0.73649  0.23651  Biso   1.000  I
  I3445    1.0000 0.76349  0.76349  0.23651  Biso   1.000  I
  I3446    1.0000 0.23651  0.26351  0.26351  Biso   1.000  I
  I3447    1.0000 0.76349  0.23651  0.76349  Biso   1.000  I
  I3448    1.0000 0.73649  0.26351  0.76349  Biso   1.000  I
  I3449    1.0000 0.76349  0.26351  0.73649  Biso   1.000  I
  I3450    1.0000 0.76349  0.73649  0.26351  Biso   1.000  I
  I3451    1.0000 0.73649  0.73649  0.23651  Biso   1.000  I
  I3452    1.0000 0.76349  0.76349  0.23651  Biso   1.000  I
  I3453    1.0000 0.76349  0.73649  0.26351  Biso   1.000  I
  I3454    1.0000 0.76349  0.76349  0.23651  Biso   1.000  I
  I3455    1.0000 0.73649  0.76349  0.26351  Biso   1.000  I
  I3456    1.0000 0.73649  0.23651  0.73649  Biso   1.000  I
  I3457    1.0000 0.76349  0.23651  0.76349  Biso   1.000  I
  I3458    1.0000 0.73649  0.26351  0.76349  Biso   1.000  I
  I3459    1.0000 0.76349  0.26351  0.73649  Biso   1.000  I
  I3460    1.0000 0.73649  0.73649  0.23651  Biso   1.000  I
  I3461    1.0000 0.26351  0.26351  0.23651  Biso   1.000  I
  I3462    1.0000 0.23651  0.26351  0.26351  Biso   1.000  I
  I3463    1.0000 0.26351  0.23651  0.26351  Biso   1.000  I
  I3464    1.0000 0.23651  0.76349  0.76349  Biso   1.000  I
  I3465    1.0000 0.26351  0.76349  0.73649  Biso   1.000  I
  I3466    1.0000 0.26351  0.73649  0.76349  Biso   1.000  I
  I3467    1.0000 0.73649  0.73649  0.23651  Biso   1.000  I
  I3468    1.0000 0.76349  0.73649  0.26351  Biso   1.000  I
  I3469    1.0000 0.76349  0.76349  0.23651  Biso   1.000  I
  I3470    1.0000 0.73649  0.76349  0.26351  Biso   1.000  I
  I3471    1.0000 0.23651  0.73649  0.73649  Biso   1.000  I
  I3472    1.0000 0.23651  0.73649  0.73649  Biso   1.000  I
  I3473    1.0000 0.76349  0.73649  0.26351  Biso   1.000  I
  I3474    1.0000 0.76349  0.76349  0.23651  Biso   1.000  I
  I3475    1.0000 0.73649  0.76349  0.26351  Biso   1.000  I
  I3476    1.0000 0.73649  0.23651  0.73649  Biso   1.000  I
  I3477    1.0000 0.30778  0.30778  0.19220  Biso   1.000  I
  I3478    1.0000 0.69222  0.69222  0.19220  Biso   1.000  I
  I3479    1.0000 0.69222  0.30778  0.80780  Biso   1.000  I
  I3480    1.0000 0.80780  0.30778  0.69222  Biso   1.000  I
  I3481    1.0000 0.19220  0.69222  0.69222  Biso   1.000  I
  I3482    1.0000 0.69222  0.19220  0.69222  Biso   1.000  I
  I3483    1.0000 0.30778  0.80780  0.69222  Biso   1.000  I
  I3484    1.0000 0.19220  0.69222  0.69222  Biso   1.000  I
  I3485    1.0000 0.19220  0.30778  0.30778  Biso   1.000  I
  I3486    1.0000 0.80780  0.30778  0.69222  Biso   1.000  I
  I3487    1.0000 0.30778  0.30778  0.19220  Biso   1.000  I
  I3488    1.0000 0.80780  0.30778  0.69222  Biso   1.000  I
  I3489    1.0000 0.19220  0.69222  0.69222  Biso   1.000  I
  I3490    1.0000 0.69222  0.19220  0.69222  Biso   1.000  I
  I3491    1.0000 0.30778  0.80780  0.69222  Biso   1.000  I
  I3492    1.0000 0.69222  0.19220  0.69222  Biso   1.000  I
  I3493    1.0000 0.30778  0.80780  0.69222  Biso   1.000  I
  I3494    1.0000 0.19220  0.69222  0.69222  Biso   1.000  I
  I3495    1.0000 0.80780  0.30778  0.69222  Biso   1.000  I
  I3496    1.0000 0.69222  0.80780  0.30778  Biso   1.000  I
  I3497    1.0000 0.69222  0.19220  0.69222  Biso   1.000  I
  I3498    1.0000 0.30778  0.80780  0.69222  Biso   1.000  I
  I3499    1.0000 0.30778  0.19220  0.30778  Biso   1.000  I
  I3500    1.0000 0.69222  0.19220  0.69222  Biso   1.000  I
  I3501    1.0000 0.30778  0.80780  0.69222  Biso   1.000  I
  I3502    1.0000 0.30778  0.30778  0.19220  Biso   1.000  I
  I3503    1.0000 0.69222  0.69222  0.19220  Biso   1.000  I
  I3504    1.0000 0.30778  0.69222  0.80780  Biso   1.000  I
  I3505    1.0000 0.80780  0.30778  0.69222  Biso   1.000  I
  I3506    1.0000 0.19220  0.69222  0.69222  Biso   1.000  I
  I3507    1.0000 0.80780  0.69222  0.30778  Biso   1.000  I
  I3508    1.0000 0.19220  0.19220  0.19220  Biso   1.000  I
  I3509    1.0000 0.19220  0.30778  0.30778  Biso   1.000  I
  I3510    1.0000 0.30778  0.30778  0.19220  Biso   1.000  I
  I3511    1.0000 0.30778  0.80780  0.69222  Biso   1.000  I
  I3512    1.0000 0.19220  0.80780  0.80780  Biso   1.000  I
  I3513    1.0000 0.69222  0.80780  0.30778  Biso   1.000  I
  I3514    1.0000 0.80780  0.80780  0.19220  Biso   1.000  I
  I3515    1.0000 0.69222  0.69222  0.19220  Biso   1.000  I
  I3516    1.0000 0.30778  0.80780  0.69222  Biso   1.000  I
  I3517    1.0000 0.19220  0.80780  0.80780  Biso   1.000  I
  I3518    1.0000 0.19220  0.19220  0.19220  Biso   1.000  I
  I3519    1.0000 0.30778  0.30778  0.19220  Biso   1.000  I
  I3520    1.0000 0.69222  0.80780  0.30778  Biso   1.000  I
  I3521    1.0000 0.80780  0.80780  0.19220  Biso   1.000  I
  I3522    1.0000 0.69222  0.69222  0.19220  Biso   1.000  I
  I3523    1.0000 0.69222  0.80780  0.30778  Biso   1.000  I
  I3524    1.0000 0.80780  0.80780  0.19220  Biso   1.000  I
  I3525    1.0000 0.30778  0.80780  0.69222  Biso   1.000  I
  I3526    1.0000 0.19220  0.80780  0.80780  Biso   1.000  I
  I3527    1.0000 0.69222  0.80780  0.30778  Biso   1.000  I
  I3528    1.0000 0.80780  0.80780  0.19220  Biso   1.000  I
  I3529    1.0000 0.19220  0.69222  0.69222  Biso   1.000  I
  I3530    1.0000 0.30778  0.80780  0.69222  Biso   1.000  I
  I3531    1.0000 0.19220  0.80780  0.80780  Biso   1.000  I
  I3532    1.0000 0.80780  0.80780  0.19220  Biso   1.000  I
  I3533    1.0000 0.80780  0.69222  0.30778  Biso   1.000  I
  I3534    1.0000 0.80780  0.30778  0.69222  Biso   1.000  I
  I3535    1.0000 0.80780  0.19220  0.80780  Biso   1.000  I
  I3536    1.0000 0.80780  0.80780  0.19220  Biso   1.000  I
  I3537    1.0000 0.80780  0.69222  0.30778  Biso   1.000  I
  I3538    1.0000 0.80780  0.30778  0.69222  Biso   1.000  I
  I3539    1.0000 0.80780  0.19220  0.80780  Biso   1.000  I
  I3540    1.0000 0.80780  0.30778  0.69222  Biso   1.000  I
  I3541    1.0000 0.80780  0.19220  0.80780  Biso   1.000  I
  I3542    1.0000 0.69222  0.19220  0.69222  Biso   1.000  I
  I3543    1.0000 0.19220  0.19220  0.19220  Biso   1.000  I
  I3544    1.0000 0.30778  0.19220  0.30778  Biso   1.000  I
  I3545    1.0000 0.30778  0.30778  0.19220  Biso   1.000  I
  I3546    1.0000 0.80780  0.80780  0.19220  Biso   1.000  I
  I3547    1.0000 0.69222  0.69222  0.19220  Biso   1.000  I
  I3548    1.0000 0.80780  0.69222  0.30778  Biso   1.000  I
  I3549    1.0000 0.80780  0.30778  0.69222  Biso   1.000  I
  I3550    1.0000 0.80780  0.19220  0.80780  Biso   1.000  I
  I3551    1.0000 0.80780  0.80780  0.19220  Biso   1.000  I
  I3552    1.0000 0.69222  0.69222  0.19220  Biso   1.000  I
  I3553    1.0000 0.80780  0.69222  0.30778  Biso   1.000  I
  I3554    1.0000 0.69222  0.80780  0.30778  Biso   1.000  I
  I3555    1.0000 0.80780  0.80780  0.19220  Biso   1.000  I
  I3556    1.0000 0.80780  0.69222  0.30778  Biso   1.000  I
  I3557    1.0000 0.80780  0.30778  0.69222  Biso   1.000  I
  I3558    1.0000 0.69222  0.30778  0.80780  Biso   1.000  I
  I3559    1.0000 0.80780  0.19220  0.80780  Biso   1.000  I
  I3560    1.0000 0.30778  0.19220  0.30778  Biso   1.000  I
  I3561    1.0000 0.19220  0.30778  0.30778  Biso   1.000  I
  I3562    1.0000 0.30778  0.30778  0.19220  Biso   1.000  I
  I3563    1.0000 0.30778  0.69222  0.80780  Biso   1.000  I
  I3564    1.0000 0.30778  0.80780  0.69222  Biso   1.000  I
  I3565    1.0000 0.19220  0.80780  0.80780  Biso   1.000  I
  I3566    1.0000 0.69222  0.80780  0.30778  Biso   1.000  I
  I3567    1.0000 0.80780  0.80780  0.19220  Biso   1.000  I
  I3568    1.0000 0.80780  0.69222  0.30778  Biso   1.000  I
  I3569    1.0000 0.69222  0.80780  0.30778  Biso   1.000  I
  I3570    1.0000 0.80780  0.80780  0.19220  Biso   1.000  I
  I3571    1.0000 0.80780  0.69222  0.30778  Biso   1.000  I
  I3572    1.0000 0.23651  0.26351  0.26351  Biso   1.000  I
  I3573    1.0000 0.26351  0.23651  0.26351  Biso   1.000  I
  I3574    1.0000 0.23651  0.23651  0.23651  Biso   1.000  I
  I3575    1.0000 0.76349  0.73649  0.26351  Biso   1.000  I
  I3576    1.0000 0.76349  0.76349  0.23651  Biso   1.000  I
  I3577    1.0000 0.73649  0.76349  0.26351  Biso   1.000  I
  I3578    1.0000 0.73649  0.23651  0.73649  Biso   1.000  I
  I3579    1.0000 0.76349  0.23651  0.76349  Biso   1.000  I
  I3580    1.0000 0.76349  0.26351  0.73649  Biso   1.000  I
  I3581    1.0000 0.73649  0.23651  0.73649  Biso   1.000  I
  I3582    1.0000 0.76349  0.23651  0.76349  Biso   1.000  I
  I3583    1.0000 0.73649  0.26351  0.76349  Biso   1.000  I
  I3584    1.0000 0.23651  0.76349  0.76349  Biso   1.000  I
  I3585    1.0000 0.26351  0.76349  0.73649  Biso   1.000  I
  I3586    1.0000 0.26351  0.73649  0.76349  Biso   1.000  I
  I3587    1.0000 0.76349  0.23651  0.76349  Biso   1.000  I
  I3588    1.0000 0.73649  0.26351  0.76349  Biso   1.000  I
  I3589    1.0000 0.76349  0.26351  0.73649  Biso   1.000  I
  I3590    1.0000 0.23651  0.73649  0.73649  Biso   1.000  I
  I3591    1.0000 0.23651  0.76349  0.76349  Biso   1.000  I
  I3592    1.0000 0.26351  0.76349  0.73649  Biso   1.000  I
  I3593    1.0000 0.26351  0.73649  0.76349  Biso   1.000  I
  I3594    1.0000 0.26351  0.26351  0.23651  Biso   1.000  I
  I3595    1.0000 0.73649  0.23651  0.73649  Biso   1.000  I
  I3596    1.0000 0.76349  0.23651  0.76349  Biso   1.000  I
  I3597    1.0000 0.73649  0.26351  0.76349  Biso   1.000  I
  I3598    1.0000 0.23651  0.26351  0.26351  Biso   1.000  I
  I3599    1.0000 0.26351  0.23651  0.26351  Biso   1.000  I
  I3600    1.0000 0.23651  0.23651  0.23651  Biso   1.000  I
  I3601    1.0000 0.73649  0.23651  0.73649  Biso   1.000  I
  I3602    1.0000 0.76349  0.23651  0.76349  Biso   1.000  I
  I3603    1.0000 0.73649  0.26351  0.76349  Biso   1.000  I
  I3604    1.0000 0.23651  0.76349  0.76349  Biso   1.000  I
  I3605    1.0000 0.26351  0.76349  0.73649  Biso   1.000  I
  I3606    1.0000 0.26351  0.73649  0.76349  Biso   1.000  I
  I3607    1.0000 0.76349  0.26351  0.73649  Biso   1.000  I
  I3608    1.0000 0.23651  0.76349  0.76349  Biso   1.000  I
  I3609    1.0000 0.23651  0.73649  0.73649  Biso   1.000  I
  I3610    1.0000 0.26351  0.73649  0.76349  Biso   1.000  I
  I3611    1.0000 0.76349  0.23651  0.76349  Biso   1.000  I
  I3612    1.0000 0.73649  0.26351  0.76349  Biso   1.000  I
  I3613    1.0000 0.76349  0.26351  0.73649  Biso   1.000  I
  I3614    1.0000 0.23651  0.73649  0.73649  Biso   1.000  I
  I3615    1.0000 0.23651  0.76349  0.76349  Biso   1.000  I
  I3616    1.0000 0.26351  0.76349  0.73649  Biso   1.000  I
  I3617    1.0000 0.26351  0.73649  0.76349  Biso   1.000  I
  I3618    1.0000 0.73649  0.23651  0.73649  Biso   1.000  I
  I3619    1.0000 0.73649  0.73649  0.23651  Biso   1.000  I
  I3620    1.0000 0.76349  0.23651  0.76349  Biso   1.000  I
  I3621    1.0000 0.73649  0.26351  0.76349  Biso   1.000  I
  I3622    1.0000 0.76349  0.26351  0.73649  Biso   1.000  I
  I3623    1.0000 0.23651  0.73649  0.73649  Biso   1.000  I
  I3624    1.0000 0.26351  0.26351  0.23651  Biso   1.000  I
  I3625    1.0000 0.23651  0.26351  0.26351  Biso   1.000  I
  I3626    1.0000 0.23651  0.23651  0.23651  Biso   1.000  I
  I3627    1.0000 0.76349  0.23651  0.76349  Biso   1.000  I
  I3628    1.0000 0.73649  0.26351  0.76349  Biso   1.000  I
  I3629    1.0000 0.76349  0.26351  0.73649  Biso   1.000  I
  I3630    1.0000 0.23651  0.76349  0.76349  Biso   1.000  I
  I3631    1.0000 0.23651  0.73649  0.73649  Biso   1.000  I
  I3632    1.0000 0.26351  0.73649  0.76349  Biso   1.000  I
  I3633    1.0000 0.26351  0.23651  0.26351  Biso   1.000  I
  I3634    1.0000 0.76349  0.76349  0.23651  Biso   1.000  I
  I3635    1.0000 0.73649  0.76349  0.26351  Biso   1.000  I
  I3636    1.0000 0.76349  0.73649  0.26351  Biso   1.000  I
  I3637    1.0000 0.23651  0.76349  0.76349  Biso   1.000  I
  I3638    1.0000 0.26351  0.76349  0.73649  Biso   1.000  I
  I3639    1.0000 0.23651  0.73649  0.73649  Biso   1.000  I
  I3640    1.0000 0.73649  0.23651  0.73649  Biso   1.000  I
  I3641    1.0000 0.23651  0.76349  0.76349  Biso   1.000  I
  I3642    1.0000 0.26351  0.76349  0.73649  Biso   1.000  I
  I3643    1.0000 0.26351  0.73649  0.76349  Biso   1.000  I
  I3644    1.0000 0.73649  0.73649  0.23651  Biso   1.000  I
  I3645    1.0000 0.12502  0.12502  0.12502  Biso   1.000  I
  I3646    1.0000 0.26351  0.23651  0.26351  Biso   1.000  I
  I3647    1.0000 0.12502  0.37501  0.37501  Biso   1.000  I
  I3648    1.0000 0.37501  0.37501  0.12502  Biso   1.000  I
  I3649    1.0000 0.37501  0.87498  0.62499  Biso   1.000  I
  I3650    1.0000 0.12502  0.87498  0.87498  Biso   1.000  I
  I3651    1.0000 0.62499  0.87498  0.37501  Biso   1.000  I
  I3652    1.0000 0.76349  0.73649  0.26351  Biso   1.000  I
  I3653    1.0000 0.87498  0.87498  0.12502  Biso   1.000  I
  I3654    1.0000 0.62499  0.62499  0.12502  Biso   1.000  I
  I3655    1.0000 0.37501  0.87498  0.62499  Biso   1.000  I
  I3656    1.0000 0.12502  0.87498  0.87498  Biso   1.000  I
  I3657    1.0000 0.12502  0.12502  0.12502  Biso   1.000  I
  I3658    1.0000 0.37501  0.37501  0.12502  Biso   1.000  I
  I3659    1.0000 0.62499  0.87498  0.37501  Biso   1.000  I
  I3660    1.0000 0.76349  0.73649  0.26351  Biso   1.000  I
  I3661    1.0000 0.87498  0.87498  0.12502  Biso   1.000  I
  I3662    1.0000 0.62499  0.62499  0.12502  Biso   1.000  I
  I3663    1.0000 0.62499  0.87498  0.37501  Biso   1.000  I
  I3664    1.0000 0.87498  0.87498  0.12502  Biso   1.000  I
  I3665    1.0000 0.37501  0.87498  0.62499  Biso   1.000  I
  I3666    1.0000 0.12502  0.87498  0.87498  Biso   1.000  I
  I3667    1.0000 0.62499  0.87498  0.37501  Biso   1.000  I
  I3668    1.0000 0.87498  0.87498  0.12502  Biso   1.000  I
  I3669    1.0000 0.12502  0.62499  0.62499  Biso   1.000  I
  I3670    1.0000 0.26351  0.73649  0.76349  Biso   1.000  I
  I3671    1.0000 0.37501  0.87498  0.62499  Biso   1.000  I
  I3672    1.0000 0.12502  0.87498  0.87498  Biso   1.000  I
  I3673    1.0000 0.87498  0.87498  0.12502  Biso   1.000  I
  I3674    1.0000 0.87498  0.62499  0.37501  Biso   1.000  I
  I3675    1.0000 0.87498  0.37501  0.62499  Biso   1.000  I
  I3676    1.0000 0.87498  0.12502  0.87498  Biso   1.000  I
  I3677    1.0000 0.87498  0.87498  0.12502  Biso   1.000  I
  I3678    1.0000 0.87498  0.62499  0.37501  Biso   1.000  I
  I3679    1.0000 0.87498  0.37501  0.62499  Biso   1.000  I
  I3680    1.0000 0.87498  0.12502  0.87498  Biso   1.000  I
  I3681    1.0000 0.87498  0.37501  0.62499  Biso   1.000  I
  I3682    1.0000 0.73649  0.26351  0.76349  Biso   1.000  I
  I3683    1.0000 0.87498  0.12502  0.87498  Biso   1.000  I
  I3684    1.0000 0.62499  0.12502  0.62499  Biso   1.000  I
  I3685    1.0000 0.12502  0.12502  0.12502  Biso   1.000  I
  I3686    1.0000 0.23651  0.26351  0.26351  Biso   1.000  I
  I3687    1.0000 0.37501  0.12502  0.37501  Biso   1.000  I
  I3688    1.0000 0.37501  0.37501  0.12502  Biso   1.000  I
  I3689    1.0000 0.87498  0.87498  0.12502  Biso   1.000  I
  I3690    1.0000 0.73649  0.76349  0.26351  Biso   1.000  I
  I3691    1.0000 0.62499  0.62499  0.12502  Biso   1.000  I
  I3692    1.0000 0.87498  0.62499  0.37501  Biso   1.000  I
  I3693    1.0000 0.87498  0.37501  0.62499  Biso   1.000  I
  I3694    1.0000 0.87498  0.12502  0.87498  Biso   1.000  I
  I3695    1.0000 0.87498  0.87498  0.12502  Biso   1.000  I
  I3696    1.0000 0.73649  0.76349  0.26351  Biso   1.000  I
  I3697    1.0000 0.62499  0.62499  0.12502  Biso   1.000  I
  I3698    1.0000 0.87498  0.62499  0.37501  Biso   1.000  I
  I3699    1.0000 0.62499  0.87498  0.37501  Biso   1.000  I
  I3700    1.0000 0.73649  0.73649  0.23651  Biso   1.000  I
  I3701    1.0000 0.87498  0.87498  0.12502  Biso   1.000  I
  I3702    1.0000 0.87498  0.62499  0.37501  Biso   1.000  I
  I3703    1.0000 0.87498  0.37501  0.62499  Biso   1.000  I
  I3704    1.0000 0.73649  0.23651  0.73649  Biso   1.000  I
  I3705    1.0000 0.62499  0.37501  0.87498  Biso   1.000  I
  I3706    1.0000 0.87498  0.12502  0.87498  Biso   1.000  I
  I3707    1.0000 0.37501  0.12502  0.37501  Biso   1.000  I
  I3708    1.0000 0.23651  0.23651  0.23651  Biso   1.000  I
  I3709    1.0000 0.12502  0.37501  0.37501  Biso   1.000  I
  I3710    1.0000 0.37501  0.37501  0.12502  Biso   1.000  I
  I3711    1.0000 0.37501  0.62499  0.87498  Biso   1.000  I
  I3712    1.0000 0.23651  0.73649  0.73649  Biso   1.000  I
  I3713    1.0000 0.37501  0.87498  0.62499  Biso   1.000  I
  I3714    1.0000 0.12502  0.87498  0.87498  Biso   1.000  I
  I3715    1.0000 0.73649  0.73649  0.23651  Biso   1.000  I
  I3716    1.0000 0.62499  0.87498  0.37501  Biso   1.000  I
  I3717    1.0000 0.87498  0.87498  0.12502  Biso   1.000  I
  I3718    1.0000 0.87498  0.62499  0.37501  Biso   1.000  I
  I3719    1.0000 0.62499  0.87498  0.37501  Biso   1.000  I
  I3720    1.0000 0.73649  0.73649  0.23651  Biso   1.000  I
  I3721    1.0000 0.87498  0.87498  0.12502  Biso   1.000  I
  I3722    1.0000 0.87498  0.62499  0.37501  Biso   1.000  I
  I3723    1.0000 0.19220  0.19220  0.19220  Biso   1.000  I
  I3724    1.0000 0.30778  0.19220  0.30778  Biso   1.000  I
  I3725    1.0000 0.80780  0.80780  0.19220  Biso   1.000  I
  I3726    1.0000 0.80780  0.69222  0.30778  Biso   1.000  I
  I3727    1.0000 0.80780  0.30778  0.69222  Biso   1.000  I
  I3728    1.0000 0.80780  0.19220  0.80780  Biso   1.000  I
  I3729    1.0000 0.69222  0.19220  0.69222  Biso   1.000  I
  I3730    1.0000 0.69222  0.30778  0.80780  Biso   1.000  I
  I3731    1.0000 0.80780  0.19220  0.80780  Biso   1.000  I
  I3732    1.0000 0.69222  0.19220  0.69222  Biso   1.000  I
  I3733    1.0000 0.30778  0.69222  0.80780  Biso   1.000  I
  I3734    1.0000 0.19220  0.80780  0.80780  Biso   1.000  I
  I3735    1.0000 0.69222  0.30778  0.80780  Biso   1.000  I
  I3736    1.0000 0.80780  0.19220  0.80780  Biso   1.000  I
  I3737    1.0000 0.30778  0.69222  0.80780  Biso   1.000  I
  I3738    1.0000 0.19220  0.80780  0.80780  Biso   1.000  I
  I3739    1.0000 0.69222  0.30778  0.80780  Biso   1.000  I
  I3740    1.0000 0.80780  0.19220  0.80780  Biso   1.000  I
  I3741    1.0000 0.69222  0.19220  0.69222  Biso   1.000  I
  I3742    1.0000 0.19220  0.19220  0.19220  Biso   1.000  I
  I3743    1.0000 0.30778  0.19220  0.30778  Biso   1.000  I
  I3744    1.0000 0.19220  0.30778  0.30778  Biso   1.000  I
  I3745    1.0000 0.69222  0.30778  0.80780  Biso   1.000  I
  I3746    1.0000 0.80780  0.19220  0.80780  Biso   1.000  I
  I3747    1.0000 0.30778  0.69222  0.80780  Biso   1.000  I
  I3748    1.0000 0.19220  0.80780  0.80780  Biso   1.000  I
  I3749    1.0000 0.30778  0.69222  0.80780  Biso   1.000  I
  I3750    1.0000 0.19220  0.69222  0.69222  Biso   1.000  I
  I3751    1.0000 0.19220  0.80780  0.80780  Biso   1.000  I
  I3752    1.0000 0.80780  0.30778  0.69222  Biso   1.000  I
  I3753    1.0000 0.69222  0.30778  0.80780  Biso   1.000  I
  I3754    1.0000 0.80780  0.19220  0.80780  Biso   1.000  I
  I3755    1.0000 0.30778  0.69222  0.80780  Biso   1.000  I
  I3756    1.0000 0.30778  0.80780  0.69222  Biso   1.000  I
  I3757    1.0000 0.19220  0.80780  0.80780  Biso   1.000  I
  I3758    1.0000 0.80780  0.30778  0.69222  Biso   1.000  I
  I3759    1.0000 0.69222  0.30778  0.80780  Biso   1.000  I
  I3760    1.0000 0.80780  0.19220  0.80780  Biso   1.000  I
  I3761    1.0000 0.19220  0.19220  0.19220  Biso   1.000  I
  I3762    1.0000 0.19220  0.30778  0.30778  Biso   1.000  I
  I3763    1.0000 0.69222  0.30778  0.80780  Biso   1.000  I
  I3764    1.0000 0.80780  0.19220  0.80780  Biso   1.000  I
  I3765    1.0000 0.30778  0.69222  0.80780  Biso   1.000  I
  I3766    1.0000 0.19220  0.69222  0.69222  Biso   1.000  I
  I3767    1.0000 0.19220  0.80780  0.80780  Biso   1.000  I
  I3768    1.0000 0.69222  0.80780  0.30778  Biso   1.000  I
  I3769    1.0000 0.80780  0.80780  0.19220  Biso   1.000  I
  I3770    1.0000 0.19220  0.69222  0.69222  Biso   1.000  I
  I3771    1.0000 0.30778  0.80780  0.69222  Biso   1.000  I
  I3772    1.0000 0.19220  0.80780  0.80780  Biso   1.000  I
  I3773    1.0000 0.30778  0.69222  0.80780  Biso   1.000  I
  I3774    1.0000 0.30778  0.80780  0.69222  Biso   1.000  I
  I3775    1.0000 0.19220  0.80780  0.80780  Biso   1.000  I
  I3776    1.0000 0.05779  0.05779  0.05779  Biso   1.000  I
  I3777    1.0000 0.05779  0.44219  0.44219  Biso   1.000  I
  I3778    1.0000 0.44219  0.44219  0.05779  Biso   1.000  I
  I3779    1.0000 0.44219  0.94221  0.55781  Biso   1.000  I
  I3780    1.0000 0.05779  0.94221  0.94221  Biso   1.000  I
  I3781    1.0000 0.55781  0.94221  0.44219  Biso   1.000  I
  I3782    1.0000 0.94221  0.94221  0.05779  Biso   1.000  I
  I3783    1.0000 0.55781  0.55781  0.05779  Biso   1.000  I
  I3784    1.0000 0.44219  0.94221  0.55781  Biso   1.000  I
  I3785    1.0000 0.05779  0.94221  0.94221  Biso   1.000  I
  I3786    1.0000 0.05779  0.05779  0.05779  Biso   1.000  I
  I3787    1.0000 0.44219  0.44219  0.05779  Biso   1.000  I
  I3788    1.0000 0.55781  0.94221  0.44219  Biso   1.000  I
  I3789    1.0000 0.94221  0.94221  0.05779  Biso   1.000  I
  I3790    1.0000 0.55781  0.55781  0.05779  Biso   1.000  I
  I3791    1.0000 0.55781  0.94221  0.44219  Biso   1.000  I
  I3792    1.0000 0.94221  0.94221  0.05779  Biso   1.000  I
  I3793    1.0000 0.44219  0.94221  0.55781  Biso   1.000  I
  I3794    1.0000 0.05779  0.94221  0.94221  Biso   1.000  I
  I3795    1.0000 0.55781  0.94221  0.44219  Biso   1.000  I
  I3796    1.0000 0.94221  0.94221  0.05779  Biso   1.000  I
  I3797    1.0000 0.05779  0.55781  0.55781  Biso   1.000  I
  I3798    1.0000 0.44219  0.94221  0.55781  Biso   1.000  I
  I3799    1.0000 0.05779  0.94221  0.94221  Biso   1.000  I
  I3800    1.0000 0.94221  0.94221  0.05779  Biso   1.000  I
  I3801    1.0000 0.94221  0.55781  0.44219  Biso   1.000  I
  I3802    1.0000 0.94221  0.44219  0.55781  Biso   1.000  I
  I3803    1.0000 0.94221  0.05779  0.94221  Biso   1.000  I
  I3804    1.0000 0.94221  0.94221  0.05779  Biso   1.000  I
  I3805    1.0000 0.94221  0.55781  0.44219  Biso   1.000  I
  I3806    1.0000 0.94221  0.44219  0.55781  Biso   1.000  I
  I3807    1.0000 0.94221  0.05779  0.94221  Biso   1.000  I
  I3808    1.0000 0.94221  0.44219  0.55781  Biso   1.000  I
  I3809    1.0000 0.94221  0.05779  0.94221  Biso   1.000  I
  I3810    1.0000 0.55781  0.05779  0.55781  Biso   1.000  I
  I3811    1.0000 0.05779  0.05779  0.05779  Biso   1.000  I
  I3812    1.0000 0.44219  0.05779  0.44219  Biso   1.000  I
  I3813    1.0000 0.44219  0.44219  0.05779  Biso   1.000  I
  I3814    1.0000 0.94221  0.94221  0.05779  Biso   1.000  I
  I3815    1.0000 0.55781  0.55781  0.05779  Biso   1.000  I
  I3816    1.0000 0.94221  0.55781  0.44219  Biso   1.000  I
  I3817    1.0000 0.94221  0.44219  0.55781  Biso   1.000  I
  I3818    1.0000 0.94221  0.05779  0.94221  Biso   1.000  I
  I3819    1.0000 0.94221  0.94221  0.05779  Biso   1.000  I
  I3820    1.0000 0.55781  0.55781  0.05779  Biso   1.000  I
  I3821    1.0000 0.94221  0.55781  0.44219  Biso   1.000  I
  I3822    1.0000 0.55781  0.94221  0.44219  Biso   1.000  I
  I3823    1.0000 0.94221  0.94221  0.05779  Biso   1.000  I
  I3824    1.0000 0.94221  0.55781  0.44219  Biso   1.000  I
  I3825    1.0000 0.94221  0.44219  0.55781  Biso   1.000  I
  I3826    1.0000 0.55781  0.44219  0.94221  Biso   1.000  I
  I3827    1.0000 0.94221  0.05779  0.94221  Biso   1.000  I
  I3828    1.0000 0.44219  0.05779  0.44219  Biso   1.000  I
  I3829    1.0000 0.05779  0.44219  0.44219  Biso   1.000  I
  I3830    1.0000 0.44219  0.44219  0.05779  Biso   1.000  I
  I3831    1.0000 0.44219  0.55781  0.94221  Biso   1.000  I
  I3832    1.0000 0.44219  0.94221  0.55781  Biso   1.000  I
  I3833    1.0000 0.05779  0.94221  0.94221  Biso   1.000  I
  I3834    1.0000 0.55781  0.94221  0.44219  Biso   1.000  I
  I3835    1.0000 0.94221  0.94221  0.05779  Biso   1.000  I
  I3836    1.0000 0.94221  0.55781  0.44219  Biso   1.000  I
  I3837    1.0000 0.55781  0.94221  0.44219  Biso   1.000  I
  I3838    1.0000 0.94221  0.94221  0.05779  Biso   1.000  I
  I3839    1.0000 0.94221  0.55781  0.44219  Biso   1.000  I
  I3840    1.0000 0.12502  0.12502  0.12502  Biso   1.000  I
  I3841    1.0000 0.37501  0.12502  0.37501  Biso   1.000  I
  I3842    1.0000 0.87498  0.87498  0.12502  Biso   1.000  I
  I3843    1.0000 0.87498  0.62499  0.37501  Biso   1.000  I
  I3844    1.0000 0.87498  0.37501  0.62499  Biso   1.000  I
  I3845    1.0000 0.73649  0.26351  0.76349  Biso   1.000  I
  I3846    1.0000 0.87498  0.12502  0.87498  Biso   1.000  I
  I3847    1.0000 0.62499  0.12502  0.62499  Biso   1.000  I
  I3848    1.0000 0.62499  0.37501  0.87498  Biso   1.000  I
  I3849    1.0000 0.76349  0.26351  0.73649  Biso   1.000  I
  I3850    1.0000 0.87498  0.12502  0.87498  Biso   1.000  I
  I3851    1.0000 0.62499  0.12502  0.62499  Biso   1.000  I
  I3852    1.0000 0.37501  0.62499  0.87498  Biso   1.000  I
  I3853    1.0000 0.12502  0.87498  0.87498  Biso   1.000  I
  I3854    1.0000 0.62499  0.37501  0.87498  Biso   1.000  I
  I3855    1.0000 0.87498  0.12502  0.87498  Biso   1.000  I
  I3856    1.0000 0.37501  0.62499  0.87498  Biso   1.000  I
  I3857    1.0000 0.12502  0.87498  0.87498  Biso   1.000  I
  I3858    1.0000 0.62499  0.37501  0.87498  Biso   1.000  I
  I3859    1.0000 0.76349  0.26351  0.73649  Biso   1.000  I
  I3860    1.0000 0.87498  0.12502  0.87498  Biso   1.000  I
  I3861    1.0000 0.62499  0.12502  0.62499  Biso   1.000  I
  I3862    1.0000 0.12502  0.12502  0.12502  Biso   1.000  I
  I3863    1.0000 0.26351  0.26351  0.23651  Biso   1.000  I
  I3864    1.0000 0.37501  0.12502  0.37501  Biso   1.000  I
  I3865    1.0000 0.12502  0.37501  0.37501  Biso   1.000  I
  I3866    1.0000 0.62499  0.37501  0.87498  Biso   1.000  I
  I3867    1.0000 0.87498  0.12502  0.87498  Biso   1.000  I
  I3868    1.0000 0.37501  0.62499  0.87498  Biso   1.000  I
  I3869    1.0000 0.12502  0.87498  0.87498  Biso   1.000  I
  I3870    1.0000 0.37501  0.62499  0.87498  Biso   1.000  I
  I3871    1.0000 0.26351  0.76349  0.73649  Biso   1.000  I
  I3872    1.0000 0.12502  0.62499  0.62499  Biso   1.000  I
  I3873    1.0000 0.12502  0.87498  0.87498  Biso   1.000  I
  I3874    1.0000 0.87498  0.37501  0.62499  Biso   1.000  I
  I3875    1.0000 0.73649  0.23651  0.73649  Biso   1.000  I
  I3876    1.0000 0.62499  0.37501  0.87498  Biso   1.000  I
  I3877    1.0000 0.87498  0.12502  0.87498  Biso   1.000  I
  I3878    1.0000 0.37501  0.62499  0.87498  Biso   1.000  I
  I3879    1.0000 0.23651  0.73649  0.73649  Biso   1.000  I
  I3880    1.0000 0.37501  0.87498  0.62499  Biso   1.000  I
  I3881    1.0000 0.12502  0.87498  0.87498  Biso   1.000  I
  I3882    1.0000 0.87498  0.37501  0.62499  Biso   1.000  I
  I3883    1.0000 0.73649  0.23651  0.73649  Biso   1.000  I
  I3884    1.0000 0.62499  0.37501  0.87498  Biso   1.000  I
  I3885    1.0000 0.87498  0.12502  0.87498  Biso   1.000  I
  I3886    1.0000 0.12502  0.12502  0.12502  Biso   1.000  I
  I3887    1.0000 0.12502  0.37501  0.37501  Biso   1.000  I
  I3888    1.0000 0.62499  0.37501  0.87498  Biso   1.000  I
  I3889    1.0000 0.87498  0.12502  0.87498  Biso   1.000  I
  I3890    1.0000 0.37501  0.62499  0.87498  Biso   1.000  I
  I3891    1.0000 0.26351  0.76349  0.73649  Biso   1.000  I
  I3892    1.0000 0.12502  0.62499  0.62499  Biso   1.000  I
  I3893    1.0000 0.12502  0.87498  0.87498  Biso   1.000  I
  I3894    1.0000 0.62499  0.87498  0.37501  Biso   1.000  I
  I3895    1.0000 0.87498  0.87498  0.12502  Biso   1.000  I
  I3896    1.0000 0.12502  0.62499  0.62499  Biso   1.000  I
  I3897    1.0000 0.26351  0.73649  0.76349  Biso   1.000  I
  I3898    1.0000 0.37501  0.87498  0.62499  Biso   1.000  I
  I3899    1.0000 0.12502  0.87498  0.87498  Biso   1.000  I
  I3900    1.0000 0.37501  0.62499  0.87498  Biso   1.000  I
  I3901    1.0000 0.23651  0.73649  0.73649  Biso   1.000  I
  I3902    1.0000 0.37501  0.87498  0.62499  Biso   1.000  I
  I3903    1.0000 0.12502  0.87498  0.87498  Biso   1.000  I
  I3904    1.0000 0.01352  0.51350  0.51350  Biso   1.000  I
  I3905    1.0000 0.51350  0.51350  0.01352  Biso   1.000  I
  I3906    1.0000 0.51350  0.98648  0.48650  Biso   1.000  I
  I3907    1.0000 0.98648  0.98648  0.01352  Biso   1.000  I
  I3908    1.0000 0.48650  0.98648  0.51350  Biso   1.000  I
  I3909    1.0000 0.48650  0.48650  0.01352  Biso   1.000  I
  I3910    1.0000 0.51350  0.98648  0.48650  Biso   1.000  I
  I3911    1.0000 0.98648  0.98648  0.01352  Biso   1.000  I
  I3912    1.0000 0.98648  0.98648  0.01352  Biso   1.000  I
  I3913    1.0000 0.51350  0.51350  0.01352  Biso   1.000  I
  I3914    1.0000 0.48650  0.98648  0.51350  Biso   1.000  I
  I3915    1.0000 0.48650  0.48650  0.01352  Biso   1.000  I
  I3916    1.0000 0.48650  0.98648  0.51350  Biso   1.000  I
  I3917    1.0000 0.01352  0.98648  0.98648  Biso   1.000  I
  I3918    1.0000 0.51350  0.98648  0.48650  Biso   1.000  I
  I3919    1.0000 0.98648  0.98648  0.01352  Biso   1.000  I
  I3920    1.0000 0.48650  0.98648  0.51350  Biso   1.000  I
  I3921    1.0000 0.01352  0.98648  0.98648  Biso   1.000  I
  I3922    1.0000 0.01352  0.48650  0.48650  Biso   1.000  I
  I3923    1.0000 0.51350  0.98648  0.48650  Biso   1.000  I
  I3924    1.0000 0.98648  0.01352  0.98648  Biso   1.000  I
  I3925    1.0000 0.98648  0.48650  0.51350  Biso   1.000  I
  I3926    1.0000 0.98648  0.51350  0.48650  Biso   1.000  I
  I3927    1.0000 0.98648  0.98648  0.01352  Biso   1.000  I
  I3928    1.0000 0.98648  0.01352  0.98648  Biso   1.000  I
  I3929    1.0000 0.98648  0.48650  0.51350  Biso   1.000  I
  I3930    1.0000 0.98648  0.51350  0.48650  Biso   1.000  I
  I3931    1.0000 0.98648  0.98648  0.01352  Biso   1.000  I
  I3932    1.0000 0.98648  0.51350  0.48650  Biso   1.000  I
  I3933    1.0000 0.48650  0.01352  0.48650  Biso   1.000  I
  I3934    1.0000 0.51350  0.01352  0.51350  Biso   1.000  I
  I3935    1.0000 0.51350  0.51350  0.01352  Biso   1.000  I
  I3936    1.0000 0.48650  0.48650  0.01352  Biso   1.000  I
  I3937    1.0000 0.98648  0.48650  0.51350  Biso   1.000  I
  I3938    1.0000 0.98648  0.51350  0.48650  Biso   1.000  I
  I3939    1.0000 0.98648  0.98648  0.01352  Biso   1.000  I
  I3940    1.0000 0.48650  0.48650  0.01352  Biso   1.000  I
  I3941    1.0000 0.98648  0.48650  0.51350  Biso   1.000  I
  I3942    1.0000 0.48650  0.98648  0.51350  Biso   1.000  I
  I3943    1.0000 0.48650  0.01352  0.48650  Biso   1.000  I
  I3944    1.0000 0.51350  0.01352  0.51350  Biso   1.000  I
  I3945    1.0000 0.98648  0.01352  0.98648  Biso   1.000  I
  I3946    1.0000 0.98648  0.48650  0.51350  Biso   1.000  I
  I3947    1.0000 0.98648  0.51350  0.48650  Biso   1.000  I
  I3948    1.0000 0.48650  0.51350  0.98648  Biso   1.000  I
  I3949    1.0000 0.51350  0.51350  0.01352  Biso   1.000  I
  I3950    1.0000 0.48650  0.48650  0.01352  Biso   1.000  I
  I3951    1.0000 0.98648  0.98648  0.01352  Biso   1.000  I
  I3952    1.0000 0.51350  0.98648  0.48650  Biso   1.000  I
  I3953    1.0000 0.98648  0.51350  0.48650  Biso   1.000  I
  I3954    1.0000 0.98648  0.48650  0.51350  Biso   1.000  I
  I3955    1.0000 0.01352  0.51350  0.51350  Biso   1.000  I
  I3956    1.0000 0.51350  0.48650  0.98648  Biso   1.000  I
  I3957    1.0000 0.51350  0.98648  0.48650  Biso   1.000  I
  I3958    1.0000 0.98648  0.98648  0.01352  Biso   1.000  I
  I3959    1.0000 0.48650  0.98648  0.51350  Biso   1.000  I
  I3960    1.0000 0.01352  0.98648  0.98648  Biso   1.000  I
  I3961    1.0000 0.01352  0.48650  0.48650  Biso   1.000  I
  I3962    1.0000 0.48650  0.98648  0.51350  Biso   1.000  I
  I3963    1.0000 0.98648  0.48650  0.51350  Biso   1.000  I
  I3964    1.0000 0.05779  0.05779  0.05779  Biso   1.000  I
  I3965    1.0000 0.44219  0.05779  0.44219  Biso   1.000  I
  I3966    1.0000 0.94221  0.94221  0.05779  Biso   1.000  I
  I3967    1.0000 0.94221  0.55781  0.44219  Biso   1.000  I
  I3968    1.0000 0.94221  0.44219  0.55781  Biso   1.000  I
  I3969    1.0000 0.94221  0.05779  0.94221  Biso   1.000  I
  I3970    1.0000 0.55781  0.05779  0.55781  Biso   1.000  I
  I3971    1.0000 0.55781  0.44219  0.94221  Biso   1.000  I
  I3972    1.0000 0.94221  0.05779  0.94221  Biso   1.000  I
  I3973    1.0000 0.55781  0.05779  0.55781  Biso   1.000  I
  I3974    1.0000 0.44219  0.55781  0.94221  Biso   1.000  I
  I3975    1.0000 0.05779  0.94221  0.94221  Biso   1.000  I
  I3976    1.0000 0.55781  0.44219  0.94221  Biso   1.000  I
  I3977    1.0000 0.94221  0.05779  0.94221  Biso   1.000  I
  I3978    1.0000 0.44219  0.55781  0.94221  Biso   1.000  I
  I3979    1.0000 0.05779  0.94221  0.94221  Biso   1.000  I
  I3980    1.0000 0.55781  0.44219  0.94221  Biso   1.000  I
  I3981    1.0000 0.94221  0.05779  0.94221  Biso   1.000  I
  I3982    1.0000 0.55781  0.05779  0.55781  Biso   1.000  I
  I3983    1.0000 0.05779  0.05779  0.05779  Biso   1.000  I
  I3984    1.0000 0.44219  0.05779  0.44219  Biso   1.000  I
  I3985    1.0000 0.05779  0.44219  0.44219  Biso   1.000  I
  I3986    1.0000 0.55781  0.44219  0.94221  Biso   1.000  I
  I3987    1.0000 0.94221  0.05779  0.94221  Biso   1.000  I
  I3988    1.0000 0.44219  0.55781  0.94221  Biso   1.000  I
  I3989    1.0000 0.05779  0.94221  0.94221  Biso   1.000  I
  I3990    1.0000 0.44219  0.55781  0.94221  Biso   1.000  I
  I3991    1.0000 0.05779  0.55781  0.55781  Biso   1.000  I
  I3992    1.0000 0.05779  0.94221  0.94221  Biso   1.000  I
  I3993    1.0000 0.94221  0.44219  0.55781  Biso   1.000  I
  I3994    1.0000 0.55781  0.44219  0.94221  Biso   1.000  I
  I3995    1.0000 0.94221  0.05779  0.94221  Biso   1.000  I
  I3996    1.0000 0.44219  0.55781  0.94221  Biso   1.000  I
  I3997    1.0000 0.44219  0.94221  0.55781  Biso   1.000  I
  I3998    1.0000 0.05779  0.94221  0.94221  Biso   1.000  I
  I3999    1.0000 0.94221  0.44219  0.55781  Biso   1.000  I
  I4000    1.0000 0.55781  0.44219  0.94221  Biso   1.000  I
  I4001    1.0000 0.94221  0.05779  0.94221  Biso   1.000  I
  I4002    1.0000 0.05779  0.05779  0.05779  Biso   1.000  I
  I4003    1.0000 0.05779  0.44219  0.44219  Biso   1.000  I
  I4004    1.0000 0.55781  0.44219  0.94221  Biso   1.000  I
  I4005    1.0000 0.94221  0.05779  0.94221  Biso   1.000  I
  I4006    1.0000 0.44219  0.55781  0.94221  Biso   1.000  I
  I4007    1.0000 0.05779  0.55781  0.55781  Biso   1.000  I
  I4008    1.0000 0.05779  0.94221  0.94221  Biso   1.000  I
  I4009    1.0000 0.55781  0.94221  0.44219  Biso   1.000  I
  I4010    1.0000 0.94221  0.94221  0.05779  Biso   1.000  I
  I4011    1.0000 0.05779  0.55781  0.55781  Biso   1.000  I
  I4012    1.0000 0.44219  0.94221  0.55781  Biso   1.000  I
  I4013    1.0000 0.05779  0.94221  0.94221  Biso   1.000  I
  I4014    1.0000 0.44219  0.55781  0.94221  Biso   1.000  I
  I4015    1.0000 0.44219  0.94221  0.55781  Biso   1.000  I
  I4016    1.0000 0.05779  0.94221  0.94221  Biso   1.000  I
  I4017    1.0000 0.55781  0.05779  0.55781  Biso   1.000  I
  I4018    1.0000 0.55781  0.55781  0.05779  Biso   1.000  I
  I4019    1.0000 0.05779  0.55781  0.55781  Biso   1.000  I
  I4020    1.0000 0.98648  0.01352  0.98648  Biso   1.000  I
  I4021    1.0000 0.51350  0.01352  0.51350  Biso   1.000  I
  I4022    1.0000 0.98648  0.01352  0.98648  Biso   1.000  I
  I4023    1.0000 0.98648  0.48650  0.51350  Biso   1.000  I
  I4024    1.0000 0.98648  0.51350  0.48650  Biso   1.000  I
  I4025    1.0000 0.48650  0.01352  0.48650  Biso   1.000  I
  I4026    1.0000 0.48650  0.51350  0.98648  Biso   1.000  I
  I4027    1.0000 0.48650  0.01352  0.48650  Biso   1.000  I
  I4028    1.0000 0.51350  0.48650  0.98648  Biso   1.000  I
  I4029    1.0000 0.98648  0.01352  0.98648  Biso   1.000  I
  I4030    1.0000 0.48650  0.51350  0.98648  Biso   1.000  I
  I4031    1.0000 0.01352  0.98648  0.98648  Biso   1.000  I
  I4032    1.0000 0.51350  0.48650  0.98648  Biso   1.000  I
  I4033    1.0000 0.98648  0.01352  0.98648  Biso   1.000  I
  I4034    1.0000 0.48650  0.51350  0.98648  Biso   1.000  I
  I4035    1.0000 0.48650  0.01352  0.48650  Biso   1.000  I
  I4036    1.0000 0.51350  0.01352  0.51350  Biso   1.000  I
  I4037    1.0000 0.01352  0.51350  0.51350  Biso   1.000  I
  I4038    1.0000 0.48650  0.51350  0.98648  Biso   1.000  I
  I4039    1.0000 0.01352  0.98648  0.98648  Biso   1.000  I
  I4040    1.0000 0.51350  0.48650  0.98648  Biso   1.000  I
  I4041    1.0000 0.98648  0.01352  0.98648  Biso   1.000  I
  I4042    1.0000 0.51350  0.48650  0.98648  Biso   1.000  I
  I4043    1.0000 0.01352  0.48650  0.48650  Biso   1.000  I
  I4044    1.0000 0.48650  0.51350  0.98648  Biso   1.000  I
  I4045    1.0000 0.01352  0.98648  0.98648  Biso   1.000  I
  I4046    1.0000 0.51350  0.48650  0.98648  Biso   1.000  I
  I4047    1.0000 0.98648  0.01352  0.98648  Biso   1.000  I
  I4048    1.0000 0.98648  0.51350  0.48650  Biso   1.000  I
  I4049    1.0000 0.48650  0.51350  0.98648  Biso   1.000  I
  I4050    1.0000 0.01352  0.98648  0.98648  Biso   1.000  I
  I4051    1.0000 0.01352  0.51350  0.51350  Biso   1.000  I
  I4052    1.0000 0.48650  0.51350  0.98648  Biso   1.000  I
  I4053    1.0000 0.01352  0.98648  0.98648  Biso   1.000  I
  I4054    1.0000 0.51350  0.48650  0.98648  Biso   1.000  I
  I4055    1.0000 0.01352  0.48650  0.48650  Biso   1.000  I
  I4056    1.0000 0.48650  0.98648  0.51350  Biso   1.000  I
  I4057    1.0000 0.01352  0.98648  0.98648  Biso   1.000  I
  I4058    1.0000 0.01352  0.48650  0.48650  Biso   1.000  I
  I4059    1.0000 0.51350  0.98648  0.48650  Biso   1.000  I
  I4060    1.0000 0.51350  0.48650  0.98648  Biso   1.000  I
  I4061    1.0000 0.51350  0.98648  0.48650  Biso   1.000  I
  I4062    1.0000 0.62499  0.12502  0.62499  Biso   1.000  I
  I4063    1.0000 0.62499  0.62499  0.12502  Biso   1.000  I
  I4064    1.0000 0.12502  0.62499  0.62499  Biso   1.000  I
  I4065    1.0000 0.69222  0.19220  0.69222  Biso   1.000  I
  I4066    1.0000 0.69222  0.69222  0.19220  Biso   1.000  I
  I4067    1.0000 0.19220  0.69222  0.69222  Biso   1.000  I
  I4068    1.0000 0.76349  0.23651  0.76349  Biso   1.000  I
  I4069    1.0000 0.73649  0.26351  0.76349  Biso   1.000  I
  I4070    1.0000 0.76349  0.26351  0.73649  Biso   1.000  I
  I4071    1.0000 0.76349  0.73649  0.26351  Biso   1.000  I
  I4072    1.0000 0.76349  0.76349  0.23651  Biso   1.000  I
  I4073    1.0000 0.73649  0.76349  0.26351  Biso   1.000  I
  I4074    1.0000 0.23651  0.76349  0.76349  Biso   1.000  I
  I4075    1.0000 0.26351  0.76349  0.73649  Biso   1.000  I
  I4076    1.0000 0.26351  0.73649  0.76349  Biso   1.000  I
  I4077    1.0000 0.80780  0.30778  0.69222  Biso   1.000  I
  I4078    1.0000 0.69222  0.30778  0.80780  Biso   1.000  I
  I4079    1.0000 0.80780  0.19220  0.80780  Biso   1.000  I
  I4080    1.0000 0.69222  0.80780  0.30778  Biso   1.000  I
  I4081    1.0000 0.80780  0.80780  0.19220  Biso   1.000  I
  I4082    1.0000 0.80780  0.69222  0.30778  Biso   1.000  I
  I4083    1.0000 0.30778  0.69222  0.80780  Biso   1.000  I
  I4084    1.0000 0.30778  0.80780  0.69222  Biso   1.000  I
  I4085    1.0000 0.19220  0.80780  0.80780  Biso   1.000  I
  I4086    1.0000 0.87498  0.37501  0.62499  Biso   1.000  I
  I4087    1.0000 0.73649  0.23651  0.73649  Biso   1.000  I
  I4088    1.0000 0.62499  0.37501  0.87498  Biso   1.000  I
  I4089    1.0000 0.87498  0.12502  0.87498  Biso   1.000  I
  I4090    1.0000 0.62499  0.87498  0.37501  Biso   1.000  I
  I4091    1.0000 0.73649  0.73649  0.23651  Biso   1.000  I
  I4092    1.0000 0.87498  0.87498  0.12502  Biso   1.000  I
  I4093    1.0000 0.87498  0.62499  0.37501  Biso   1.000  I
  I4094    1.0000 0.37501  0.62499  0.87498  Biso   1.000  I
  I4095    1.0000 0.23651  0.73649  0.73649  Biso   1.000  I
  I4096    1.0000 0.37501  0.87498  0.62499  Biso   1.000  I
  I4097    1.0000 0.12502  0.87498  0.87498  Biso   1.000  I
  I4098    1.0000 0.94221  0.44219  0.55781  Biso   1.000  I
  I4099    1.0000 0.55781  0.44219  0.94221  Biso   1.000  I
  I4100    1.0000 0.94221  0.05779  0.94221  Biso   1.000  I
  I4101    1.0000 0.55781  0.94221  0.44219  Biso   1.000  I
  I4102    1.0000 0.94221  0.94221  0.05779  Biso   1.000  I
  I4103    1.0000 0.94221  0.55781  0.44219  Biso   1.000  I
  I4104    1.0000 0.44219  0.55781  0.94221  Biso   1.000  I
  I4105    1.0000 0.44219  0.94221  0.55781  Biso   1.000  I
  I4106    1.0000 0.05779  0.94221  0.94221  Biso   1.000  I
  I4107    1.0000 0.98648  0.51350  0.48650  Biso   1.000  I
  I4108    1.0000 0.48650  0.51350  0.98648  Biso   1.000  I
  I4109    1.0000 0.48650  0.98648  0.51350  Biso   1.000  I
  I4110    1.0000 0.98648  0.48650  0.51350  Biso   1.000  I
  I4111    1.0000 0.51350  0.48650  0.98648  Biso   1.000  I
  I4112    1.0000 0.51350  0.98648  0.48650  Biso   1.000  I
  I4113    1.0000 0.30778  0.30778  0.19220  Biso   1.000  I
  I4114    1.0000 0.23651  0.26351  0.26351  Biso   1.000  I
  I4115    1.0000 0.26351  0.23651  0.26351  Biso   1.000  I
  I4116    1.0000 0.23651  0.23651  0.23651  Biso   1.000  I
  I4117    1.0000 0.37501  0.37501  0.12502  Biso   1.000  I
  I4118    1.0000 0.19220  0.19220  0.19220  Biso   1.000  I
  I4119    1.0000 0.30778  0.19220  0.30778  Biso   1.000  I
  I4120    1.0000 0.19220  0.30778  0.30778  Biso   1.000  I
  I4121    1.0000 0.44219  0.44219  0.05779  Biso   1.000  I
  I4122    1.0000 0.12502  0.12502  0.12502  Biso   1.000  I
  I4123    1.0000 0.26351  0.26351  0.23651  Biso   1.000  I
  I4124    1.0000 0.37501  0.12502  0.37501  Biso   1.000  I
  I4125    1.0000 0.12502  0.37501  0.37501  Biso   1.000  I
  I4126    1.0000 0.51350  0.48650  0.98648  Biso   1.000  I
  I4127    1.0000 0.48650  0.51350  0.98648  Biso   1.000  I
  I4128    1.0000 0.51350  0.51350  0.01352  Biso   1.000  I
  I4129    1.0000 0.05779  0.05779  0.05779  Biso   1.000  I
  I4130    1.0000 0.44219  0.05779  0.44219  Biso   1.000  I
  I4131    1.0000 0.05779  0.44219  0.44219  Biso   1.000  I
  I4132    1.0000 0.44219  0.55781  0.94221  Biso   1.000  I
  I4133    1.0000 0.55781  0.55781  0.05779  Biso   1.000  I
  I4134    1.0000 0.55781  0.44219  0.94221  Biso   1.000  I
  I4135    1.0000 0.98648  0.01352  0.98648  Biso   1.000  I
  I4136    1.0000 0.01352  0.98648  0.98648  Biso   1.000  I
  I4137    1.0000 0.98648  0.98648  0.01352  Biso   1.000  I
  I4138    1.0000 0.48650  0.98648  0.51350  Biso   1.000  I
  I4139    1.0000 0.51350  0.98648  0.48650  Biso   1.000  I
  I4140    1.0000 0.51350  0.01352  0.51350  Biso   1.000  I
  I4141    1.0000 0.98648  0.51350  0.48650  Biso   1.000  I
  I4142    1.0000 0.98648  0.48650  0.51350  Biso   1.000  I
  I4143    1.0000 0.01352  0.51350  0.51350  Biso   1.000  I
  I4144    1.0000 0.37501  0.62499  0.87498  Biso   1.000  I
  I4145    1.0000 0.48650  0.48650  0.01352  Biso   1.000  I
  I4146    1.0000 0.62499  0.62499  0.12502  Biso   1.000  I
  I4147    1.0000 0.62499  0.37501  0.87498  Biso   1.000  I
  I4148    1.0000 0.94221  0.94221  0.05779  Biso   1.000  I
  I4149    1.0000 0.05779  0.94221  0.94221  Biso   1.000  I
  I4150    1.0000 0.94221  0.05779  0.94221  Biso   1.000  I
  I4151    1.0000 0.55781  0.94221  0.44219  Biso   1.000  I
  I4152    1.0000 0.55781  0.05779  0.55781  Biso   1.000  I
  I4153    1.0000 0.44219  0.94221  0.55781  Biso   1.000  I
  I4154    1.0000 0.94221  0.44219  0.55781  Biso   1.000  I
  I4155    1.0000 0.05779  0.55781  0.55781  Biso   1.000  I
  I4156    1.0000 0.94221  0.55781  0.44219  Biso   1.000  I
  I4157    1.0000 0.30778  0.69222  0.80780  Biso   1.000  I
  I4158    1.0000 0.69222  0.69222  0.19220  Biso   1.000  I
  I4159    1.0000 0.69222  0.30778  0.80780  Biso   1.000  I
  I4160    1.0000 0.01352  0.01352  0.01352  Biso   1.000  I
  I4161    1.0000 0.87498  0.87498  0.12502  Biso   1.000  I
  I4162    1.0000 0.12502  0.87498  0.87498  Biso   1.000  I
  I4163    1.0000 0.87498  0.12502  0.87498  Biso   1.000  I
  I4164    1.0000 0.62499  0.87498  0.37501  Biso   1.000  I
  I4165    1.0000 0.48650  0.01352  0.48650  Biso   1.000  I
  I4166    1.0000 0.62499  0.12502  0.62499  Biso   1.000  I
  I4167    1.0000 0.37501  0.87498  0.62499  Biso   1.000  I
  I4168    1.0000 0.87498  0.37501  0.62499  Biso   1.000  I
  I4169    1.0000 0.01352  0.48650  0.48650  Biso   1.000  I
  I4170    1.0000 0.12502  0.62499  0.62499  Biso   1.000  I
  I4171    1.0000 0.87498  0.62499  0.37501  Biso   1.000  I
  I4172    1.0000 0.23651  0.76349  0.76349  Biso   1.000  I
  I4173    1.0000 0.26351  0.76349  0.73649  Biso   1.000  I
  I4174    1.0000 0.23651  0.73649  0.73649  Biso   1.000  I
  I4175    1.0000 0.76349  0.73649  0.26351  Biso   1.000  I
  I4176    1.0000 0.76349  0.76349  0.23651  Biso   1.000  I
  I4177    1.0000 0.73649  0.76349  0.26351  Biso   1.000  I
  I4178    1.0000 0.76349  0.23651  0.76349  Biso   1.000  I
  I4179    1.0000 0.76349  0.26351  0.73649  Biso   1.000  I
  I4180    1.0000 0.73649  0.23651  0.73649  Biso   1.000  I
  I4181    1.0000 0.80780  0.80780  0.19220  Biso   1.000  I
  I4182    1.0000 0.19220  0.80780  0.80780  Biso   1.000  I
  I4183    1.0000 0.80780  0.19220  0.80780  Biso   1.000  I
  I4184    1.0000 0.69222  0.80780  0.30778  Biso   1.000  I
  I4185    1.0000 0.69222  0.19220  0.69222  Biso   1.000  I
  I4186    1.0000 0.30778  0.80780  0.69222  Biso   1.000  I
  I4187    1.0000 0.80780  0.30778  0.69222  Biso   1.000  I
  I4188    1.0000 0.19220  0.69222  0.69222  Biso   1.000  I
  I4189    1.0000 0.80780  0.69222  0.30778  Biso   1.000  I
  I4190    1.0000 0.19220  0.69222  0.69222  Biso   1.000  I
  I4191    1.0000 0.30778  0.80780  0.69222  Biso   1.000  I
  I4192    1.0000 0.19220  0.80780  0.80780  Biso   1.000  I
  I4193    1.0000 0.69222  0.80780  0.30778  Biso   1.000  I
  I4194    1.0000 0.80780  0.80780  0.19220  Biso   1.000  I
  I4195    1.0000 0.80780  0.69222  0.30778  Biso   1.000  I
  I4196    1.0000 0.69222  0.19220  0.69222  Biso   1.000  I
  I4197    1.0000 0.80780  0.30778  0.69222  Biso   1.000  I
  I4198    1.0000 0.80780  0.19220  0.80780  Biso   1.000  I
  I4199    1.0000 0.76349  0.73649  0.26351  Biso   1.000  I
  I4200    1.0000 0.73649  0.73649  0.23651  Biso   1.000  I
  I4201    1.0000 0.73649  0.76349  0.26351  Biso   1.000  I
  I4202    1.0000 0.26351  0.76349  0.73649  Biso   1.000  I
  I4203    1.0000 0.23651  0.73649  0.73649  Biso   1.000  I
  I4204    1.0000 0.26351  0.73649  0.76349  Biso   1.000  I
  I4205    1.0000 0.73649  0.23651  0.73649  Biso   1.000  I
  I4206    1.0000 0.73649  0.26351  0.76349  Biso   1.000  I
  I4207    1.0000 0.76349  0.26351  0.73649  Biso   1.000  I
  I4208    1.0000 0.76349  0.73649  0.26351  Biso   1.000  I
  I4209    1.0000 0.76349  0.76349  0.23651  Biso   1.000  I
  I4210    1.0000 0.73649  0.73649  0.23651  Biso   1.000  I
  I4211    1.0000 0.76349  0.23651  0.76349  Biso   1.000  I
  I4212    1.0000 0.73649  0.26351  0.76349  Biso   1.000  I
  I4213    1.0000 0.76349  0.26351  0.73649  Biso   1.000  I
  I4214    1.0000 0.23651  0.76349  0.76349  Biso   1.000  I
  I4215    1.0000 0.26351  0.73649  0.76349  Biso   1.000  I
  I4216    1.0000 0.23651  0.73649  0.73649  Biso   1.000  I
  I4217    1.0000 0.76349  0.23651  0.76349  Biso   1.000  I
  I4218    1.0000 0.73649  0.26351  0.76349  Biso   1.000  I
  I4219    1.0000 0.73649  0.23651  0.73649  Biso   1.000  I
  I4220    1.0000 0.23651  0.76349  0.76349  Biso   1.000  I
  I4221    1.0000 0.26351  0.76349  0.73649  Biso   1.000  I
  I4222    1.0000 0.26351  0.73649  0.76349  Biso   1.000  I
  I4223    1.0000 0.76349  0.76349  0.23651  Biso   1.000  I
  I4224    1.0000 0.73649  0.76349  0.26351  Biso   1.000  I
  I4225    1.0000 0.73649  0.73649  0.23651  Biso   1.000  I
  I4226    1.0000 0.12502  0.62499  0.62499  Biso   1.000  I
  I4227    1.0000 0.26351  0.73649  0.76349  Biso   1.000  I
  I4228    1.0000 0.37501  0.87498  0.62499  Biso   1.000  I
  I4229    1.0000 0.12502  0.87498  0.87498  Biso   1.000  I
  I4230    1.0000 0.62499  0.87498  0.37501  Biso   1.000  I
  I4231    1.0000 0.73649  0.73649  0.23651  Biso   1.000  I
  I4232    1.0000 0.87498  0.87498  0.12502  Biso   1.000  I
  I4233    1.0000 0.87498  0.62499  0.37501  Biso   1.000  I
  I4234    1.0000 0.62499  0.12502  0.62499  Biso   1.000  I
  I4235    1.0000 0.73649  0.26351  0.76349  Biso   1.000  I
  I4236    1.0000 0.87498  0.37501  0.62499  Biso   1.000  I
  I4237    1.0000 0.87498  0.12502  0.87498  Biso   1.000  I
  I4238    1.0000 0.69222  0.80780  0.30778  Biso   1.000  I
  I4239    1.0000 0.69222  0.69222  0.19220  Biso   1.000  I
  I4240    1.0000 0.80780  0.69222  0.30778  Biso   1.000  I
  I4241    1.0000 0.30778  0.69222  0.80780  Biso   1.000  I
  I4242    1.0000 0.19220  0.69222  0.69222  Biso   1.000  I
  I4243    1.0000 0.30778  0.80780  0.69222  Biso   1.000  I
  I4244    1.0000 0.80780  0.30778  0.69222  Biso   1.000  I
  I4245    1.0000 0.69222  0.30778  0.80780  Biso   1.000  I
  I4246    1.0000 0.69222  0.19220  0.69222  Biso   1.000  I
  I4247    1.0000 0.69222  0.69222  0.19220  Biso   1.000  I
  I4248    1.0000 0.80780  0.80780  0.19220  Biso   1.000  I
  I4249    1.0000 0.80780  0.69222  0.30778  Biso   1.000  I
  I4250    1.0000 0.80780  0.30778  0.69222  Biso   1.000  I
  I4251    1.0000 0.69222  0.30778  0.80780  Biso   1.000  I
  I4252    1.0000 0.80780  0.19220  0.80780  Biso   1.000  I
  I4253    1.0000 0.19220  0.69222  0.69222  Biso   1.000  I
  I4254    1.0000 0.30778  0.69222  0.80780  Biso   1.000  I
  I4255    1.0000 0.19220  0.80780  0.80780  Biso   1.000  I
  I4256    1.0000 0.69222  0.19220  0.69222  Biso   1.000  I
  I4257    1.0000 0.69222  0.30778  0.80780  Biso   1.000  I
  I4258    1.0000 0.80780  0.19220  0.80780  Biso   1.000  I
  I4259    1.0000 0.30778  0.69222  0.80780  Biso   1.000  I
  I4260    1.0000 0.30778  0.80780  0.69222  Biso   1.000  I
  I4261    1.0000 0.19220  0.80780  0.80780  Biso   1.000  I
  I4262    1.0000 0.69222  0.69222  0.19220  Biso   1.000  I
  I4263    1.0000 0.69222  0.80780  0.30778  Biso   1.000  I
  I4264    1.0000 0.80780  0.80780  0.19220  Biso   1.000  I
  I4265    1.0000 0.05779  0.55781  0.55781  Biso   1.000  I
  I4266    1.0000 0.44219  0.94221  0.55781  Biso   1.000  I
  I4267    1.0000 0.05779  0.94221  0.94221  Biso   1.000  I
  I4268    1.0000 0.55781  0.94221  0.44219  Biso   1.000  I
  I4269    1.0000 0.94221  0.94221  0.05779  Biso   1.000  I
  I4270    1.0000 0.94221  0.55781  0.44219  Biso   1.000  I
  I4271    1.0000 0.55781  0.05779  0.55781  Biso   1.000  I
  I4272    1.0000 0.94221  0.44219  0.55781  Biso   1.000  I
  I4273    1.0000 0.94221  0.05779  0.94221  Biso   1.000  I
  I4274    1.0000 0.62499  0.87498  0.37501  Biso   1.000  I
  I4275    1.0000 0.76349  0.76349  0.23651  Biso   1.000  I
  I4276    1.0000 0.62499  0.62499  0.12502  Biso   1.000  I
  I4277    1.0000 0.87498  0.62499  0.37501  Biso   1.000  I
  I4278    1.0000 0.37501  0.62499  0.87498  Biso   1.000  I
  I4279    1.0000 0.23651  0.76349  0.76349  Biso   1.000  I
  I4280    1.0000 0.12502  0.62499  0.62499  Biso   1.000  I
  I4281    1.0000 0.37501  0.87498  0.62499  Biso   1.000  I
  I4282    1.0000 0.87498  0.37501  0.62499  Biso   1.000  I
  I4283    1.0000 0.76349  0.23651  0.76349  Biso   1.000  I
  I4284    1.0000 0.62499  0.37501  0.87498  Biso   1.000  I
  I4285    1.0000 0.62499  0.12502  0.62499  Biso   1.000  I
  I4286    1.0000 0.62499  0.62499  0.12502  Biso   1.000  I
  I4287    1.0000 0.73649  0.76349  0.26351  Biso   1.000  I
  I4288    1.0000 0.87498  0.87498  0.12502  Biso   1.000  I
  I4289    1.0000 0.87498  0.62499  0.37501  Biso   1.000  I
  I4290    1.0000 0.87498  0.37501  0.62499  Biso   1.000  I
  I4291    1.0000 0.73649  0.23651  0.73649  Biso   1.000  I
  I4292    1.0000 0.62499  0.37501  0.87498  Biso   1.000  I
  I4293    1.0000 0.87498  0.12502  0.87498  Biso   1.000  I
  I4294    1.0000 0.12502  0.62499  0.62499  Biso   1.000  I
  I4295    1.0000 0.26351  0.76349  0.73649  Biso   1.000  I
  I4296    1.0000 0.37501  0.62499  0.87498  Biso   1.000  I
  I4297    1.0000 0.12502  0.87498  0.87498  Biso   1.000  I
  I4298    1.0000 0.62499  0.12502  0.62499  Biso   1.000  I
  I4299    1.0000 0.76349  0.26351  0.73649  Biso   1.000  I
  I4300    1.0000 0.62499  0.37501  0.87498  Biso   1.000  I
  I4301    1.0000 0.87498  0.12502  0.87498  Biso   1.000  I
  I4302    1.0000 0.37501  0.62499  0.87498  Biso   1.000  I
  I4303    1.0000 0.23651  0.73649  0.73649  Biso   1.000  I
  I4304    1.0000 0.37501  0.87498  0.62499  Biso   1.000  I
  I4305    1.0000 0.12502  0.87498  0.87498  Biso   1.000  I
  I4306    1.0000 0.62499  0.62499  0.12502  Biso   1.000  I
  I4307    1.0000 0.76349  0.73649  0.26351  Biso   1.000  I
  I4308    1.0000 0.62499  0.87498  0.37501  Biso   1.000  I
  I4309    1.0000 0.87498  0.87498  0.12502  Biso   1.000  I
  I4310    1.0000 0.98648  0.51350  0.48650  Biso   1.000  I
  I4311    1.0000 0.01352  0.48650  0.48650  Biso   1.000  I
  I4312    1.0000 0.98648  0.48650  0.51350  Biso   1.000  I
  I4313    1.0000 0.51350  0.98648  0.48650  Biso   1.000  I
  I4314    1.0000 0.48650  0.01352  0.48650  Biso   1.000  I
  I4315    1.0000 0.51350  0.01352  0.51350  Biso   1.000  I
  I4316    1.0000 0.98648  0.98648  0.01352  Biso   1.000  I
  I4317    1.0000 0.98648  0.01352  0.98648  Biso   1.000  I
  I4318    1.0000 0.01352  0.01352  0.01352  Biso   1.000  I
  I4319    1.0000 0.48650  0.01352  0.48650  Biso   1.000  I
  I4320    1.0000 0.51350  0.01352  0.51350  Biso   1.000  I
  I4321    1.0000 0.48650  0.98648  0.51350  Biso   1.000  I
  I4322    1.0000 0.98648  0.01352  0.98648  Biso   1.000  I
  I4323    1.0000 0.01352  0.98648  0.98648  Biso   1.000  I
  I4324    1.0000 0.01352  0.01352  0.01352  Biso   1.000  I
  I4325    1.0000 0.01352  0.51350  0.51350  Biso   1.000  I
  I4326    1.0000 0.01352  0.48650  0.48650  Biso   1.000  I
  I4327    1.0000 0.98648  0.48650  0.51350  Biso   1.000  I
  I4328    1.0000 0.51350  0.98648  0.48650  Biso   1.000  I
  I4329    1.0000 0.48650  0.01352  0.48650  Biso   1.000  I
  I4330    1.0000 0.48650  0.98648  0.51350  Biso   1.000  I
  I4331    1.0000 0.98648  0.51350  0.48650  Biso   1.000  I
  I4332    1.0000 0.01352  0.51350  0.51350  Biso   1.000  I
  I4333    1.0000 0.01352  0.48650  0.48650  Biso   1.000  I
  I4334    1.0000 0.01352  0.98648  0.98648  Biso   1.000  I
  I4335    1.0000 0.01352  0.01352  0.01352  Biso   1.000  I
  I4336    1.0000 0.98648  0.98648  0.01352  Biso   1.000  I
  I4337    1.0000 0.55781  0.94221  0.44219  Biso   1.000  I
  I4338    1.0000 0.55781  0.55781  0.05779  Biso   1.000  I
  I4339    1.0000 0.94221  0.55781  0.44219  Biso   1.000  I
  I4340    1.0000 0.44219  0.55781  0.94221  Biso   1.000  I
  I4341    1.0000 0.05779  0.55781  0.55781  Biso   1.000  I
  I4342    1.0000 0.44219  0.94221  0.55781  Biso   1.000  I
  I4343    1.0000 0.94221  0.44219  0.55781  Biso   1.000  I
  I4344    1.0000 0.55781  0.44219  0.94221  Biso   1.000  I
  I4345    1.0000 0.55781  0.05779  0.55781  Biso   1.000  I
  I4346    1.0000 0.55781  0.55781  0.05779  Biso   1.000  I
  I4347    1.0000 0.94221  0.94221  0.05779  Biso   1.000  I
  I4348    1.0000 0.94221  0.55781  0.44219  Biso   1.000  I
  I4349    1.0000 0.94221  0.44219  0.55781  Biso   1.000  I
  I4350    1.0000 0.55781  0.44219  0.94221  Biso   1.000  I
  I4351    1.0000 0.94221  0.05779  0.94221  Biso   1.000  I
  I4352    1.0000 0.05779  0.55781  0.55781  Biso   1.000  I
  I4353    1.0000 0.44219  0.55781  0.94221  Biso   1.000  I
  I4354    1.0000 0.05779  0.94221  0.94221  Biso   1.000  I
  I4355    1.0000 0.55781  0.05779  0.55781  Biso   1.000  I
  I4356    1.0000 0.55781  0.44219  0.94221  Biso   1.000  I
  I4357    1.0000 0.94221  0.05779  0.94221  Biso   1.000  I
  I4358    1.0000 0.44219  0.55781  0.94221  Biso   1.000  I
  I4359    1.0000 0.44219  0.94221  0.55781  Biso   1.000  I
  I4360    1.0000 0.05779  0.94221  0.94221  Biso   1.000  I
  I4361    1.0000 0.55781  0.55781  0.05779  Biso   1.000  I
  I4362    1.0000 0.55781  0.94221  0.44219  Biso   1.000  I
  I4363    1.0000 0.94221  0.94221  0.05779  Biso   1.000  I
  I4364    1.0000 0.05779  0.44219  0.44219  Biso   1.000  I
  I4365    1.0000 0.94221  0.55781  0.44219  Biso   1.000  I
  I4366    1.0000 0.44219  0.05779  0.44219  Biso   1.000  I
  I4367    1.0000 0.55781  0.05779  0.55781  Biso   1.000  I
  I4368    1.0000 0.55781  0.94221  0.44219  Biso   1.000  I
  I4369    1.0000 0.94221  0.05779  0.94221  Biso   1.000  I
  I4370    1.0000 0.05779  0.05779  0.05779  Biso   1.000  I
  I4371    1.0000 0.55781  0.05779  0.55781  Biso   1.000  I
  I4372    1.0000 0.44219  0.05779  0.44219  Biso   1.000  I
  I4373    1.0000 0.05779  0.94221  0.94221  Biso   1.000  I
  I4374    1.0000 0.05779  0.05779  0.05779  Biso   1.000  I
  I4375    1.0000 0.94221  0.05779  0.94221  Biso   1.000  I
  I4376    1.0000 0.05779  0.44219  0.44219  Biso   1.000  I
  I4377    1.0000 0.05779  0.55781  0.55781  Biso   1.000  I
  I4378    1.0000 0.44219  0.05779  0.44219  Biso   1.000  I
  I4379    1.0000 0.55781  0.94221  0.44219  Biso   1.000  I
  I4380    1.0000 0.05779  0.55781  0.55781  Biso   1.000  I
  I4381    1.0000 0.05779  0.44219  0.44219  Biso   1.000  I
  I4382    1.0000 0.94221  0.55781  0.44219  Biso   1.000  I
  I4383    1.0000 0.05779  0.05779  0.05779  Biso   1.000  I
  I4384    1.0000 0.05779  0.94221  0.94221  Biso   1.000  I
  I4385    1.0000 0.48650  0.98648  0.51350  Biso   1.000  I
  I4386    1.0000 0.48650  0.01352  0.48650  Biso   1.000  I
  I4387    1.0000 0.51350  0.01352  0.51350  Biso   1.000  I
  I4388    1.0000 0.51350  0.48650  0.98648  Biso   1.000  I
  I4389    1.0000 0.48650  0.51350  0.98648  Biso   1.000  I
  I4390    1.0000 0.48650  0.48650  0.01352  Biso   1.000  I
  I4391    1.0000 0.98648  0.48650  0.51350  Biso   1.000  I
  I4392    1.0000 0.01352  0.51350  0.51350  Biso   1.000  I
  I4393    1.0000 0.01352  0.48650  0.48650  Biso   1.000  I
  I4394    1.0000 0.51350  0.48650  0.98648  Biso   1.000  I
  I4395    1.0000 0.51350  0.51350  0.01352  Biso   1.000  I
  I4396    1.0000 0.48650  0.48650  0.01352  Biso   1.000  I
  I4397    1.0000 0.98648  0.51350  0.48650  Biso   1.000  I
  I4398    1.0000 0.98648  0.48650  0.51350  Biso   1.000  I
  I4399    1.0000 0.01352  0.48650  0.48650  Biso   1.000  I
  I4400    1.0000 0.51350  0.01352  0.51350  Biso   1.000  I
  I4401    1.0000 0.01352  0.51350  0.51350  Biso   1.000  I
  I4402    1.0000 0.48650  0.51350  0.98648  Biso   1.000  I
  I4403    1.0000 0.51350  0.51350  0.01352  Biso   1.000  I
  I4404    1.0000 0.48650  0.48650  0.01352  Biso   1.000  I
  I4405    1.0000 0.48650  0.98648  0.51350  Biso   1.000  I
  I4406    1.0000 0.51350  0.98648  0.48650  Biso   1.000  I
  I4407    1.0000 0.48650  0.01352  0.48650  Biso   1.000  I
  I4408    1.0000 0.48650  0.51350  0.98648  Biso   1.000  I
  I4409    1.0000 0.98648  0.01352  0.98648  Biso   1.000  I
  I4410    1.0000 0.98648  0.48650  0.51350  Biso   1.000  I
  I4411    1.0000 0.01352  0.51350  0.51350  Biso   1.000  I
  I4412    1.0000 0.01352  0.48650  0.48650  Biso   1.000  I
  I4413    1.0000 0.98648  0.51350  0.48650  Biso   1.000  I
  I4414    1.0000 0.48650  0.51350  0.98648  Biso   1.000  I
  I4415    1.0000 0.51350  0.51350  0.01352  Biso   1.000  I
  I4416    1.0000 0.48650  0.48650  0.01352  Biso   1.000  I
  I4417    1.0000 0.98648  0.98648  0.01352  Biso   1.000  I
  I4418    1.0000 0.01352  0.98648  0.98648  Biso   1.000  I
  I4419    1.0000 0.01352  0.01352  0.01352  Biso   1.000  I
  I4420    1.0000 0.98648  0.51350  0.48650  Biso   1.000  I
  I4421    1.0000 0.51350  0.48650  0.98648  Biso   1.000  I
  I4422    1.0000 0.51350  0.51350  0.01352  Biso   1.000  I
  I4423    1.0000 0.48650  0.48650  0.01352  Biso   1.000  I
  I4424    1.0000 0.98648  0.98648  0.01352  Biso   1.000  I
  I4425    1.0000 0.01352  0.01352  0.01352  Biso   1.000  I
  I4426    1.0000 0.98648  0.01352  0.98648  Biso   1.000  I
  I4427    1.0000 0.51350  0.98648  0.48650  Biso   1.000  I
  I4428    1.0000 0.48650  0.51350  0.98648  Biso   1.000  I
  I4429    1.0000 0.51350  0.51350  0.01352  Biso   1.000  I
  I4430    1.0000 0.48650  0.48650  0.01352  Biso   1.000  I
  I4431    1.0000 0.01352  0.98648  0.98648  Biso   1.000  I
  I4432    1.0000 0.51350  0.48650  0.98648  Biso   1.000  I
  I4433    1.0000 0.51350  0.98648  0.48650  Biso   1.000  I
  I4434    1.0000 0.98648  0.98648  0.01352  Biso   1.000  I
  I4435    1.0000 0.98648  0.01352  0.98648  Biso   1.000  I
  I4436    1.0000 0.01352  0.01352  0.01352  Biso   1.000  I
  I4437    1.0000 0.51350  0.48650  0.98648  Biso   1.000  I
  I4438    1.0000 0.48650  0.98648  0.51350  Biso   1.000  I
  I4439    1.0000 0.48650  0.01352  0.48650  Biso   1.000  I
  I4440    1.0000 0.51350  0.01352  0.51350  Biso   1.000  I
  I4441    1.0000 0.01352  0.98648  0.98648  Biso   1.000  I
  I4442    1.0000 0.12502  0.37501  0.37501  Biso   1.000  I
  I4443    1.0000 0.87498  0.62499  0.37501  Biso   1.000  I
  I4444    1.0000 0.48650  0.98648  0.51350  Biso   1.000  I
  I4445    1.0000 0.37501  0.12502  0.37501  Biso   1.000  I
  I4446    1.0000 0.62499  0.12502  0.62499  Biso   1.000  I
  I4447    1.0000 0.62499  0.87498  0.37501  Biso   1.000  I
  I4448    1.0000 0.87498  0.12502  0.87498  Biso   1.000  I
  I4449    1.0000 0.12502  0.12502  0.12502  Biso   1.000  I
  I4450    1.0000 0.62499  0.12502  0.62499  Biso   1.000  I
  I4451    1.0000 0.37501  0.12502  0.37501  Biso   1.000  I
  I4452    1.0000 0.98648  0.98648  0.01352  Biso   1.000  I
  I4453    1.0000 0.12502  0.87498  0.87498  Biso   1.000  I
  I4454    1.0000 0.12502  0.12502  0.12502  Biso   1.000  I
  I4455    1.0000 0.87498  0.12502  0.87498  Biso   1.000  I
  I4456    1.0000 0.12502  0.37501  0.37501  Biso   1.000  I
  I4457    1.0000 0.12502  0.62499  0.62499  Biso   1.000  I
  I4458    1.0000 0.37501  0.12502  0.37501  Biso   1.000  I
  I4459    1.0000 0.62499  0.87498  0.37501  Biso   1.000  I
  I4460    1.0000 0.98648  0.48650  0.51350  Biso   1.000  I
  I4461    1.0000 0.12502  0.62499  0.62499  Biso   1.000  I
  I4462    1.0000 0.12502  0.37501  0.37501  Biso   1.000  I
  I4463    1.0000 0.87498  0.62499  0.37501  Biso   1.000  I
  I4464    1.0000 0.12502  0.12502  0.12502  Biso   1.000  I
  I4465    1.0000 0.12502  0.87498  0.87498  Biso   1.000  I
  I4466    1.0000 0.44219  0.05779  0.44219  Biso   1.000  I
  I4467    1.0000 0.44219  0.94221  0.55781  Biso   1.000  I
  I4468    1.0000 0.44219  0.55781  0.94221  Biso   1.000  I
  I4469    1.0000 0.44219  0.44219  0.05779  Biso   1.000  I
  I4470    1.0000 0.55781  0.44219  0.94221  Biso   1.000  I
  I4471    1.0000 0.05779  0.44219  0.44219  Biso   1.000  I
  I4472    1.0000 0.94221  0.44219  0.55781  Biso   1.000  I
  I4473    1.0000 0.44219  0.44219  0.05779  Biso   1.000  I
  I4474    1.0000 0.55781  0.44219  0.94221  Biso   1.000  I
  I4475    1.0000 0.94221  0.44219  0.55781  Biso   1.000  I
  I4476    1.0000 0.05779  0.44219  0.44219  Biso   1.000  I
  I4477    1.0000 0.94221  0.55781  0.44219  Biso   1.000  I
  I4478    1.0000 0.44219  0.44219  0.05779  Biso   1.000  I
  I4479    1.0000 0.44219  0.55781  0.94221  Biso   1.000  I
  I4480    1.0000 0.55781  0.94221  0.44219  Biso   1.000  I
  I4481    1.0000 0.44219  0.05779  0.44219  Biso   1.000  I
  I4482    1.0000 0.44219  0.94221  0.55781  Biso   1.000  I
  I4483    1.0000 0.05779  0.55781  0.55781  Biso   1.000  I
  I4484    1.0000 0.05779  0.44219  0.44219  Biso   1.000  I
  I4485    1.0000 0.94221  0.44219  0.55781  Biso   1.000  I
  I4486    1.0000 0.44219  0.44219  0.05779  Biso   1.000  I
  I4487    1.0000 0.55781  0.55781  0.05779  Biso   1.000  I
  I4488    1.0000 0.05779  0.94221  0.94221  Biso   1.000  I
  I4489    1.0000 0.05779  0.05779  0.05779  Biso   1.000  I
  I4490    1.0000 0.94221  0.94221  0.05779  Biso   1.000  I
  I4491    1.0000 0.44219  0.44219  0.05779  Biso   1.000  I
  I4492    1.0000 0.55781  0.55781  0.05779  Biso   1.000  I
  I4493    1.0000 0.55781  0.44219  0.94221  Biso   1.000  I
  I4494    1.0000 0.05779  0.05779  0.05779  Biso   1.000  I
  I4495    1.0000 0.94221  0.94221  0.05779  Biso   1.000  I
  I4496    1.0000 0.44219  0.44219  0.05779  Biso   1.000  I
  I4497    1.0000 0.55781  0.55781  0.05779  Biso   1.000  I
  I4498    1.0000 0.44219  0.55781  0.94221  Biso   1.000  I
  I4499    1.0000 0.94221  0.05779  0.94221  Biso   1.000  I
  I4500    1.0000 0.05779  0.05779  0.05779  Biso   1.000  I
  I4501    1.0000 0.94221  0.94221  0.05779  Biso   1.000  I
  I4502    1.0000 0.44219  0.05779  0.44219  Biso   1.000  I
  I4503    1.0000 0.55781  0.05779  0.55781  Biso   1.000  I
  I4504    1.0000 0.44219  0.94221  0.55781  Biso   1.000  I
  I4505    1.0000 0.19220  0.30778  0.30778  Biso   1.000  I
  I4506    1.0000 0.80780  0.69222  0.30778  Biso   1.000  I
  I4507    1.0000 0.30778  0.19220  0.30778  Biso   1.000  I
  I4508    1.0000 0.69222  0.19220  0.69222  Biso   1.000  I
  I4509    1.0000 0.69222  0.80780  0.30778  Biso   1.000  I
  I4510    1.0000 0.80780  0.19220  0.80780  Biso   1.000  I
  I4511    1.0000 0.19220  0.19220  0.19220  Biso   1.000  I
  I4512    1.0000 0.69222  0.19220  0.69222  Biso   1.000  I
  I4513    1.0000 0.30778  0.19220  0.30778  Biso   1.000  I
  I4514    1.0000 0.19220  0.80780  0.80780  Biso   1.000  I
  I4515    1.0000 0.19220  0.19220  0.19220  Biso   1.000  I
  I4516    1.0000 0.80780  0.19220  0.80780  Biso   1.000  I
  I4517    1.0000 0.19220  0.30778  0.30778  Biso   1.000  I
  I4518    1.0000 0.19220  0.69222  0.69222  Biso   1.000  I
  I4519    1.0000 0.30778  0.19220  0.30778  Biso   1.000  I
  I4520    1.0000 0.69222  0.80780  0.30778  Biso   1.000  I
  I4521    1.0000 0.19220  0.69222  0.69222  Biso   1.000  I
  I4522    1.0000 0.19220  0.30778  0.30778  Biso   1.000  I
  I4523    1.0000 0.80780  0.69222  0.30778  Biso   1.000  I
  I4524    1.0000 0.19220  0.19220  0.19220  Biso   1.000  I
  I4525    1.0000 0.19220  0.80780  0.80780  Biso   1.000  I
  I4526    1.0000 0.37501  0.12502  0.37501  Biso   1.000  I
  I4527    1.0000 0.37501  0.87498  0.62499  Biso   1.000  I
  I4528    1.0000 0.37501  0.62499  0.87498  Biso   1.000  I
  I4529    1.0000 0.51350  0.51350  0.01352  Biso   1.000  I
  I4530    1.0000 0.37501  0.37501  0.12502  Biso   1.000  I
  I4531    1.0000 0.62499  0.37501  0.87498  Biso   1.000  I
  I4532    1.0000 0.12502  0.37501  0.37501  Biso   1.000  I
  I4533    1.0000 0.87498  0.37501  0.62499  Biso   1.000  I
  I4534    1.0000 0.37501  0.37501  0.12502  Biso   1.000  I
  I4535    1.0000 0.62499  0.37501  0.87498  Biso   1.000  I
  I4536    1.0000 0.87498  0.37501  0.62499  Biso   1.000  I
  I4537    1.0000 0.01352  0.51350  0.51350  Biso   1.000  I
  I4538    1.0000 0.12502  0.37501  0.37501  Biso   1.000  I
  I4539    1.0000 0.87498  0.62499  0.37501  Biso   1.000  I
  I4540    1.0000 0.37501  0.37501  0.12502  Biso   1.000  I
  I4541    1.0000 0.37501  0.62499  0.87498  Biso   1.000  I
  I4542    1.0000 0.62499  0.87498  0.37501  Biso   1.000  I
  I4543    1.0000 0.51350  0.01352  0.51350  Biso   1.000  I
  I4544    1.0000 0.37501  0.12502  0.37501  Biso   1.000  I
  I4545    1.0000 0.37501  0.87498  0.62499  Biso   1.000  I
  I4546    1.0000 0.98648  0.51350  0.48650  Biso   1.000  I
  I4547    1.0000 0.12502  0.62499  0.62499  Biso   1.000  I
  I4548    1.0000 0.12502  0.37501  0.37501  Biso   1.000  I
  I4549    1.0000 0.87498  0.37501  0.62499  Biso   1.000  I
  I4550    1.0000 0.37501  0.37501  0.12502  Biso   1.000  I
  I4551    1.0000 0.62499  0.62499  0.12502  Biso   1.000  I
  I4552    1.0000 0.98648  0.01352  0.98648  Biso   1.000  I
  I4553    1.0000 0.12502  0.87498  0.87498  Biso   1.000  I
  I4554    1.0000 0.12502  0.12502  0.12502  Biso   1.000  I
  I4555    1.0000 0.87498  0.87498  0.12502  Biso   1.000  I
  I4556    1.0000 0.48650  0.51350  0.98648  Biso   1.000  I
  I4557    1.0000 0.37501  0.37501  0.12502  Biso   1.000  I
  I4558    1.0000 0.62499  0.62499  0.12502  Biso   1.000  I
  I4559    1.0000 0.62499  0.37501  0.87498  Biso   1.000  I
  I4560    1.0000 0.12502  0.12502  0.12502  Biso   1.000  I
  I4561    1.0000 0.87498  0.87498  0.12502  Biso   1.000  I
  I4562    1.0000 0.51350  0.48650  0.98648  Biso   1.000  I
  I4563    1.0000 0.37501  0.37501  0.12502  Biso   1.000  I
  I4564    1.0000 0.62499  0.62499  0.12502  Biso   1.000  I
  I4565    1.0000 0.37501  0.62499  0.87498  Biso   1.000  I
  I4566    1.0000 0.01352  0.98648  0.98648  Biso   1.000  I
  I4567    1.0000 0.87498  0.12502  0.87498  Biso   1.000  I
  I4568    1.0000 0.12502  0.12502  0.12502  Biso   1.000  I
  I4569    1.0000 0.87498  0.87498  0.12502  Biso   1.000  I
  I4570    1.0000 0.51350  0.98648  0.48650  Biso   1.000  I
  I4571    1.0000 0.37501  0.12502  0.37501  Biso   1.000  I
  I4572    1.0000 0.62499  0.12502  0.62499  Biso   1.000  I
  I4573    1.0000 0.37501  0.87498  0.62499  Biso   1.000  I
  I4574    1.0000 0.26351  0.26351  0.23651  Biso   1.000  I
  I4575    1.0000 0.26351  0.23651  0.26351  Biso   1.000  I
  I4576    1.0000 0.23651  0.23651  0.23651  Biso   1.000  I
  I4577    1.0000 0.73649  0.73649  0.23651  Biso   1.000  I
  I4578    1.0000 0.76349  0.76349  0.23651  Biso   1.000  I
  I4579    1.0000 0.73649  0.76349  0.26351  Biso   1.000  I
  I4580    1.0000 0.26351  0.26351  0.23651  Biso   1.000  I
  I4581    1.0000 0.23651  0.26351  0.26351  Biso   1.000  I
  I4582    1.0000 0.23651  0.23651  0.23651  Biso   1.000  I
  I4583    1.0000 0.76349  0.23651  0.76349  Biso   1.000  I
  I4584    1.0000 0.73649  0.26351  0.76349  Biso   1.000  I
  I4585    1.0000 0.76349  0.26351  0.73649  Biso   1.000  I
  I4586    1.0000 0.76349  0.73649  0.26351  Biso   1.000  I
  I4587    1.0000 0.73649  0.73649  0.23651  Biso   1.000  I
  I4588    1.0000 0.76349  0.76349  0.23651  Biso   1.000  I
  I4589    1.0000 0.73649  0.23651  0.73649  Biso   1.000  I
  I4590    1.0000 0.73649  0.26351  0.76349  Biso   1.000  I
  I4591    1.0000 0.76349  0.26351  0.73649  Biso   1.000  I
  I4592    1.0000 0.26351  0.26351  0.23651  Biso   1.000  I
  I4593    1.0000 0.23651  0.26351  0.26351  Biso   1.000  I
  I4594    1.0000 0.26351  0.23651  0.26351  Biso   1.000  I
  I4595    1.0000 0.76349  0.23651  0.76349  Biso   1.000  I
  I4596    1.0000 0.73649  0.26351  0.76349  Biso   1.000  I
  I4597    1.0000 0.76349  0.26351  0.73649  Biso   1.000  I
  I4598    1.0000 0.23651  0.23651  0.23651  Biso   1.000  I
  I4599    1.0000 0.26351  0.76349  0.73649  Biso   1.000  I
  I4600    1.0000 0.26351  0.73649  0.76349  Biso   1.000  I
  I4601    1.0000 0.23651  0.73649  0.73649  Biso   1.000  I
  I4602    1.0000 0.26351  0.26351  0.23651  Biso   1.000  I
  I4603    1.0000 0.23651  0.26351  0.26351  Biso   1.000  I
  I4604    1.0000 0.26351  0.23651  0.26351  Biso   1.000  I
  I4605    1.0000 0.73649  0.23651  0.73649  Biso   1.000  I
  I4606    1.0000 0.26351  0.26351  0.23651  Biso   1.000  I
  I4607    1.0000 0.26351  0.23651  0.26351  Biso   1.000  I
  I4608    1.0000 0.23651  0.23651  0.23651  Biso   1.000  I
  I4609    1.0000 0.23651  0.76349  0.76349  Biso   1.000  I
  I4610    1.0000 0.26351  0.76349  0.73649  Biso   1.000  I
  I4611    1.0000 0.26351  0.73649  0.76349  Biso   1.000  I
  I4612    1.0000 0.23651  0.26351  0.26351  Biso   1.000  I
  I4613    1.0000 0.76349  0.73649  0.26351  Biso   1.000  I
  I4614    1.0000 0.73649  0.73649  0.23651  Biso   1.000  I
  I4615    1.0000 0.76349  0.76349  0.23651  Biso   1.000  I
  I4616    1.0000 0.23651  0.76349  0.76349  Biso   1.000  I
  I4617    1.0000 0.26351  0.26351  0.23651  Biso   1.000  I
  I4618    1.0000 0.26351  0.23651  0.26351  Biso   1.000  I
  I4619    1.0000 0.23651  0.23651  0.23651  Biso   1.000  I
  I4620    1.0000 0.73649  0.76349  0.26351  Biso   1.000  I
  I4621    1.0000 0.23651  0.26351  0.26351  Biso   1.000  I
  I4622    1.0000 0.26351  0.76349  0.73649  Biso   1.000  I
  I4623    1.0000 0.23651  0.73649  0.73649  Biso   1.000  I
  I4624    1.0000 0.26351  0.73649  0.76349  Biso   1.000  I
  I4625    1.0000 0.30778  0.19220  0.30778  Biso   1.000  I
  I4626    1.0000 0.30778  0.80780  0.69222  Biso   1.000  I
  I4627    1.0000 0.30778  0.69222  0.80780  Biso   1.000  I
  I4628    1.0000 0.30778  0.30778  0.19220  Biso   1.000  I
  I4629    1.0000 0.69222  0.30778  0.80780  Biso   1.000  I
  I4630    1.0000 0.19220  0.30778  0.30778  Biso   1.000  I
  I4631    1.0000 0.80780  0.30778  0.69222  Biso   1.000  I
  I4632    1.0000 0.30778  0.30778  0.19220  Biso   1.000  I
  I4633    1.0000 0.69222  0.30778  0.80780  Biso   1.000  I
  I4634    1.0000 0.80780  0.30778  0.69222  Biso   1.000  I
  I4635    1.0000 0.19220  0.30778  0.30778  Biso   1.000  I
  I4636    1.0000 0.80780  0.69222  0.30778  Biso   1.000  I
  I4637    1.0000 0.30778  0.30778  0.19220  Biso   1.000  I
  I4638    1.0000 0.30778  0.69222  0.80780  Biso   1.000  I
  I4639    1.0000 0.69222  0.80780  0.30778  Biso   1.000  I
  I4640    1.0000 0.30778  0.19220  0.30778  Biso   1.000  I
  I4641    1.0000 0.30778  0.80780  0.69222  Biso   1.000  I
  I4642    1.0000 0.19220  0.69222  0.69222  Biso   1.000  I
  I4643    1.0000 0.19220  0.30778  0.30778  Biso   1.000  I
  I4644    1.0000 0.80780  0.30778  0.69222  Biso   1.000  I
  I4645    1.0000 0.30778  0.30778  0.19220  Biso   1.000  I
  I4646    1.0000 0.69222  0.69222  0.19220  Biso   1.000  I
  I4647    1.0000 0.19220  0.80780  0.80780  Biso   1.000  I
  I4648    1.0000 0.19220  0.19220  0.19220  Biso   1.000  I
  I4649    1.0000 0.80780  0.80780  0.19220  Biso   1.000  I
  I4650    1.0000 0.30778  0.30778  0.19220  Biso   1.000  I
  I4651    1.0000 0.69222  0.69222  0.19220  Biso   1.000  I
  I4652    1.0000 0.69222  0.30778  0.80780  Biso   1.000  I
  I4653    1.0000 0.19220  0.19220  0.19220  Biso   1.000  I
  I4654    1.0000 0.80780  0.80780  0.19220  Biso   1.000  I
  I4655    1.0000 0.30778  0.30778  0.19220  Biso   1.000  I
  I4656    1.0000 0.69222  0.69222  0.19220  Biso   1.000  I
  I4657    1.0000 0.30778  0.69222  0.80780  Biso   1.000  I
  I4658    1.0000 0.80780  0.19220  0.80780  Biso   1.000  I
  I4659    1.0000 0.19220  0.19220  0.19220  Biso   1.000  I
  I4660    1.0000 0.80780  0.80780  0.19220  Biso   1.000  I
  I4661    1.0000 0.30778  0.19220  0.30778  Biso   1.000  I
  I4662    1.0000 0.69222  0.19220  0.69222  Biso   1.000  I
  I4663    1.0000 0.30778  0.80780  0.69222  Biso   1.000  I
  I4664    1.0000 0.19220  0.19220  0.19220  Biso   1.000  I
  I4665    1.0000 0.30778  0.30778  0.19220  Biso   1.000  I
  I4666    1.0000 0.69222  0.80780  0.30778  Biso   1.000  I
  I4667    1.0000 0.80780  0.80780  0.19220  Biso   1.000  I
  I4668    1.0000 0.69222  0.69222  0.19220  Biso   1.000  I
  I4669    1.0000 0.19220  0.19220  0.19220  Biso   1.000  I
  I4670    1.0000 0.19220  0.30778  0.30778  Biso   1.000  I
  I4671    1.0000 0.30778  0.30778  0.19220  Biso   1.000  I
  I4672    1.0000 0.80780  0.30778  0.69222  Biso   1.000  I
  I4673    1.0000 0.69222  0.30778  0.80780  Biso   1.000  I
  I4674    1.0000 0.80780  0.80780  0.19220  Biso   1.000  I
  I4675    1.0000 0.69222  0.69222  0.19220  Biso   1.000  I
  I4676    1.0000 0.80780  0.30778  0.69222  Biso   1.000  I
  I4677    1.0000 0.69222  0.30778  0.80780  Biso   1.000  I
  I4678    1.0000 0.69222  0.19220  0.69222  Biso   1.000  I
  I4679    1.0000 0.19220  0.30778  0.30778  Biso   1.000  I
  I4680    1.0000 0.30778  0.30778  0.19220  Biso   1.000  I
  I4681    1.0000 0.80780  0.30778  0.69222  Biso   1.000  I
  I4682    1.0000 0.69222  0.30778  0.80780  Biso   1.000  I
  I4683    1.0000 0.80780  0.19220  0.80780  Biso   1.000  I
  I4684    1.0000 0.30778  0.69222  0.80780  Biso   1.000  I
  I4685    1.0000 0.30778  0.80780  0.69222  Biso   1.000  I
  I4686    1.0000 0.30778  0.19220  0.30778  Biso   1.000  I
  I4687    1.0000 0.19220  0.30778  0.30778  Biso   1.000  I
  I4688    1.0000 0.30778  0.30778  0.19220  Biso   1.000  I
  I4689    1.0000 0.30778  0.19220  0.30778  Biso   1.000  I
  I4690    1.0000 0.30778  0.30778  0.19220  Biso   1.000  I
  I4691    1.0000 0.30778  0.69222  0.80780  Biso   1.000  I
  I4692    1.0000 0.30778  0.80780  0.69222  Biso   1.000  I
  I4693    1.0000 0.19220  0.80780  0.80780  Biso   1.000  I
  I4694    1.0000 0.80780  0.80780  0.19220  Biso   1.000  I
  I4695    1.0000 0.69222  0.69222  0.19220  Biso   1.000  I
  I4696    1.0000 0.80780  0.69222  0.30778  Biso   1.000  I
  I4697    1.0000 0.19220  0.19220  0.19220  Biso   1.000  I
  I4698    1.0000 0.30778  0.19220  0.30778  Biso   1.000  I
  I4699    1.0000 0.30778  0.30778  0.19220  Biso   1.000  I
  I4700    1.0000 0.19220  0.69222  0.69222  Biso   1.000  I
  I4701    1.0000 0.30778  0.69222  0.80780  Biso   1.000  I
  I4702    1.0000 0.30778  0.80780  0.69222  Biso   1.000  I
  I4703    1.0000 0.26351  0.26351  0.23651  Biso   1.000  I
  I4704    1.0000 0.23651  0.26351  0.26351  Biso   1.000  I
  I4705    1.0000 0.23651  0.23651  0.23651  Biso   1.000  I
  I4706    1.0000 0.23651  0.76349  0.76349  Biso   1.000  I
  I4707    1.0000 0.23651  0.73649  0.73649  Biso   1.000  I
  I4708    1.0000 0.26351  0.73649  0.76349  Biso   1.000  I
  I4709    1.0000 0.23651  0.76349  0.76349  Biso   1.000  I
  I4710    1.0000 0.26351  0.76349  0.73649  Biso   1.000  I
  I4711    1.0000 0.23651  0.73649  0.73649  Biso   1.000  I
  I4712    1.0000 0.23651  0.26351  0.26351  Biso   1.000  I
  I4713    1.0000 0.26351  0.23651  0.26351  Biso   1.000  I
  I4714    1.0000 0.23651  0.23651  0.23651  Biso   1.000  I
  I4715    1.0000 0.73649  0.23651  0.73649  Biso   1.000  I
  I4716    1.0000 0.76349  0.23651  0.76349  Biso   1.000  I
  I4717    1.0000 0.76349  0.26351  0.73649  Biso   1.000  I
  I4718    1.0000 0.26351  0.26351  0.23651  Biso   1.000  I
  I4719    1.0000 0.26351  0.23651  0.26351  Biso   1.000  I
  I4720    1.0000 0.23651  0.23651  0.23651  Biso   1.000  I
  I4721    1.0000 0.73649  0.23651  0.73649  Biso   1.000  I
  I4722    1.0000 0.76349  0.23651  0.76349  Biso   1.000  I
  I4723    1.0000 0.73649  0.26351  0.76349  Biso   1.000  I
  I4724    1.0000 0.23651  0.26351  0.26351  Biso   1.000  I
  I4725    1.0000 0.73649  0.23651  0.73649  Biso   1.000  I
  I4726    1.0000 0.76349  0.23651  0.76349  Biso   1.000  I
  I4727    1.0000 0.76349  0.26351  0.73649  Biso   1.000  I
  I4728    1.0000 0.73649  0.26351  0.76349  Biso   1.000  I
  I4729    1.0000 0.26351  0.26351  0.23651  Biso   1.000  I
  I4730    1.0000 0.26351  0.23651  0.26351  Biso   1.000  I
  I4731    1.0000 0.23651  0.23651  0.23651  Biso   1.000  I
  I4732    1.0000 0.73649  0.73649  0.23651  Biso   1.000  I
  I4733    1.0000 0.76349  0.76349  0.23651  Biso   1.000  I
  I4734    1.0000 0.73649  0.76349  0.26351  Biso   1.000  I
  I4735    1.0000 0.26351  0.23651  0.26351  Biso   1.000  I
  I4736    1.0000 0.23651  0.76349  0.76349  Biso   1.000  I
  I4737    1.0000 0.26351  0.76349  0.73649  Biso   1.000  I
  I4738    1.0000 0.23651  0.73649  0.73649  Biso   1.000  I
  I4739    1.0000 0.76349  0.73649  0.26351  Biso   1.000  I
  I4740    1.0000 0.26351  0.26351  0.23651  Biso   1.000  I
  I4741    1.0000 0.23651  0.26351  0.26351  Biso   1.000  I
  I4742    1.0000 0.23651  0.23651  0.23651  Biso   1.000  I
  I4743    1.0000 0.26351  0.73649  0.76349  Biso   1.000  I
  I4744    1.0000 0.23651  0.76349  0.76349  Biso   1.000  I
  I4745    1.0000 0.26351  0.76349  0.73649  Biso   1.000  I
  I4746    1.0000 0.26351  0.73649  0.76349  Biso   1.000  I
  I4747    1.0000 0.26351  0.26351  0.23651  Biso   1.000  I
  I4748    1.0000 0.26351  0.23651  0.26351  Biso   1.000  I
  I4749    1.0000 0.23651  0.23651  0.23651  Biso   1.000  I
  I4750    1.0000 0.73649  0.23651  0.73649  Biso   1.000  I
  I4751    1.0000 0.76349  0.23651  0.76349  Biso   1.000  I
  I4752    1.0000 0.73649  0.26351  0.76349  Biso   1.000  I
  I4753    1.0000 0.23651  0.26351  0.26351  Biso   1.000  I
  I4754    1.0000 0.26351  0.23651  0.26351  Biso   1.000  I
  I4755    1.0000 0.23651  0.23651  0.23651  Biso   1.000  I
  I4756    1.0000 0.76349  0.73649  0.26351  Biso   1.000  I
  I4757    1.0000 0.76349  0.76349  0.23651  Biso   1.000  I
  I4758    1.0000 0.73649  0.76349  0.26351  Biso   1.000  I
  I4759    1.0000 0.23651  0.73649  0.73649  Biso   1.000  I
  I4760    1.0000 0.26351  0.26351  0.23651  Biso   1.000  I
  I4761    1.0000 0.23651  0.26351  0.26351  Biso   1.000  I
  I4762    1.0000 0.26351  0.23651  0.26351  Biso   1.000  I
  I4763    1.0000 0.76349  0.73649  0.26351  Biso   1.000  I
  I4764    1.0000 0.73649  0.76349  0.26351  Biso   1.000  I
  I4765    1.0000 0.73649  0.73649  0.23651  Biso   1.000  I
  I4766    1.0000 0.23651  0.26351  0.26351  Biso   1.000  I
  I4767    1.0000 0.26351  0.23651  0.26351  Biso   1.000  I
  I4768    1.0000 0.23651  0.23651  0.23651  Biso   1.000  I
  I4769    1.0000 0.76349  0.76349  0.23651  Biso   1.000  I
  I4770    1.0000 0.76349  0.26351  0.73649  Biso   1.000  I
  I4771    1.0000 0.26351  0.26351  0.23651  Biso   1.000  I
  I4772    1.0000 0.76349  0.73649  0.26351  Biso   1.000  I
  I4773    1.0000 0.73649  0.73649  0.23651  Biso   1.000  I
  I4774    1.0000 0.73649  0.76349  0.26351  Biso   1.000  I
  I4775    1.0000 0.23651  0.26351  0.26351  Biso   1.000  I
  I4776    1.0000 0.26351  0.23651  0.26351  Biso   1.000  I
  I4777    1.0000 0.23651  0.23651  0.23651  Biso   1.000  I
  I4778    1.0000 0.76349  0.73649  0.26351  Biso   1.000  I
  I4779    1.0000 0.76349  0.76349  0.23651  Biso   1.000  I
  I4780    1.0000 0.73649  0.76349  0.26351  Biso   1.000  I
  I4781    1.0000 0.23651  0.76349  0.76349  Biso   1.000  I
  I4782    1.0000 0.26351  0.76349  0.73649  Biso   1.000  I
  I4783    1.0000 0.23651  0.73649  0.73649  Biso   1.000  I
  I4784    1.0000 0.73649  0.26351  0.76349  Biso   1.000  I
  I4785    1.0000 0.76349  0.26351  0.73649  Biso   1.000  I
  I4786    1.0000 0.73649  0.23651  0.73649  Biso   1.000  I
  I4787    1.0000 0.26351  0.26351  0.23651  Biso   1.000  I
  I4788    1.0000 0.23651  0.26351  0.26351  Biso   1.000  I
  I4789    1.0000 0.26351  0.23651  0.26351  Biso   1.000  I
  I4790    1.0000 0.73649  0.73649  0.23651  Biso   1.000  I
  I4791    1.0000 0.26351  0.26351  0.23651  Biso   1.000  I
  I4792    1.0000 0.23651  0.26351  0.26351  Biso   1.000  I
  I4793    1.0000 0.23651  0.23651  0.23651  Biso   1.000  I
  I4794    1.0000 0.76349  0.23651  0.76349  Biso   1.000  I
  I4795    1.0000 0.26351  0.73649  0.76349  Biso   1.000  I
  I4796    1.0000 0.12502  0.12502  0.12502  Biso   1.000  I
  I4797    1.0000 0.37501  0.37501  0.12502  Biso   1.000  I
  I4798    1.0000 0.62499  0.87498  0.37501  Biso   1.000  I
  I4799    1.0000 0.76349  0.73649  0.26351  Biso   1.000  I
  I4800    1.0000 0.87498  0.87498  0.12502  Biso   1.000  I
  I4801    1.0000 0.62499  0.62499  0.12502  Biso   1.000  I
  I4802    1.0000 0.12502  0.12502  0.12502  Biso   1.000  I
  I4803    1.0000 0.26351  0.23651  0.26351  Biso   1.000  I
  I4804    1.0000 0.12502  0.37501  0.37501  Biso   1.000  I
  I4805    1.0000 0.37501  0.37501  0.12502  Biso   1.000  I
  I4806    1.0000 0.87498  0.37501  0.62499  Biso   1.000  I
  I4807    1.0000 0.62499  0.37501  0.87498  Biso   1.000  I
  I4808    1.0000 0.87498  0.87498  0.12502  Biso   1.000  I
  I4809    1.0000 0.62499  0.62499  0.12502  Biso   1.000  I
  I4810    1.0000 0.76349  0.23651  0.76349  Biso   1.000  I
  I4811    1.0000 0.87498  0.37501  0.62499  Biso   1.000  I
  I4812    1.0000 0.62499  0.37501  0.87498  Biso   1.000  I
  I4813    1.0000 0.62499  0.12502  0.62499  Biso   1.000  I
  I4814    1.0000 0.12502  0.37501  0.37501  Biso   1.000  I
  I4815    1.0000 0.37501  0.37501  0.12502  Biso   1.000  I
  I4816    1.0000 0.87498  0.37501  0.62499  Biso   1.000  I
  I4817    1.0000 0.73649  0.23651  0.73649  Biso   1.000  I
  I4818    1.0000 0.62499  0.37501  0.87498  Biso   1.000  I
  I4819    1.0000 0.87498  0.12502  0.87498  Biso   1.000  I
  I4820    1.0000 0.37501  0.62499  0.87498  Biso   1.000  I
  I4821    1.0000 0.37501  0.87498  0.62499  Biso   1.000  I
  I4822    1.0000 0.37501  0.12502  0.37501  Biso   1.000  I
  I4823    1.0000 0.23651  0.23651  0.23651  Biso   1.000  I
  I4824    1.0000 0.12502  0.37501  0.37501  Biso   1.000  I
  I4825    1.0000 0.37501  0.37501  0.12502  Biso   1.000  I
  I4826    1.0000 0.37501  0.12502  0.37501  Biso   1.000  I
  I4827    1.0000 0.37501  0.37501  0.12502  Biso   1.000  I
  I4828    1.0000 0.37501  0.62499  0.87498  Biso   1.000  I
  I4829    1.0000 0.23651  0.73649  0.73649  Biso   1.000  I
  I4830    1.0000 0.37501  0.87498  0.62499  Biso   1.000  I
  I4831    1.0000 0.12502  0.87498  0.87498  Biso   1.000  I
  I4832    1.0000 0.87498  0.87498  0.12502  Biso   1.000  I
  I4833    1.0000 0.73649  0.76349  0.26351  Biso   1.000  I
  I4834    1.0000 0.62499  0.62499  0.12502  Biso   1.000  I
  I4835    1.0000 0.87498  0.62499  0.37501  Biso   1.000  I
  I4836    1.0000 0.12502  0.12502  0.12502  Biso   1.000  I
  I4837    1.0000 0.23651  0.26351  0.26351  Biso   1.000  I
  I4838    1.0000 0.37501  0.12502  0.37501  Biso   1.000  I
  I4839    1.0000 0.37501  0.37501  0.12502  Biso   1.000  I
  I4840    1.0000 0.12502  0.62499  0.62499  Biso   1.000  I
  I4841    1.0000 0.23651  0.76349  0.76349  Biso   1.000  I
  I4842    1.0000 0.37501  0.62499  0.87498  Biso   1.000  I
  I4843    1.0000 0.37501  0.87498  0.62499  Biso   1.000  I
  I4844    1.0000 0.19220  0.19220  0.19220  Biso   1.000  I
  I4845    1.0000 0.19220  0.30778  0.30778  Biso   1.000  I
  I4846    1.0000 0.30778  0.69222  0.80780  Biso   1.000  I
  I4847    1.0000 0.19220  0.69222  0.69222  Biso   1.000  I
  I4848    1.0000 0.19220  0.80780  0.80780  Biso   1.000  I
  I4849    1.0000 0.19220  0.69222  0.69222  Biso   1.000  I
  I4850    1.0000 0.19220  0.80780  0.80780  Biso   1.000  I
  I4851    1.0000 0.19220  0.19220  0.19220  Biso   1.000  I
  I4852    1.0000 0.30778  0.19220  0.30778  Biso   1.000  I
  I4853    1.0000 0.19220  0.30778  0.30778  Biso   1.000  I
  I4854    1.0000 0.80780  0.19220  0.80780  Biso   1.000  I
  I4855    1.0000 0.69222  0.19220  0.69222  Biso   1.000  I
  I4856    1.0000 0.19220  0.19220  0.19220  Biso   1.000  I
  I4857    1.0000 0.30778  0.19220  0.30778  Biso   1.000  I
  I4858    1.0000 0.69222  0.30778  0.80780  Biso   1.000  I
  I4859    1.0000 0.80780  0.19220  0.80780  Biso   1.000  I
  I4860    1.0000 0.69222  0.19220  0.69222  Biso   1.000  I
  I4861    1.0000 0.80780  0.30778  0.69222  Biso   1.000  I
  I4862    1.0000 0.80780  0.19220  0.80780  Biso   1.000  I
  I4863    1.0000 0.69222  0.19220  0.69222  Biso   1.000  I
  I4864    1.0000 0.19220  0.19220  0.19220  Biso   1.000  I
  I4865    1.0000 0.30778  0.19220  0.30778  Biso   1.000  I
  I4866    1.0000 0.30778  0.30778  0.19220  Biso   1.000  I
  I4867    1.0000 0.80780  0.80780  0.19220  Biso   1.000  I
  I4868    1.0000 0.69222  0.69222  0.19220  Biso   1.000  I
  I4869    1.0000 0.19220  0.69222  0.69222  Biso   1.000  I
  I4870    1.0000 0.30778  0.80780  0.69222  Biso   1.000  I
  I4871    1.0000 0.19220  0.80780  0.80780  Biso   1.000  I
  I4872    1.0000 0.19220  0.19220  0.19220  Biso   1.000  I
  I4873    1.0000 0.19220  0.30778  0.30778  Biso   1.000  I
  I4874    1.0000 0.30778  0.30778  0.19220  Biso   1.000  I
  I4875    1.0000 0.30778  0.69222  0.80780  Biso   1.000  I
  I4876    1.0000 0.30778  0.80780  0.69222  Biso   1.000  I
  I4877    1.0000 0.19220  0.19220  0.19220  Biso   1.000  I
  I4878    1.0000 0.30778  0.19220  0.30778  Biso   1.000  I
  I4879    1.0000 0.30778  0.30778  0.19220  Biso   1.000  I
  I4880    1.0000 0.80780  0.19220  0.80780  Biso   1.000  I
  I4881    1.0000 0.69222  0.19220  0.69222  Biso   1.000  I
  I4882    1.0000 0.30778  0.19220  0.30778  Biso   1.000  I
  I4883    1.0000 0.19220  0.30778  0.30778  Biso   1.000  I
  I4884    1.0000 0.69222  0.80780  0.30778  Biso   1.000  I
  I4885    1.0000 0.80780  0.80780  0.19220  Biso   1.000  I
  I4886    1.0000 0.80780  0.69222  0.30778  Biso   1.000  I
  I4887    1.0000 0.30778  0.19220  0.30778  Biso   1.000  I
  I4888    1.0000 0.19220  0.30778  0.30778  Biso   1.000  I
  I4889    1.0000 0.30778  0.30778  0.19220  Biso   1.000  I
  I4890    1.0000 0.69222  0.80780  0.30778  Biso   1.000  I
  I4891    1.0000 0.80780  0.69222  0.30778  Biso   1.000  I
  I4892    1.0000 0.19220  0.19220  0.19220  Biso   1.000  I
  I4893    1.0000 0.30778  0.19220  0.30778  Biso   1.000  I
  I4894    1.0000 0.19220  0.30778  0.30778  Biso   1.000  I
  I4895    1.0000 0.69222  0.69222  0.19220  Biso   1.000  I
  I4896    1.0000 0.69222  0.80780  0.30778  Biso   1.000  I
  I4897    1.0000 0.80780  0.69222  0.30778  Biso   1.000  I
  I4898    1.0000 0.19220  0.19220  0.19220  Biso   1.000  I
  I4899    1.0000 0.30778  0.19220  0.30778  Biso   1.000  I
  I4900    1.0000 0.19220  0.30778  0.30778  Biso   1.000  I
  I4901    1.0000 0.69222  0.80780  0.30778  Biso   1.000  I
  I4902    1.0000 0.80780  0.69222  0.30778  Biso   1.000  I
  I4903    1.0000 0.19220  0.69222  0.69222  Biso   1.000  I
  I4904    1.0000 0.19220  0.80780  0.80780  Biso   1.000  I
  I4905    1.0000 0.80780  0.30778  0.69222  Biso   1.000  I
  I4906    1.0000 0.69222  0.30778  0.80780  Biso   1.000  I
  I4907    1.0000 0.30778  0.19220  0.30778  Biso   1.000  I
  I4908    1.0000 0.19220  0.30778  0.30778  Biso   1.000  I
  I4909    1.0000 0.30778  0.30778  0.19220  Biso   1.000  I
  I4910    1.0000 0.19220  0.19220  0.19220  Biso   1.000  I
  I4911    1.0000 0.19220  0.30778  0.30778  Biso   1.000  I
  I4912    1.0000 0.30778  0.30778  0.19220  Biso   1.000  I
  I4913    1.0000 0.05779  0.05779  0.05779  Biso   1.000  I
  I4914    1.0000 0.44219  0.44219  0.05779  Biso   1.000  I
  I4915    1.0000 0.55781  0.94221  0.44219  Biso   1.000  I
  I4916    1.0000 0.94221  0.94221  0.05779  Biso   1.000  I
  I4917    1.0000 0.55781  0.55781  0.05779  Biso   1.000  I
  I4918    1.0000 0.05779  0.05779  0.05779  Biso   1.000  I
  I4919    1.0000 0.05779  0.44219  0.44219  Biso   1.000  I
  I4920    1.0000 0.44219  0.44219  0.05779  Biso   1.000  I
  I4921    1.0000 0.94221  0.44219  0.55781  Biso   1.000  I
  I4922    1.0000 0.55781  0.44219  0.94221  Biso   1.000  I
  I4923    1.0000 0.94221  0.94221  0.05779  Biso   1.000  I
  I4924    1.0000 0.55781  0.55781  0.05779  Biso   1.000  I
  I4925    1.0000 0.94221  0.44219  0.55781  Biso   1.000  I
  I4926    1.0000 0.55781  0.44219  0.94221  Biso   1.000  I
  I4927    1.0000 0.55781  0.05779  0.55781  Biso   1.000  I
  I4928    1.0000 0.05779  0.44219  0.44219  Biso   1.000  I
  I4929    1.0000 0.44219  0.44219  0.05779  Biso   1.000  I
  I4930    1.0000 0.94221  0.44219  0.55781  Biso   1.000  I
  I4931    1.0000 0.55781  0.44219  0.94221  Biso   1.000  I
  I4932    1.0000 0.94221  0.05779  0.94221  Biso   1.000  I
  I4933    1.0000 0.44219  0.55781  0.94221  Biso   1.000  I
  I4934    1.0000 0.44219  0.94221  0.55781  Biso   1.000  I
  I4935    1.0000 0.44219  0.05779  0.44219  Biso   1.000  I
  I4936    1.0000 0.05779  0.44219  0.44219  Biso   1.000  I
  I4937    1.0000 0.44219  0.44219  0.05779  Biso   1.000  I
  I4938    1.0000 0.44219  0.05779  0.44219  Biso   1.000  I
  I4939    1.0000 0.44219  0.44219  0.05779  Biso   1.000  I
  I4940    1.0000 0.44219  0.55781  0.94221  Biso   1.000  I
  I4941    1.0000 0.44219  0.94221  0.55781  Biso   1.000  I
  I4942    1.0000 0.05779  0.94221  0.94221  Biso   1.000  I
  I4943    1.0000 0.94221  0.94221  0.05779  Biso   1.000  I
  I4944    1.0000 0.55781  0.55781  0.05779  Biso   1.000  I
  I4945    1.0000 0.94221  0.55781  0.44219  Biso   1.000  I
  I4946    1.0000 0.05779  0.05779  0.05779  Biso   1.000  I
  I4947    1.0000 0.44219  0.05779  0.44219  Biso   1.000  I
  I4948    1.0000 0.44219  0.44219  0.05779  Biso   1.000  I
  I4949    1.0000 0.05779  0.55781  0.55781  Biso   1.000  I
  I4950    1.0000 0.44219  0.55781  0.94221  Biso   1.000  I
  I4951    1.0000 0.44219  0.94221  0.55781  Biso   1.000  I
  I4952    1.0000 0.12502  0.12502  0.12502  Biso   1.000  I
  I4953    1.0000 0.12502  0.37501  0.37501  Biso   1.000  I
  I4954    1.0000 0.37501  0.62499  0.87498  Biso   1.000  I
  I4955    1.0000 0.26351  0.76349  0.73649  Biso   1.000  I
  I4956    1.0000 0.12502  0.62499  0.62499  Biso   1.000  I
  I4957    1.0000 0.12502  0.87498  0.87498  Biso   1.000  I
  I4958    1.0000 0.12502  0.62499  0.62499  Biso   1.000  I
  I4959    1.0000 0.12502  0.87498  0.87498  Biso   1.000  I
  I4960    1.0000 0.12502  0.12502  0.12502  Biso   1.000  I
  I4961    1.0000 0.26351  0.26351  0.23651  Biso   1.000  I
  I4962    1.0000 0.37501  0.12502  0.37501  Biso   1.000  I
  I4963    1.0000 0.12502  0.37501  0.37501  Biso   1.000  I
  I4964    1.0000 0.87498  0.12502  0.87498  Biso   1.000  I
  I4965    1.0000 0.62499  0.12502  0.62499  Biso   1.000  I
  I4966    1.0000 0.12502  0.12502  0.12502  Biso   1.000  I
  I4967    1.0000 0.37501  0.12502  0.37501  Biso   1.000  I
  I4968    1.0000 0.62499  0.37501  0.87498  Biso   1.000  I
  I4969    1.0000 0.76349  0.26351  0.73649  Biso   1.000  I
  I4970    1.0000 0.87498  0.12502  0.87498  Biso   1.000  I
  I4971    1.0000 0.62499  0.12502  0.62499  Biso   1.000  I
  I4972    1.0000 0.87498  0.37501  0.62499  Biso   1.000  I
  I4973    1.0000 0.73649  0.26351  0.76349  Biso   1.000  I
  I4974    1.0000 0.87498  0.12502  0.87498  Biso   1.000  I
  I4975    1.0000 0.62499  0.12502  0.62499  Biso   1.000  I
  I4976    1.0000 0.12502  0.12502  0.12502  Biso   1.000  I
  I4977    1.0000 0.23651  0.26351  0.26351  Biso   1.000  I
  I4978    1.0000 0.37501  0.12502  0.37501  Biso   1.000  I
  I4979    1.0000 0.37501  0.37501  0.12502  Biso   1.000  I
  I4980    1.0000 0.87498  0.87498  0.12502  Biso   1.000  I
  I4981    1.0000 0.62499  0.62499  0.12502  Biso   1.000  I
  I4982    1.0000 0.12502  0.62499  0.62499  Biso   1.000  I
  I4983    1.0000 0.26351  0.73649  0.76349  Biso   1.000  I
  I4984    1.0000 0.37501  0.87498  0.62499  Biso   1.000  I
  I4985    1.0000 0.12502  0.87498  0.87498  Biso   1.000  I
  I4986    1.0000 0.12502  0.12502  0.12502  Biso   1.000  I
  I4987    1.0000 0.26351  0.23651  0.26351  Biso   1.000  I
  I4988    1.0000 0.12502  0.37501  0.37501  Biso   1.000  I
  I4989    1.0000 0.37501  0.37501  0.12502  Biso   1.000  I
  I4990    1.0000 0.37501  0.62499  0.87498  Biso   1.000  I
  I4991    1.0000 0.37501  0.87498  0.62499  Biso   1.000  I
  I4992    1.0000 0.12502  0.12502  0.12502  Biso   1.000  I
  I4993    1.0000 0.23651  0.26351  0.26351  Biso   1.000  I
  I4994    1.0000 0.37501  0.12502  0.37501  Biso   1.000  I
  I4995    1.0000 0.37501  0.37501  0.12502  Biso   1.000  I
  I4996    1.0000 0.87498  0.12502  0.87498  Biso   1.000  I
  I4997    1.0000 0.62499  0.12502  0.62499  Biso   1.000  I
  I4998    1.0000 0.37501  0.12502  0.37501  Biso   1.000  I
  I4999    1.0000 0.12502  0.37501  0.37501  Biso   1.000  I
  I5000    1.0000 0.62499  0.87498  0.37501  Biso   1.000  I
  I5001    1.0000 0.73649  0.73649  0.23651  Biso   1.000  I
  I5002    1.0000 0.87498  0.87498  0.12502  Biso   1.000  I
  I5003    1.0000 0.87498  0.62499  0.37501  Biso   1.000  I
  I5004    1.0000 0.37501  0.12502  0.37501  Biso   1.000  I
  I5005    1.0000 0.23651  0.23651  0.23651  Biso   1.000  I
  I5006    1.0000 0.12502  0.37501  0.37501  Biso   1.000  I
  I5007    1.0000 0.37501  0.37501  0.12502  Biso   1.000  I
  I5008    1.0000 0.62499  0.87498  0.37501  Biso   1.000  I
  I5009    1.0000 0.87498  0.62499  0.37501  Biso   1.000  I
  I5010    1.0000 0.12502  0.12502  0.12502  Biso   1.000  I
  I5011    1.0000 0.26351  0.26351  0.23651  Biso   1.000  I
  I5012    1.0000 0.37501  0.12502  0.37501  Biso   1.000  I
  I5013    1.0000 0.12502  0.37501  0.37501  Biso   1.000  I
  I5014    1.0000 0.62499  0.62499  0.12502  Biso   1.000  I
  I5015    1.0000 0.76349  0.76349  0.23651  Biso   1.000  I
  I5016    1.0000 0.62499  0.87498  0.37501  Biso   1.000  I
  I5017    1.0000 0.87498  0.62499  0.37501  Biso   1.000  I
  I5018    1.0000 0.12502  0.12502  0.12502  Biso   1.000  I
  I5019    1.0000 0.26351  0.26351  0.23651  Biso   1.000  I
  I5020    1.0000 0.37501  0.12502  0.37501  Biso   1.000  I
  I5021    1.0000 0.12502  0.37501  0.37501  Biso   1.000  I
  I5022    1.0000 0.62499  0.87498  0.37501  Biso   1.000  I
  I5023    1.0000 0.87498  0.62499  0.37501  Biso   1.000  I
  I5024    1.0000 0.12502  0.62499  0.62499  Biso   1.000  I
  I5025    1.0000 0.12502  0.87498  0.87498  Biso   1.000  I
  I5026    1.0000 0.87498  0.37501  0.62499  Biso   1.000  I
  I5027    1.0000 0.62499  0.37501  0.87498  Biso   1.000  I
  I5028    1.0000 0.37501  0.12502  0.37501  Biso   1.000  I
  I5029    1.0000 0.23651  0.23651  0.23651  Biso   1.000  I
  I5030    1.0000 0.12502  0.37501  0.37501  Biso   1.000  I
  I5031    1.0000 0.37501  0.37501  0.12502  Biso   1.000  I
  I5032    1.0000 0.12502  0.12502  0.12502  Biso   1.000  I
  I5033    1.0000 0.26351  0.23651  0.26351  Biso   1.000  I
  I5034    1.0000 0.12502  0.37501  0.37501  Biso   1.000  I
  I5035    1.0000 0.37501  0.37501  0.12502  Biso   1.000  I
  I5036    1.0000 0.98648  0.98648  0.01352  Biso   1.000  I
  I5037    1.0000 0.51350  0.51350  0.01352  Biso   1.000  I
  I5038    1.0000 0.48650  0.98648  0.51350  Biso   1.000  I
  I5039    1.0000 0.48650  0.01352  0.48650  Biso   1.000  I
  I5040    1.0000 0.51350  0.01352  0.51350  Biso   1.000  I
  I5041    1.0000 0.01352  0.01352  0.01352  Biso   1.000  I
  I5042    1.0000 0.48650  0.48650  0.01352  Biso   1.000  I
  I5043    1.0000 0.98648  0.98648  0.01352  Biso   1.000  I
  I5044    1.0000 0.98648  0.51350  0.48650  Biso   1.000  I
  I5045    1.0000 0.98648  0.48650  0.51350  Biso   1.000  I
  I5046    1.0000 0.01352  0.51350  0.51350  Biso   1.000  I
  I5047    1.0000 0.51350  0.51350  0.01352  Biso   1.000  I
  I5048    1.0000 0.98648  0.51350  0.48650  Biso   1.000  I
  I5049    1.0000 0.01352  0.51350  0.51350  Biso   1.000  I
  I5050    1.0000 0.01352  0.48650  0.48650  Biso   1.000  I
  I5051    1.0000 0.48650  0.51350  0.98648  Biso   1.000  I
  I5052    1.0000 0.51350  0.51350  0.01352  Biso   1.000  I
  I5053    1.0000 0.48650  0.48650  0.01352  Biso   1.000  I
  I5054    1.0000 0.01352  0.01352  0.01352  Biso   1.000  I
  I5055    1.0000 0.48650  0.48650  0.01352  Biso   1.000  I
  I5056    1.0000 0.01352  0.48650  0.48650  Biso   1.000  I
  I5057    1.0000 0.48650  0.51350  0.98648  Biso   1.000  I
  I5058    1.0000 0.51350  0.51350  0.01352  Biso   1.000  I
  I5059    1.0000 0.48650  0.48650  0.01352  Biso   1.000  I
  I5060    1.0000 0.51350  0.98648  0.48650  Biso   1.000  I
  I5061    1.0000 0.98648  0.51350  0.48650  Biso   1.000  I
  I5062    1.0000 0.98648  0.48650  0.51350  Biso   1.000  I
  I5063    1.0000 0.01352  0.51350  0.51350  Biso   1.000  I
  I5064    1.0000 0.51350  0.48650  0.98648  Biso   1.000  I
  I5065    1.0000 0.98648  0.51350  0.48650  Biso   1.000  I
  I5066    1.0000 0.01352  0.51350  0.51350  Biso   1.000  I
  I5067    1.0000 0.01352  0.48650  0.48650  Biso   1.000  I
  I5068    1.0000 0.48650  0.51350  0.98648  Biso   1.000  I
  I5069    1.0000 0.51350  0.51350  0.01352  Biso   1.000  I
  I5070    1.0000 0.48650  0.48650  0.01352  Biso   1.000  I
  I5071    1.0000 0.98648  0.98648  0.01352  Biso   1.000  I
  I5072    1.0000 0.01352  0.01352  0.01352  Biso   1.000  I
  I5073    1.0000 0.01352  0.98648  0.98648  Biso   1.000  I
  I5074    1.0000 0.51350  0.48650  0.98648  Biso   1.000  I
  I5075    1.0000 0.51350  0.51350  0.01352  Biso   1.000  I
  I5076    1.0000 0.48650  0.48650  0.01352  Biso   1.000  I
  I5077    1.0000 0.51350  0.98648  0.48650  Biso   1.000  I
  I5078    1.0000 0.48650  0.01352  0.48650  Biso   1.000  I
  I5079    1.0000 0.51350  0.01352  0.51350  Biso   1.000  I
  I5080    1.0000 0.51350  0.98648  0.48650  Biso   1.000  I
  I5081    1.0000 0.51350  0.01352  0.51350  Biso   1.000  I
  I5082    1.0000 0.48650  0.98648  0.51350  Biso   1.000  I
  I5083    1.0000 0.98648  0.48650  0.51350  Biso   1.000  I
  I5084    1.0000 0.51350  0.48650  0.98648  Biso   1.000  I
  I5085    1.0000 0.48650  0.51350  0.98648  Biso   1.000  I
  I5086    1.0000 0.51350  0.51350  0.01352  Biso   1.000  I
  I5087    1.0000 0.48650  0.98648  0.51350  Biso   1.000  I
  I5088    1.0000 0.51350  0.98648  0.48650  Biso   1.000  I
  I5089    1.0000 0.51350  0.01352  0.51350  Biso   1.000  I
  I5090    1.0000 0.48650  0.51350  0.98648  Biso   1.000  I
  I5091    1.0000 0.51350  0.48650  0.98648  Biso   1.000  I
  I5092    1.0000 0.51350  0.51350  0.01352  Biso   1.000  I
  I5093    1.0000 0.48650  0.48650  0.01352  Biso   1.000  I
  I5094    1.0000 0.48650  0.01352  0.48650  Biso   1.000  I
  I5095    1.0000 0.98648  0.01352  0.98648  Biso   1.000  I
  I5096    1.0000 0.01352  0.01352  0.01352  Biso   1.000  I
  I5097    1.0000 0.48650  0.48650  0.01352  Biso   1.000  I
  I5098    1.0000 0.01352  0.51350  0.51350  Biso   1.000  I
  I5099    1.0000 0.01352  0.48650  0.48650  Biso   1.000  I
  I5100    1.0000 0.98648  0.48650  0.51350  Biso   1.000  I
  I5101    1.0000 0.98648  0.98648  0.01352  Biso   1.000  I
  I5102    1.0000 0.51350  0.98648  0.48650  Biso   1.000  I
  I5103    1.0000 0.51350  0.01352  0.51350  Biso   1.000  I
  I5104    1.0000 0.48650  0.98648  0.51350  Biso   1.000  I
  I5105    1.0000 0.51350  0.51350  0.01352  Biso   1.000  I
  I5106    1.0000 0.98648  0.51350  0.48650  Biso   1.000  I
  I5107    1.0000 0.51350  0.48650  0.98648  Biso   1.000  I
  I5108    1.0000 0.51350  0.51350  0.01352  Biso   1.000  I
  I5109    1.0000 0.48650  0.48650  0.01352  Biso   1.000  I
  I5110    1.0000 0.48650  0.01352  0.48650  Biso   1.000  I
  I5111    1.0000 0.05779  0.05779  0.05779  Biso   1.000  I
  I5112    1.0000 0.05779  0.44219  0.44219  Biso   1.000  I
  I5113    1.0000 0.44219  0.55781  0.94221  Biso   1.000  I
  I5114    1.0000 0.05779  0.55781  0.55781  Biso   1.000  I
  I5115    1.0000 0.05779  0.94221  0.94221  Biso   1.000  I
  I5116    1.0000 0.05779  0.55781  0.55781  Biso   1.000  I
  I5117    1.0000 0.05779  0.94221  0.94221  Biso   1.000  I
  I5118    1.0000 0.05779  0.05779  0.05779  Biso   1.000  I
  I5119    1.0000 0.44219  0.05779  0.44219  Biso   1.000  I
  I5120    1.0000 0.05779  0.44219  0.44219  Biso   1.000  I
  I5121    1.0000 0.94221  0.05779  0.94221  Biso   1.000  I
  I5122    1.0000 0.55781  0.05779  0.55781  Biso   1.000  I
  I5123    1.0000 0.05779  0.05779  0.05779  Biso   1.000  I
  I5124    1.0000 0.44219  0.05779  0.44219  Biso   1.000  I
  I5125    1.0000 0.55781  0.44219  0.94221  Biso   1.000  I
  I5126    1.0000 0.94221  0.05779  0.94221  Biso   1.000  I
  I5127    1.0000 0.55781  0.05779  0.55781  Biso   1.000  I
  I5128    1.0000 0.94221  0.44219  0.55781  Biso   1.000  I
  I5129    1.0000 0.94221  0.05779  0.94221  Biso   1.000  I
  I5130    1.0000 0.55781  0.05779  0.55781  Biso   1.000  I
  I5131    1.0000 0.05779  0.05779  0.05779  Biso   1.000  I
  I5132    1.0000 0.44219  0.05779  0.44219  Biso   1.000  I
  I5133    1.0000 0.44219  0.44219  0.05779  Biso   1.000  I
  I5134    1.0000 0.94221  0.94221  0.05779  Biso   1.000  I
  I5135    1.0000 0.55781  0.55781  0.05779  Biso   1.000  I
  I5136    1.0000 0.05779  0.55781  0.55781  Biso   1.000  I
  I5137    1.0000 0.44219  0.94221  0.55781  Biso   1.000  I
  I5138    1.0000 0.05779  0.94221  0.94221  Biso   1.000  I
  I5139    1.0000 0.05779  0.05779  0.05779  Biso   1.000  I
  I5140    1.0000 0.05779  0.44219  0.44219  Biso   1.000  I
  I5141    1.0000 0.44219  0.44219  0.05779  Biso   1.000  I
  I5142    1.0000 0.44219  0.55781  0.94221  Biso   1.000  I
  I5143    1.0000 0.44219  0.94221  0.55781  Biso   1.000  I
  I5144    1.0000 0.05779  0.05779  0.05779  Biso   1.000  I
  I5145    1.0000 0.44219  0.05779  0.44219  Biso   1.000  I
  I5146    1.0000 0.44219  0.44219  0.05779  Biso   1.000  I
  I5147    1.0000 0.94221  0.05779  0.94221  Biso   1.000  I
  I5148    1.0000 0.55781  0.05779  0.55781  Biso   1.000  I
  I5149    1.0000 0.44219  0.05779  0.44219  Biso   1.000  I
  I5150    1.0000 0.05779  0.44219  0.44219  Biso   1.000  I
  I5151    1.0000 0.55781  0.94221  0.44219  Biso   1.000  I
  I5152    1.0000 0.94221  0.94221  0.05779  Biso   1.000  I
  I5153    1.0000 0.94221  0.55781  0.44219  Biso   1.000  I
  I5154    1.0000 0.44219  0.05779  0.44219  Biso   1.000  I
  I5155    1.0000 0.05779  0.44219  0.44219  Biso   1.000  I
  I5156    1.0000 0.44219  0.44219  0.05779  Biso   1.000  I
  I5157    1.0000 0.55781  0.94221  0.44219  Biso   1.000  I
  I5158    1.0000 0.94221  0.55781  0.44219  Biso   1.000  I
  I5159    1.0000 0.05779  0.05779  0.05779  Biso   1.000  I
  I5160    1.0000 0.44219  0.05779  0.44219  Biso   1.000  I
  I5161    1.0000 0.05779  0.44219  0.44219  Biso   1.000  I
  I5162    1.0000 0.55781  0.55781  0.05779  Biso   1.000  I
  I5163    1.0000 0.55781  0.94221  0.44219  Biso   1.000  I
  I5164    1.0000 0.94221  0.55781  0.44219  Biso   1.000  I
  I5165    1.0000 0.05779  0.05779  0.05779  Biso   1.000  I
  I5166    1.0000 0.44219  0.05779  0.44219  Biso   1.000  I
  I5167    1.0000 0.05779  0.44219  0.44219  Biso   1.000  I
  I5168    1.0000 0.55781  0.94221  0.44219  Biso   1.000  I
  I5169    1.0000 0.94221  0.55781  0.44219  Biso   1.000  I
  I5170    1.0000 0.05779  0.55781  0.55781  Biso   1.000  I
  I5171    1.0000 0.05779  0.94221  0.94221  Biso   1.000  I
  I5172    1.0000 0.94221  0.44219  0.55781  Biso   1.000  I
  I5173    1.0000 0.55781  0.44219  0.94221  Biso   1.000  I
  I5174    1.0000 0.44219  0.05779  0.44219  Biso   1.000  I
  I5175    1.0000 0.05779  0.44219  0.44219  Biso   1.000  I
  I5176    1.0000 0.44219  0.44219  0.05779  Biso   1.000  I
  I5177    1.0000 0.05779  0.05779  0.05779  Biso   1.000  I
  I5178    1.0000 0.05779  0.44219  0.44219  Biso   1.000  I
  I5179    1.0000 0.44219  0.44219  0.05779  Biso   1.000  I
  I5180    1.0000 0.44219  0.05779  0.44219  Biso   1.000  I
  I5181    1.0000 0.05779  0.55781  0.55781  Biso   1.000  I
  I5182    1.0000 0.94221  0.55781  0.44219  Biso   1.000  I
  I5183    1.0000 0.05779  0.55781  0.55781  Biso   1.000  I
  I5184    1.0000 0.05779  0.44219  0.44219  Biso   1.000  I
  I5185    1.0000 0.94221  0.55781  0.44219  Biso   1.000  I
  I5186    1.0000 0.55781  0.55781  0.05779  Biso   1.000  I
  I5187    1.0000 0.44219  0.55781  0.94221  Biso   1.000  I
  I5188    1.0000 0.55781  0.55781  0.05779  Biso   1.000  I
  I5189    1.0000 0.44219  0.55781  0.94221  Biso   1.000  I
  I5190    1.0000 0.05779  0.55781  0.55781  Biso   1.000  I
  I5191    1.0000 0.94221  0.55781  0.44219  Biso   1.000  I
  I5192    1.0000 0.05779  0.55781  0.55781  Biso   1.000  I
  I5193    1.0000 0.94221  0.55781  0.44219  Biso   1.000  I
  I5194    1.0000 0.55781  0.55781  0.05779  Biso   1.000  I
  I5195    1.0000 0.44219  0.55781  0.94221  Biso   1.000  I
  I5196    1.0000 0.05779  0.05779  0.05779  Biso   1.000  I
  I5197    1.0000 0.55781  0.55781  0.05779  Biso   1.000  I
  I5198    1.0000 0.55781  0.44219  0.94221  Biso   1.000  I
  I5199    1.0000 0.44219  0.05779  0.44219  Biso   1.000  I
  I5200    1.0000 0.55781  0.05779  0.55781  Biso   1.000  I
  I5201    1.0000 0.55781  0.94221  0.44219  Biso   1.000  I
  I5202    1.0000 0.55781  0.05779  0.55781  Biso   1.000  I
  I5203    1.0000 0.55781  0.94221  0.44219  Biso   1.000  I
  I5204    1.0000 0.44219  0.55781  0.94221  Biso   1.000  I
  I5205    1.0000 0.55781  0.55781  0.05779  Biso   1.000  I
  I5206    1.0000 0.55781  0.44219  0.94221  Biso   1.000  I
  I5207    1.0000 0.55781  0.94221  0.44219  Biso   1.000  I
  I5208    1.0000 0.55781  0.05779  0.55781  Biso   1.000  I
  I5209    1.0000 0.55781  0.55781  0.05779  Biso   1.000  I
  I5210    1.0000 0.55781  0.44219  0.94221  Biso   1.000  I
  I5211    1.0000 0.05779  0.44219  0.44219  Biso   1.000  I
  I5212    1.0000 0.55781  0.05779  0.55781  Biso   1.000  I
  I5213    1.0000 0.55781  0.94221  0.44219  Biso   1.000  I
  I5214    1.0000 0.55781  0.55781  0.05779  Biso   1.000  I
  I5215    1.0000 0.55781  0.44219  0.94221  Biso   1.000  I
  I5216    1.0000 0.01352  0.98648  0.98648  Biso   1.000  I
  I5217    1.0000 0.01352  0.51350  0.51350  Biso   1.000  I
  I5218    1.0000 0.51350  0.48650  0.98648  Biso   1.000  I
  I5219    1.0000 0.51350  0.51350  0.01352  Biso   1.000  I
  I5220    1.0000 0.48650  0.48650  0.01352  Biso   1.000  I
  I5221    1.0000 0.01352  0.48650  0.48650  Biso   1.000  I
  I5222    1.0000 0.01352  0.01352  0.01352  Biso   1.000  I
  I5223    1.0000 0.01352  0.48650  0.48650  Biso   1.000  I
  I5224    1.0000 0.01352  0.01352  0.01352  Biso   1.000  I
  I5225    1.0000 0.51350  0.01352  0.51350  Biso   1.000  I
  I5226    1.0000 0.01352  0.51350  0.51350  Biso   1.000  I
  I5227    1.0000 0.01352  0.01352  0.01352  Biso   1.000  I
  I5228    1.0000 0.48650  0.01352  0.48650  Biso   1.000  I
  I5229    1.0000 0.98648  0.01352  0.98648  Biso   1.000  I
  I5230    1.0000 0.51350  0.01352  0.51350  Biso   1.000  I
  I5231    1.0000 0.48650  0.51350  0.98648  Biso   1.000  I
  I5232    1.0000 0.01352  0.01352  0.01352  Biso   1.000  I
  I5233    1.0000 0.48650  0.01352  0.48650  Biso   1.000  I
  I5234    1.0000 0.01352  0.01352  0.01352  Biso   1.000  I
  I5235    1.0000 0.48650  0.01352  0.48650  Biso   1.000  I
  I5236    1.0000 0.51350  0.01352  0.51350  Biso   1.000  I
  I5237    1.0000 0.51350  0.51350  0.01352  Biso   1.000  I
  I5238    1.0000 0.01352  0.01352  0.01352  Biso   1.000  I
  I5239    1.0000 0.48650  0.48650  0.01352  Biso   1.000  I
  I5240    1.0000 0.01352  0.48650  0.48650  Biso   1.000  I
  I5241    1.0000 0.01352  0.01352  0.01352  Biso   1.000  I
  I5242    1.0000 0.01352  0.51350  0.51350  Biso   1.000  I
  I5243    1.0000 0.51350  0.51350  0.01352  Biso   1.000  I
  I5244    1.0000 0.51350  0.48650  0.98648  Biso   1.000  I
  I5245    1.0000 0.51350  0.51350  0.01352  Biso   1.000  I
  I5246    1.0000 0.48650  0.48650  0.01352  Biso   1.000  I
  I5247    1.0000 0.48650  0.01352  0.48650  Biso   1.000  I
  I5248    1.0000 0.98648  0.01352  0.98648  Biso   1.000  I
  I5249    1.0000 0.51350  0.01352  0.51350  Biso   1.000  I
  I5250    1.0000 0.48650  0.51350  0.98648  Biso   1.000  I
  I5251    1.0000 0.01352  0.01352  0.01352  Biso   1.000  I
  I5252    1.0000 0.48650  0.01352  0.48650  Biso   1.000  I
  I5253    1.0000 0.48650  0.98648  0.51350  Biso   1.000  I
  I5254    1.0000 0.51350  0.98648  0.48650  Biso   1.000  I
  I5255    1.0000 0.51350  0.01352  0.51350  Biso   1.000  I
  I5256    1.0000 0.98648  0.48650  0.51350  Biso   1.000  I
  I5257    1.0000 0.01352  0.51350  0.51350  Biso   1.000  I
  I5258    1.0000 0.98648  0.51350  0.48650  Biso   1.000  I
  I5259    1.0000 0.48650  0.98648  0.51350  Biso   1.000  I
  I5260    1.0000 0.48650  0.01352  0.48650  Biso   1.000  I
  I5261    1.0000 0.51350  0.01352  0.51350  Biso   1.000  I
  I5262    1.0000 0.98648  0.48650  0.51350  Biso   1.000  I
  I5263    1.0000 0.01352  0.51350  0.51350  Biso   1.000  I
  I5264    1.0000 0.01352  0.48650  0.48650  Biso   1.000  I
  I5265    1.0000 0.48650  0.98648  0.51350  Biso   1.000  I
  I5266    1.0000 0.51350  0.98648  0.48650  Biso   1.000  I
  I5267    1.0000 0.51350  0.01352  0.51350  Biso   1.000  I
  I5268    1.0000 0.98648  0.51350  0.48650  Biso   1.000  I
  I5269    1.0000 0.48650  0.51350  0.98648  Biso   1.000  I
  I5270    1.0000 0.48650  0.01352  0.48650  Biso   1.000  I
  I5271    1.0000 0.98648  0.48650  0.51350  Biso   1.000  I
  I5272    1.0000 0.01352  0.51350  0.51350  Biso   1.000  I
  I5273    1.0000 0.01352  0.48650  0.48650  Biso   1.000  I
  I5274    1.0000 0.98648  0.01352  0.98648  Biso   1.000  I
  I5275    1.0000 0.51350  0.01352  0.51350  Biso   1.000  I
  I5276    1.0000 0.98648  0.48650  0.51350  Biso   1.000  I
  I5277    1.0000 0.01352  0.51350  0.51350  Biso   1.000  I
  I5278    1.0000 0.98648  0.51350  0.48650  Biso   1.000  I
  I5279    1.0000 0.48650  0.98648  0.51350  Biso   1.000  I
  I5280    1.0000 0.51350  0.01352  0.51350  Biso   1.000  I
  I5281    1.0000 0.48650  0.01352  0.48650  Biso   1.000  I
  I5282    1.0000 0.01352  0.48650  0.48650  Biso   1.000  I
  I5283    1.0000 0.01352  0.98648  0.98648  Biso   1.000  I
  I5284    1.0000 0.51350  0.98648  0.48650  Biso   1.000  I
  I5285    1.0000 0.01352  0.51350  0.51350  Biso   1.000  I
  I5286    1.0000 0.48650  0.98648  0.51350  Biso   1.000  I
  I5287    1.0000 0.48650  0.01352  0.48650  Biso   1.000  I
  I5288    1.0000 0.51350  0.01352  0.51350  Biso   1.000  I
  I5289    1.0000 0.01352  0.48650  0.48650  Biso   1.000  I
  I5290    1.0000 0.01352  0.48650  0.48650  Biso   1.000  I
  I5291    1.0000 0.01352  0.01352  0.01352  Biso   1.000  I
  I5292    1.0000 0.01352  0.48650  0.48650  Biso   1.000  I
  I5293    1.0000 0.48650  0.51350  0.98648  Biso   1.000  I
  I5294    1.0000 0.51350  0.51350  0.01352  Biso   1.000  I
  I5295    1.0000 0.48650  0.48650  0.01352  Biso   1.000  I
  I5296    1.0000 0.51350  0.98648  0.48650  Biso   1.000  I
  I5297    1.0000 0.98648  0.51350  0.48650  Biso   1.000  I
  I5298    1.0000 0.98648  0.48650  0.51350  Biso   1.000  I
  I5299    1.0000 0.01352  0.51350  0.51350  Biso   1.000  I
  I5300    1.0000 0.51350  0.48650  0.98648  Biso   1.000  I
  I5301    1.0000 0.01352  0.98648  0.98648  Biso   1.000  I
  I5302    1.0000 0.01352  0.51350  0.51350  Biso   1.000  I
  I5303    1.0000 0.51350  0.48650  0.98648  Biso   1.000  I
  I5304    1.0000 0.37501  0.12502  0.37501  Biso   1.000  I
  I5305    1.0000 0.12502  0.62499  0.62499  Biso   1.000  I
  I5306    1.0000 0.87498  0.62499  0.37501  Biso   1.000  I
  I5307    1.0000 0.98648  0.48650  0.51350  Biso   1.000  I
  I5308    1.0000 0.12502  0.62499  0.62499  Biso   1.000  I
  I5309    1.0000 0.12502  0.37501  0.37501  Biso   1.000  I
  I5310    1.0000 0.87498  0.62499  0.37501  Biso   1.000  I
  I5311    1.0000 0.62499  0.62499  0.12502  Biso   1.000  I
  I5312    1.0000 0.37501  0.62499  0.87498  Biso   1.000  I
  I5313    1.0000 0.62499  0.62499  0.12502  Biso   1.000  I
  I5314    1.0000 0.37501  0.62499  0.87498  Biso   1.000  I
  I5315    1.0000 0.12502  0.62499  0.62499  Biso   1.000  I
  I5316    1.0000 0.87498  0.62499  0.37501  Biso   1.000  I
  I5317    1.0000 0.12502  0.62499  0.62499  Biso   1.000  I
  I5318    1.0000 0.87498  0.62499  0.37501  Biso   1.000  I
  I5319    1.0000 0.62499  0.62499  0.12502  Biso   1.000  I
  I5320    1.0000 0.37501  0.62499  0.87498  Biso   1.000  I
  I5321    1.0000 0.12502  0.12502  0.12502  Biso   1.000  I
  I5322    1.0000 0.62499  0.62499  0.12502  Biso   1.000  I
  I5323    1.0000 0.62499  0.37501  0.87498  Biso   1.000  I
  I5324    1.0000 0.48650  0.98648  0.51350  Biso   1.000  I
  I5325    1.0000 0.37501  0.12502  0.37501  Biso   1.000  I
  I5326    1.0000 0.62499  0.12502  0.62499  Biso   1.000  I
  I5327    1.0000 0.62499  0.87498  0.37501  Biso   1.000  I
  I5328    1.0000 0.62499  0.12502  0.62499  Biso   1.000  I
  I5329    1.0000 0.62499  0.87498  0.37501  Biso   1.000  I
  I5330    1.0000 0.37501  0.62499  0.87498  Biso   1.000  I
  I5331    1.0000 0.48650  0.48650  0.01352  Biso   1.000  I
  I5332    1.0000 0.62499  0.62499  0.12502  Biso   1.000  I
  I5333    1.0000 0.62499  0.37501  0.87498  Biso   1.000  I
  I5334    1.0000 0.62499  0.87498  0.37501  Biso   1.000  I
  I5335    1.0000 0.62499  0.12502  0.62499  Biso   1.000  I
  I5336    1.0000 0.62499  0.62499  0.12502  Biso   1.000  I
  I5337    1.0000 0.62499  0.37501  0.87498  Biso   1.000  I
  I5338    1.0000 0.12502  0.37501  0.37501  Biso   1.000  I
  I5339    1.0000 0.62499  0.12502  0.62499  Biso   1.000  I
  I5340    1.0000 0.62499  0.87498  0.37501  Biso   1.000  I
  I5341    1.0000 0.62499  0.62499  0.12502  Biso   1.000  I
  I5342    1.0000 0.62499  0.37501  0.87498  Biso   1.000  I
  I5343    1.0000 0.44219  0.44219  0.05779  Biso   1.000  I
  I5344    1.0000 0.44219  0.44219  0.05779  Biso   1.000  I
  I5345    1.0000 0.55781  0.55781  0.05779  Biso   1.000  I
  I5346    1.0000 0.55781  0.44219  0.94221  Biso   1.000  I
  I5347    1.0000 0.55781  0.05779  0.55781  Biso   1.000  I
  I5348    1.0000 0.44219  0.94221  0.55781  Biso   1.000  I
  I5349    1.0000 0.05779  0.55781  0.55781  Biso   1.000  I
  I5350    1.0000 0.94221  0.44219  0.55781  Biso   1.000  I
  I5351    1.0000 0.55781  0.05779  0.55781  Biso   1.000  I
  I5352    1.0000 0.44219  0.94221  0.55781  Biso   1.000  I
  I5353    1.0000 0.05779  0.55781  0.55781  Biso   1.000  I
  I5354    1.0000 0.94221  0.44219  0.55781  Biso   1.000  I
  I5355    1.0000 0.55781  0.94221  0.44219  Biso   1.000  I
  I5356    1.0000 0.55781  0.05779  0.55781  Biso   1.000  I
  I5357    1.0000 0.44219  0.94221  0.55781  Biso   1.000  I
  I5358    1.0000 0.05779  0.55781  0.55781  Biso   1.000  I
  I5359    1.0000 0.05779  0.44219  0.44219  Biso   1.000  I
  I5360    1.0000 0.94221  0.44219  0.55781  Biso   1.000  I
  I5361    1.0000 0.05779  0.55781  0.55781  Biso   1.000  I
  I5362    1.0000 0.94221  0.44219  0.55781  Biso   1.000  I
  I5363    1.0000 0.55781  0.05779  0.55781  Biso   1.000  I
  I5364    1.0000 0.44219  0.94221  0.55781  Biso   1.000  I
  I5365    1.0000 0.44219  0.05779  0.44219  Biso   1.000  I
  I5366    1.0000 0.55781  0.05779  0.55781  Biso   1.000  I
  I5367    1.0000 0.44219  0.94221  0.55781  Biso   1.000  I
  I5368    1.0000 0.44219  0.44219  0.05779  Biso   1.000  I
  I5369    1.0000 0.55781  0.55781  0.05779  Biso   1.000  I
  I5370    1.0000 0.44219  0.55781  0.94221  Biso   1.000  I
  I5371    1.0000 0.94221  0.44219  0.55781  Biso   1.000  I
  I5372    1.0000 0.05779  0.55781  0.55781  Biso   1.000  I
  I5373    1.0000 0.94221  0.55781  0.44219  Biso   1.000  I
  I5374    1.0000 0.30778  0.19220  0.30778  Biso   1.000  I
  I5375    1.0000 0.19220  0.69222  0.69222  Biso   1.000  I
  I5376    1.0000 0.80780  0.69222  0.30778  Biso   1.000  I
  I5377    1.0000 0.19220  0.69222  0.69222  Biso   1.000  I
  I5378    1.0000 0.19220  0.30778  0.30778  Biso   1.000  I
  I5379    1.0000 0.80780  0.69222  0.30778  Biso   1.000  I
  I5380    1.0000 0.69222  0.69222  0.19220  Biso   1.000  I
  I5381    1.0000 0.30778  0.69222  0.80780  Biso   1.000  I
  I5382    1.0000 0.69222  0.69222  0.19220  Biso   1.000  I
  I5383    1.0000 0.30778  0.69222  0.80780  Biso   1.000  I
  I5384    1.0000 0.19220  0.69222  0.69222  Biso   1.000  I
  I5385    1.0000 0.80780  0.69222  0.30778  Biso   1.000  I
  I5386    1.0000 0.19220  0.69222  0.69222  Biso   1.000  I
  I5387    1.0000 0.80780  0.69222  0.30778  Biso   1.000  I
  I5388    1.0000 0.69222  0.69222  0.19220  Biso   1.000  I
  I5389    1.0000 0.30778  0.69222  0.80780  Biso   1.000  I
  I5390    1.0000 0.19220  0.19220  0.19220  Biso   1.000  I
  I5391    1.0000 0.69222  0.69222  0.19220  Biso   1.000  I
  I5392    1.0000 0.69222  0.30778  0.80780  Biso   1.000  I
  I5393    1.0000 0.30778  0.19220  0.30778  Biso   1.000  I
  I5394    1.0000 0.69222  0.19220  0.69222  Biso   1.000  I
  I5395    1.0000 0.69222  0.80780  0.30778  Biso   1.000  I
  I5396    1.0000 0.69222  0.19220  0.69222  Biso   1.000  I
  I5397    1.0000 0.69222  0.80780  0.30778  Biso   1.000  I
  I5398    1.0000 0.30778  0.69222  0.80780  Biso   1.000  I
  I5399    1.0000 0.69222  0.69222  0.19220  Biso   1.000  I
  I5400    1.0000 0.69222  0.30778  0.80780  Biso   1.000  I
  I5401    1.0000 0.69222  0.80780  0.30778  Biso   1.000  I
  I5402    1.0000 0.69222  0.19220  0.69222  Biso   1.000  I
  I5403    1.0000 0.69222  0.69222  0.19220  Biso   1.000  I
  I5404    1.0000 0.69222  0.30778  0.80780  Biso   1.000  I
  I5405    1.0000 0.19220  0.30778  0.30778  Biso   1.000  I
  I5406    1.0000 0.69222  0.19220  0.69222  Biso   1.000  I
  I5407    1.0000 0.69222  0.80780  0.30778  Biso   1.000  I
  I5408    1.0000 0.69222  0.69222  0.19220  Biso   1.000  I
  I5409    1.0000 0.69222  0.30778  0.80780  Biso   1.000  I
  I5410    1.0000 0.37501  0.37501  0.12502  Biso   1.000  I
  I5411    1.0000 0.48650  0.51350  0.98648  Biso   1.000  I
  I5412    1.0000 0.37501  0.37501  0.12502  Biso   1.000  I
  I5413    1.0000 0.62499  0.62499  0.12502  Biso   1.000  I
  I5414    1.0000 0.62499  0.37501  0.87498  Biso   1.000  I
  I5415    1.0000 0.62499  0.12502  0.62499  Biso   1.000  I
  I5416    1.0000 0.37501  0.87498  0.62499  Biso   1.000  I
  I5417    1.0000 0.12502  0.62499  0.62499  Biso   1.000  I
  I5418    1.0000 0.87498  0.37501  0.62499  Biso   1.000  I
  I5419    1.0000 0.62499  0.12502  0.62499  Biso   1.000  I
  I5420    1.0000 0.37501  0.87498  0.62499  Biso   1.000  I
  I5421    1.0000 0.12502  0.62499  0.62499  Biso   1.000  I
  I5422    1.0000 0.87498  0.37501  0.62499  Biso   1.000  I
  I5423    1.0000 0.62499  0.87498  0.37501  Biso   1.000  I
  I5424    1.0000 0.48650  0.01352  0.48650  Biso   1.000  I
  I5425    1.0000 0.62499  0.12502  0.62499  Biso   1.000  I
  I5426    1.0000 0.37501  0.87498  0.62499  Biso   1.000  I
  I5427    1.0000 0.98648  0.51350  0.48650  Biso   1.000  I
  I5428    1.0000 0.12502  0.62499  0.62499  Biso   1.000  I
  I5429    1.0000 0.12502  0.37501  0.37501  Biso   1.000  I
  I5430    1.0000 0.87498  0.37501  0.62499  Biso   1.000  I
  I5431    1.0000 0.12502  0.62499  0.62499  Biso   1.000  I
  I5432    1.0000 0.87498  0.37501  0.62499  Biso   1.000  I
  I5433    1.0000 0.62499  0.12502  0.62499  Biso   1.000  I
  I5434    1.0000 0.37501  0.87498  0.62499  Biso   1.000  I
  I5435    1.0000 0.51350  0.98648  0.48650  Biso   1.000  I
  I5436    1.0000 0.37501  0.12502  0.37501  Biso   1.000  I
  I5437    1.0000 0.62499  0.12502  0.62499  Biso   1.000  I
  I5438    1.0000 0.37501  0.87498  0.62499  Biso   1.000  I
  I5439    1.0000 0.51350  0.48650  0.98648  Biso   1.000  I
  I5440    1.0000 0.37501  0.37501  0.12502  Biso   1.000  I
  I5441    1.0000 0.62499  0.62499  0.12502  Biso   1.000  I
  I5442    1.0000 0.37501  0.62499  0.87498  Biso   1.000  I
  I5443    1.0000 0.87498  0.37501  0.62499  Biso   1.000  I
  I5444    1.0000 0.01352  0.48650  0.48650  Biso   1.000  I
  I5445    1.0000 0.12502  0.62499  0.62499  Biso   1.000  I
  I5446    1.0000 0.87498  0.62499  0.37501  Biso   1.000  I
  I5447    1.0000 0.26351  0.26351  0.23651  Biso   1.000  I
  I5448    1.0000 0.23651  0.26351  0.26351  Biso   1.000  I
  I5449    1.0000 0.23651  0.23651  0.23651  Biso   1.000  I
  I5450    1.0000 0.23651  0.76349  0.76349  Biso   1.000  I
  I5451    1.0000 0.26351  0.76349  0.73649  Biso   1.000  I
  I5452    1.0000 0.26351  0.73649  0.76349  Biso   1.000  I
  I5453    1.0000 0.73649  0.73649  0.23651  Biso   1.000  I
  I5454    1.0000 0.76349  0.76349  0.23651  Biso   1.000  I
  I5455    1.0000 0.73649  0.76349  0.26351  Biso   1.000  I
  I5456    1.0000 0.23651  0.76349  0.76349  Biso   1.000  I
  I5457    1.0000 0.26351  0.76349  0.73649  Biso   1.000  I
  I5458    1.0000 0.26351  0.73649  0.76349  Biso   1.000  I
  I5459    1.0000 0.26351  0.26351  0.23651  Biso   1.000  I
  I5460    1.0000 0.26351  0.23651  0.26351  Biso   1.000  I
  I5461    1.0000 0.23651  0.23651  0.23651  Biso   1.000  I
  I5462    1.0000 0.73649  0.73649  0.23651  Biso   1.000  I
  I5463    1.0000 0.76349  0.76349  0.23651  Biso   1.000  I
  I5464    1.0000 0.73649  0.76349  0.26351  Biso   1.000  I
  I5465    1.0000 0.76349  0.73649  0.26351  Biso   1.000  I
  I5466    1.0000 0.76349  0.76349  0.23651  Biso   1.000  I
  I5467    1.0000 0.73649  0.76349  0.26351  Biso   1.000  I
  I5468    1.0000 0.23651  0.73649  0.73649  Biso   1.000  I
  I5469    1.0000 0.76349  0.73649  0.26351  Biso   1.000  I
  I5470    1.0000 0.76349  0.76349  0.23651  Biso   1.000  I
  I5471    1.0000 0.73649  0.76349  0.26351  Biso   1.000  I
  I5472    1.0000 0.23651  0.76349  0.76349  Biso   1.000  I
  I5473    1.0000 0.26351  0.76349  0.73649  Biso   1.000  I
  I5474    1.0000 0.23651  0.73649  0.73649  Biso   1.000  I
  I5475    1.0000 0.23651  0.76349  0.76349  Biso   1.000  I
  I5476    1.0000 0.26351  0.76349  0.73649  Biso   1.000  I
  I5477    1.0000 0.26351  0.73649  0.76349  Biso   1.000  I
  I5478    1.0000 0.73649  0.73649  0.23651  Biso   1.000  I
  I5479    1.0000 0.23651  0.76349  0.76349  Biso   1.000  I
  I5480    1.0000 0.26351  0.76349  0.73649  Biso   1.000  I
  I5481    1.0000 0.26351  0.73649  0.76349  Biso   1.000  I
  I5482    1.0000 0.73649  0.73649  0.23651  Biso   1.000  I
  I5483    1.0000 0.76349  0.73649  0.26351  Biso   1.000  I
  I5484    1.0000 0.76349  0.76349  0.23651  Biso   1.000  I
  I5485    1.0000 0.73649  0.76349  0.26351  Biso   1.000  I
  I5486    1.0000 0.23651  0.73649  0.73649  Biso   1.000  I
  I5487    1.0000 0.26351  0.26351  0.23651  Biso   1.000  I
  I5488    1.0000 0.23651  0.26351  0.26351  Biso   1.000  I
  I5489    1.0000 0.26351  0.23651  0.26351  Biso   1.000  I
  I5490    1.0000 0.76349  0.73649  0.26351  Biso   1.000  I
  I5491    1.0000 0.76349  0.76349  0.23651  Biso   1.000  I
  I5492    1.0000 0.73649  0.76349  0.26351  Biso   1.000  I
  I5493    1.0000 0.76349  0.23651  0.76349  Biso   1.000  I
  I5494    1.0000 0.76349  0.26351  0.73649  Biso   1.000  I
  I5495    1.0000 0.73649  0.23651  0.73649  Biso   1.000  I
  I5496    1.0000 0.23651  0.26351  0.26351  Biso   1.000  I
  I5497    1.0000 0.76349  0.23651  0.76349  Biso   1.000  I
  I5498    1.0000 0.73649  0.26351  0.76349  Biso   1.000  I
  I5499    1.0000 0.76349  0.26351  0.73649  Biso   1.000  I
  I5500    1.0000 0.76349  0.73649  0.26351  Biso   1.000  I
  I5501    1.0000 0.73649  0.73649  0.23651  Biso   1.000  I
  I5502    1.0000 0.76349  0.76349  0.23651  Biso   1.000  I
  I5503    1.0000 0.76349  0.23651  0.76349  Biso   1.000  I
  I5504    1.0000 0.73649  0.26351  0.76349  Biso   1.000  I
  I5505    1.0000 0.76349  0.26351  0.73649  Biso   1.000  I
  I5506    1.0000 0.73649  0.73649  0.23651  Biso   1.000  I
  I5507    1.0000 0.23651  0.73649  0.73649  Biso   1.000  I
  I5508    1.0000 0.76349  0.73649  0.26351  Biso   1.000  I
  I5509    1.0000 0.76349  0.76349  0.23651  Biso   1.000  I
  I5510    1.0000 0.73649  0.76349  0.26351  Biso   1.000  I
  I5511    1.0000 0.73649  0.23651  0.73649  Biso   1.000  I
  I5512    1.0000 0.76349  0.73649  0.26351  Biso   1.000  I
  I5513    1.0000 0.76349  0.76349  0.23651  Biso   1.000  I
  I5514    1.0000 0.73649  0.73649  0.23651  Biso   1.000  I
  I5515    1.0000 0.76349  0.23651  0.76349  Biso   1.000  I
  I5516    1.0000 0.73649  0.26351  0.76349  Biso   1.000  I
  I5517    1.0000 0.76349  0.26351  0.73649  Biso   1.000  I
  I5518    1.0000 0.76349  0.73649  0.26351  Biso   1.000  I
  I5519    1.0000 0.76349  0.76349  0.23651  Biso   1.000  I
  I5520    1.0000 0.73649  0.76349  0.26351  Biso   1.000  I
  I5521    1.0000 0.73649  0.23651  0.73649  Biso   1.000  I
  I5522    1.0000 0.26351  0.26351  0.23651  Biso   1.000  I
  I5523    1.0000 0.26351  0.23651  0.26351  Biso   1.000  I
  I5524    1.0000 0.23651  0.23651  0.23651  Biso   1.000  I
  I5525    1.0000 0.73649  0.26351  0.76349  Biso   1.000  I
  I5526    1.0000 0.76349  0.73649  0.26351  Biso   1.000  I
  I5527    1.0000 0.73649  0.73649  0.23651  Biso   1.000  I
  I5528    1.0000 0.76349  0.76349  0.23651  Biso   1.000  I
  I5529    1.0000 0.73649  0.76349  0.26351  Biso   1.000  I
  I5530    1.0000 0.73649  0.23651  0.73649  Biso   1.000  I
  I5531    1.0000 0.76349  0.23651  0.76349  Biso   1.000  I
  I5532    1.0000 0.76349  0.26351  0.73649  Biso   1.000  I
  I5533    1.0000 0.30778  0.30778  0.19220  Biso   1.000  I
  I5534    1.0000 0.30778  0.30778  0.19220  Biso   1.000  I
  I5535    1.0000 0.69222  0.69222  0.19220  Biso   1.000  I
  I5536    1.0000 0.69222  0.30778  0.80780  Biso   1.000  I
  I5537    1.0000 0.69222  0.19220  0.69222  Biso   1.000  I
  I5538    1.0000 0.30778  0.80780  0.69222  Biso   1.000  I
  I5539    1.0000 0.19220  0.69222  0.69222  Biso   1.000  I
  I5540    1.0000 0.80780  0.30778  0.69222  Biso   1.000  I
  I5541    1.0000 0.69222  0.19220  0.69222  Biso   1.000  I
  I5542    1.0000 0.30778  0.80780  0.69222  Biso   1.000  I
  I5543    1.0000 0.19220  0.69222  0.69222  Biso   1.000  I
  I5544    1.0000 0.80780  0.30778  0.69222  Biso   1.000  I
  I5545    1.0000 0.69222  0.80780  0.30778  Biso   1.000  I
  I5546    1.0000 0.69222  0.19220  0.69222  Biso   1.000  I
  I5547    1.0000 0.30778  0.80780  0.69222  Biso   1.000  I
  I5548    1.0000 0.19220  0.69222  0.69222  Biso   1.000  I
  I5549    1.0000 0.19220  0.30778  0.30778  Biso   1.000  I
  I5550    1.0000 0.80780  0.30778  0.69222  Biso   1.000  I
  I5551    1.0000 0.19220  0.69222  0.69222  Biso   1.000  I
  I5552    1.0000 0.80780  0.30778  0.69222  Biso   1.000  I
  I5553    1.0000 0.69222  0.19220  0.69222  Biso   1.000  I
  I5554    1.0000 0.30778  0.80780  0.69222  Biso   1.000  I
  I5555    1.0000 0.30778  0.19220  0.30778  Biso   1.000  I
  I5556    1.0000 0.69222  0.19220  0.69222  Biso   1.000  I
  I5557    1.0000 0.30778  0.80780  0.69222  Biso   1.000  I
  I5558    1.0000 0.30778  0.30778  0.19220  Biso   1.000  I
  I5559    1.0000 0.69222  0.69222  0.19220  Biso   1.000  I
  I5560    1.0000 0.30778  0.69222  0.80780  Biso   1.000  I
  I5561    1.0000 0.80780  0.30778  0.69222  Biso   1.000  I
  I5562    1.0000 0.19220  0.69222  0.69222  Biso   1.000  I
  I5563    1.0000 0.80780  0.69222  0.30778  Biso   1.000  I
  I5564    1.0000 0.19220  0.19220  0.19220  Biso   1.000  I
  I5565    1.0000 0.19220  0.30778  0.30778  Biso   1.000  I
  I5566    1.0000 0.30778  0.30778  0.19220  Biso   1.000  I
  I5567    1.0000 0.30778  0.80780  0.69222  Biso   1.000  I
  I5568    1.0000 0.19220  0.80780  0.80780  Biso   1.000  I
  I5569    1.0000 0.69222  0.80780  0.30778  Biso   1.000  I
  I5570    1.0000 0.80780  0.80780  0.19220  Biso   1.000  I
  I5571    1.0000 0.69222  0.69222  0.19220  Biso   1.000  I
  I5572    1.0000 0.30778  0.80780  0.69222  Biso   1.000  I
  I5573    1.0000 0.19220  0.80780  0.80780  Biso   1.000  I
  I5574    1.0000 0.19220  0.19220  0.19220  Biso   1.000  I
  I5575    1.0000 0.30778  0.30778  0.19220  Biso   1.000  I
  I5576    1.0000 0.69222  0.80780  0.30778  Biso   1.000  I
  I5577    1.0000 0.80780  0.80780  0.19220  Biso   1.000  I
  I5578    1.0000 0.69222  0.69222  0.19220  Biso   1.000  I
  I5579    1.0000 0.69222  0.80780  0.30778  Biso   1.000  I
  I5580    1.0000 0.80780  0.80780  0.19220  Biso   1.000  I
  I5581    1.0000 0.69222  0.80780  0.30778  Biso   1.000  I
  I5582    1.0000 0.80780  0.80780  0.19220  Biso   1.000  I
  I5583    1.0000 0.19220  0.69222  0.69222  Biso   1.000  I
  I5584    1.0000 0.30778  0.80780  0.69222  Biso   1.000  I
  I5585    1.0000 0.19220  0.80780  0.80780  Biso   1.000  I
  I5586    1.0000 0.30778  0.80780  0.69222  Biso   1.000  I
  I5587    1.0000 0.19220  0.80780  0.80780  Biso   1.000  I
  I5588    1.0000 0.30778  0.69222  0.80780  Biso   1.000  I
  I5589    1.0000 0.30778  0.80780  0.69222  Biso   1.000  I
  I5590    1.0000 0.19220  0.80780  0.80780  Biso   1.000  I
  I5591    1.0000 0.69222  0.80780  0.30778  Biso   1.000  I
  I5592    1.0000 0.80780  0.80780  0.19220  Biso   1.000  I
  I5593    1.0000 0.80780  0.69222  0.30778  Biso   1.000  I
  I5594    1.0000 0.30778  0.19220  0.30778  Biso   1.000  I
  I5595    1.0000 0.19220  0.30778  0.30778  Biso   1.000  I
  I5596    1.0000 0.30778  0.30778  0.19220  Biso   1.000  I
  I5597    1.0000 0.80780  0.80780  0.19220  Biso   1.000  I
  I5598    1.0000 0.80780  0.69222  0.30778  Biso   1.000  I
  I5599    1.0000 0.80780  0.30778  0.69222  Biso   1.000  I
  I5600    1.0000 0.80780  0.19220  0.80780  Biso   1.000  I
  I5601    1.0000 0.80780  0.30778  0.69222  Biso   1.000  I
  I5602    1.0000 0.80780  0.19220  0.80780  Biso   1.000  I
  I5603    1.0000 0.80780  0.80780  0.19220  Biso   1.000  I
  I5604    1.0000 0.69222  0.69222  0.19220  Biso   1.000  I
  I5605    1.0000 0.80780  0.69222  0.30778  Biso   1.000  I
  I5606    1.0000 0.80780  0.30778  0.69222  Biso   1.000  I
  I5607    1.0000 0.69222  0.30778  0.80780  Biso   1.000  I
  I5608    1.0000 0.80780  0.19220  0.80780  Biso   1.000  I
  I5609    1.0000 0.69222  0.80780  0.30778  Biso   1.000  I
  I5610    1.0000 0.80780  0.80780  0.19220  Biso   1.000  I
  I5611    1.0000 0.80780  0.69222  0.30778  Biso   1.000  I
  I5612    1.0000 0.80780  0.80780  0.19220  Biso   1.000  I
  I5613    1.0000 0.80780  0.69222  0.30778  Biso   1.000  I
  I5614    1.0000 0.80780  0.30778  0.69222  Biso   1.000  I
  I5615    1.0000 0.80780  0.19220  0.80780  Biso   1.000  I
  I5616    1.0000 0.69222  0.80780  0.30778  Biso   1.000  I
  I5617    1.0000 0.80780  0.80780  0.19220  Biso   1.000  I
  I5618    1.0000 0.80780  0.69222  0.30778  Biso   1.000  I
  I5619    1.0000 0.19220  0.19220  0.19220  Biso   1.000  I
  I5620    1.0000 0.30778  0.19220  0.30778  Biso   1.000  I
  I5621    1.0000 0.30778  0.30778  0.19220  Biso   1.000  I
  I5622    1.0000 0.80780  0.80780  0.19220  Biso   1.000  I
  I5623    1.0000 0.69222  0.69222  0.19220  Biso   1.000  I
  I5624    1.0000 0.80780  0.69222  0.30778  Biso   1.000  I
  I5625    1.0000 0.80780  0.30778  0.69222  Biso   1.000  I
  I5626    1.0000 0.80780  0.19220  0.80780  Biso   1.000  I
  I5627    1.0000 0.69222  0.19220  0.69222  Biso   1.000  I
  I5628    1.0000 0.23651  0.26351  0.26351  Biso   1.000  I
  I5629    1.0000 0.26351  0.23651  0.26351  Biso   1.000  I
  I5630    1.0000 0.23651  0.23651  0.23651  Biso   1.000  I
  I5631    1.0000 0.26351  0.23651  0.26351  Biso   1.000  I
  I5632    1.0000 0.23651  0.23651  0.23651  Biso   1.000  I
  I5633    1.0000 0.23651  0.26351  0.26351  Biso   1.000  I
  I5634    1.0000 0.76349  0.73649  0.26351  Biso   1.000  I
  I5635    1.0000 0.76349  0.76349  0.23651  Biso   1.000  I
  I5636    1.0000 0.73649  0.76349  0.26351  Biso   1.000  I
  I5637    1.0000 0.73649  0.23651  0.73649  Biso   1.000  I
  I5638    1.0000 0.76349  0.23651  0.76349  Biso   1.000  I
  I5639    1.0000 0.76349  0.26351  0.73649  Biso   1.000  I
  I5640    1.0000 0.76349  0.23651  0.76349  Biso   1.000  I
  I5641    1.0000 0.73649  0.26351  0.76349  Biso   1.000  I
  I5642    1.0000 0.76349  0.26351  0.73649  Biso   1.000  I
  I5643    1.0000 0.23651  0.76349  0.76349  Biso   1.000  I
  I5644    1.0000 0.23651  0.73649  0.73649  Biso   1.000  I
  I5645    1.0000 0.26351  0.73649  0.76349  Biso   1.000  I
  I5646    1.0000 0.23651  0.76349  0.76349  Biso   1.000  I
  I5647    1.0000 0.26351  0.76349  0.73649  Biso   1.000  I
  I5648    1.0000 0.26351  0.73649  0.76349  Biso   1.000  I
  I5649    1.0000 0.76349  0.23651  0.76349  Biso   1.000  I
  I5650    1.0000 0.73649  0.26351  0.76349  Biso   1.000  I
  I5651    1.0000 0.73649  0.23651  0.73649  Biso   1.000  I
  I5652    1.0000 0.76349  0.23651  0.76349  Biso   1.000  I
  I5653    1.0000 0.73649  0.26351  0.76349  Biso   1.000  I
  I5654    1.0000 0.76349  0.26351  0.73649  Biso   1.000  I
  I5655    1.0000 0.23651  0.73649  0.73649  Biso   1.000  I
  I5656    1.0000 0.23651  0.76349  0.76349  Biso   1.000  I
  I5657    1.0000 0.26351  0.76349  0.73649  Biso   1.000  I
  I5658    1.0000 0.26351  0.73649  0.76349  Biso   1.000  I
  I5659    1.0000 0.73649  0.23651  0.73649  Biso   1.000  I
  I5660    1.0000 0.73649  0.73649  0.23651  Biso   1.000  I
  I5661    1.0000 0.76349  0.23651  0.76349  Biso   1.000  I
  I5662    1.0000 0.73649  0.26351  0.76349  Biso   1.000  I
  I5663    1.0000 0.76349  0.26351  0.73649  Biso   1.000  I
  I5664    1.0000 0.23651  0.76349  0.76349  Biso   1.000  I
  I5665    1.0000 0.26351  0.73649  0.76349  Biso   1.000  I
  I5666    1.0000 0.23651  0.73649  0.73649  Biso   1.000  I
  I5667    1.0000 0.26351  0.76349  0.73649  Biso   1.000  I
  I5668    1.0000 0.26351  0.26351  0.23651  Biso   1.000  I
  I5669    1.0000 0.73649  0.23651  0.73649  Biso   1.000  I
  I5670    1.0000 0.76349  0.23651  0.76349  Biso   1.000  I
  I5671    1.0000 0.73649  0.26351  0.76349  Biso   1.000  I
  I5672    1.0000 0.26351  0.76349  0.73649  Biso   1.000  I
  I5673    1.0000 0.73649  0.23651  0.73649  Biso   1.000  I
  I5674    1.0000 0.76349  0.23651  0.76349  Biso   1.000  I
  I5675    1.0000 0.73649  0.26351  0.76349  Biso   1.000  I
  I5676    1.0000 0.76349  0.26351  0.73649  Biso   1.000  I
  I5677    1.0000 0.23651  0.76349  0.76349  Biso   1.000  I
  I5678    1.0000 0.23651  0.73649  0.73649  Biso   1.000  I
  I5679    1.0000 0.26351  0.73649  0.76349  Biso   1.000  I
  I5680    1.0000 0.26351  0.26351  0.23651  Biso   1.000  I
  I5681    1.0000 0.23651  0.26351  0.26351  Biso   1.000  I
  I5682    1.0000 0.23651  0.23651  0.23651  Biso   1.000  I
  I5683    1.0000 0.76349  0.23651  0.76349  Biso   1.000  I
  I5684    1.0000 0.73649  0.26351  0.76349  Biso   1.000  I
  I5685    1.0000 0.76349  0.26351  0.73649  Biso   1.000  I
  I5686    1.0000 0.23651  0.76349  0.76349  Biso   1.000  I
  I5687    1.0000 0.23651  0.73649  0.73649  Biso   1.000  I
  I5688    1.0000 0.26351  0.73649  0.76349  Biso   1.000  I
  I5689    1.0000 0.26351  0.23651  0.26351  Biso   1.000  I
  I5690    1.0000 0.76349  0.73649  0.26351  Biso   1.000  I
  I5691    1.0000 0.76349  0.76349  0.23651  Biso   1.000  I
  I5692    1.0000 0.73649  0.76349  0.26351  Biso   1.000  I
  I5693    1.0000 0.23651  0.76349  0.76349  Biso   1.000  I
  I5694    1.0000 0.26351  0.76349  0.73649  Biso   1.000  I
  I5695    1.0000 0.23651  0.73649  0.73649  Biso   1.000  I
  I5696    1.0000 0.73649  0.23651  0.73649  Biso   1.000  I
  I5697    1.0000 0.23651  0.76349  0.76349  Biso   1.000  I
  I5698    1.0000 0.26351  0.76349  0.73649  Biso   1.000  I
  I5699    1.0000 0.26351  0.73649  0.76349  Biso   1.000  I
  I5700    1.0000 0.73649  0.73649  0.23651  Biso   1.000  I
  I5701    1.0000 0.12502  0.12502  0.12502  Biso   1.000  I
  I5702    1.0000 0.26351  0.23651  0.26351  Biso   1.000  I
  I5703    1.0000 0.12502  0.37501  0.37501  Biso   1.000  I
  I5704    1.0000 0.37501  0.37501  0.12502  Biso   1.000  I
  I5705    1.0000 0.37501  0.87498  0.62499  Biso   1.000  I
  I5706    1.0000 0.12502  0.87498  0.87498  Biso   1.000  I
  I5707    1.0000 0.62499  0.87498  0.37501  Biso   1.000  I
  I5708    1.0000 0.76349  0.73649  0.26351  Biso   1.000  I
  I5709    1.0000 0.87498  0.87498  0.12502  Biso   1.000  I
  I5710    1.0000 0.62499  0.62499  0.12502  Biso   1.000  I
  I5711    1.0000 0.37501  0.87498  0.62499  Biso   1.000  I
  I5712    1.0000 0.12502  0.87498  0.87498  Biso   1.000  I
  I5713    1.0000 0.12502  0.12502  0.12502  Biso   1.000  I
  I5714    1.0000 0.37501  0.37501  0.12502  Biso   1.000  I
  I5715    1.0000 0.62499  0.87498  0.37501  Biso   1.000  I
  I5716    1.0000 0.76349  0.73649  0.26351  Biso   1.000  I
  I5717    1.0000 0.87498  0.87498  0.12502  Biso   1.000  I
  I5718    1.0000 0.62499  0.62499  0.12502  Biso   1.000  I
  I5719    1.0000 0.62499  0.87498  0.37501  Biso   1.000  I
  I5720    1.0000 0.87498  0.87498  0.12502  Biso   1.000  I
  I5721    1.0000 0.62499  0.87498  0.37501  Biso   1.000  I
  I5722    1.0000 0.87498  0.87498  0.12502  Biso   1.000  I
  I5723    1.0000 0.12502  0.62499  0.62499  Biso   1.000  I
  I5724    1.0000 0.26351  0.73649  0.76349  Biso   1.000  I
  I5725    1.0000 0.37501  0.87498  0.62499  Biso   1.000  I
  I5726    1.0000 0.12502  0.87498  0.87498  Biso   1.000  I
  I5727    1.0000 0.37501  0.87498  0.62499  Biso   1.000  I
  I5728    1.0000 0.12502  0.87498  0.87498  Biso   1.000  I
  I5729    1.0000 0.37501  0.62499  0.87498  Biso   1.000  I
  I5730    1.0000 0.23651  0.73649  0.73649  Biso   1.000  I
  I5731    1.0000 0.37501  0.87498  0.62499  Biso   1.000  I
  I5732    1.0000 0.12502  0.87498  0.87498  Biso   1.000  I
  I5733    1.0000 0.62499  0.87498  0.37501  Biso   1.000  I
  I5734    1.0000 0.73649  0.73649  0.23651  Biso   1.000  I
  I5735    1.0000 0.87498  0.87498  0.12502  Biso   1.000  I
  I5736    1.0000 0.87498  0.62499  0.37501  Biso   1.000  I
  I5737    1.0000 0.37501  0.12502  0.37501  Biso   1.000  I
  I5738    1.0000 0.23651  0.23651  0.23651  Biso   1.000  I
  I5739    1.0000 0.12502  0.37501  0.37501  Biso   1.000  I
  I5740    1.0000 0.37501  0.37501  0.12502  Biso   1.000  I
  I5741    1.0000 0.87498  0.87498  0.12502  Biso   1.000  I
  I5742    1.0000 0.87498  0.62499  0.37501  Biso   1.000  I
  I5743    1.0000 0.87498  0.37501  0.62499  Biso   1.000  I
  I5744    1.0000 0.87498  0.12502  0.87498  Biso   1.000  I
  I5745    1.0000 0.87498  0.37501  0.62499  Biso   1.000  I
  I5746    1.0000 0.87498  0.12502  0.87498  Biso   1.000  I
  I5747    1.0000 0.87498  0.87498  0.12502  Biso   1.000  I
  I5748    1.0000 0.73649  0.76349  0.26351  Biso   1.000  I
  I5749    1.0000 0.62499  0.62499  0.12502  Biso   1.000  I
  I5750    1.0000 0.87498  0.62499  0.37501  Biso   1.000  I
  I5751    1.0000 0.87498  0.37501  0.62499  Biso   1.000  I
  I5752    1.0000 0.73649  0.23651  0.73649  Biso   1.000  I
  I5753    1.0000 0.62499  0.37501  0.87498  Biso   1.000  I
  I5754    1.0000 0.87498  0.12502  0.87498  Biso   1.000  I
  I5755    1.0000 0.62499  0.87498  0.37501  Biso   1.000  I
  I5756    1.0000 0.73649  0.73649  0.23651  Biso   1.000  I
  I5757    1.0000 0.87498  0.87498  0.12502  Biso   1.000  I
  I5758    1.0000 0.87498  0.62499  0.37501  Biso   1.000  I
  I5759    1.0000 0.87498  0.87498  0.12502  Biso   1.000  I
  I5760    1.0000 0.87498  0.62499  0.37501  Biso   1.000  I
  I5761    1.0000 0.87498  0.37501  0.62499  Biso   1.000  I
  I5762    1.0000 0.87498  0.12502  0.87498  Biso   1.000  I
  I5763    1.0000 0.62499  0.87498  0.37501  Biso   1.000  I
  I5764    1.0000 0.73649  0.73649  0.23651  Biso   1.000  I
  I5765    1.0000 0.87498  0.87498  0.12502  Biso   1.000  I
  I5766    1.0000 0.87498  0.62499  0.37501  Biso   1.000  I
  I5767    1.0000 0.12502  0.12502  0.12502  Biso   1.000  I
  I5768    1.0000 0.23651  0.26351  0.26351  Biso   1.000  I
  I5769    1.0000 0.37501  0.12502  0.37501  Biso   1.000  I
  I5770    1.0000 0.37501  0.37501  0.12502  Biso   1.000  I
  I5771    1.0000 0.87498  0.87498  0.12502  Biso   1.000  I
  I5772    1.0000 0.73649  0.76349  0.26351  Biso   1.000  I
  I5773    1.0000 0.62499  0.62499  0.12502  Biso   1.000  I
  I5774    1.0000 0.87498  0.62499  0.37501  Biso   1.000  I
  I5775    1.0000 0.87498  0.37501  0.62499  Biso   1.000  I
  I5776    1.0000 0.73649  0.26351  0.76349  Biso   1.000  I
  I5777    1.0000 0.87498  0.12502  0.87498  Biso   1.000  I
  I5778    1.0000 0.62499  0.12502  0.62499  Biso   1.000  I
  I5779    1.0000 0.19220  0.19220  0.19220  Biso   1.000  I
  I5780    1.0000 0.30778  0.19220  0.30778  Biso   1.000  I
  I5781    1.0000 0.19220  0.30778  0.30778  Biso   1.000  I
  I5782    1.0000 0.19220  0.19220  0.19220  Biso   1.000  I
  I5783    1.0000 0.30778  0.19220  0.30778  Biso   1.000  I
  I5784    1.0000 0.80780  0.80780  0.19220  Biso   1.000  I
  I5785    1.0000 0.80780  0.69222  0.30778  Biso   1.000  I
  I5786    1.0000 0.80780  0.30778  0.69222  Biso   1.000  I
  I5787    1.0000 0.80780  0.19220  0.80780  Biso   1.000  I
  I5788    1.0000 0.69222  0.19220  0.69222  Biso   1.000  I
  I5789    1.0000 0.69222  0.30778  0.80780  Biso   1.000  I
  I5790    1.0000 0.80780  0.19220  0.80780  Biso   1.000  I
  I5791    1.0000 0.30778  0.69222  0.80780  Biso   1.000  I
  I5792    1.0000 0.19220  0.80780  0.80780  Biso   1.000  I
  I5793    1.0000 0.30778  0.69222  0.80780  Biso   1.000  I
  I5794    1.0000 0.19220  0.80780  0.80780  Biso   1.000  I
  I5795    1.0000 0.69222  0.30778  0.80780  Biso   1.000  I
  I5796    1.0000 0.80780  0.19220  0.80780  Biso   1.000  I
  I5797    1.0000 0.80780  0.30778  0.69222  Biso   1.000  I
  I5798    1.0000 0.69222  0.30778  0.80780  Biso   1.000  I
  I5799    1.0000 0.80780  0.19220  0.80780  Biso   1.000  I
  I5800    1.0000 0.30778  0.69222  0.80780  Biso   1.000  I
  I5801    1.0000 0.30778  0.80780  0.69222  Biso   1.000  I
  I5802    1.0000 0.19220  0.80780  0.80780  Biso   1.000  I
  I5803    1.0000 0.80780  0.30778  0.69222  Biso   1.000  I
  I5804    1.0000 0.69222  0.30778  0.80780  Biso   1.000  I
  I5805    1.0000 0.80780  0.19220  0.80780  Biso   1.000  I
  I5806    1.0000 0.30778  0.69222  0.80780  Biso   1.000  I
  I5807    1.0000 0.19220  0.80780  0.80780  Biso   1.000  I
  I5808    1.0000 0.69222  0.30778  0.80780  Biso   1.000  I
  I5809    1.0000 0.80780  0.19220  0.80780  Biso   1.000  I
  I5810    1.0000 0.69222  0.19220  0.69222  Biso   1.000  I
  I5811    1.0000 0.69222  0.30778  0.80780  Biso   1.000  I
  I5812    1.0000 0.80780  0.19220  0.80780  Biso   1.000  I
  I5813    1.0000 0.69222  0.19220  0.69222  Biso   1.000  I
  I5814    1.0000 0.30778  0.69222  0.80780  Biso   1.000  I
  I5815    1.0000 0.19220  0.69222  0.69222  Biso   1.000  I
  I5816    1.0000 0.19220  0.80780  0.80780  Biso   1.000  I
  I5817    1.0000 0.19220  0.19220  0.19220  Biso   1.000  I
  I5818    1.0000 0.19220  0.30778  0.30778  Biso   1.000  I
  I5819    1.0000 0.69222  0.30778  0.80780  Biso   1.000  I
  I5820    1.0000 0.80780  0.19220  0.80780  Biso   1.000  I
  I5821    1.0000 0.30778  0.69222  0.80780  Biso   1.000  I
  I5822    1.0000 0.19220  0.69222  0.69222  Biso   1.000  I
  I5823    1.0000 0.19220  0.80780  0.80780  Biso   1.000  I
  I5824    1.0000 0.69222  0.80780  0.30778  Biso   1.000  I
  I5825    1.0000 0.80780  0.80780  0.19220  Biso   1.000  I
  I5826    1.0000 0.19220  0.69222  0.69222  Biso   1.000  I
  I5827    1.0000 0.30778  0.80780  0.69222  Biso   1.000  I
  I5828    1.0000 0.19220  0.80780  0.80780  Biso   1.000  I
  I5829    1.0000 0.30778  0.69222  0.80780  Biso   1.000  I
  I5830    1.0000 0.30778  0.80780  0.69222  Biso   1.000  I
  I5831    1.0000 0.19220  0.80780  0.80780  Biso   1.000  I
  I5832    1.0000 0.05779  0.05779  0.05779  Biso   1.000  I
  I5833    1.0000 0.05779  0.44219  0.44219  Biso   1.000  I
  I5834    1.0000 0.44219  0.44219  0.05779  Biso   1.000  I
  I5835    1.0000 0.44219  0.94221  0.55781  Biso   1.000  I
  I5836    1.0000 0.05779  0.94221  0.94221  Biso   1.000  I
  I5837    1.0000 0.55781  0.94221  0.44219  Biso   1.000  I
  I5838    1.0000 0.94221  0.94221  0.05779  Biso   1.000  I
  I5839    1.0000 0.55781  0.55781  0.05779  Biso   1.000  I
  I5840    1.0000 0.44219  0.94221  0.55781  Biso   1.000  I
  I5841    1.0000 0.05779  0.94221  0.94221  Biso   1.000  I
  I5842    1.0000 0.05779  0.05779  0.05779  Biso   1.000  I
  I5843    1.0000 0.44219  0.44219  0.05779  Biso   1.000  I
  I5844    1.0000 0.55781  0.94221  0.44219  Biso   1.000  I
  I5845    1.0000 0.94221  0.94221  0.05779  Biso   1.000  I
  I5846    1.0000 0.55781  0.55781  0.05779  Biso   1.000  I
  I5847    1.0000 0.55781  0.94221  0.44219  Biso   1.000  I
  I5848    1.0000 0.94221  0.94221  0.05779  Biso   1.000  I
  I5849    1.0000 0.55781  0.94221  0.44219  Biso   1.000  I
  I5850    1.0000 0.94221  0.94221  0.05779  Biso   1.000  I
  I5851    1.0000 0.05779  0.55781  0.55781  Biso   1.000  I
  I5852    1.0000 0.44219  0.94221  0.55781  Biso   1.000  I
  I5853    1.0000 0.05779  0.94221  0.94221  Biso   1.000  I
  I5854    1.0000 0.44219  0.94221  0.55781  Biso   1.000  I
  I5855    1.0000 0.05779  0.94221  0.94221  Biso   1.000  I
  I5856    1.0000 0.44219  0.55781  0.94221  Biso   1.000  I
  I5857    1.0000 0.44219  0.94221  0.55781  Biso   1.000  I
  I5858    1.0000 0.05779  0.94221  0.94221  Biso   1.000  I
  I5859    1.0000 0.55781  0.94221  0.44219  Biso   1.000  I
  I5860    1.0000 0.94221  0.94221  0.05779  Biso   1.000  I
  I5861    1.0000 0.94221  0.55781  0.44219  Biso   1.000  I
  I5862    1.0000 0.44219  0.05779  0.44219  Biso   1.000  I
  I5863    1.0000 0.05779  0.44219  0.44219  Biso   1.000  I
  I5864    1.0000 0.44219  0.44219  0.05779  Biso   1.000  I
  I5865    1.0000 0.94221  0.94221  0.05779  Biso   1.000  I
  I5866    1.0000 0.94221  0.55781  0.44219  Biso   1.000  I
  I5867    1.0000 0.94221  0.44219  0.55781  Biso   1.000  I
  I5868    1.0000 0.94221  0.05779  0.94221  Biso   1.000  I
  I5869    1.0000 0.94221  0.44219  0.55781  Biso   1.000  I
  I5870    1.0000 0.94221  0.05779  0.94221  Biso   1.000  I
  I5871    1.0000 0.94221  0.94221  0.05779  Biso   1.000  I
  I5872    1.0000 0.55781  0.55781  0.05779  Biso   1.000  I
  I5873    1.0000 0.94221  0.55781  0.44219  Biso   1.000  I
  I5874    1.0000 0.94221  0.44219  0.55781  Biso   1.000  I
  I5875    1.0000 0.55781  0.44219  0.94221  Biso   1.000  I
  I5876    1.0000 0.94221  0.05779  0.94221  Biso   1.000  I
  I5877    1.0000 0.55781  0.94221  0.44219  Biso   1.000  I
  I5878    1.0000 0.94221  0.94221  0.05779  Biso   1.000  I
  I5879    1.0000 0.94221  0.55781  0.44219  Biso   1.000  I
  I5880    1.0000 0.94221  0.94221  0.05779  Biso   1.000  I
  I5881    1.0000 0.94221  0.55781  0.44219  Biso   1.000  I
  I5882    1.0000 0.94221  0.44219  0.55781  Biso   1.000  I
  I5883    1.0000 0.94221  0.05779  0.94221  Biso   1.000  I
  I5884    1.0000 0.55781  0.94221  0.44219  Biso   1.000  I
  I5885    1.0000 0.94221  0.94221  0.05779  Biso   1.000  I
  I5886    1.0000 0.94221  0.55781  0.44219  Biso   1.000  I
  I5887    1.0000 0.05779  0.05779  0.05779  Biso   1.000  I
  I5888    1.0000 0.44219  0.05779  0.44219  Biso   1.000  I
  I5889    1.0000 0.44219  0.44219  0.05779  Biso   1.000  I
  I5890    1.0000 0.94221  0.94221  0.05779  Biso   1.000  I
  I5891    1.0000 0.55781  0.55781  0.05779  Biso   1.000  I
  I5892    1.0000 0.94221  0.55781  0.44219  Biso   1.000  I
  I5893    1.0000 0.94221  0.44219  0.55781  Biso   1.000  I
  I5894    1.0000 0.94221  0.05779  0.94221  Biso   1.000  I
  I5895    1.0000 0.55781  0.05779  0.55781  Biso   1.000  I
  I5896    1.0000 0.12502  0.12502  0.12502  Biso   1.000  I
  I5897    1.0000 0.26351  0.26351  0.23651  Biso   1.000  I
  I5898    1.0000 0.37501  0.12502  0.37501  Biso   1.000  I
  I5899    1.0000 0.12502  0.37501  0.37501  Biso   1.000  I
  I5900    1.0000 0.12502  0.12502  0.12502  Biso   1.000  I
  I5901    1.0000 0.37501  0.12502  0.37501  Biso   1.000  I
  I5902    1.0000 0.87498  0.87498  0.12502  Biso   1.000  I
  I5903    1.0000 0.87498  0.62499  0.37501  Biso   1.000  I
  I5904    1.0000 0.87498  0.37501  0.62499  Biso   1.000  I
  I5905    1.0000 0.73649  0.26351  0.76349  Biso   1.000  I
  I5906    1.0000 0.87498  0.12502  0.87498  Biso   1.000  I
  I5907    1.0000 0.62499  0.12502  0.62499  Biso   1.000  I
  I5908    1.0000 0.62499  0.37501  0.87498  Biso   1.000  I
  I5909    1.0000 0.87498  0.12502  0.87498  Biso   1.000  I
  I5910    1.0000 0.37501  0.62499  0.87498  Biso   1.000  I
  I5911    1.0000 0.12502  0.87498  0.87498  Biso   1.000  I
  I5912    1.0000 0.37501  0.62499  0.87498  Biso   1.000  I
  I5913    1.0000 0.12502  0.87498  0.87498  Biso   1.000  I
  I5914    1.0000 0.62499  0.37501  0.87498  Biso   1.000  I
  I5915    1.0000 0.87498  0.12502  0.87498  Biso   1.000  I
  I5916    1.0000 0.87498  0.37501  0.62499  Biso   1.000  I
  I5917    1.0000 0.73649  0.23651  0.73649  Biso   1.000  I
  I5918    1.0000 0.62499  0.37501  0.87498  Biso   1.000  I
  I5919    1.0000 0.87498  0.12502  0.87498  Biso   1.000  I
  I5920    1.0000 0.37501  0.62499  0.87498  Biso   1.000  I
  I5921    1.0000 0.23651  0.73649  0.73649  Biso   1.000  I
  I5922    1.0000 0.37501  0.87498  0.62499  Biso   1.000  I
  I5923    1.0000 0.12502  0.87498  0.87498  Biso   1.000  I
  I5924    1.0000 0.87498  0.37501  0.62499  Biso   1.000  I
  I5925    1.0000 0.73649  0.23651  0.73649  Biso   1.000  I
  I5926    1.0000 0.62499  0.37501  0.87498  Biso   1.000  I
  I5927    1.0000 0.87498  0.12502  0.87498  Biso   1.000  I
  I5928    1.0000 0.37501  0.62499  0.87498  Biso   1.000  I
  I5929    1.0000 0.12502  0.87498  0.87498  Biso   1.000  I
  I5930    1.0000 0.62499  0.37501  0.87498  Biso   1.000  I
  I5931    1.0000 0.76349  0.26351  0.73649  Biso   1.000  I
  I5932    1.0000 0.87498  0.12502  0.87498  Biso   1.000  I
  I5933    1.0000 0.62499  0.12502  0.62499  Biso   1.000  I
  I5934    1.0000 0.62499  0.37501  0.87498  Biso   1.000  I
  I5935    1.0000 0.76349  0.26351  0.73649  Biso   1.000  I
  I5936    1.0000 0.87498  0.12502  0.87498  Biso   1.000  I
  I5937    1.0000 0.62499  0.12502  0.62499  Biso   1.000  I
  I5938    1.0000 0.37501  0.62499  0.87498  Biso   1.000  I
  I5939    1.0000 0.26351  0.76349  0.73649  Biso   1.000  I
  I5940    1.0000 0.12502  0.62499  0.62499  Biso   1.000  I
  I5941    1.0000 0.12502  0.87498  0.87498  Biso   1.000  I
  I5942    1.0000 0.12502  0.12502  0.12502  Biso   1.000  I
  I5943    1.0000 0.12502  0.37501  0.37501  Biso   1.000  I
  I5944    1.0000 0.62499  0.37501  0.87498  Biso   1.000  I
  I5945    1.0000 0.87498  0.12502  0.87498  Biso   1.000  I
  I5946    1.0000 0.37501  0.62499  0.87498  Biso   1.000  I
  I5947    1.0000 0.26351  0.76349  0.73649  Biso   1.000  I
  I5948    1.0000 0.12502  0.62499  0.62499  Biso   1.000  I
  I5949    1.0000 0.12502  0.87498  0.87498  Biso   1.000  I
  I5950    1.0000 0.62499  0.87498  0.37501  Biso   1.000  I
  I5951    1.0000 0.87498  0.87498  0.12502  Biso   1.000  I
  I5952    1.0000 0.12502  0.62499  0.62499  Biso   1.000  I
  I5953    1.0000 0.26351  0.73649  0.76349  Biso   1.000  I
  I5954    1.0000 0.37501  0.87498  0.62499  Biso   1.000  I
  I5955    1.0000 0.12502  0.87498  0.87498  Biso   1.000  I
  I5956    1.0000 0.37501  0.62499  0.87498  Biso   1.000  I
  I5957    1.0000 0.23651  0.73649  0.73649  Biso   1.000  I
  I5958    1.0000 0.37501  0.87498  0.62499  Biso   1.000  I
  I5959    1.0000 0.12502  0.87498  0.87498  Biso   1.000  I
  I5960    1.0000 0.01352  0.51350  0.51350  Biso   1.000  I
  I5961    1.0000 0.51350  0.51350  0.01352  Biso   1.000  I
  I5962    1.0000 0.51350  0.98648  0.48650  Biso   1.000  I
  I5963    1.0000 0.98648  0.98648  0.01352  Biso   1.000  I
  I5964    1.0000 0.48650  0.98648  0.51350  Biso   1.000  I
  I5965    1.0000 0.48650  0.48650  0.01352  Biso   1.000  I
  I5966    1.0000 0.51350  0.98648  0.48650  Biso   1.000  I
  I5967    1.0000 0.98648  0.98648  0.01352  Biso   1.000  I
  I5968    1.0000 0.98648  0.98648  0.01352  Biso   1.000  I
  I5969    1.0000 0.51350  0.51350  0.01352  Biso   1.000  I
  I5970    1.0000 0.48650  0.98648  0.51350  Biso   1.000  I
  I5971    1.0000 0.48650  0.48650  0.01352  Biso   1.000  I
  I5972    1.0000 0.48650  0.98648  0.51350  Biso   1.000  I
  I5973    1.0000 0.01352  0.98648  0.98648  Biso   1.000  I
  I5974    1.0000 0.48650  0.98648  0.51350  Biso   1.000  I
  I5975    1.0000 0.01352  0.98648  0.98648  Biso   1.000  I
  I5976    1.0000 0.01352  0.48650  0.48650  Biso   1.000  I
  I5977    1.0000 0.51350  0.98648  0.48650  Biso   1.000  I
  I5978    1.0000 0.51350  0.98648  0.48650  Biso   1.000  I
  I5979    1.0000 0.98648  0.98648  0.01352  Biso   1.000  I
  I5980    1.0000 0.51350  0.51350  0.01352  Biso   1.000  I
  I5981    1.0000 0.48650  0.48650  0.01352  Biso   1.000  I
  I5982    1.0000 0.51350  0.48650  0.98648  Biso   1.000  I
  I5983    1.0000 0.51350  0.98648  0.48650  Biso   1.000  I
  I5984    1.0000 0.98648  0.98648  0.01352  Biso   1.000  I
  I5985    1.0000 0.48650  0.98648  0.51350  Biso   1.000  I
  I5986    1.0000 0.01352  0.98648  0.98648  Biso   1.000  I
  I5987    1.0000 0.98648  0.48650  0.51350  Biso   1.000  I
  I5988    1.0000 0.01352  0.51350  0.51350  Biso   1.000  I
  I5989    1.0000 0.01352  0.48650  0.48650  Biso   1.000  I
  I5990    1.0000 0.48650  0.98648  0.51350  Biso   1.000  I
  I5991    1.0000 0.51350  0.01352  0.51350  Biso   1.000  I
  I5992    1.0000 0.51350  0.98648  0.48650  Biso   1.000  I
  I5993    1.0000 0.98648  0.51350  0.48650  Biso   1.000  I
  I5994    1.0000 0.48650  0.51350  0.98648  Biso   1.000  I
  I5995    1.0000 0.98648  0.01352  0.98648  Biso   1.000  I
  I5996    1.0000 0.98648  0.48650  0.51350  Biso   1.000  I
  I5997    1.0000 0.98648  0.51350  0.48650  Biso   1.000  I
  I5998    1.0000 0.98648  0.98648  0.01352  Biso   1.000  I
  I5999    1.0000 0.98648  0.51350  0.48650  Biso   1.000  I
  I6000    1.0000 0.98648  0.98648  0.01352  Biso   1.000  I
  I6001    1.0000 0.48650  0.48650  0.01352  Biso   1.000  I
  I6002    1.0000 0.98648  0.48650  0.51350  Biso   1.000  I
  I6003    1.0000 0.98648  0.51350  0.48650  Biso   1.000  I
  I6004    1.0000 0.98648  0.98648  0.01352  Biso   1.000  I
  I6005    1.0000 0.48650  0.98648  0.51350  Biso   1.000  I
  I6006    1.0000 0.98648  0.48650  0.51350  Biso   1.000  I
  I6007    1.0000 0.98648  0.01352  0.98648  Biso   1.000  I
  I6008    1.0000 0.98648  0.48650  0.51350  Biso   1.000  I
  I6009    1.0000 0.98648  0.51350  0.48650  Biso   1.000  I
  I6010    1.0000 0.98648  0.98648  0.01352  Biso   1.000  I
  I6011    1.0000 0.48650  0.01352  0.48650  Biso   1.000  I
  I6012    1.0000 0.98648  0.01352  0.98648  Biso   1.000  I
  I6013    1.0000 0.98648  0.48650  0.51350  Biso   1.000  I
  I6014    1.0000 0.51350  0.01352  0.51350  Biso   1.000  I
  I6015    1.0000 0.51350  0.51350  0.01352  Biso   1.000  I
  I6016    1.0000 0.48650  0.48650  0.01352  Biso   1.000  I
  I6017    1.0000 0.98648  0.48650  0.51350  Biso   1.000  I
  I6018    1.0000 0.98648  0.51350  0.48650  Biso   1.000  I
  I6019    1.0000 0.48650  0.01352  0.48650  Biso   1.000  I
  I6020    1.0000 0.05779  0.05779  0.05779  Biso   1.000  I
  I6021    1.0000 0.44219  0.05779  0.44219  Biso   1.000  I
  I6022    1.0000 0.05779  0.44219  0.44219  Biso   1.000  I
  I6023    1.0000 0.05779  0.05779  0.05779  Biso   1.000  I
  I6024    1.0000 0.44219  0.05779  0.44219  Biso   1.000  I
  I6025    1.0000 0.94221  0.94221  0.05779  Biso   1.000  I
  I6026    1.0000 0.94221  0.55781  0.44219  Biso   1.000  I
  I6027    1.0000 0.94221  0.44219  0.55781  Biso   1.000  I
  I6028    1.0000 0.94221  0.05779  0.94221  Biso   1.000  I
  I6029    1.0000 0.55781  0.05779  0.55781  Biso   1.000  I
  I6030    1.0000 0.55781  0.44219  0.94221  Biso   1.000  I
  I6031    1.0000 0.94221  0.05779  0.94221  Biso   1.000  I
  I6032    1.0000 0.44219  0.55781  0.94221  Biso   1.000  I
  I6033    1.0000 0.05779  0.94221  0.94221  Biso   1.000  I
  I6034    1.0000 0.44219  0.55781  0.94221  Biso   1.000  I
  I6035    1.0000 0.05779  0.94221  0.94221  Biso   1.000  I
  I6036    1.0000 0.55781  0.44219  0.94221  Biso   1.000  I
  I6037    1.0000 0.94221  0.05779  0.94221  Biso   1.000  I
  I6038    1.0000 0.94221  0.44219  0.55781  Biso   1.000  I
  I6039    1.0000 0.55781  0.44219  0.94221  Biso   1.000  I
  I6040    1.0000 0.94221  0.05779  0.94221  Biso   1.000  I
  I6041    1.0000 0.44219  0.55781  0.94221  Biso   1.000  I
  I6042    1.0000 0.44219  0.94221  0.55781  Biso   1.000  I
  I6043    1.0000 0.05779  0.94221  0.94221  Biso   1.000  I
  I6044    1.0000 0.94221  0.44219  0.55781  Biso   1.000  I
  I6045    1.0000 0.55781  0.44219  0.94221  Biso   1.000  I
  I6046    1.0000 0.94221  0.05779  0.94221  Biso   1.000  I
  I6047    1.0000 0.44219  0.55781  0.94221  Biso   1.000  I
  I6048    1.0000 0.05779  0.94221  0.94221  Biso   1.000  I
  I6049    1.0000 0.55781  0.44219  0.94221  Biso   1.000  I
  I6050    1.0000 0.94221  0.05779  0.94221  Biso   1.000  I
  I6051    1.0000 0.55781  0.05779  0.55781  Biso   1.000  I
  I6052    1.0000 0.55781  0.44219  0.94221  Biso   1.000  I
  I6053    1.0000 0.94221  0.05779  0.94221  Biso   1.000  I
  I6054    1.0000 0.55781  0.05779  0.55781  Biso   1.000  I
  I6055    1.0000 0.44219  0.55781  0.94221  Biso   1.000  I
  I6056    1.0000 0.05779  0.55781  0.55781  Biso   1.000  I
  I6057    1.0000 0.05779  0.94221  0.94221  Biso   1.000  I
  I6058    1.0000 0.05779  0.05779  0.05779  Biso   1.000  I
  I6059    1.0000 0.05779  0.44219  0.44219  Biso   1.000  I
  I6060    1.0000 0.55781  0.44219  0.94221  Biso   1.000  I
  I6061    1.0000 0.94221  0.05779  0.94221  Biso   1.000  I
  I6062    1.0000 0.44219  0.55781  0.94221  Biso   1.000  I
  I6063    1.0000 0.05779  0.55781  0.55781  Biso   1.000  I
  I6064    1.0000 0.05779  0.94221  0.94221  Biso   1.000  I
  I6065    1.0000 0.55781  0.94221  0.44219  Biso   1.000  I
  I6066    1.0000 0.94221  0.94221  0.05779  Biso   1.000  I
  I6067    1.0000 0.05779  0.55781  0.55781  Biso   1.000  I
  I6068    1.0000 0.44219  0.94221  0.55781  Biso   1.000  I
  I6069    1.0000 0.05779  0.94221  0.94221  Biso   1.000  I
  I6070    1.0000 0.44219  0.55781  0.94221  Biso   1.000  I
  I6071    1.0000 0.44219  0.94221  0.55781  Biso   1.000  I
  I6072    1.0000 0.05779  0.94221  0.94221  Biso   1.000  I
  I6073    1.0000 0.55781  0.55781  0.05779  Biso   1.000  I
  I6074    1.0000 0.05779  0.55781  0.55781  Biso   1.000  I
  I6075    1.0000 0.55781  0.05779  0.55781  Biso   1.000  I
  I6076    1.0000 0.51350  0.01352  0.51350  Biso   1.000  I
  I6077    1.0000 0.01352  0.51350  0.51350  Biso   1.000  I
  I6078    1.0000 0.98648  0.01352  0.98648  Biso   1.000  I
  I6079    1.0000 0.51350  0.01352  0.51350  Biso   1.000  I
  I6080    1.0000 0.98648  0.01352  0.98648  Biso   1.000  I
  I6081    1.0000 0.98648  0.48650  0.51350  Biso   1.000  I
  I6082    1.0000 0.98648  0.51350  0.48650  Biso   1.000  I
  I6083    1.0000 0.48650  0.01352  0.48650  Biso   1.000  I
  I6084    1.0000 0.48650  0.51350  0.98648  Biso   1.000  I
  I6085    1.0000 0.01352  0.98648  0.98648  Biso   1.000  I
  I6086    1.0000 0.51350  0.48650  0.98648  Biso   1.000  I
  I6087    1.0000 0.98648  0.01352  0.98648  Biso   1.000  I
  I6088    1.0000 0.51350  0.48650  0.98648  Biso   1.000  I
  I6089    1.0000 0.98648  0.01352  0.98648  Biso   1.000  I
  I6090    1.0000 0.48650  0.51350  0.98648  Biso   1.000  I
  I6091    1.0000 0.01352  0.98648  0.98648  Biso   1.000  I
  I6092    1.0000 0.48650  0.51350  0.98648  Biso   1.000  I
  I6093    1.0000 0.01352  0.98648  0.98648  Biso   1.000  I
  I6094    1.0000 0.51350  0.48650  0.98648  Biso   1.000  I
  I6095    1.0000 0.98648  0.01352  0.98648  Biso   1.000  I
  I6096    1.0000 0.98648  0.51350  0.48650  Biso   1.000  I
  I6097    1.0000 0.48650  0.51350  0.98648  Biso   1.000  I
  I6098    1.0000 0.51350  0.48650  0.98648  Biso   1.000  I
  I6099    1.0000 0.98648  0.01352  0.98648  Biso   1.000  I
  I6100    1.0000 0.48650  0.51350  0.98648  Biso   1.000  I
  I6101    1.0000 0.48650  0.01352  0.48650  Biso   1.000  I
  I6102    1.0000 0.48650  0.51350  0.98648  Biso   1.000  I
  I6103    1.0000 0.48650  0.01352  0.48650  Biso   1.000  I
  I6104    1.0000 0.51350  0.48650  0.98648  Biso   1.000  I
  I6105    1.0000 0.01352  0.48650  0.48650  Biso   1.000  I
  I6106    1.0000 0.01352  0.98648  0.98648  Biso   1.000  I
  I6107    1.0000 0.01352  0.51350  0.51350  Biso   1.000  I
  I6108    1.0000 0.48650  0.51350  0.98648  Biso   1.000  I
  I6109    1.0000 0.01352  0.98648  0.98648  Biso   1.000  I
  I6110    1.0000 0.51350  0.48650  0.98648  Biso   1.000  I
  I6111    1.0000 0.01352  0.48650  0.48650  Biso   1.000  I
  I6112    1.0000 0.48650  0.98648  0.51350  Biso   1.000  I
  I6113    1.0000 0.01352  0.98648  0.98648  Biso   1.000  I
  I6114    1.0000 0.01352  0.48650  0.48650  Biso   1.000  I
  I6115    1.0000 0.51350  0.98648  0.48650  Biso   1.000  I
  I6116    1.0000 0.51350  0.48650  0.98648  Biso   1.000  I
  I6117    1.0000 0.51350  0.98648  0.48650  Biso   1.000  I
  I6118    1.0000 0.62499  0.62499  0.12502  Biso   1.000  I
  I6119    1.0000 0.12502  0.62499  0.62499  Biso   1.000  I
  I6120    1.0000 0.62499  0.12502  0.62499  Biso   1.000  I
  I6121    1.0000 0.69222  0.69222  0.19220  Biso   1.000  I
  I6122    1.0000 0.19220  0.69222  0.69222  Biso   1.000  I
  I6123    1.0000 0.69222  0.19220  0.69222  Biso   1.000  I
  I6124    1.0000 0.76349  0.73649  0.26351  Biso   1.000  I
  I6125    1.0000 0.76349  0.76349  0.23651  Biso   1.000  I
  I6126    1.0000 0.73649  0.76349  0.26351  Biso   1.000  I
  I6127    1.0000 0.23651  0.76349  0.76349  Biso   1.000  I
  I6128    1.0000 0.26351  0.76349  0.73649  Biso   1.000  I
  I6129    1.0000 0.26351  0.73649  0.76349  Biso   1.000  I
  I6130    1.0000 0.76349  0.23651  0.76349  Biso   1.000  I
  I6131    1.0000 0.73649  0.26351  0.76349  Biso   1.000  I
  I6132    1.0000 0.76349  0.26351  0.73649  Biso   1.000  I
  I6133    1.0000 0.69222  0.80780  0.30778  Biso   1.000  I
  I6134    1.0000 0.80780  0.80780  0.19220  Biso   1.000  I
  I6135    1.0000 0.80780  0.69222  0.30778  Biso   1.000  I
  I6136    1.0000 0.30778  0.69222  0.80780  Biso   1.000  I
  I6137    1.0000 0.30778  0.80780  0.69222  Biso   1.000  I
  I6138    1.0000 0.19220  0.80780  0.80780  Biso   1.000  I
  I6139    1.0000 0.80780  0.30778  0.69222  Biso   1.000  I
  I6140    1.0000 0.69222  0.30778  0.80780  Biso   1.000  I
  I6141    1.0000 0.80780  0.19220  0.80780  Biso   1.000  I
  I6142    1.0000 0.62499  0.87498  0.37501  Biso   1.000  I
  I6143    1.0000 0.73649  0.73649  0.23651  Biso   1.000  I
  I6144    1.0000 0.87498  0.87498  0.12502  Biso   1.000  I
  I6145    1.0000 0.87498  0.62499  0.37501  Biso   1.000  I
  I6146    1.0000 0.37501  0.62499  0.87498  Biso   1.000  I
  I6147    1.0000 0.23651  0.73649  0.73649  Biso   1.000  I
  I6148    1.0000 0.37501  0.87498  0.62499  Biso   1.000  I
  I6149    1.0000 0.12502  0.87498  0.87498  Biso   1.000  I
  I6150    1.0000 0.87498  0.37501  0.62499  Biso   1.000  I
  I6151    1.0000 0.73649  0.23651  0.73649  Biso   1.000  I
  I6152    1.0000 0.62499  0.37501  0.87498  Biso   1.000  I
  I6153    1.0000 0.87498  0.12502  0.87498  Biso   1.000  I
  I6154    1.0000 0.55781  0.94221  0.44219  Biso   1.000  I
  I6155    1.0000 0.94221  0.94221  0.05779  Biso   1.000  I
  I6156    1.0000 0.94221  0.55781  0.44219  Biso   1.000  I
  I6157    1.0000 0.44219  0.55781  0.94221  Biso   1.000  I
  I6158    1.0000 0.44219  0.94221  0.55781  Biso   1.000  I
  I6159    1.0000 0.05779  0.94221  0.94221  Biso   1.000  I
  I6160    1.0000 0.94221  0.44219  0.55781  Biso   1.000  I
  I6161    1.0000 0.55781  0.44219  0.94221  Biso   1.000  I
  I6162    1.0000 0.94221  0.05779  0.94221  Biso   1.000  I
  I6163    1.0000 0.48650  0.98648  0.51350  Biso   1.000  I
  I6164    1.0000 0.98648  0.48650  0.51350  Biso   1.000  I
  I6165    1.0000 0.51350  0.48650  0.98648  Biso   1.000  I
  I6166    1.0000 0.51350  0.98648  0.48650  Biso   1.000  I
  I6167    1.0000 0.98648  0.51350  0.48650  Biso   1.000  I
  I6168    1.0000 0.48650  0.51350  0.98648  Biso   1.000  I
