data_image0
_cell_length_a       19.976
_cell_length_b       15.118
_cell_length_c       21.472
_cell_angle_alpha    90
_cell_angle_beta     115.32
_cell_angle_gamma    90

_symmetry_space_group_name_H-M    "P 1"
_symmetry_int_tables_number       1

loop_
  _symmetry_equiv_pos_as_xyz
  'x, y, z'

loop_
  _atom_site_label
  _atom_site_occupancy
  _atom_site_fract_x
  _atom_site_fract_y
  _atom_site_fract_z
  _atom_site_thermal_displace_type
  _atom_site_B_iso_or_equiv
  _atom_site_type_symbol
  C1       1.0000 0.58566  0.54822  0.49224  Biso   1.000  C
  O1       1.0000 0.64044  0.51984  0.47091  Biso   1.000  O
  H1       1.0000 0.59888  0.52772  0.53938  Biso   1.000  H
  H2       1.0000 0.53751  0.52342  0.46133  Biso   1.000  H
  H3       1.0000 0.58280  0.61291  0.49080  Biso   1.000  H
  C2       1.0000 0.62998  0.54333  0.40548  Biso   1.000  C
  C3       1.0000 0.57384  0.59975  0.36328  Biso   1.000  C
  C4       1.0000 0.67901  0.50635  0.38178  Biso   1.000  C
  C5       1.0000 0.56401  0.61966  0.29682  Biso   1.000  C
  H4       1.0000 0.54150  0.62521  0.38039  Biso   1.000  H
  C6       1.0000 0.66980  0.52732  0.31557  Biso   1.000  C
  C7       1.0000 0.73891  0.44252  0.42572  Biso   1.000  C
  C8       1.0000 0.49998  0.67661  0.24998  Biso   1.000  C
  C9       1.0000 0.61331  0.58282  0.27337  Biso   1.000  C
  H5       1.0000 0.70290  0.50311  0.29883  Biso   1.000  H
  C10      1.0000 0.71437  0.34720  0.40872  Biso   1.000  C
  H6       1.0000 0.75169  0.45383  0.47488  Biso   1.000  H
  H7       1.0000 0.78391  0.45271  0.41820  Biso   1.000  H
  C11      1.0000 0.43595  0.61966  0.20315  Biso   1.000  C
  H8       1.0000 0.48362  0.71504  0.27822  Biso   1.000  H
  H9       1.0000 0.51641  0.71504  0.22180  Biso   1.000  H
  O2       1.0000 0.60161  0.60511  0.20732  Biso   1.000  O
  C12      1.0000 0.67624  0.30566  0.44175  Biso   1.000  C
  C13      1.0000 0.72821  0.29931  0.36009  Biso   1.000  C
  C14      1.0000 0.38665  0.58282  0.22659  Biso   1.000  C
  C15      1.0000 0.42612  0.59975  0.13669  Biso   1.000  C
  C16      1.0000 0.64683  0.56423  0.17991  Biso   1.000  C
  C17      1.0000 0.65345  0.21782  0.42779  Biso   1.000  C
  H10      1.0000 0.66548  0.33781  0.47441  Biso   1.000  H
  C18      1.0000 0.70773  0.21094  0.34757  Biso   1.000  C
  O3       1.0000 0.76413  0.34442  0.32716  Biso   1.000  O
  C19      1.0000 0.33019  0.52732  0.18445  Biso   1.000  C
  O4       1.0000 0.39837  0.60511  0.29270  Biso   1.000  O
  C20      1.0000 0.37005  0.54333  0.09454  Biso   1.000  C
  H11      1.0000 0.45851  0.62521  0.11958  Biso   1.000  H
  H12      1.0000 0.63336  0.58632  0.13318  Biso   1.000  H
  H13      1.0000 0.63949  0.50000  0.17852  Biso   1.000  H
  H14      1.0000 0.69889  0.57792  0.20908  Biso   1.000  H
  C21      1.0000 0.67061  0.16894  0.38126  Biso   1.000  C
  O5       1.0000 0.61512  0.17350  0.45808  Biso   1.000  O
  H15      1.0000 0.71928  0.17873  0.31552  Biso   1.000  H
  C22      1.0000 0.77571  0.29905  0.27394  Biso   1.000  C
  C23      1.0000 0.32095  0.50635  0.11819  Biso   1.000  C
  H16      1.0000 0.29708  0.50311  0.20119  Biso   1.000  H
  C24      1.0000 0.35320  0.56423  0.32011  Biso   1.000  C
  O6       1.0000 0.35955  0.51984  0.02911  Biso   1.000  O
  C25      1.0000 0.64689  0.07309  0.36550  Biso   1.000  C
  C26      1.0000 0.59223  0.22245  0.50239  Biso   1.000  C
  C27      1.0000 0.80809  0.36599  0.24256  Biso   1.000  C
  H17      1.0000 0.72827  0.27590  0.23870  Biso   1.000  H
  H18      1.0000 0.81029  0.24878  0.29352  Biso   1.000  H
  C28      1.0000 0.26108  0.44252  0.07429  Biso   1.000  C
  H19      1.0000 0.36660  0.58632  0.36678  Biso   1.000  H
  H20      1.0000 0.36050  0.50000  0.32150  Biso   1.000  H
  H21      1.0000 0.30107  0.57792  0.29089  Biso   1.000  H
  C29      1.0000 0.41432  0.54822  0.00778  Biso   1.000  C
  C30      1.0000 0.57085  0.06681  0.30527  Biso   1.000  C
  H22      1.0000 0.64547  0.04511  0.40661  Biso   1.000  H
  H23      1.0000 0.68341  0.04068  0.35421  Biso   1.000  H
  C31      1.0000 0.54441  0.16100  0.52130  Biso   1.000  C
  H24      1.0000 0.56377  0.27550  0.47848  Biso   1.000  H
  H25      1.0000 0.63579  0.24170  0.54422  Biso   1.000  H
  S1       1.0000 0.82863  0.32160  0.17517  Biso   1.000  S
  H26      1.0000 0.85417  0.39013  0.27920  Biso   1.000  H
  H27      1.0000 0.77279  0.41553  0.22381  Biso   1.000  H
  C32      1.0000 0.28559  0.34720  0.09125  Biso   1.000  C
  H28      1.0000 0.24827  0.45383  0.02509  Biso   1.000  H
  H29      1.0000 0.21613  0.45271  0.08182  Biso   1.000  H
  H30      1.0000 0.46247  0.52342  0.03869  Biso   1.000  H
  H31      1.0000 0.41719  0.61291  0.00922  Biso   1.000  H
  H32      1.0000 0.40108  0.52772  0.96059  Biso   1.000  H
  C33      1.0000 0.50739  0.06694  0.31686  Biso   1.000  C
  C34      1.0000 0.56273  0.06648  0.23762  Biso   1.000  C
  S2       1.0000 0.51988  0.21749  0.58251  Biso   1.000  S
  H33      1.0000 0.57171  0.10590  0.54180  Biso   1.000  H
  H34      1.0000 0.49921  0.14519  0.47972  Biso   1.000  H
  C35      1.0000 0.73907  0.31843  0.10222  Biso   1.000  C
  C36      1.0000 0.27175  0.29931  0.13988  Biso   1.000  C
  C37      1.0000 0.32372  0.30566  0.05822  Biso   1.000  C
  C38      1.0000 0.43731  0.06648  0.26240  Biso   1.000  C
  H35      1.0000 0.51210  0.06740  0.36282  Biso   1.000  H
  C39      1.0000 0.49259  0.06694  0.18316  Biso   1.000  C
  O7       1.0000 0.62745  0.06661  0.22901  Biso   1.000  O
  C40      1.0000 0.44264  0.15220  0.57859  Biso   1.000  C
  C41      1.0000 0.71830  0.22781  0.07512  Biso   1.000  C
  H36      1.0000 0.70129  0.34198  0.11608  Biso   1.000  H
  H37      1.0000 0.73996  0.35699  0.06528  Biso   1.000  H
  O8       1.0000 0.23585  0.34442  0.17286  Biso   1.000  O
  C42      1.0000 0.29223  0.21094  0.15240  Biso   1.000  C
  C43      1.0000 0.34653  0.21782  0.07223  Biso   1.000  C
  H38      1.0000 0.33451  0.33781  0.02561  Biso   1.000  H
  C44      1.0000 0.42911  0.06681  0.19470  Biso   1.000  C
  O9       1.0000 0.37253  0.06661  0.27100  Biso   1.000  O
  H39      1.0000 0.48788  0.06740  0.13720  Biso   1.000  H
  C45      1.0000 0.62058  0.06469  0.16049  Biso   1.000  C
  C46      1.0000 0.37561  0.14870  0.51228  Biso   1.000  C
  H40      1.0000 0.46027  0.09082  0.59178  Biso   1.000  H
  H41      1.0000 0.42767  0.17509  0.61399  Biso   1.000  H
  O10      1.0000 0.65302  0.23085  0.01195  Biso   1.000  O
  H42      1.0000 0.75921  0.20049  0.06729  Biso   1.000  H
  H43      1.0000 0.70931  0.19110  0.10902  Biso   1.000  H
  C47      1.0000 0.22427  0.29905  0.22608  Biso   1.000  C
  C48      1.0000 0.32935  0.16894  0.11871  Biso   1.000  C
  H44      1.0000 0.28070  0.17873  0.18450  Biso   1.000  H
  O11      1.0000 0.38487  0.17350  0.04194  Biso   1.000  O
  C49      1.0000 0.35314  0.07309  0.13452  Biso   1.000  C
  C50      1.0000 0.37943  0.06469  0.33948  Biso   1.000  C
  H45      1.0000 0.66997  0.06489  0.16121  Biso   1.000  H
  H46      1.0000 0.59288  0.11688  0.13550  Biso   1.000  H
  H47      1.0000 0.59410  0.01098  0.13741  Biso   1.000  H
  O12      1.0000 0.34696  0.23085  0.48807  Biso   1.000  O
  H48      1.0000 0.38811  0.11880  0.47761  Biso   1.000  H
  H49      1.0000 0.33739  0.11271  0.51831  Biso   1.000  H
  C51      1.0000 0.62435  0.14870  0.98769  Biso   1.000  C
  H50      1.0000 0.27171  0.27590  0.26132  Biso   1.000  H
  H51      1.0000 0.18969  0.24878  0.20650  Biso   1.000  H
  C52      1.0000 0.19189  0.36599  0.25745  Biso   1.000  C
  C53      1.0000 0.40773  0.22245  0.99758  Biso   1.000  C
  H52      1.0000 0.35451  0.04511  0.09341  Biso   1.000  H
  H53      1.0000 0.31658  0.04068  0.14581  Biso   1.000  H
  H54      1.0000 0.33001  0.06489  0.33881  Biso   1.000  H
  H55      1.0000 0.40711  0.11688  0.36452  Biso   1.000  H
  H56      1.0000 0.40588  0.01098  0.36261  Biso   1.000  H
  C54      1.0000 0.28168  0.22781  0.42490  Biso   1.000  C
  C55      1.0000 0.55739  0.15220  0.92143  Biso   1.000  C
  H57      1.0000 0.61187  0.11880  0.02241  Biso   1.000  H
  H58      1.0000 0.66260  0.11271  0.98171  Biso   1.000  H
  S3       1.0000 0.17136  0.32160  0.32485  Biso   1.000  S
  H59      1.0000 0.14582  0.39013  0.22082  Biso   1.000  H
  H60      1.0000 0.22719  0.41553  0.27621  Biso   1.000  H
  H61      1.0000 0.43619  0.27550  0.02148  Biso   1.000  H
  C56      1.0000 0.45563  0.16100  0.97872  Biso   1.000  C
  H62      1.0000 0.36419  0.24170  0.95579  Biso   1.000  H
  C57      1.0000 0.26091  0.31843  0.39780  Biso   1.000  C
  H63      1.0000 0.24080  0.20049  0.43268  Biso   1.000  H
  H64      1.0000 0.29068  0.19110  0.39100  Biso   1.000  H
  S4       1.0000 0.48010  0.21749  0.91751  Biso   1.000  S
  H65      1.0000 0.53969  0.09082  0.90819  Biso   1.000  H
  H66      1.0000 0.57229  0.17509  0.88598  Biso   1.000  H
  H67      1.0000 0.50077  0.14519  0.02030  Biso   1.000  H
  H68      1.0000 0.42828  0.10590  0.95822  Biso   1.000  H
  H69      1.0000 0.29867  0.34198  0.38389  Biso   1.000  H
  H70      1.0000 0.26000  0.35699  0.43469  Biso   1.000  H
  C58      1.0000 0.41433  0.45178  0.50775  Biso   1.000  C
  O13      1.0000 0.35958  0.48016  0.52913  Biso   1.000  O
  H71      1.0000 0.40112  0.47228  0.46060  Biso   1.000  H
  H72      1.0000 0.46250  0.47658  0.53871  Biso   1.000  H
  H73      1.0000 0.41720  0.38709  0.50919  Biso   1.000  H
  C59      1.0000 0.37004  0.45667  0.59456  Biso   1.000  C
  C60      1.0000 0.32099  0.49372  0.61821  Biso   1.000  C
  C61      1.0000 0.42616  0.40032  0.63671  Biso   1.000  C
  C62      1.0000 0.26111  0.55748  0.57431  Biso   1.000  C
  C63      1.0000 0.33017  0.47275  0.68447  Biso   1.000  C
  C64      1.0000 0.43593  0.38041  0.70317  Biso   1.000  C
  H74      1.0000 0.45849  0.37479  0.61960  Biso   1.000  H
  C65      1.0000 0.28557  0.65280  0.59126  Biso   1.000  C
  H75      1.0000 0.24830  0.54624  0.52511  Biso   1.000  H
  H76      1.0000 0.21609  0.54729  0.58178  Biso   1.000  H
  H77      1.0000 0.29712  0.49689  0.70121  Biso   1.000  H
  C66      1.0000 0.38669  0.41718  0.72661  Biso   1.000  C
  C67      1.0000 0.50001  0.32339  0.75000  Biso   1.000  C
  C68      1.0000 0.27179  0.70069  0.63990  Biso   1.000  C
  C69      1.0000 0.32375  0.69434  0.55824  Biso   1.000  C
  O14      1.0000 0.39840  0.39489  0.79271  Biso   1.000  O
  H78      1.0000 0.51639  0.28502  0.72182  Biso   1.000  H
  H79      1.0000 0.48358  0.28502  0.77819  Biso   1.000  H
  C70      1.0000 0.56404  0.38041  0.79684  Biso   1.000  C
  O15      1.0000 0.23586  0.65564  0.67282  Biso   1.000  O
  C71      1.0000 0.29226  0.78906  0.65242  Biso   1.000  C
  C72      1.0000 0.34652  0.78218  0.57225  Biso   1.000  C
  H80      1.0000 0.33449  0.66219  0.52563  Biso   1.000  H
  C73      1.0000 0.35316  0.43584  0.82007  Biso   1.000  C
  C74      1.0000 0.61334  0.41718  0.77339  Biso   1.000  C
  C75      1.0000 0.57382  0.40032  0.86330  Biso   1.000  C
  C76      1.0000 0.22426  0.70102  0.72610  Biso   1.000  C
  C77      1.0000 0.32938  0.83106  0.61873  Biso   1.000  C
  H81      1.0000 0.28068  0.82134  0.68452  Biso   1.000  H
  O16      1.0000 0.38488  0.82650  0.54191  Biso   1.000  O
  H82      1.0000 0.36658  0.41368  0.86680  Biso   1.000  H
  H83      1.0000 0.36048  0.50000  0.82152  Biso   1.000  H
  H84      1.0000 0.30111  0.42208  0.79091  Biso   1.000  H
  O17      1.0000 0.60162  0.39489  0.70729  Biso   1.000  O
  C78      1.0000 0.66981  0.47275  0.81554  Biso   1.000  C
  H85      1.0000 0.54149  0.37479  0.88040  Biso   1.000  H
  C79      1.0000 0.62994  0.45667  0.90544  Biso   1.000  C
  H86      1.0000 0.27167  0.72410  0.76129  Biso   1.000  H
  H87      1.0000 0.18973  0.75122  0.70652  Biso   1.000  H
  C80      1.0000 0.19190  0.63408  0.75742  Biso   1.000  C
  C81      1.0000 0.35310  0.92691  0.63449  Biso   1.000  C
  C82      1.0000 0.40771  0.77755  0.49760  Biso   1.000  C
  C83      1.0000 0.64682  0.43584  0.67993  Biso   1.000  C
  C84      1.0000 0.67899  0.49372  0.88180  Biso   1.000  C
  H88      1.0000 0.70291  0.49689  0.79879  Biso   1.000  H
  O18      1.0000 0.64040  0.48016  0.97088  Biso   1.000  O
  S5       1.0000 0.17139  0.67840  0.82486  Biso   1.000  S
  H89      1.0000 0.14578  0.60994  0.72079  Biso   1.000  H
  H90      1.0000 0.22723  0.58453  0.77623  Biso   1.000  H
  H91      1.0000 0.35450  0.95489  0.59343  Biso   1.000  H
  H92      1.0000 0.31661  0.95932  0.64583  Biso   1.000  H
  C85      1.0000 0.42915  0.93319  0.69472  Biso   1.000  C
  C86      1.0000 0.45561  0.83900  0.47874  Biso   1.000  C
  H93      1.0000 0.43617  0.72450  0.52150  Biso   1.000  H
  H94      1.0000 0.36422  0.75830  0.45581  Biso   1.000  H
  H95      1.0000 0.63340  0.41368  0.63320  Biso   1.000  H
  H96      1.0000 0.63950  0.50000  0.67849  Biso   1.000  H
  H97      1.0000 0.69887  0.42208  0.70909  Biso   1.000  H
  C87      1.0000 0.73887  0.55748  0.92569  Biso   1.000  C
  C88      1.0000 0.58565  0.45178  0.99226  Biso   1.000  C
  C89      1.0000 0.26090  0.68164  0.89782  Biso   1.000  C
  C90      1.0000 0.49260  0.93306  0.68313  Biso   1.000  C
  C91      1.0000 0.43729  0.93352  0.76242  Biso   1.000  C
  S6       1.0000 0.48006  0.78251  0.41748  Biso   1.000  S
  H98      1.0000 0.42829  0.89410  0.45818  Biso   1.000  H
  H99      1.0000 0.50081  0.85481  0.52032  Biso   1.000  H
  C92      1.0000 0.71441  0.65280  0.90874  Biso   1.000  C
  H100     1.0000 0.75168  0.54624  0.97490  Biso   1.000  H
  H101     1.0000 0.78389  0.54729  0.91822  Biso   1.000  H
  H102     1.0000 0.53747  0.47658  0.96129  Biso   1.000  H
  H103     1.0000 0.58278  0.38709  0.99082  Biso   1.000  H
  H104     1.0000 0.59891  0.47228  0.03940  Biso   1.000  H
  H105     1.0000 0.29871  0.65802  0.88391  Biso   1.000  H
  H106     1.0000 0.25998  0.64301  0.93471  Biso   1.000  H
  C93      1.0000 0.28172  0.77219  0.92492  Biso   1.000  C
  H107     1.0000 0.48792  0.93260  0.63722  Biso   1.000  H
  C94      1.0000 0.56269  0.93352  0.73759  Biso   1.000  C
  O19      1.0000 0.37254  0.93339  0.77097  Biso   1.000  O
  C95      1.0000 0.50738  0.93306  0.81688  Biso   1.000  C
  C96      1.0000 0.55735  0.84780  0.42140  Biso   1.000  C
  C97      1.0000 0.72819  0.70069  0.86011  Biso   1.000  C
  C98      1.0000 0.67622  0.69434  0.94177  Biso   1.000  C
  O20      1.0000 0.34695  0.76915  0.98809  Biso   1.000  O
  H108     1.0000 0.24079  0.79951  0.93270  Biso   1.000  H
  H109     1.0000 0.29071  0.80890  0.89102  Biso   1.000  H
  O21      1.0000 0.62744  0.93339  0.72903  Biso   1.000  O
  C99      1.0000 0.57088  0.93319  0.80529  Biso   1.000  C
  C100     1.0000 0.37941  0.93531  0.83950  Biso   1.000  C
  H110     1.0000 0.51206  0.93260  0.86278  Biso   1.000  H
  C101     1.0000 0.62438  0.85130  0.48771  Biso   1.000  C
  H111     1.0000 0.53968  0.90918  0.40821  Biso   1.000  H
  H112     1.0000 0.57227  0.82491  0.38600  Biso   1.000  H
  O22      1.0000 0.76412  0.65564  0.82718  Biso   1.000  O
  C102     1.0000 0.70777  0.78906  0.84759  Biso   1.000  C
  C103     1.0000 0.65346  0.78218  0.92775  Biso   1.000  C
  H113     1.0000 0.66549  0.66219  0.97438  Biso   1.000  H
  C104     1.0000 0.37560  0.85130  0.01230  Biso   1.000  C
  C105     1.0000 0.62057  0.93531  0.66051  Biso   1.000  C
  C106     1.0000 0.64688  0.92691  0.86551  Biso   1.000  C
  H114     1.0000 0.32999  0.93511  0.83883  Biso   1.000  H
  H115     1.0000 0.40707  0.88312  0.86448  Biso   1.000  H
  H116     1.0000 0.40591  0.98902  0.86263  Biso   1.000  H
  O23      1.0000 0.65303  0.76915  0.51192  Biso   1.000  O
  H117     1.0000 0.61188  0.88120  0.52238  Biso   1.000  H
  H118     1.0000 0.66256  0.88729  0.48168  Biso   1.000  H
  C107     1.0000 0.77572  0.70102  0.77391  Biso   1.000  C
  C108     1.0000 0.67059  0.83106  0.88128  Biso   1.000  C
  H119     1.0000 0.71929  0.82134  0.81549  Biso   1.000  H
  O24      1.0000 0.61515  0.82650  0.95810  Biso   1.000  O
  H120     1.0000 0.38809  0.88120  0.97763  Biso   1.000  H
  H121     1.0000 0.33742  0.88729  0.01833  Biso   1.000  H
  C109     1.0000 0.44262  0.84780  0.07861  Biso   1.000  C
  H122     1.0000 0.66998  0.93511  0.66118  Biso   1.000  H
  H123     1.0000 0.59291  0.88312  0.63552  Biso   1.000  H
  H124     1.0000 0.59409  0.98902  0.63743  Biso   1.000  H
  H125     1.0000 0.64550  0.95489  0.90663  Biso   1.000  H
  H126     1.0000 0.68337  0.95932  0.85418  Biso   1.000  H
  C110     1.0000 0.71831  0.77219  0.57509  Biso   1.000  C
  H127     1.0000 0.72831  0.72410  0.73872  Biso   1.000  H
  H128     1.0000 0.81030  0.75122  0.79349  Biso   1.000  H
  C111     1.0000 0.80813  0.63408  0.74258  Biso   1.000  C
  C112     1.0000 0.59227  0.77755  0.00241  Biso   1.000  C
  S7       1.0000 0.51992  0.78251  0.08252  Biso   1.000  S
  H129     1.0000 0.46030  0.90918  0.09180  Biso   1.000  H
  H130     1.0000 0.42771  0.82491  0.11400  Biso   1.000  H
  H131     1.0000 0.75919  0.79951  0.56731  Biso   1.000  H
  H132     1.0000 0.70927  0.80890  0.60899  Biso   1.000  H
  C113     1.0000 0.73910  0.68164  0.60224  Biso   1.000  C
  S8       1.0000 0.82859  0.67840  0.67514  Biso   1.000  S
  H133     1.0000 0.85420  0.60994  0.77922  Biso   1.000  H
  H134     1.0000 0.77280  0.58453  0.72378  Biso   1.000  H
  H135     1.0000 0.56381  0.72450  0.97850  Biso   1.000  H
  C114     1.0000 0.54437  0.83900  0.02127  Biso   1.000  C
  H136     1.0000 0.63580  0.75830  0.04419  Biso   1.000  H
  H137     1.0000 0.70127  0.65802  0.61610  Biso   1.000  H
  H138     1.0000 0.73999  0.64301  0.56530  Biso   1.000  H
  H139     1.0000 0.49917  0.85481  0.97969  Biso   1.000  H
  H140     1.0000 0.57169  0.89410  0.04182  Biso   1.000  H
  C115     1.0000 0.78168  0.72781  0.42490  Biso   1.000  C
  C116     1.0000 0.76091  0.81843  0.39780  Biso   1.000  C
  O25      1.0000 0.84696  0.73085  0.48807  Biso   1.000  O
  H141     1.0000 0.74080  0.70049  0.43268  Biso   1.000  H
  H142     1.0000 0.79073  0.69110  0.39100  Biso   1.000  H
  H143     1.0000 0.74075  0.70049  0.43268  Biso   1.000  H
  H144     1.0000 0.79068  0.69110  0.39100  Biso   1.000  H
  S9       1.0000 0.67136  0.82160  0.32485  Biso   1.000  S
  S10      1.0000 0.67141  0.82160  0.32485  Biso   1.000  S
  H145     1.0000 0.79872  0.84204  0.38389  Biso   1.000  H
  H146     1.0000 0.76000  0.85699  0.43469  Biso   1.000  H
  H147     1.0000 0.79867  0.84204  0.38389  Biso   1.000  H
  C117     1.0000 0.87561  0.64870  0.51228  Biso   1.000  C
  C118     1.0000 0.69189  0.86599  0.25745  Biso   1.000  C
  H148     1.0000 0.88811  0.61880  0.47761  Biso   1.000  H
  H149     1.0000 0.83739  0.61271  0.51831  Biso   1.000  H
  C119     1.0000 0.94264  0.65220  0.57859  Biso   1.000  C
  C120     1.0000 0.94259  0.65220  0.57859  Biso   1.000  C
  C121     1.0000 0.72427  0.79905  0.22608  Biso   1.000  C
  H150     1.0000 0.64582  0.89013  0.22082  Biso   1.000  H
  H151     1.0000 0.72719  0.91553  0.27621  Biso   1.000  H
  H152     1.0000 0.96027  0.59082  0.59178  Biso   1.000  H
  H153     1.0000 0.92767  0.67509  0.61399  Biso   1.000  H
  S11      1.0000 0.01993  0.71749  0.58251  Biso   1.000  S
  S12      1.0000 0.01988  0.71749  0.58251  Biso   1.000  S
  O26      1.0000 0.73585  0.84442  0.17286  Biso   1.000  O
  H154     1.0000 0.77171  0.77590  0.26132  Biso   1.000  H
  H155     1.0000 0.68969  0.74884  0.20650  Biso   1.000  H
  C122     1.0000 0.04441  0.66100  0.52130  Biso   1.000  C
  C123     1.0000 0.04436  0.66100  0.52130  Biso   1.000  C
  C124     1.0000 0.77180  0.79931  0.13988  Biso   1.000  C
  C125     1.0000 0.77175  0.79931  0.13988  Biso   1.000  C
  H156     1.0000 0.99921  0.64519  0.47972  Biso   1.000  H
  H157     1.0000 0.07171  0.60590  0.54180  Biso   1.000  H
  C126     1.0000 0.09228  0.72245  0.50239  Biso   1.000  C
  C127     1.0000 0.09223  0.72245  0.50239  Biso   1.000  C
  C128     1.0000 0.79223  0.71094  0.15240  Biso   1.000  C
  C129     1.0000 0.78559  0.84720  0.09125  Biso   1.000  C
  O27      1.0000 0.11512  0.67357  0.45808  Biso   1.000  O
  H158     1.0000 0.06377  0.77550  0.47848  Biso   1.000  H
  H159     1.0000 0.13579  0.74170  0.54422  Biso   1.000  H
  C130     1.0000 0.82940  0.66894  0.11871  Biso   1.000  C
  H160     1.0000 0.78070  0.67873  0.18450  Biso   1.000  H
  C131     1.0000 0.82935  0.66894  0.11871  Biso   1.000  C
  C132     1.0000 0.82372  0.80566  0.05822  Biso   1.000  C
  C133     1.0000 0.76113  0.94252  0.07429  Biso   1.000  C
  C134     1.0000 0.76108  0.94252  0.07429  Biso   1.000  C
  C135     1.0000 0.15350  0.71782  0.42779  Biso   1.000  C
  C136     1.0000 0.15345  0.71782  0.42779  Biso   1.000  C
  C137     1.0000 0.84653  0.71782  0.07223  Biso   1.000  C
  C138     1.0000 0.85314  0.57309  0.13452  Biso   1.000  C
  C139     1.0000 0.85309  0.57309  0.13452  Biso   1.000  C
  H161     1.0000 0.83451  0.83781  0.02561  Biso   1.000  H
  H162     1.0000 0.74832  0.95383  0.02509  Biso   1.000  H
  H163     1.0000 0.71613  0.95271  0.08182  Biso   1.000  H
  H164     1.0000 0.74827  0.95383  0.02509  Biso   1.000  H
  H165     1.0000 0.71608  0.95271  0.08182  Biso   1.000  H
  C140     1.0000 0.82095  0.00635  0.11819  Biso   1.000  C
  C141     1.0000 0.17061  0.66894  0.38126  Biso   1.000  C
  C142     1.0000 0.17624  0.80566  0.44175  Biso   1.000  C
  O28      1.0000 0.88487  0.67357  0.04194  Biso   1.000  O
  H166     1.0000 0.85451  0.54511  0.09341  Biso   1.000  H
  H167     1.0000 0.81663  0.54068  0.14581  Biso   1.000  H
  C143     1.0000 0.92911  0.56681  0.19470  Biso   1.000  C
  H168     1.0000 0.81658  0.54068  0.14581  Biso   1.000  H
  C144     1.0000 0.83019  0.02732  0.18445  Biso   1.000  C
  C145     1.0000 0.87005  0.04333  0.09454  Biso   1.000  C
  C146     1.0000 0.87000  0.04333  0.09454  Biso   1.000  C
  C147     1.0000 0.14689  0.57309  0.36550  Biso   1.000  C
  C148     1.0000 0.14684  0.57309  0.36550  Biso   1.000  C
  C149     1.0000 0.20773  0.71094  0.34757  Biso   1.000  C
  C150     1.0000 0.21442  0.84720  0.40872  Biso   1.000  C
  H169     1.0000 0.16553  0.83781  0.47441  Biso   1.000  H
  C151     1.0000 0.21437  0.84720  0.40872  Biso   1.000  C
  H170     1.0000 0.16548  0.83781  0.47441  Biso   1.000  H
  C152     1.0000 0.90773  0.72245  0.99758  Biso   1.000  C
  C153     1.0000 0.93731  0.56648  0.26240  Biso   1.000  C
  C154     1.0000 0.99264  0.56701  0.18316  Biso   1.000  C
  C155     1.0000 0.93726  0.56648  0.26240  Biso   1.000  C
  C156     1.0000 0.99259  0.56701  0.18316  Biso   1.000  C
  H171     1.0000 0.79708  0.00311  0.20119  Biso   1.000  H
  C157     1.0000 0.88665  0.08282  0.22659  Biso   1.000  C
  O29      1.0000 0.85955  0.01984  0.02911  Biso   1.000  O
  C158     1.0000 0.92612  0.09975  0.13669  Biso   1.000  C
  C159     1.0000 0.07085  0.56681  0.30527  Biso   1.000  C
  H172     1.0000 0.14552  0.54511  0.40661  Biso   1.000  H
  H173     1.0000 0.18341  0.54068  0.35421  Biso   1.000  H
  H174     1.0000 0.14547  0.54511  0.40661  Biso   1.000  H
  H175     1.0000 0.21928  0.67873  0.31552  Biso   1.000  H
  C160     1.0000 0.22821  0.79931  0.36009  Biso   1.000  C
  C161     1.0000 0.23891  0.94252  0.42572  Biso   1.000  C
  H176     1.0000 0.93619  0.77550  0.02148  Biso   1.000  H
  C162     1.0000 0.95563  0.66100  0.97872  Biso   1.000  C
  H177     1.0000 0.86419  0.74170  0.95579  Biso   1.000  H
  O30      1.0000 0.87258  0.56661  0.27100  Biso   1.000  O
  O31      1.0000 0.87253  0.56661  0.27100  Biso   1.000  O
  C163     1.0000 0.00739  0.56701  0.31686  Biso   1.000  C
  H178     1.0000 0.98788  0.56740  0.13720  Biso   1.000  H
  C164     1.0000 0.06273  0.56648  0.23762  Biso   1.000  C
  C165     1.0000 0.06268  0.56648  0.23762  Biso   1.000  C
  O32      1.0000 0.89837  0.10511  0.29270  Biso   1.000  O
  C166     1.0000 0.93595  0.11966  0.20315  Biso   1.000  C
  C167     1.0000 0.91432  0.04822  0.00778  Biso   1.000  C
  H179     1.0000 0.95851  0.12521  0.11958  Biso   1.000  H
  H180     1.0000 0.95846  0.12521  0.11958  Biso   1.000  H
  O33      1.0000 0.26413  0.84442  0.32716  Biso   1.000  O
  H181     1.0000 0.25169  0.95383  0.47488  Biso   1.000  H
  H182     1.0000 0.28391  0.95271  0.41820  Biso   1.000  H
  H183     1.0000 0.28386  0.95271  0.41820  Biso   1.000  H
  C168     1.0000 0.17901  0.00635  0.38178  Biso   1.000  C
  S13      1.0000 0.98010  0.71749  0.91751  Biso   1.000  S
  H184     1.0000 0.92833  0.60590  0.95822  Biso   1.000  H
  H185     1.0000 0.92828  0.60590  0.95822  Biso   1.000  H
  H186     1.0000 0.00082  0.64519  0.02030  Biso   1.000  H
  H187     1.0000 0.00077  0.64519  0.02030  Biso   1.000  H
  C169     1.0000 0.87943  0.56469  0.33948  Biso   1.000  C
  C170     1.0000 0.87938  0.56469  0.33948  Biso   1.000  C
  H188     1.0000 0.01210  0.56740  0.36282  Biso   1.000  H
  O34      1.0000 0.12745  0.56661  0.22901  Biso   1.000  O
  C171     1.0000 0.85320  0.06423  0.32011  Biso   1.000  C
  C172     1.0000 0.85315  0.06423  0.32011  Biso   1.000  C
  C173     1.0000 0.99998  0.17661  0.24998  Biso   1.000  C
  H189     1.0000 0.90108  0.02772  0.96059  Biso   1.000  H
  H190     1.0000 0.96252  0.02342  0.03869  Biso   1.000  H
  H191     1.0000 0.91724  0.11291  0.00922  Biso   1.000  H
  H192     1.0000 0.96247  0.02342  0.03869  Biso   1.000  H
  H193     1.0000 0.91719  0.11291  0.00922  Biso   1.000  H
  C174     1.0000 0.27571  0.79905  0.27394  Biso   1.000  C
  C175     1.0000 0.16985  0.02732  0.31557  Biso   1.000  C
  C176     1.0000 0.16980  0.02732  0.31557  Biso   1.000  C
  C177     1.0000 0.12998  0.04333  0.40548  Biso   1.000  C
  C178     1.0000 0.12993  0.04333  0.40548  Biso   1.000  C
  C179     1.0000 0.05739  0.65220  0.92143  Biso   1.000  C
  H194     1.0000 0.83001  0.56489  0.33881  Biso   1.000  H
  H195     1.0000 0.90711  0.61688  0.36452  Biso   1.000  H
  H196     1.0000 0.90593  0.51098  0.36261  Biso   1.000  H
  H197     1.0000 0.90588  0.51098  0.36261  Biso   1.000  H
  C180     1.0000 0.12058  0.56469  0.16049  Biso   1.000  C
  C181     1.0000 0.12053  0.56469  0.16049  Biso   1.000  C
  H198     1.0000 0.86050  0.00000  0.32150  Biso   1.000  H
  H199     1.0000 0.86660  0.08632  0.36678  Biso   1.000  H
  H200     1.0000 0.80107  0.07792  0.29089  Biso   1.000  H
  H201     1.0000 0.98362  0.21504  0.27822  Biso   1.000  H
  H202     1.0000 0.98357  0.21504  0.27822  Biso   1.000  H
  C182     1.0000 0.06401  0.11966  0.29682  Biso   1.000  C
  H203     1.0000 0.01641  0.21504  0.22180  Biso   1.000  H
  H204     1.0000 0.22827  0.77590  0.23870  Biso   1.000  H
  H205     1.0000 0.31029  0.74884  0.29352  Biso   1.000  H
  C183     1.0000 0.30809  0.86599  0.24256  Biso   1.000  C
  C184     1.0000 0.11331  0.08282  0.27337  Biso   1.000  C
  H206     1.0000 0.20290  0.00311  0.29883  Biso   1.000  H
  C185     1.0000 0.07384  0.09975  0.36328  Biso   1.000  C
  O35      1.0000 0.14044  0.01984  0.47091  Biso   1.000  O
  C186     1.0000 0.12440  0.64870  0.98769  Biso   1.000  C
  H207     1.0000 0.03969  0.59082  0.90819  Biso   1.000  H
  H208     1.0000 0.07229  0.67509  0.88598  Biso   1.000  H
  C187     1.0000 0.12435  0.64870  0.98769  Biso   1.000  C
  H209     1.0000 0.17002  0.56489  0.16121  Biso   1.000  H
  H210     1.0000 0.09288  0.61688  0.13550  Biso   1.000  H
  H211     1.0000 0.09410  0.51098  0.13741  Biso   1.000  H
  H212     1.0000 0.16997  0.56489  0.16121  Biso   1.000  H
  S14      1.0000 0.32863  0.82160  0.17517  Biso   1.000  S
  H213     1.0000 0.35417  0.89013  0.27920  Biso   1.000  H
  H214     1.0000 0.27279  0.91553  0.22381  Biso   1.000  H
  O36      1.0000 0.10161  0.10511  0.20732  Biso   1.000  O
  H215     1.0000 0.04150  0.12521  0.38039  Biso   1.000  H
  H216     1.0000 0.04145  0.12521  0.38039  Biso   1.000  H
  C188     1.0000 0.08566  0.04822  0.49224  Biso   1.000  C
  H217     1.0000 0.16260  0.61271  0.98171  Biso   1.000  H
  O37      1.0000 0.15307  0.73085  0.01195  Biso   1.000  O
  H218     1.0000 0.11192  0.61880  0.02241  Biso   1.000  H
  O38      1.0000 0.15302  0.73085  0.01195  Biso   1.000  O
  H219     1.0000 0.11187  0.61880  0.02241  Biso   1.000  H
  C189     1.0000 0.23912  0.81843  0.10222  Biso   1.000  C
  C190     1.0000 0.23907  0.81843  0.10222  Biso   1.000  C
  C191     1.0000 0.14683  0.06423  0.17991  Biso   1.000  C
  H220     1.0000 0.09888  0.02772  0.53938  Biso   1.000  H
  H221     1.0000 0.03751  0.02342  0.46133  Biso   1.000  H
  H222     1.0000 0.08280  0.11291  0.49080  Biso   1.000  H
  C192     1.0000 0.21830  0.72781  0.07512  Biso   1.000  C
  H223     1.0000 0.20129  0.84204  0.11608  Biso   1.000  H
  H224     1.0000 0.24001  0.85699  0.06528  Biso   1.000  H
  H225     1.0000 0.23996  0.85699  0.06528  Biso   1.000  H
  H226     1.0000 0.13949  0.00000  0.17852  Biso   1.000  H
  H227     1.0000 0.13341  0.08632  0.13318  Biso   1.000  H
  H228     1.0000 0.19889  0.07792  0.20908  Biso   1.000  H
  H229     1.0000 0.13336  0.08632  0.13318  Biso   1.000  H
  H230     1.0000 0.25921  0.70049  0.06729  Biso   1.000  H
  H231     1.0000 0.20931  0.69110  0.10902  Biso   1.000  H
  H232     1.0000 0.25916  0.70049  0.06729  Biso   1.000  H
  C193     1.0000 0.78168  0.72781  0.42490  Biso   1.000  C
  O39      1.0000 0.84696  0.73085  0.48807  Biso   1.000  O
  C194     1.0000 0.76091  0.81843  0.39780  Biso   1.000  C
  H233     1.0000 0.74080  0.70049  0.43268  Biso   1.000  H
  H234     1.0000 0.79073  0.69110  0.39100  Biso   1.000  H
  H235     1.0000 0.74075  0.70049  0.43268  Biso   1.000  H
  H236     1.0000 0.79068  0.69110  0.39100  Biso   1.000  H
  C195     1.0000 0.87561  0.64870  0.51228  Biso   1.000  C
  H237     1.0000 0.76000  0.85699  0.43469  Biso   1.000  H
  S15      1.0000 0.67141  0.82160  0.32485  Biso   1.000  S
  H238     1.0000 0.79872  0.84204  0.38389  Biso   1.000  H
  S16      1.0000 0.67136  0.82160  0.32485  Biso   1.000  S
  H239     1.0000 0.79867  0.84204  0.38389  Biso   1.000  H
  H240     1.0000 0.88811  0.61880  0.47761  Biso   1.000  H
  H241     1.0000 0.83739  0.61271  0.51831  Biso   1.000  H
  C196     1.0000 0.94264  0.65220  0.57859  Biso   1.000  C
  C197     1.0000 0.94259  0.65220  0.57859  Biso   1.000  C
  C198     1.0000 0.69189  0.86599  0.25745  Biso   1.000  C
  H242     1.0000 0.96027  0.59082  0.59178  Biso   1.000  H
  H243     1.0000 0.92767  0.67509  0.61399  Biso   1.000  H
  S17      1.0000 0.01993  0.71749  0.58251  Biso   1.000  S
  S18      1.0000 0.01988  0.71749  0.58251  Biso   1.000  S
  C199     1.0000 0.72427  0.79905  0.22608  Biso   1.000  C
  H244     1.0000 0.64582  0.89013  0.22082  Biso   1.000  H
  H245     1.0000 0.72719  0.91553  0.27621  Biso   1.000  H
  C200     1.0000 0.04441  0.66100  0.52130  Biso   1.000  C
  C201     1.0000 0.04436  0.66100  0.52130  Biso   1.000  C
  O40      1.0000 0.73585  0.84442  0.17286  Biso   1.000  O
  H246     1.0000 0.77171  0.77590  0.26132  Biso   1.000  H
  H247     1.0000 0.68969  0.74884  0.20650  Biso   1.000  H
  H248     1.0000 0.99921  0.64519  0.47972  Biso   1.000  H
  H249     1.0000 0.07171  0.60590  0.54180  Biso   1.000  H
  C202     1.0000 0.09228  0.72245  0.50239  Biso   1.000  C
  C203     1.0000 0.09223  0.72245  0.50239  Biso   1.000  C
  C204     1.0000 0.77180  0.79931  0.13988  Biso   1.000  C
  C205     1.0000 0.77175  0.79931  0.13988  Biso   1.000  C
  O41      1.0000 0.11512  0.67357  0.45808  Biso   1.000  O
  H250     1.0000 0.06377  0.77550  0.47848  Biso   1.000  H
  H251     1.0000 0.13579  0.74170  0.54422  Biso   1.000  H
  C206     1.0000 0.79223  0.71094  0.15240  Biso   1.000  C
  C207     1.0000 0.78559  0.84720  0.09125  Biso   1.000  C
  C208     1.0000 0.15350  0.71782  0.42779  Biso   1.000  C
  C209     1.0000 0.15345  0.71782  0.42779  Biso   1.000  C
  H252     1.0000 0.78070  0.67873  0.18450  Biso   1.000  H
  C210     1.0000 0.82940  0.66894  0.11871  Biso   1.000  C
  C211     1.0000 0.82935  0.66894  0.11871  Biso   1.000  C
  C212     1.0000 0.82372  0.80566  0.05822  Biso   1.000  C
  C213     1.0000 0.76113  0.94252  0.07429  Biso   1.000  C
  C214     1.0000 0.76108  0.94252  0.07429  Biso   1.000  C
  C215     1.0000 0.17061  0.66894  0.38126  Biso   1.000  C
  C216     1.0000 0.17624  0.80566  0.44175  Biso   1.000  C
  C217     1.0000 0.84653  0.71782  0.07223  Biso   1.000  C
  C218     1.0000 0.85314  0.57309  0.13452  Biso   1.000  C
  C219     1.0000 0.85309  0.57309  0.13452  Biso   1.000  C
  H253     1.0000 0.83451  0.83781  0.02561  Biso   1.000  H
  H254     1.0000 0.74832  0.95383  0.02509  Biso   1.000  H
  H255     1.0000 0.71613  0.95271  0.08182  Biso   1.000  H
  H256     1.0000 0.74827  0.95383  0.02509  Biso   1.000  H
  H257     1.0000 0.71608  0.95271  0.08182  Biso   1.000  H
  C220     1.0000 0.82095  0.00635  0.11819  Biso   1.000  C
  C221     1.0000 0.20773  0.71094  0.34757  Biso   1.000  C
  C222     1.0000 0.14689  0.57309  0.36550  Biso   1.000  C
  C223     1.0000 0.14684  0.57309  0.36550  Biso   1.000  C
  C224     1.0000 0.21442  0.84720  0.40872  Biso   1.000  C
  H258     1.0000 0.16553  0.83781  0.47441  Biso   1.000  H
  C225     1.0000 0.21437  0.84720  0.40872  Biso   1.000  C
  H259     1.0000 0.16548  0.83781  0.47441  Biso   1.000  H
  O42      1.0000 0.88487  0.67357  0.04194  Biso   1.000  O
  H260     1.0000 0.85451  0.54511  0.09341  Biso   1.000  H
  C226     1.0000 0.92911  0.56681  0.19470  Biso   1.000  C
  H261     1.0000 0.81663  0.54068  0.14581  Biso   1.000  H
  H262     1.0000 0.81658  0.54068  0.14581  Biso   1.000  H
  C227     1.0000 0.83019  0.02732  0.18445  Biso   1.000  C
  C228     1.0000 0.87005  0.04333  0.09454  Biso   1.000  C
  C229     1.0000 0.87000  0.04333  0.09454  Biso   1.000  C
  H263     1.0000 0.21928  0.67873  0.31552  Biso   1.000  H
  C230     1.0000 0.22821  0.79931  0.36009  Biso   1.000  C
  H264     1.0000 0.14552  0.54511  0.40661  Biso   1.000  H
  H265     1.0000 0.18341  0.54068  0.35421  Biso   1.000  H
  C231     1.0000 0.07085  0.56681  0.30527  Biso   1.000  C
  H266     1.0000 0.14547  0.54511  0.40661  Biso   1.000  H
  C232     1.0000 0.23891  0.94252  0.42572  Biso   1.000  C
  C233     1.0000 0.90773  0.72245  0.99758  Biso   1.000  C
  C234     1.0000 0.93731  0.56648  0.26240  Biso   1.000  C
  C235     1.0000 0.99264  0.56701  0.18316  Biso   1.000  C
  C236     1.0000 0.93726  0.56648  0.26240  Biso   1.000  C
  C237     1.0000 0.99259  0.56701  0.18316  Biso   1.000  C
  H267     1.0000 0.79708  0.00311  0.20119  Biso   1.000  H
  C238     1.0000 0.88665  0.08282  0.22659  Biso   1.000  C
  O43      1.0000 0.85955  0.01984  0.02911  Biso   1.000  O
  C239     1.0000 0.92612  0.09975  0.13669  Biso   1.000  C
  O44      1.0000 0.26413  0.84442  0.32716  Biso   1.000  O
  C240     1.0000 0.00739  0.56701  0.31686  Biso   1.000  C
  C241     1.0000 0.06273  0.56648  0.23762  Biso   1.000  C
  C242     1.0000 0.06268  0.56648  0.23762  Biso   1.000  C
  H268     1.0000 0.25169  0.95383  0.47488  Biso   1.000  H
  H269     1.0000 0.28391  0.95271  0.41820  Biso   1.000  H
  H270     1.0000 0.28386  0.95271  0.41820  Biso   1.000  H
  C243     1.0000 0.17901  0.00635  0.38178  Biso   1.000  C
  H271     1.0000 0.93619  0.77550  0.02148  Biso   1.000  H
  C244     1.0000 0.95563  0.66100  0.97872  Biso   1.000  C
  H272     1.0000 0.86419  0.74170  0.95579  Biso   1.000  H
  O45      1.0000 0.87258  0.56661  0.27100  Biso   1.000  O
  O46      1.0000 0.87253  0.56661  0.27100  Biso   1.000  O
  H273     1.0000 0.98788  0.56740  0.13720  Biso   1.000  H
  O47      1.0000 0.89837  0.10511  0.29270  Biso   1.000  O
  C245     1.0000 0.93595  0.11966  0.20315  Biso   1.000  C
  C246     1.0000 0.91432  0.04822  0.00778  Biso   1.000  C
  H274     1.0000 0.95851  0.12521  0.11958  Biso   1.000  H
  H275     1.0000 0.95846  0.12521  0.11958  Biso   1.000  H
  C247     1.0000 0.27571  0.79905  0.27394  Biso   1.000  C
  H276     1.0000 0.01210  0.56740  0.36282  Biso   1.000  H
  O48      1.0000 0.12745  0.56661  0.22901  Biso   1.000  O
  C248     1.0000 0.16985  0.02732  0.31557  Biso   1.000  C
  C249     1.0000 0.12998  0.04333  0.40548  Biso   1.000  C
  C250     1.0000 0.16980  0.02732  0.31557  Biso   1.000  C
  C251     1.0000 0.12993  0.04333  0.40548  Biso   1.000  C
  S19      1.0000 0.98010  0.71749  0.91751  Biso   1.000  S
  H277     1.0000 0.92833  0.60590  0.95822  Biso   1.000  H
  H278     1.0000 0.92828  0.60590  0.95822  Biso   1.000  H
  H279     1.0000 0.00082  0.64519  0.02030  Biso   1.000  H
  H280     1.0000 0.00077  0.64519  0.02030  Biso   1.000  H
  C252     1.0000 0.87943  0.56469  0.33948  Biso   1.000  C
  C253     1.0000 0.87938  0.56469  0.33948  Biso   1.000  C
  C254     1.0000 0.85320  0.06423  0.32011  Biso   1.000  C
  C255     1.0000 0.85315  0.06423  0.32011  Biso   1.000  C
  C256     1.0000 0.99998  0.17661  0.24998  Biso   1.000  C
  H281     1.0000 0.90108  0.02772  0.96059  Biso   1.000  H
  H282     1.0000 0.96252  0.02342  0.03869  Biso   1.000  H
  H283     1.0000 0.91724  0.11291  0.00922  Biso   1.000  H
  H284     1.0000 0.96247  0.02342  0.03869  Biso   1.000  H
  H285     1.0000 0.91719  0.11291  0.00922  Biso   1.000  H
  H286     1.0000 0.22827  0.77590  0.23870  Biso   1.000  H
  H287     1.0000 0.31029  0.74884  0.29352  Biso   1.000  H
  C257     1.0000 0.30809  0.86599  0.24256  Biso   1.000  C
  C258     1.0000 0.12058  0.56469  0.16049  Biso   1.000  C
  C259     1.0000 0.12053  0.56469  0.16049  Biso   1.000  C
  H288     1.0000 0.20290  0.00311  0.29883  Biso   1.000  H
  C260     1.0000 0.11331  0.08282  0.27337  Biso   1.000  C
  O49      1.0000 0.14044  0.01984  0.47091  Biso   1.000  O
  C261     1.0000 0.07384  0.09975  0.36328  Biso   1.000  C
  C262     1.0000 0.05739  0.65220  0.92143  Biso   1.000  C
  H289     1.0000 0.83001  0.56489  0.33881  Biso   1.000  H
  H290     1.0000 0.90711  0.61688  0.36452  Biso   1.000  H
  H291     1.0000 0.90593  0.51098  0.36261  Biso   1.000  H
  H292     1.0000 0.90588  0.51098  0.36261  Biso   1.000  H
  H293     1.0000 0.86050  0.00000  0.32150  Biso   1.000  H
  H294     1.0000 0.86660  0.08632  0.36678  Biso   1.000  H
  H295     1.0000 0.80107  0.07792  0.29089  Biso   1.000  H
  H296     1.0000 0.98362  0.21504  0.27822  Biso   1.000  H
  H297     1.0000 0.98357  0.21504  0.27822  Biso   1.000  H
  C263     1.0000 0.06401  0.11966  0.29682  Biso   1.000  C
  H298     1.0000 0.01641  0.21504  0.22180  Biso   1.000  H
  S20      1.0000 0.32863  0.82160  0.17517  Biso   1.000  S
  H299     1.0000 0.35417  0.89013  0.27920  Biso   1.000  H
  H300     1.0000 0.27279  0.91553  0.22381  Biso   1.000  H
  H301     1.0000 0.17002  0.56489  0.16121  Biso   1.000  H
  H302     1.0000 0.09288  0.61688  0.13550  Biso   1.000  H
  H303     1.0000 0.09410  0.51098  0.13741  Biso   1.000  H
  H304     1.0000 0.16997  0.56489  0.16121  Biso   1.000  H
  O50      1.0000 0.10161  0.10511  0.20732  Biso   1.000  O
  C264     1.0000 0.08566  0.04822  0.49224  Biso   1.000  C
  H305     1.0000 0.04150  0.12521  0.38039  Biso   1.000  H
  H306     1.0000 0.04145  0.12521  0.38039  Biso   1.000  H
  C265     1.0000 0.12440  0.64870  0.98769  Biso   1.000  C
  H307     1.0000 0.03969  0.59082  0.90819  Biso   1.000  H
  H308     1.0000 0.07229  0.67509  0.88598  Biso   1.000  H
  C266     1.0000 0.12435  0.64870  0.98769  Biso   1.000  C
  C267     1.0000 0.23912  0.81843  0.10222  Biso   1.000  C
  C268     1.0000 0.23907  0.81843  0.10222  Biso   1.000  C
  C269     1.0000 0.14683  0.06423  0.17991  Biso   1.000  C
  H309     1.0000 0.09888  0.02772  0.53938  Biso   1.000  H
  H310     1.0000 0.03751  0.02342  0.46133  Biso   1.000  H
  H311     1.0000 0.08280  0.11291  0.49080  Biso   1.000  H
  H312     1.0000 0.16260  0.61271  0.98171  Biso   1.000  H
  O51      1.0000 0.15307  0.73085  0.01195  Biso   1.000  O
  H313     1.0000 0.11192  0.61880  0.02241  Biso   1.000  H
  O52      1.0000 0.15302  0.73085  0.01195  Biso   1.000  O
  H314     1.0000 0.11187  0.61880  0.02241  Biso   1.000  H
  H315     1.0000 0.20129  0.84204  0.11608  Biso   1.000  H
  H316     1.0000 0.24001  0.85699  0.06528  Biso   1.000  H
  C270     1.0000 0.21830  0.72781  0.07512  Biso   1.000  C
  H317     1.0000 0.23996  0.85699  0.06528  Biso   1.000  H
  H318     1.0000 0.13949  0.00000  0.17852  Biso   1.000  H
  H319     1.0000 0.13341  0.08632  0.13318  Biso   1.000  H
  H320     1.0000 0.19889  0.07792  0.20908  Biso   1.000  H
  H321     1.0000 0.13336  0.08632  0.13318  Biso   1.000  H
  H322     1.0000 0.25921  0.70049  0.06729  Biso   1.000  H
  H323     1.0000 0.20931  0.69110  0.10902  Biso   1.000  H
  H324     1.0000 0.25916  0.70049  0.06729  Biso   1.000  H
  C271     1.0000 0.21831  0.27219  0.57509  Biso   1.000  C
  O53      1.0000 0.15303  0.26915  0.51192  Biso   1.000  O
  H325     1.0000 0.25919  0.29951  0.56731  Biso   1.000  H
  H326     1.0000 0.20927  0.30890  0.60899  Biso   1.000  H
  C272     1.0000 0.23910  0.18157  0.60224  Biso   1.000  C
  C273     1.0000 0.12438  0.35130  0.48771  Biso   1.000  C
  C274     1.0000 0.21826  0.27219  0.57509  Biso   1.000  C
  S21      1.0000 0.32859  0.17840  0.67514  Biso   1.000  S
  H327     1.0000 0.20127  0.15802  0.61610  Biso   1.000  H
  H328     1.0000 0.23999  0.14301  0.56530  Biso   1.000  H
  C275     1.0000 0.05735  0.34780  0.42140  Biso   1.000  C
  H329     1.0000 0.11188  0.38120  0.52238  Biso   1.000  H
  H330     1.0000 0.16261  0.38729  0.48168  Biso   1.000  H
  H331     1.0000 0.16256  0.38729  0.48168  Biso   1.000  H
  C276     1.0000 0.30813  0.13401  0.74258  Biso   1.000  C
  C277     1.0000 0.30808  0.13401  0.74258  Biso   1.000  C
  H332     1.0000 0.03973  0.40918  0.40821  Biso   1.000  H
  H333     1.0000 0.07232  0.32491  0.38600  Biso   1.000  H
  H334     1.0000 0.03968  0.40918  0.40821  Biso   1.000  H
  H335     1.0000 0.07227  0.32491  0.38600  Biso   1.000  H
  S22      1.0000 0.98006  0.28251  0.41748  Biso   1.000  S
  C278     1.0000 0.27572  0.20095  0.77391  Biso   1.000  C
  H336     1.0000 0.35420  0.10987  0.77922  Biso   1.000  H
  H337     1.0000 0.27280  0.08447  0.72378  Biso   1.000  H
  H338     1.0000 0.27275  0.08447  0.72378  Biso   1.000  H
  C279     1.0000 0.95561  0.33900  0.47874  Biso   1.000  C
  O54      1.0000 0.26417  0.15564  0.82718  Biso   1.000  O
  H339     1.0000 0.22831  0.22410  0.73872  Biso   1.000  H
  H340     1.0000 0.31030  0.25122  0.79349  Biso   1.000  H
  O55      1.0000 0.26412  0.15564  0.82718  Biso   1.000  O
  H341     1.0000 0.31025  0.25122  0.79349  Biso   1.000  H
  H342     1.0000 0.00081  0.35481  0.52032  Biso   1.000  H
  H343     1.0000 0.92829  0.39410  0.45818  Biso   1.000  H
  C280     1.0000 0.90771  0.27755  0.49760  Biso   1.000  C
  C281     1.0000 0.22819  0.20069  0.86011  Biso   1.000  C
  O56      1.0000 0.88488  0.32650  0.54191  Biso   1.000  O
  H344     1.0000 0.93622  0.22450  0.52150  Biso   1.000  H
  H345     1.0000 0.86422  0.25830  0.45581  Biso   1.000  H
  O57      1.0000 0.88483  0.32650  0.54191  Biso   1.000  O
  H346     1.0000 0.93617  0.22450  0.52150  Biso   1.000  H
  H347     1.0000 0.86417  0.25830  0.45581  Biso   1.000  H
  C282     1.0000 0.20777  0.28906  0.84759  Biso   1.000  C
  C283     1.0000 0.21441  0.15280  0.90874  Biso   1.000  C
  C284     1.0000 0.20772  0.28906  0.84759  Biso   1.000  C
  C285     1.0000 0.84652  0.28218  0.57225  Biso   1.000  C
  C286     1.0000 0.17059  0.33106  0.88128  Biso   1.000  C
  H348     1.0000 0.21929  0.32127  0.81549  Biso   1.000  H
  C287     1.0000 0.17622  0.19434  0.94177  Biso   1.000  C
  C288     1.0000 0.23887  0.05748  0.92569  Biso   1.000  C
  C289     1.0000 0.82938  0.33106  0.61873  Biso   1.000  C
  C290     1.0000 0.82375  0.19434  0.55824  Biso   1.000  C
  C291     1.0000 0.15346  0.28218  0.92775  Biso   1.000  C
  C292     1.0000 0.14688  0.42691  0.86551  Biso   1.000  C
  H349     1.0000 0.16549  0.16219  0.97438  Biso   1.000  H
  H350     1.0000 0.25168  0.04617  0.97490  Biso   1.000  H
  H351     1.0000 0.28389  0.04729  0.91822  Biso   1.000  H
  C293     1.0000 0.17904  0.99365  0.88180  Biso   1.000  C
  C294     1.0000 0.17899  0.99365  0.88180  Biso   1.000  C
  C295     1.0000 0.79226  0.28906  0.65242  Biso   1.000  C
  C296     1.0000 0.85310  0.42691  0.63449  Biso   1.000  C
  C297     1.0000 0.79221  0.28906  0.65242  Biso   1.000  C
  C298     1.0000 0.78557  0.15280  0.59126  Biso   1.000  C
  H352     1.0000 0.83449  0.16219  0.52563  Biso   1.000  H
  O58      1.0000 0.11515  0.32650  0.95810  Biso   1.000  O
  O59      1.0000 0.11510  0.32650  0.95810  Biso   1.000  O
  C299     1.0000 0.07088  0.43319  0.80529  Biso   1.000  C
  C300     1.0000 0.07083  0.43319  0.80529  Biso   1.000  C
  H353     1.0000 0.14550  0.45489  0.90663  Biso   1.000  H
  H354     1.0000 0.18337  0.45932  0.85418  Biso   1.000  H
  C301     1.0000 0.16981  0.97275  0.81554  Biso   1.000  C
  C302     1.0000 0.12994  0.95667  0.90544  Biso   1.000  C
  H355     1.0000 0.78073  0.32127  0.68452  Biso   1.000  H
  C303     1.0000 0.77179  0.20069  0.63990  Biso   1.000  C
  H356     1.0000 0.78068  0.32127  0.68452  Biso   1.000  H
  H357     1.0000 0.85450  0.45489  0.59343  Biso   1.000  H
  H358     1.0000 0.81661  0.45932  0.64583  Biso   1.000  H
  C304     1.0000 0.92915  0.43319  0.69472  Biso   1.000  C
  C305     1.0000 0.92910  0.43319  0.69472  Biso   1.000  C
  C306     1.0000 0.76111  0.05748  0.57431  Biso   1.000  C
  C307     1.0000 0.09227  0.27755  0.00241  Biso   1.000  C
  C308     1.0000 0.06269  0.43352  0.73759  Biso   1.000  C
  C309     1.0000 0.00738  0.43306  0.81688  Biso   1.000  C
  H359     1.0000 0.20291  0.99689  0.79879  Biso   1.000  H
  C310     1.0000 0.11334  0.91718  0.77339  Biso   1.000  C
  H360     1.0000 0.20286  0.99689  0.79879  Biso   1.000  H
  C311     1.0000 0.11329  0.91718  0.77339  Biso   1.000  C
  O60      1.0000 0.14040  0.98016  0.97088  Biso   1.000  O
  C312     1.0000 0.07382  0.90025  0.86330  Biso   1.000  C
  O61      1.0000 0.73586  0.15564  0.67282  Biso   1.000  O
  C313     1.0000 0.99260  0.43306  0.68313  Biso   1.000  C
  C314     1.0000 0.93729  0.43352  0.76242  Biso   1.000  C
  C315     1.0000 0.82099  0.99365  0.61821  Biso   1.000  C
  C316     1.0000 0.82094  0.99365  0.61821  Biso   1.000  C
  H361     1.0000 0.74830  0.04617  0.52511  Biso   1.000  H
  H362     1.0000 0.71609  0.04729  0.58178  Biso   1.000  H
  H363     1.0000 0.06381  0.22450  0.97850  Biso   1.000  H
  C317     1.0000 0.04437  0.33900  0.02127  Biso   1.000  C
  H364     1.0000 0.13580  0.25830  0.04419  Biso   1.000  H
  H365     1.0000 0.13575  0.25830  0.04419  Biso   1.000  H
  O62      1.0000 0.12744  0.43339  0.72903  Biso   1.000  O
  H366     1.0000 0.01211  0.43260  0.86278  Biso   1.000  H
  H367     1.0000 0.01206  0.43260  0.86278  Biso   1.000  H
  C318     1.0000 0.06404  0.88034  0.79684  Biso   1.000  C
  O63      1.0000 0.10162  0.89489  0.70729  Biso   1.000  O
  O64      1.0000 0.10157  0.89489  0.70729  Biso   1.000  O
  C319     1.0000 0.08570  0.95178  0.99226  Biso   1.000  C
  C320     1.0000 0.08565  0.95178  0.99226  Biso   1.000  C
  H368     1.0000 0.04149  0.87479  0.88040  Biso   1.000  H
  C321     1.0000 0.72426  0.20095  0.72610  Biso   1.000  C
  H369     1.0000 0.98792  0.43260  0.63722  Biso   1.000  H
  O65      1.0000 0.87254  0.43339  0.77097  Biso   1.000  O
  C322     1.0000 0.83017  0.97275  0.68447  Biso   1.000  C
  C323     1.0000 0.87004  0.95667  0.59456  Biso   1.000  C
  H370     1.0000 0.99917  0.35481  0.97969  Biso   1.000  H
  S23      1.0000 0.01992  0.28251  0.08252  Biso   1.000  S
  H371     1.0000 0.07169  0.39410  0.04182  Biso   1.000  H
  C324     1.0000 0.12057  0.43531  0.66051  Biso   1.000  C
  C325     1.0000 0.99996  0.82339  0.75000  Biso   1.000  C
  C326     1.0000 0.00001  0.82339  0.75000  Biso   1.000  C
  C327     1.0000 0.14682  0.93577  0.67993  Biso   1.000  C
  H372     1.0000 0.03747  0.97658  0.96129  Biso   1.000  H
  H373     1.0000 0.08278  0.88709  0.99082  Biso   1.000  H
  H374     1.0000 0.09891  0.97228  0.03940  Biso   1.000  H
  H375     1.0000 0.09886  0.97228  0.03940  Biso   1.000  H
  H376     1.0000 0.77167  0.22410  0.76129  Biso   1.000  H
  H377     1.0000 0.68973  0.25122  0.70652  Biso   1.000  H
  C328     1.0000 0.69190  0.13401  0.75742  Biso   1.000  C
  H378     1.0000 0.68968  0.25122  0.70652  Biso   1.000  H
  C329     1.0000 0.69185  0.13401  0.75742  Biso   1.000  C
  C330     1.0000 0.87941  0.43531  0.83950  Biso   1.000  C
  H379     1.0000 0.79712  0.99689  0.70121  Biso   1.000  H
  C331     1.0000 0.88669  0.91718  0.72661  Biso   1.000  C
  H380     1.0000 0.79707  0.99689  0.70121  Biso   1.000  H
  C332     1.0000 0.88664  0.91718  0.72661  Biso   1.000  C
  O66      1.0000 0.85958  0.98016  0.52913  Biso   1.000  O
  C333     1.0000 0.92616  0.90025  0.63671  Biso   1.000  C
  C334     1.0000 0.94262  0.34780  0.07861  Biso   1.000  C
  H381     1.0000 0.16998  0.43511  0.66118  Biso   1.000  H
  H382     1.0000 0.09291  0.38312  0.63552  Biso   1.000  H
  H383     1.0000 0.09409  0.48902  0.63743  Biso   1.000  H
  C335     1.0000 0.93598  0.88034  0.70317  Biso   1.000  C
  C336     1.0000 0.93593  0.88034  0.70317  Biso   1.000  C
  H384     1.0000 0.98358  0.78502  0.77819  Biso   1.000  H
  H385     1.0000 0.01639  0.78502  0.72182  Biso   1.000  H
  H386     1.0000 0.13950  0.00000  0.67849  Biso   1.000  H
  H387     1.0000 0.13340  0.91368  0.63320  Biso   1.000  H
  H388     1.0000 0.19887  0.92208  0.70909  Biso   1.000  H
  S24      1.0000 0.67139  0.17840  0.82486  Biso   1.000  S
  H389     1.0000 0.64578  0.10987  0.72079  Biso   1.000  H
  H390     1.0000 0.72723  0.08447  0.77623  Biso   1.000  H
  H391     1.0000 0.72718  0.08447  0.77623  Biso   1.000  H
  H392     1.0000 0.82999  0.43511  0.83883  Biso   1.000  H
  H393     1.0000 0.90712  0.38312  0.86448  Biso   1.000  H
  H394     1.0000 0.90591  0.48902  0.86263  Biso   1.000  H
  H395     1.0000 0.90707  0.38312  0.86448  Biso   1.000  H
  O67      1.0000 0.89840  0.89489  0.79271  Biso   1.000  O
  O68      1.0000 0.89835  0.89489  0.79271  Biso   1.000  O
  C337     1.0000 0.91433  0.95178  0.50775  Biso   1.000  C
  H396     1.0000 0.95849  0.87479  0.61960  Biso   1.000  H
  C338     1.0000 0.87560  0.35130  0.01230  Biso   1.000  C
  H397     1.0000 0.96030  0.40918  0.09180  Biso   1.000  H
  H398     1.0000 0.92771  0.32491  0.11400  Biso   1.000  H
  C339     1.0000 0.76090  0.18157  0.89782  Biso   1.000  C
  C340     1.0000 0.85316  0.93577  0.82007  Biso   1.000  C
  H399     1.0000 0.90112  0.97228  0.46060  Biso   1.000  H
  H400     1.0000 0.96250  0.97658  0.53871  Biso   1.000  H
  H401     1.0000 0.91720  0.88709  0.50919  Biso   1.000  H
  H402     1.0000 0.90107  0.97228  0.46060  Biso   1.000  H
  O69      1.0000 0.84695  0.26915  0.98809  Biso   1.000  O
  H403     1.0000 0.88809  0.38120  0.97763  Biso   1.000  H
  H404     1.0000 0.83742  0.38729  0.01833  Biso   1.000  H
  H405     1.0000 0.79871  0.15802  0.88391  Biso   1.000  H
  H406     1.0000 0.75998  0.14301  0.93471  Biso   1.000  H
  C341     1.0000 0.78172  0.27219  0.92492  Biso   1.000  C
  C342     1.0000 0.78166  0.27219  0.92492  Biso   1.000  C
  H407     1.0000 0.86658  0.91368  0.86680  Biso   1.000  H
  H408     1.0000 0.80111  0.92208  0.79091  Biso   1.000  H
  H409     1.0000 0.86053  0.00000  0.82152  Biso   1.000  H
  H410     1.0000 0.86048  0.00000  0.82152  Biso   1.000  H
  H411     1.0000 0.74079  0.29951  0.93270  Biso   1.000  H
  H412     1.0000 0.79071  0.30890  0.89102  Biso   1.000  H
  C343     1.0000 0.21831  0.27219  0.57509  Biso   1.000  C
  O70      1.0000 0.15303  0.26915  0.51192  Biso   1.000  O
  H413     1.0000 0.25919  0.29951  0.56731  Biso   1.000  H
  H414     1.0000 0.20927  0.30890  0.60899  Biso   1.000  H
  C344     1.0000 0.23910  0.18157  0.60224  Biso   1.000  C
  C345     1.0000 0.12438  0.35130  0.48771  Biso   1.000  C
  C346     1.0000 0.21826  0.27219  0.57509  Biso   1.000  C
  S25      1.0000 0.32859  0.17840  0.67514  Biso   1.000  S
  H415     1.0000 0.20127  0.15802  0.61610  Biso   1.000  H
  H416     1.0000 0.23999  0.14301  0.56530  Biso   1.000  H
  C347     1.0000 0.05735  0.34780  0.42140  Biso   1.000  C
  H417     1.0000 0.11188  0.38120  0.52238  Biso   1.000  H
  H418     1.0000 0.16261  0.38729  0.48168  Biso   1.000  H
  H419     1.0000 0.16256  0.38729  0.48168  Biso   1.000  H
  C348     1.0000 0.30813  0.13401  0.74258  Biso   1.000  C
  C349     1.0000 0.30808  0.13401  0.74258  Biso   1.000  C
  S26      1.0000 0.98006  0.28251  0.41748  Biso   1.000  S
  H420     1.0000 0.03973  0.40918  0.40821  Biso   1.000  H
  H421     1.0000 0.07232  0.32491  0.38600  Biso   1.000  H
  H422     1.0000 0.03968  0.40918  0.40821  Biso   1.000  H
  H423     1.0000 0.07227  0.32491  0.38600  Biso   1.000  H
  C350     1.0000 0.27572  0.20095  0.77391  Biso   1.000  C
  H424     1.0000 0.35420  0.10987  0.77922  Biso   1.000  H
  H425     1.0000 0.27280  0.08447  0.72378  Biso   1.000  H
  H426     1.0000 0.27275  0.08447  0.72378  Biso   1.000  H
  C351     1.0000 0.95561  0.33900  0.47874  Biso   1.000  C
  H427     1.0000 0.22831  0.22410  0.73872  Biso   1.000  H
  O71      1.0000 0.26417  0.15564  0.82718  Biso   1.000  O
  H428     1.0000 0.31030  0.25122  0.79349  Biso   1.000  H
  O72      1.0000 0.26412  0.15564  0.82718  Biso   1.000  O
  H429     1.0000 0.31025  0.25122  0.79349  Biso   1.000  H
  H430     1.0000 0.00081  0.35481  0.52032  Biso   1.000  H
  H431     1.0000 0.92829  0.39410  0.45818  Biso   1.000  H
  C352     1.0000 0.90771  0.27755  0.49760  Biso   1.000  C
  C353     1.0000 0.22819  0.20069  0.86011  Biso   1.000  C
  O73      1.0000 0.88488  0.32650  0.54191  Biso   1.000  O
  H432     1.0000 0.93622  0.22450  0.52150  Biso   1.000  H
  H433     1.0000 0.86422  0.25830  0.45581  Biso   1.000  H
  O74      1.0000 0.88483  0.32650  0.54191  Biso   1.000  O
  H434     1.0000 0.93617  0.22450  0.52150  Biso   1.000  H
  H435     1.0000 0.86417  0.25830  0.45581  Biso   1.000  H
  C354     1.0000 0.21441  0.15280  0.90874  Biso   1.000  C
  C355     1.0000 0.20777  0.28906  0.84759  Biso   1.000  C
  C356     1.0000 0.20772  0.28906  0.84759  Biso   1.000  C
  C357     1.0000 0.84652  0.28218  0.57225  Biso   1.000  C
  C358     1.0000 0.17622  0.19434  0.94177  Biso   1.000  C
  C359     1.0000 0.23887  0.05748  0.92569  Biso   1.000  C
  C360     1.0000 0.17059  0.33106  0.88128  Biso   1.000  C
  H436     1.0000 0.21929  0.32127  0.81549  Biso   1.000  H
  C361     1.0000 0.82938  0.33106  0.61873  Biso   1.000  C
  C362     1.0000 0.82375  0.19434  0.55824  Biso   1.000  C
  C363     1.0000 0.15346  0.28218  0.92775  Biso   1.000  C
  H437     1.0000 0.16549  0.16219  0.97438  Biso   1.000  H
  H438     1.0000 0.25168  0.04617  0.97490  Biso   1.000  H
  H439     1.0000 0.28389  0.04729  0.91822  Biso   1.000  H
  C364     1.0000 0.17904  0.99365  0.88180  Biso   1.000  C
  C365     1.0000 0.17899  0.99365  0.88180  Biso   1.000  C
  C366     1.0000 0.14688  0.42691  0.86551  Biso   1.000  C
  C367     1.0000 0.79226  0.28906  0.65242  Biso   1.000  C
  C368     1.0000 0.85310  0.42691  0.63449  Biso   1.000  C
  C369     1.0000 0.79221  0.28906  0.65242  Biso   1.000  C
  C370     1.0000 0.78557  0.15280  0.59126  Biso   1.000  C
  H440     1.0000 0.83449  0.16219  0.52563  Biso   1.000  H
  O75      1.0000 0.11515  0.32650  0.95810  Biso   1.000  O
  O76      1.0000 0.11510  0.32650  0.95810  Biso   1.000  O
  C371     1.0000 0.16981  0.97275  0.81554  Biso   1.000  C
  C372     1.0000 0.12994  0.95667  0.90544  Biso   1.000  C
  C373     1.0000 0.07088  0.43319  0.80529  Biso   1.000  C
  C374     1.0000 0.07083  0.43319  0.80529  Biso   1.000  C
  H441     1.0000 0.14550  0.45489  0.90663  Biso   1.000  H
  H442     1.0000 0.18337  0.45932  0.85418  Biso   1.000  H
  H443     1.0000 0.78073  0.32127  0.68452  Biso   1.000  H
  C375     1.0000 0.77179  0.20069  0.63990  Biso   1.000  C
  H444     1.0000 0.78068  0.32127  0.68452  Biso   1.000  H
  H445     1.0000 0.85450  0.45489  0.59343  Biso   1.000  H
  H446     1.0000 0.81661  0.45932  0.64583  Biso   1.000  H
  C376     1.0000 0.92915  0.43319  0.69472  Biso   1.000  C
  C377     1.0000 0.92910  0.43319  0.69472  Biso   1.000  C
  C378     1.0000 0.76111  0.05748  0.57431  Biso   1.000  C
  C379     1.0000 0.09227  0.27755  0.00241  Biso   1.000  C
  H447     1.0000 0.20291  0.99689  0.79879  Biso   1.000  H
  C380     1.0000 0.11334  0.91718  0.77339  Biso   1.000  C
  H448     1.0000 0.20286  0.99689  0.79879  Biso   1.000  H
  C381     1.0000 0.11329  0.91718  0.77339  Biso   1.000  C
  O77      1.0000 0.14040  0.98016  0.97088  Biso   1.000  O
  C382     1.0000 0.07382  0.90025  0.86330  Biso   1.000  C
  C383     1.0000 0.06269  0.43352  0.73759  Biso   1.000  C
  C384     1.0000 0.00738  0.43306  0.81688  Biso   1.000  C
  O78      1.0000 0.73586  0.15564  0.67282  Biso   1.000  O
  C385     1.0000 0.99260  0.43306  0.68313  Biso   1.000  C
  C386     1.0000 0.93729  0.43352  0.76242  Biso   1.000  C
  C387     1.0000 0.82099  0.99365  0.61821  Biso   1.000  C
  C388     1.0000 0.82094  0.99365  0.61821  Biso   1.000  C
  H449     1.0000 0.74830  0.04617  0.52511  Biso   1.000  H
  H450     1.0000 0.71609  0.04729  0.58178  Biso   1.000  H
  H451     1.0000 0.06381  0.22450  0.97850  Biso   1.000  H
  C389     1.0000 0.04437  0.33900  0.02127  Biso   1.000  C
  H452     1.0000 0.13580  0.25830  0.04419  Biso   1.000  H
  H453     1.0000 0.13575  0.25830  0.04419  Biso   1.000  H
  C390     1.0000 0.06404  0.88034  0.79684  Biso   1.000  C
  O79      1.0000 0.10162  0.89489  0.70729  Biso   1.000  O
  O80      1.0000 0.10157  0.89489  0.70729  Biso   1.000  O
  C391     1.0000 0.08570  0.95178  0.99226  Biso   1.000  C
  C392     1.0000 0.08565  0.95178  0.99226  Biso   1.000  C
  H454     1.0000 0.04149  0.87479  0.88040  Biso   1.000  H
  O81      1.0000 0.12744  0.43339  0.72903  Biso   1.000  O
  H455     1.0000 0.01211  0.43260  0.86278  Biso   1.000  H
  H456     1.0000 0.01206  0.43260  0.86278  Biso   1.000  H
  C393     1.0000 0.72426  0.20095  0.72610  Biso   1.000  C
  H457     1.0000 0.98792  0.43260  0.63722  Biso   1.000  H
  O82      1.0000 0.87254  0.43339  0.77097  Biso   1.000  O
  C394     1.0000 0.83017  0.97275  0.68447  Biso   1.000  C
  C395     1.0000 0.87004  0.95667  0.59456  Biso   1.000  C
  H458     1.0000 0.99917  0.35481  0.97969  Biso   1.000  H
  S27      1.0000 0.01992  0.28251  0.08252  Biso   1.000  S
  H459     1.0000 0.07169  0.39410  0.04182  Biso   1.000  H
  C396     1.0000 0.99996  0.82339  0.75000  Biso   1.000  C
  C397     1.0000 0.00001  0.82339  0.75000  Biso   1.000  C
  C398     1.0000 0.14682  0.93577  0.67993  Biso   1.000  C
  H460     1.0000 0.03747  0.97658  0.96129  Biso   1.000  H
  H461     1.0000 0.08278  0.88709  0.99082  Biso   1.000  H
  H462     1.0000 0.09891  0.97228  0.03940  Biso   1.000  H
  H463     1.0000 0.09886  0.97228  0.03940  Biso   1.000  H
  C399     1.0000 0.12057  0.43531  0.66051  Biso   1.000  C
  H464     1.0000 0.77167  0.22410  0.76129  Biso   1.000  H
  H465     1.0000 0.68973  0.25122  0.70652  Biso   1.000  H
  C400     1.0000 0.69190  0.13401  0.75742  Biso   1.000  C
  H466     1.0000 0.68968  0.25122  0.70652  Biso   1.000  H
  C401     1.0000 0.69185  0.13401  0.75742  Biso   1.000  C
  C402     1.0000 0.87941  0.43531  0.83950  Biso   1.000  C
  H467     1.0000 0.79712  0.99689  0.70121  Biso   1.000  H
  C403     1.0000 0.88669  0.91718  0.72661  Biso   1.000  C
  H468     1.0000 0.79707  0.99689  0.70121  Biso   1.000  H
  C404     1.0000 0.88664  0.91718  0.72661  Biso   1.000  C
  O83      1.0000 0.85958  0.98016  0.52913  Biso   1.000  O
  C405     1.0000 0.92616  0.90025  0.63671  Biso   1.000  C
  C406     1.0000 0.94262  0.34780  0.07861  Biso   1.000  C
  C407     1.0000 0.93598  0.88034  0.70317  Biso   1.000  C
  C408     1.0000 0.93593  0.88034  0.70317  Biso   1.000  C
  H469     1.0000 0.98358  0.78502  0.77819  Biso   1.000  H
  H470     1.0000 0.01639  0.78502  0.72182  Biso   1.000  H
  H471     1.0000 0.13950  0.00000  0.67849  Biso   1.000  H
  H472     1.0000 0.13340  0.91368  0.63320  Biso   1.000  H
  H473     1.0000 0.19887  0.92208  0.70909  Biso   1.000  H
  H474     1.0000 0.16998  0.43511  0.66118  Biso   1.000  H
  H475     1.0000 0.09291  0.38312  0.63552  Biso   1.000  H
  H476     1.0000 0.09409  0.48902  0.63743  Biso   1.000  H
  S28      1.0000 0.67139  0.17840  0.82486  Biso   1.000  S
  H477     1.0000 0.64578  0.10987  0.72079  Biso   1.000  H
  H478     1.0000 0.72723  0.08447  0.77623  Biso   1.000  H
  H479     1.0000 0.72718  0.08447  0.77623  Biso   1.000  H
  H480     1.0000 0.82999  0.43511  0.83883  Biso   1.000  H
  H481     1.0000 0.90712  0.38312  0.86448  Biso   1.000  H
  H482     1.0000 0.90591  0.48902  0.86263  Biso   1.000  H
  H483     1.0000 0.90707  0.38312  0.86448  Biso   1.000  H
  O84      1.0000 0.89840  0.89489  0.79271  Biso   1.000  O
  O85      1.0000 0.89835  0.89489  0.79271  Biso   1.000  O
  C409     1.0000 0.91433  0.95178  0.50775  Biso   1.000  C
  H484     1.0000 0.95849  0.87479  0.61960  Biso   1.000  H
  C410     1.0000 0.87560  0.35130  0.01230  Biso   1.000  C
  H485     1.0000 0.96030  0.40918  0.09180  Biso   1.000  H
  H486     1.0000 0.92771  0.32491  0.11400  Biso   1.000  H
  C411     1.0000 0.76090  0.18157  0.89782  Biso   1.000  C
  C412     1.0000 0.85316  0.93577  0.82007  Biso   1.000  C
  H487     1.0000 0.90112  0.97228  0.46060  Biso   1.000  H
  H488     1.0000 0.96250  0.97658  0.53871  Biso   1.000  H
  H489     1.0000 0.91720  0.88709  0.50919  Biso   1.000  H
  H490     1.0000 0.90107  0.97228  0.46060  Biso   1.000  H
  O86      1.0000 0.84695  0.26915  0.98809  Biso   1.000  O
  H491     1.0000 0.88809  0.38120  0.97763  Biso   1.000  H
  H492     1.0000 0.83742  0.38729  0.01833  Biso   1.000  H
  H493     1.0000 0.79871  0.15802  0.88391  Biso   1.000  H
  H494     1.0000 0.75998  0.14301  0.93471  Biso   1.000  H
  C413     1.0000 0.78172  0.27219  0.92492  Biso   1.000  C
  C414     1.0000 0.78166  0.27219  0.92492  Biso   1.000  C
  H495     1.0000 0.86658  0.91368  0.86680  Biso   1.000  H
  H496     1.0000 0.80111  0.92208  0.79091  Biso   1.000  H
  H497     1.0000 0.86053  0.00000  0.82152  Biso   1.000  H
  H498     1.0000 0.86048  0.00000  0.82152  Biso   1.000  H
  H499     1.0000 0.74079  0.29951  0.93270  Biso   1.000  H
  H500     1.0000 0.79071  0.30890  0.89102  Biso   1.000  H
