data_image0
_cell_length_a       11.665
_cell_length_b       15.707
_cell_length_c       14.472
_cell_angle_alpha    90
_cell_angle_beta     92.51
_cell_angle_gamma    90

_symmetry_space_group_name_H-M    "P 1"
_symmetry_int_tables_number       1

loop_
  _symmetry_equiv_pos_as_xyz
  'x, y, z'

loop_
  _atom_site_label
  _atom_site_occupancy
  _atom_site_fract_x
  _atom_site_fract_y
  _atom_site_fract_z
  _atom_site_thermal_displace_type
  _atom_site_B_iso_or_equiv
  _atom_site_type_symbol
  C1       1.0000 0.61671  0.75317  0.22084  Biso   1.000  C
  N1       1.0000 0.49532  0.77392  0.21600  Biso   1.000  N
  N2       1.0000 0.49532  0.77392  0.21607  Biso   1.000  N
  C2       1.0000 0.63496  0.71299  0.12443  Biso   1.000  C
  C3       1.0000 0.63505  0.71299  0.12450  Biso   1.000  C
  N3       1.0000 0.69231  0.82619  0.22223  Biso   1.000  N
  H1       1.0000 0.63674  0.71261  0.27230  Biso   1.000  H
  C4       1.0000 0.44093  0.74846  0.13487  Biso   1.000  C
  C5       1.0000 0.43264  0.79875  0.29617  Biso   1.000  C
  C6       1.0000 0.43264  0.79875  0.29624  Biso   1.000  C
  N4       1.0000 0.52268  0.71930  0.07740  Biso   1.000  N
  N5       1.0000 0.52276  0.71930  0.07740  Biso   1.000  N
  N6       1.0000 0.72095  0.76768  0.08666  Biso   1.000  N
  H2       1.0000 0.66174  0.65258  0.12968  Biso   1.000  H
  C7       1.0000 0.75192  0.83377  0.14386  Biso   1.000  C
  C8       1.0000 0.70876  0.88222  0.30094  Biso   1.000  C
  C9       1.0000 0.70885  0.88222  0.30094  Biso   1.000  C
  O1       1.0000 0.33682  0.75094  0.11682  Biso   1.000  O
  N7       1.0000 0.42734  0.88941  0.31235  Biso   1.000  N
  H3       1.0000 0.46882  0.77131  0.35157  Biso   1.000  H
  H4       1.0000 0.35327  0.77672  0.28863  Biso   1.000  H
  N8       1.0000 0.42743  0.88941  0.31235  Biso   1.000  N
  H5       1.0000 0.46883  0.77131  0.35164  Biso   1.000  H
  H6       1.0000 0.35336  0.77672  0.28863  Biso   1.000  H
  C10      1.0000 0.49516  0.68033  0.98900  Biso   1.000  C
  C11      1.0000 0.49524  0.68033  0.98900  Biso   1.000  C
  C12      1.0000 0.78358  0.74725  0.00539  Biso   1.000  C
  C13      1.0000 0.78366  0.74725  0.00539  Biso   1.000  C
  O2       1.0000 0.82292  0.88884  0.12837  Biso   1.000  O
  O3       1.0000 0.82301  0.88884  0.12844  Biso   1.000  O
  N9       1.0000 0.62114  0.94760  0.30391  Biso   1.000  N
  H7       1.0000 0.70803  0.84809  0.35841  Biso   1.000  H
  H8       1.0000 0.78502  0.90972  0.29859  Biso   1.000  H
  N10      1.0000 0.62123  0.94760  0.30391  Biso   1.000  N
  C14      1.0000 0.51873  0.93920  0.35662  Biso   1.000  C
  C15      1.0000 0.34207  0.93894  0.27334  Biso   1.000  C
  C16      1.0000 0.34216  0.93894  0.27334  Biso   1.000  C
  N11      1.0000 0.52652  0.73241  0.91133  Biso   1.000  N
  H9       1.0000 0.41172  0.66881  0.98382  Biso   1.000  H
  H10      1.0000 0.53562  0.62501  0.98589  Biso   1.000  H
  H11      1.0000 0.86053  0.77392  0.01120  Biso   1.000  H
  H12      1.0000 0.79448  0.68479  0.00249  Biso   1.000  H
  N12      1.0000 0.72674  0.77558  0.92025  Biso   1.000  N
  C17      1.0000 0.64800  0.03101  0.28856  Biso   1.000  C
  H13      1.0000 0.53700  0.91991  0.42142  Biso   1.000  H
  C18      1.0000 0.46814  0.03094  0.35323  Biso   1.000  C
  O4       1.0000 0.25533  0.91233  0.23108  Biso   1.000  O
  O5       1.0000 0.25534  0.91233  0.23115  Biso   1.000  O
  N13      1.0000 0.36891  0.02292  0.28925  Biso   1.000  N
  N14      1.0000 0.36899  0.02292  0.28925  Biso   1.000  N
  C19      1.0000 0.44623  0.77201  0.85372  Biso   1.000  C
  C20      1.0000 0.63783  0.72726  0.87101  Biso   1.000  C
  C21      1.0000 0.75687  0.84797  0.87523  Biso   1.000  C
  C22      1.0000 0.75696  0.84797  0.87529  Biso   1.000  C
  N15      1.0000 0.56086  0.08073  0.31934  Biso   1.000  N
  N16      1.0000 0.56086  0.08073  0.31941  Biso   1.000  N
  O6       1.0000 0.73499  0.05730  0.25349  Biso   1.000  O
  O7       1.0000 0.73499  0.05730  0.25356  Biso   1.000  O
  H14      1.0000 0.44582  0.05061  0.41568  Biso   1.000  H
  C23      1.0000 0.28233  0.08811  0.27991  Biso   1.000  C
  O8       1.0000 0.34466  0.78112  0.86810  Biso   1.000  O
  N17      1.0000 0.50050  0.79907  0.77653  Biso   1.000  N
  N18      1.0000 0.50051  0.79907  0.77660  Biso   1.000  N
  C24      1.0000 0.62097  0.77749  0.77853  Biso   1.000  C
  H15      1.0000 0.66160  0.66703  0.86049  Biso   1.000  H
  C25      1.0000 0.62106  0.77749  0.77853  Biso   1.000  C
  N19      1.0000 0.69672  0.85032  0.79202  Biso   1.000  N
  N20      1.0000 0.69680  0.85032  0.79209  Biso   1.000  N
  O9       1.0000 0.82793  0.90055  0.90351  Biso   1.000  O
  C26      1.0000 0.56081  0.17145  0.30592  Biso   1.000  C
  N21      1.0000 0.30328  0.14968  0.20798  Biso   1.000  N
  H16      1.0000 0.20692  0.06067  0.26629  Biso   1.000  H
  H17      1.0000 0.27786  0.11842  0.33960  Biso   1.000  H
  H18      1.0000 0.27795  0.11842  0.33960  Biso   1.000  H
  C27      1.0000 0.43919  0.82855  0.69408  Biso   1.000  C
  H19      1.0000 0.64123  0.74247  0.72382  Biso   1.000  H
  C28      1.0000 0.71767  0.91189  0.72009  Biso   1.000  C
  C29      1.0000 0.71775  0.91189  0.72009  Biso   1.000  C
  N22      1.0000 0.49950  0.20093  0.22347  Biso   1.000  N
  H20      1.0000 0.52689  0.19851  0.36007  Biso   1.000  H
  H21      1.0000 0.64138  0.19100  0.30412  Biso   1.000  H
  N23      1.0000 0.49958  0.20093  0.22347  Biso   1.000  N
  C30      1.0000 0.37903  0.22251  0.22147  Biso   1.000  C
  C31      1.0000 0.24313  0.15203  0.12477  Biso   1.000  C
  N24      1.0000 0.43914  0.91927  0.68066  Biso   1.000  N
  H22      1.0000 0.47311  0.80149  0.63993  Biso   1.000  H
  H23      1.0000 0.35862  0.80900  0.69588  Biso   1.000  H
  N25      1.0000 0.63109  0.97708  0.71075  Biso   1.000  N
  H24      1.0000 0.79308  0.93933  0.73371  Biso   1.000  H
  H25      1.0000 0.72214  0.88158  0.66040  Biso   1.000  H
  H26      1.0000 0.79316  0.93933  0.73371  Biso   1.000  H
  C32      1.0000 0.55377  0.22799  0.14628  Biso   1.000  C
  C33      1.0000 0.55385  0.22799  0.14628  Biso   1.000  C
  H27      1.0000 0.35877  0.25753  0.27618  Biso   1.000  H
  C34      1.0000 0.36217  0.27274  0.12899  Biso   1.000  C
  H28      1.0000 0.35885  0.25753  0.27618  Biso   1.000  H
  C35      1.0000 0.36226  0.27274  0.12899  Biso   1.000  C
  O10      1.0000 0.17207  0.09945  0.09649  Biso   1.000  O
  N26      1.0000 0.27326  0.22442  0.07975  Biso   1.000  N
  N27      1.0000 0.27334  0.22442  0.07975  Biso   1.000  N
  C36      1.0000 0.35200  0.96899  0.71144  Biso   1.000  C
  C37      1.0000 0.53186  0.96906  0.64677  Biso   1.000  C
  C38      1.0000 0.53194  0.96906  0.64677  Biso   1.000  C
  C39      1.0000 0.65793  0.06106  0.72666  Biso   1.000  C
  O11      1.0000 0.65534  0.21888  0.13190  Biso   1.000  O
  N28      1.0000 0.47348  0.26759  0.08867  Biso   1.000  N
  H29      1.0000 0.33840  0.33297  0.13951  Biso   1.000  H
  C40      1.0000 0.21642  0.25275  0.99461  Biso   1.000  C
  O12      1.0000 0.26501  0.94270  0.74651  Biso   1.000  O
  N29      1.0000 0.37886  0.05240  0.69609  Biso   1.000  N
  H30      1.0000 0.55418  0.94939  0.58432  Biso   1.000  H
  C41      1.0000 0.48127  0.06080  0.64338  Biso   1.000  C
  C42      1.0000 0.48135  0.06080  0.64338  Biso   1.000  C
  N30      1.0000 0.57266  0.11059  0.68765  Biso   1.000  N
  O13      1.0000 0.74467  0.08767  0.76892  Biso   1.000  O
  C43      1.0000 0.50484  0.31967  0.01100  Biso   1.000  C
  C44      1.0000 0.50484  0.31967  0.01107  Biso   1.000  C
  N31      1.0000 0.27905  0.23232  0.91334  Biso   1.000  N
  H31      1.0000 0.13947  0.22608  0.98880  Biso   1.000  H
  H32      1.0000 0.20552  0.31521  0.99751  Biso   1.000  H
  H33      1.0000 0.13955  0.22608  0.98880  Biso   1.000  H
  C45      1.0000 0.29124  0.11778  0.69906  Biso   1.000  C
  H34      1.0000 0.46300  0.08009  0.57858  Biso   1.000  H
  C46      1.0000 0.56736  0.20125  0.70383  Biso   1.000  C
  C47      1.0000 0.56745  0.20125  0.70383  Biso   1.000  C
  N32      1.0000 0.47732  0.28070  0.92260  Biso   1.000  N
  H35      1.0000 0.58828  0.33119  0.01618  Biso   1.000  H
  H36      1.0000 0.46438  0.37499  0.01411  Biso   1.000  H
  H37      1.0000 0.46446  0.37499  0.01411  Biso   1.000  H
  C48      1.0000 0.24808  0.16623  0.85614  Biso   1.000  C
  C49      1.0000 0.36504  0.28701  0.87557  Biso   1.000  C
  H38      1.0000 0.29197  0.15191  0.64159  Biso   1.000  H
  H39      1.0000 0.21498  0.09028  0.70141  Biso   1.000  H
  N33      1.0000 0.30769  0.17381  0.77777  Biso   1.000  N
  H40      1.0000 0.29206  0.15191  0.64159  Biso   1.000  H
  H41      1.0000 0.53118  0.22869  0.64843  Biso   1.000  H
  H42      1.0000 0.64673  0.22328  0.71137  Biso   1.000  H
  N34      1.0000 0.50468  0.22608  0.78400  Biso   1.000  N
  H43      1.0000 0.53126  0.22869  0.64843  Biso   1.000  H
  H44      1.0000 0.64673  0.22328  0.71144  Biso   1.000  H
  C50      1.0000 0.55907  0.25154  0.86513  Biso   1.000  C
  C51      1.0000 0.55915  0.25154  0.86513  Biso   1.000  C
  O14      1.0000 0.17708  0.11116  0.87163  Biso   1.000  O
  C52      1.0000 0.38329  0.24683  0.77916  Biso   1.000  C
  H45      1.0000 0.33826  0.34742  0.87032  Biso   1.000  H
  H46      1.0000 0.33835  0.34742  0.87032  Biso   1.000  H
  O15      1.0000 0.66318  0.24906  0.88318  Biso   1.000  O
  H47      1.0000 0.36326  0.28739  0.72770  Biso   1.000  H
  H48      1.0000 0.36334  0.28739  0.72770  Biso   1.000  H
  C53      1.0000 0.61671  0.75317  0.22084  Biso   1.000  C
  N35      1.0000 0.49532  0.77392  0.21600  Biso   1.000  N
  N36      1.0000 0.49532  0.77392  0.21607  Biso   1.000  N
  C54      1.0000 0.63496  0.71299  0.12443  Biso   1.000  C
  C55      1.0000 0.63505  0.71299  0.12450  Biso   1.000  C
  N37      1.0000 0.69231  0.82619  0.22223  Biso   1.000  N
  H49      1.0000 0.63674  0.71261  0.27230  Biso   1.000  H
  C56      1.0000 0.44093  0.74846  0.13487  Biso   1.000  C
  C57      1.0000 0.43264  0.79875  0.29617  Biso   1.000  C
  C58      1.0000 0.43264  0.79875  0.29624  Biso   1.000  C
  N38      1.0000 0.52268  0.71930  0.07740  Biso   1.000  N
  N39      1.0000 0.52276  0.71930  0.07740  Biso   1.000  N
  N40      1.0000 0.72095  0.76768  0.08666  Biso   1.000  N
  H50      1.0000 0.66174  0.65258  0.12968  Biso   1.000  H
  C59      1.0000 0.75192  0.83377  0.14386  Biso   1.000  C
  C60      1.0000 0.70876  0.88222  0.30094  Biso   1.000  C
  C61      1.0000 0.70885  0.88222  0.30094  Biso   1.000  C
  O16      1.0000 0.33682  0.75094  0.11682  Biso   1.000  O
  N41      1.0000 0.42734  0.88941  0.31235  Biso   1.000  N
  H51      1.0000 0.46882  0.77131  0.35157  Biso   1.000  H
  H52      1.0000 0.35327  0.77672  0.28863  Biso   1.000  H
  N42      1.0000 0.42743  0.88941  0.31235  Biso   1.000  N
  H53      1.0000 0.46883  0.77131  0.35164  Biso   1.000  H
  H54      1.0000 0.35336  0.77672  0.28863  Biso   1.000  H
  C62      1.0000 0.49516  0.68033  0.98900  Biso   1.000  C
  C63      1.0000 0.49524  0.68033  0.98900  Biso   1.000  C
  C64      1.0000 0.78358  0.74725  0.00539  Biso   1.000  C
  C65      1.0000 0.78366  0.74725  0.00539  Biso   1.000  C
  O17      1.0000 0.82292  0.88884  0.12837  Biso   1.000  O
  O18      1.0000 0.82301  0.88884  0.12844  Biso   1.000  O
  H55      1.0000 0.70803  0.84809  0.35841  Biso   1.000  H
  H56      1.0000 0.78502  0.90972  0.29859  Biso   1.000  H
  N43      1.0000 0.62114  0.94760  0.30391  Biso   1.000  N
  N44      1.0000 0.62123  0.94760  0.30391  Biso   1.000  N
  C66      1.0000 0.51873  0.93920  0.35662  Biso   1.000  C
  C67      1.0000 0.34207  0.93894  0.27334  Biso   1.000  C
  C68      1.0000 0.34216  0.93894  0.27334  Biso   1.000  C
  N45      1.0000 0.52652  0.73241  0.91133  Biso   1.000  N
  H57      1.0000 0.41172  0.66881  0.98382  Biso   1.000  H
  H58      1.0000 0.53562  0.62501  0.98589  Biso   1.000  H
  H59      1.0000 0.86053  0.77392  0.01120  Biso   1.000  H
  H60      1.0000 0.79448  0.68479  0.00249  Biso   1.000  H
  N46      1.0000 0.72674  0.77558  0.92025  Biso   1.000  N
  C69      1.0000 0.64800  0.03101  0.28856  Biso   1.000  C
  H61      1.0000 0.53700  0.91991  0.42142  Biso   1.000  H
  C70      1.0000 0.46814  0.03094  0.35323  Biso   1.000  C
  O19      1.0000 0.25533  0.91233  0.23108  Biso   1.000  O
  O20      1.0000 0.25534  0.91233  0.23115  Biso   1.000  O
  N47      1.0000 0.36891  0.02292  0.28925  Biso   1.000  N
  N48      1.0000 0.36899  0.02292  0.28925  Biso   1.000  N
  C71      1.0000 0.44623  0.77201  0.85372  Biso   1.000  C
  C72      1.0000 0.63783  0.72726  0.87101  Biso   1.000  C
  C73      1.0000 0.75687  0.84797  0.87523  Biso   1.000  C
  C74      1.0000 0.75696  0.84797  0.87529  Biso   1.000  C
  N49      1.0000 0.56086  0.08073  0.31934  Biso   1.000  N
  N50      1.0000 0.56086  0.08073  0.31941  Biso   1.000  N
  O21      1.0000 0.73499  0.05730  0.25349  Biso   1.000  O
  O22      1.0000 0.73499  0.05730  0.25356  Biso   1.000  O
  H62      1.0000 0.44582  0.05061  0.41568  Biso   1.000  H
  C75      1.0000 0.28233  0.08811  0.27991  Biso   1.000  C
  O23      1.0000 0.34466  0.78112  0.86810  Biso   1.000  O
  N51      1.0000 0.50050  0.79907  0.77653  Biso   1.000  N
  N52      1.0000 0.50051  0.79907  0.77660  Biso   1.000  N
  C76      1.0000 0.62097  0.77749  0.77853  Biso   1.000  C
  H63      1.0000 0.66160  0.66703  0.86049  Biso   1.000  H
  C77      1.0000 0.62106  0.77749  0.77853  Biso   1.000  C
  N53      1.0000 0.69672  0.85032  0.79202  Biso   1.000  N
  N54      1.0000 0.69680  0.85032  0.79209  Biso   1.000  N
  O24      1.0000 0.82793  0.90055  0.90351  Biso   1.000  O
  C78      1.0000 0.56081  0.17145  0.30592  Biso   1.000  C
  N55      1.0000 0.30328  0.14968  0.20798  Biso   1.000  N
  H64      1.0000 0.20692  0.06067  0.26629  Biso   1.000  H
  H65      1.0000 0.27786  0.11842  0.33960  Biso   1.000  H
  H66      1.0000 0.27795  0.11842  0.33960  Biso   1.000  H
  C79      1.0000 0.43919  0.82855  0.69408  Biso   1.000  C
  H67      1.0000 0.64123  0.74247  0.72382  Biso   1.000  H
  C80      1.0000 0.71767  0.91189  0.72009  Biso   1.000  C
  C81      1.0000 0.71775  0.91189  0.72009  Biso   1.000  C
  N56      1.0000 0.49950  0.20093  0.22347  Biso   1.000  N
  H68      1.0000 0.52689  0.19851  0.36007  Biso   1.000  H
  H69      1.0000 0.64138  0.19100  0.30412  Biso   1.000  H
  N57      1.0000 0.49958  0.20093  0.22347  Biso   1.000  N
  C82      1.0000 0.37903  0.22251  0.22147  Biso   1.000  C
  C83      1.0000 0.24313  0.15203  0.12477  Biso   1.000  C
  N58      1.0000 0.43914  0.91927  0.68066  Biso   1.000  N
  H70      1.0000 0.47311  0.80149  0.63993  Biso   1.000  H
  H71      1.0000 0.35862  0.80900  0.69588  Biso   1.000  H
  N59      1.0000 0.63109  0.97708  0.71075  Biso   1.000  N
  H72      1.0000 0.79308  0.93933  0.73371  Biso   1.000  H
  H73      1.0000 0.72214  0.88158  0.66040  Biso   1.000  H
  H74      1.0000 0.79316  0.93933  0.73371  Biso   1.000  H
  C84      1.0000 0.55377  0.22799  0.14628  Biso   1.000  C
  C85      1.0000 0.55385  0.22799  0.14628  Biso   1.000  C
  H75      1.0000 0.35877  0.25753  0.27618  Biso   1.000  H
  C86      1.0000 0.36217  0.27274  0.12899  Biso   1.000  C
  H76      1.0000 0.35885  0.25753  0.27618  Biso   1.000  H
  C87      1.0000 0.36226  0.27274  0.12899  Biso   1.000  C
  O25      1.0000 0.17207  0.09945  0.09649  Biso   1.000  O
  N60      1.0000 0.27326  0.22442  0.07975  Biso   1.000  N
  N61      1.0000 0.27334  0.22442  0.07975  Biso   1.000  N
  C88      1.0000 0.35200  0.96899  0.71144  Biso   1.000  C
  C89      1.0000 0.53186  0.96906  0.64677  Biso   1.000  C
  C90      1.0000 0.53194  0.96906  0.64677  Biso   1.000  C
  C91      1.0000 0.65793  0.06106  0.72666  Biso   1.000  C
  O26      1.0000 0.65534  0.21888  0.13190  Biso   1.000  O
  N62      1.0000 0.47348  0.26759  0.08867  Biso   1.000  N
  H77      1.0000 0.33840  0.33297  0.13951  Biso   1.000  H
  C92      1.0000 0.21642  0.25275  0.99461  Biso   1.000  C
  O27      1.0000 0.26501  0.94270  0.74651  Biso   1.000  O
  N63      1.0000 0.37886  0.05240  0.69609  Biso   1.000  N
  H78      1.0000 0.55418  0.94939  0.58432  Biso   1.000  H
  C93      1.0000 0.48127  0.06080  0.64338  Biso   1.000  C
  C94      1.0000 0.48135  0.06080  0.64338  Biso   1.000  C
  N64      1.0000 0.57266  0.11059  0.68765  Biso   1.000  N
  O28      1.0000 0.74467  0.08767  0.76892  Biso   1.000  O
  C95      1.0000 0.50484  0.31967  0.01100  Biso   1.000  C
  C96      1.0000 0.50484  0.31967  0.01107  Biso   1.000  C
  N65      1.0000 0.27905  0.23232  0.91334  Biso   1.000  N
  H79      1.0000 0.13947  0.22608  0.98880  Biso   1.000  H
  H80      1.0000 0.20552  0.31521  0.99751  Biso   1.000  H
  H81      1.0000 0.13955  0.22608  0.98880  Biso   1.000  H
  C97      1.0000 0.29124  0.11778  0.69906  Biso   1.000  C
  H82      1.0000 0.46300  0.08009  0.57858  Biso   1.000  H
  C98      1.0000 0.56736  0.20125  0.70383  Biso   1.000  C
  C99      1.0000 0.56745  0.20125  0.70383  Biso   1.000  C
  N66      1.0000 0.47732  0.28070  0.92260  Biso   1.000  N
  H83      1.0000 0.58828  0.33119  0.01618  Biso   1.000  H
  H84      1.0000 0.46438  0.37499  0.01411  Biso   1.000  H
  H85      1.0000 0.46446  0.37499  0.01411  Biso   1.000  H
  C100     1.0000 0.24808  0.16623  0.85614  Biso   1.000  C
  C101     1.0000 0.36504  0.28701  0.87557  Biso   1.000  C
  H86      1.0000 0.29197  0.15191  0.64159  Biso   1.000  H
  H87      1.0000 0.21498  0.09028  0.70141  Biso   1.000  H
  N67      1.0000 0.30769  0.17381  0.77777  Biso   1.000  N
  H88      1.0000 0.29206  0.15191  0.64159  Biso   1.000  H
  H89      1.0000 0.53118  0.22869  0.64843  Biso   1.000  H
  H90      1.0000 0.64673  0.22328  0.71137  Biso   1.000  H
  N68      1.0000 0.50468  0.22608  0.78400  Biso   1.000  N
  H91      1.0000 0.53126  0.22869  0.64843  Biso   1.000  H
  H92      1.0000 0.64673  0.22328  0.71144  Biso   1.000  H
  C102     1.0000 0.55907  0.25154  0.86513  Biso   1.000  C
  C103     1.0000 0.55915  0.25154  0.86513  Biso   1.000  C
  O29      1.0000 0.17708  0.11116  0.87163  Biso   1.000  O
  C104     1.0000 0.38329  0.24683  0.77916  Biso   1.000  C
  H93      1.0000 0.33826  0.34742  0.87032  Biso   1.000  H
  H94      1.0000 0.33835  0.34742  0.87032  Biso   1.000  H
  O30      1.0000 0.66318  0.24906  0.88318  Biso   1.000  O
  H95      1.0000 0.36326  0.28739  0.72770  Biso   1.000  H
  H96      1.0000 0.36334  0.28739  0.72770  Biso   1.000  H
  C105     1.0000 0.61671  0.75317  0.22084  Biso   1.000  C
  N69      1.0000 0.49532  0.77392  0.21600  Biso   1.000  N
  N70      1.0000 0.49532  0.77392  0.21607  Biso   1.000  N
  C106     1.0000 0.63496  0.71299  0.12443  Biso   1.000  C
  C107     1.0000 0.63505  0.71299  0.12450  Biso   1.000  C
  N71      1.0000 0.69231  0.82619  0.22223  Biso   1.000  N
  H97      1.0000 0.63674  0.71261  0.27230  Biso   1.000  H
  C108     1.0000 0.44093  0.74846  0.13487  Biso   1.000  C
  C109     1.0000 0.43264  0.79875  0.29617  Biso   1.000  C
  C110     1.0000 0.43264  0.79875  0.29624  Biso   1.000  C
  N72      1.0000 0.52268  0.71930  0.07740  Biso   1.000  N
  N73      1.0000 0.52276  0.71930  0.07740  Biso   1.000  N
  N74      1.0000 0.72095  0.76768  0.08666  Biso   1.000  N
  H98      1.0000 0.66174  0.65258  0.12968  Biso   1.000  H
  C111     1.0000 0.75192  0.83377  0.14386  Biso   1.000  C
  C112     1.0000 0.70876  0.88222  0.30094  Biso   1.000  C
  C113     1.0000 0.70885  0.88222  0.30094  Biso   1.000  C
  O31      1.0000 0.33682  0.75094  0.11682  Biso   1.000  O
  N75      1.0000 0.42734  0.88941  0.31235  Biso   1.000  N
  H99      1.0000 0.46882  0.77131  0.35157  Biso   1.000  H
  H100     1.0000 0.35327  0.77672  0.28863  Biso   1.000  H
  N76      1.0000 0.42743  0.88941  0.31235  Biso   1.000  N
  H101     1.0000 0.46883  0.77131  0.35164  Biso   1.000  H
  H102     1.0000 0.35336  0.77672  0.28863  Biso   1.000  H
  C114     1.0000 0.49516  0.68033  0.98900  Biso   1.000  C
  C115     1.0000 0.49524  0.68033  0.98900  Biso   1.000  C
  C116     1.0000 0.78358  0.74725  0.00539  Biso   1.000  C
  C117     1.0000 0.78366  0.74725  0.00539  Biso   1.000  C
  O32      1.0000 0.82292  0.88884  0.12837  Biso   1.000  O
  O33      1.0000 0.82301  0.88884  0.12844  Biso   1.000  O
  H103     1.0000 0.70803  0.84809  0.35841  Biso   1.000  H
  H104     1.0000 0.78502  0.90972  0.29859  Biso   1.000  H
  N77      1.0000 0.62114  0.94760  0.30391  Biso   1.000  N
  N78      1.0000 0.62123  0.94760  0.30391  Biso   1.000  N
  C118     1.0000 0.51873  0.93920  0.35662  Biso   1.000  C
  C119     1.0000 0.34207  0.93894  0.27334  Biso   1.000  C
  C120     1.0000 0.34216  0.93894  0.27334  Biso   1.000  C
  N79      1.0000 0.52652  0.73241  0.91133  Biso   1.000  N
  H105     1.0000 0.41172  0.66881  0.98382  Biso   1.000  H
  H106     1.0000 0.53562  0.62501  0.98589  Biso   1.000  H
  N80      1.0000 0.72674  0.77558  0.92025  Biso   1.000  N
  H107     1.0000 0.86053  0.77392  0.01120  Biso   1.000  H
  H108     1.0000 0.79448  0.68479  0.00249  Biso   1.000  H
  C121     1.0000 0.64800  0.03101  0.28856  Biso   1.000  C
  H109     1.0000 0.53700  0.91991  0.42142  Biso   1.000  H
  C122     1.0000 0.46814  0.03094  0.35323  Biso   1.000  C
  O34      1.0000 0.25533  0.91233  0.23108  Biso   1.000  O
  O35      1.0000 0.25534  0.91233  0.23115  Biso   1.000  O
  N81      1.0000 0.36891  0.02292  0.28925  Biso   1.000  N
  N82      1.0000 0.36899  0.02292  0.28925  Biso   1.000  N
  C123     1.0000 0.44623  0.77201  0.85372  Biso   1.000  C
  C124     1.0000 0.63783  0.72726  0.87101  Biso   1.000  C
  C125     1.0000 0.75687  0.84797  0.87523  Biso   1.000  C
  C126     1.0000 0.75696  0.84797  0.87529  Biso   1.000  C
  N83      1.0000 0.56086  0.08073  0.31934  Biso   1.000  N
  N84      1.0000 0.56086  0.08073  0.31941  Biso   1.000  N
  O36      1.0000 0.73499  0.05730  0.25349  Biso   1.000  O
  O37      1.0000 0.73499  0.05730  0.25356  Biso   1.000  O
  H110     1.0000 0.44582  0.05061  0.41568  Biso   1.000  H
  C127     1.0000 0.28233  0.08811  0.27991  Biso   1.000  C
  O38      1.0000 0.34466  0.78112  0.86810  Biso   1.000  O
  N85      1.0000 0.50050  0.79907  0.77653  Biso   1.000  N
  N86      1.0000 0.50051  0.79907  0.77660  Biso   1.000  N
  C128     1.0000 0.62097  0.77749  0.77853  Biso   1.000  C
  H111     1.0000 0.66160  0.66703  0.86049  Biso   1.000  H
  C129     1.0000 0.62106  0.77749  0.77853  Biso   1.000  C
  N87      1.0000 0.69672  0.85032  0.79202  Biso   1.000  N
  N88      1.0000 0.69680  0.85032  0.79209  Biso   1.000  N
  O39      1.0000 0.82793  0.90055  0.90351  Biso   1.000  O
  C130     1.0000 0.56081  0.17145  0.30592  Biso   1.000  C
  N89      1.0000 0.30328  0.14968  0.20798  Biso   1.000  N
  H112     1.0000 0.20692  0.06067  0.26629  Biso   1.000  H
  H113     1.0000 0.27786  0.11842  0.33960  Biso   1.000  H
  H114     1.0000 0.27795  0.11842  0.33960  Biso   1.000  H
  C131     1.0000 0.43919  0.82855  0.69408  Biso   1.000  C
  H115     1.0000 0.64123  0.74247  0.72382  Biso   1.000  H
  C132     1.0000 0.71767  0.91189  0.72009  Biso   1.000  C
  C133     1.0000 0.71775  0.91189  0.72009  Biso   1.000  C
  N90      1.0000 0.49950  0.20093  0.22347  Biso   1.000  N
  H116     1.0000 0.52689  0.19851  0.36007  Biso   1.000  H
  H117     1.0000 0.64138  0.19100  0.30412  Biso   1.000  H
  N91      1.0000 0.49958  0.20093  0.22347  Biso   1.000  N
  C134     1.0000 0.37903  0.22251  0.22147  Biso   1.000  C
  C135     1.0000 0.24313  0.15203  0.12477  Biso   1.000  C
  N92      1.0000 0.43914  0.91927  0.68066  Biso   1.000  N
  H118     1.0000 0.47311  0.80149  0.63993  Biso   1.000  H
  H119     1.0000 0.35862  0.80900  0.69588  Biso   1.000  H
  N93      1.0000 0.63109  0.97708  0.71075  Biso   1.000  N
  H120     1.0000 0.79308  0.93933  0.73371  Biso   1.000  H
  H121     1.0000 0.72214  0.88158  0.66040  Biso   1.000  H
  H122     1.0000 0.79316  0.93933  0.73371  Biso   1.000  H
  C136     1.0000 0.55377  0.22799  0.14628  Biso   1.000  C
  C137     1.0000 0.55385  0.22799  0.14628  Biso   1.000  C
  H123     1.0000 0.35877  0.25753  0.27618  Biso   1.000  H
  C138     1.0000 0.36217  0.27274  0.12899  Biso   1.000  C
  H124     1.0000 0.35885  0.25753  0.27618  Biso   1.000  H
  C139     1.0000 0.36226  0.27274  0.12899  Biso   1.000  C
  O40      1.0000 0.17207  0.09945  0.09649  Biso   1.000  O
  N94      1.0000 0.27326  0.22442  0.07975  Biso   1.000  N
  N95      1.0000 0.27334  0.22442  0.07975  Biso   1.000  N
  C140     1.0000 0.35200  0.96899  0.71144  Biso   1.000  C
  C141     1.0000 0.53186  0.96906  0.64677  Biso   1.000  C
  C142     1.0000 0.53194  0.96906  0.64677  Biso   1.000  C
  C143     1.0000 0.65793  0.06106  0.72666  Biso   1.000  C
  O41      1.0000 0.65534  0.21888  0.13190  Biso   1.000  O
  N96      1.0000 0.47348  0.26759  0.08867  Biso   1.000  N
  H125     1.0000 0.33840  0.33297  0.13951  Biso   1.000  H
  C144     1.0000 0.21642  0.25275  0.99461  Biso   1.000  C
  O42      1.0000 0.26501  0.94270  0.74651  Biso   1.000  O
  N97      1.0000 0.37886  0.05240  0.69609  Biso   1.000  N
  H126     1.0000 0.55418  0.94939  0.58432  Biso   1.000  H
  C145     1.0000 0.48127  0.06080  0.64338  Biso   1.000  C
  C146     1.0000 0.48135  0.06080  0.64338  Biso   1.000  C
  N98      1.0000 0.57266  0.11059  0.68765  Biso   1.000  N
  O43      1.0000 0.74467  0.08767  0.76892  Biso   1.000  O
  C147     1.0000 0.50484  0.31967  0.01100  Biso   1.000  C
  C148     1.0000 0.50484  0.31967  0.01107  Biso   1.000  C
  N99      1.0000 0.27905  0.23232  0.91334  Biso   1.000  N
  H127     1.0000 0.13947  0.22608  0.98880  Biso   1.000  H
  H128     1.0000 0.20552  0.31521  0.99751  Biso   1.000  H
  H129     1.0000 0.13955  0.22608  0.98880  Biso   1.000  H
  C149     1.0000 0.29124  0.11778  0.69906  Biso   1.000  C
  H130     1.0000 0.46300  0.08009  0.57858  Biso   1.000  H
  C150     1.0000 0.56736  0.20125  0.70383  Biso   1.000  C
  C151     1.0000 0.56745  0.20125  0.70383  Biso   1.000  C
  N100     1.0000 0.47732  0.28070  0.92260  Biso   1.000  N
  H131     1.0000 0.58828  0.33119  0.01618  Biso   1.000  H
  H132     1.0000 0.46438  0.37499  0.01411  Biso   1.000  H
  H133     1.0000 0.46446  0.37499  0.01411  Biso   1.000  H
  C152     1.0000 0.24808  0.16623  0.85614  Biso   1.000  C
  C153     1.0000 0.36504  0.28701  0.87557  Biso   1.000  C
  H134     1.0000 0.29197  0.15191  0.64159  Biso   1.000  H
  H135     1.0000 0.21498  0.09028  0.70141  Biso   1.000  H
  N101     1.0000 0.30769  0.17381  0.77777  Biso   1.000  N
  H136     1.0000 0.29206  0.15191  0.64159  Biso   1.000  H
  H137     1.0000 0.53118  0.22869  0.64843  Biso   1.000  H
  H138     1.0000 0.64673  0.22328  0.71137  Biso   1.000  H
  N102     1.0000 0.50468  0.22608  0.78400  Biso   1.000  N
  H139     1.0000 0.53126  0.22869  0.64843  Biso   1.000  H
  H140     1.0000 0.64673  0.22328  0.71144  Biso   1.000  H
  C154     1.0000 0.55907  0.25154  0.86513  Biso   1.000  C
  C155     1.0000 0.55915  0.25154  0.86513  Biso   1.000  C
  O44      1.0000 0.17708  0.11116  0.87163  Biso   1.000  O
  C156     1.0000 0.38329  0.24683  0.77916  Biso   1.000  C
  H141     1.0000 0.33826  0.34742  0.87032  Biso   1.000  H
  H142     1.0000 0.33835  0.34742  0.87032  Biso   1.000  H
  O45      1.0000 0.66318  0.24906  0.88318  Biso   1.000  O
  H143     1.0000 0.36326  0.28739  0.72770  Biso   1.000  H
  H144     1.0000 0.36334  0.28739  0.72770  Biso   1.000  H
  C157     1.0000 0.61671  0.75317  0.22084  Biso   1.000  C
  N103     1.0000 0.49532  0.77392  0.21600  Biso   1.000  N
  N104     1.0000 0.49532  0.77392  0.21607  Biso   1.000  N
  C158     1.0000 0.63496  0.71299  0.12443  Biso   1.000  C
  C159     1.0000 0.63505  0.71299  0.12450  Biso   1.000  C
  N105     1.0000 0.69231  0.82619  0.22223  Biso   1.000  N
  H145     1.0000 0.63674  0.71261  0.27230  Biso   1.000  H
  C160     1.0000 0.44093  0.74846  0.13487  Biso   1.000  C
  C161     1.0000 0.43264  0.79875  0.29617  Biso   1.000  C
  C162     1.0000 0.43264  0.79875  0.29624  Biso   1.000  C
  N106     1.0000 0.52268  0.71930  0.07740  Biso   1.000  N
  N107     1.0000 0.52276  0.71930  0.07740  Biso   1.000  N
  N108     1.0000 0.72095  0.76768  0.08666  Biso   1.000  N
  H146     1.0000 0.66174  0.65258  0.12968  Biso   1.000  H
  C163     1.0000 0.75192  0.83377  0.14386  Biso   1.000  C
  C164     1.0000 0.70876  0.88222  0.30094  Biso   1.000  C
  C165     1.0000 0.70885  0.88222  0.30094  Biso   1.000  C
  O46      1.0000 0.33682  0.75094  0.11682  Biso   1.000  O
  N109     1.0000 0.42734  0.88941  0.31235  Biso   1.000  N
  H147     1.0000 0.46882  0.77131  0.35157  Biso   1.000  H
  H148     1.0000 0.35327  0.77672  0.28863  Biso   1.000  H
  N110     1.0000 0.42743  0.88941  0.31235  Biso   1.000  N
  H149     1.0000 0.46883  0.77131  0.35164  Biso   1.000  H
  H150     1.0000 0.35336  0.77672  0.28863  Biso   1.000  H
  C166     1.0000 0.49516  0.68033  0.98900  Biso   1.000  C
  C167     1.0000 0.49524  0.68033  0.98900  Biso   1.000  C
  C168     1.0000 0.78358  0.74725  0.00539  Biso   1.000  C
  C169     1.0000 0.78366  0.74725  0.00539  Biso   1.000  C
  O47      1.0000 0.82292  0.88884  0.12837  Biso   1.000  O
  O48      1.0000 0.82301  0.88884  0.12844  Biso   1.000  O
  H151     1.0000 0.70803  0.84809  0.35841  Biso   1.000  H
  H152     1.0000 0.78502  0.90972  0.29859  Biso   1.000  H
  N111     1.0000 0.62114  0.94760  0.30391  Biso   1.000  N
  N112     1.0000 0.62123  0.94760  0.30391  Biso   1.000  N
  C170     1.0000 0.51873  0.93920  0.35662  Biso   1.000  C
  C171     1.0000 0.34207  0.93894  0.27334  Biso   1.000  C
  C172     1.0000 0.34216  0.93894  0.27334  Biso   1.000  C
  N113     1.0000 0.52652  0.73241  0.91133  Biso   1.000  N
  H153     1.0000 0.41172  0.66881  0.98382  Biso   1.000  H
  H154     1.0000 0.53562  0.62501  0.98589  Biso   1.000  H
  N114     1.0000 0.72674  0.77558  0.92025  Biso   1.000  N
  H155     1.0000 0.86053  0.77392  0.01120  Biso   1.000  H
  H156     1.0000 0.79448  0.68479  0.00249  Biso   1.000  H
  C173     1.0000 0.64800  0.03101  0.28856  Biso   1.000  C
  H157     1.0000 0.53700  0.91991  0.42142  Biso   1.000  H
  C174     1.0000 0.46814  0.03094  0.35323  Biso   1.000  C
  O49      1.0000 0.25533  0.91233  0.23108  Biso   1.000  O
  O50      1.0000 0.25534  0.91233  0.23115  Biso   1.000  O
  N115     1.0000 0.36891  0.02292  0.28925  Biso   1.000  N
  N116     1.0000 0.36899  0.02292  0.28925  Biso   1.000  N
  C175     1.0000 0.44623  0.77201  0.85372  Biso   1.000  C
  C176     1.0000 0.63783  0.72726  0.87101  Biso   1.000  C
  C177     1.0000 0.75687  0.84797  0.87523  Biso   1.000  C
  C178     1.0000 0.75696  0.84797  0.87529  Biso   1.000  C
  N117     1.0000 0.56086  0.08073  0.31934  Biso   1.000  N
  N118     1.0000 0.56086  0.08073  0.31941  Biso   1.000  N
  O51      1.0000 0.73499  0.05730  0.25349  Biso   1.000  O
  O52      1.0000 0.73499  0.05730  0.25356  Biso   1.000  O
  H158     1.0000 0.44582  0.05061  0.41568  Biso   1.000  H
  C179     1.0000 0.28233  0.08811  0.27991  Biso   1.000  C
  O53      1.0000 0.34466  0.78112  0.86810  Biso   1.000  O
  N119     1.0000 0.50050  0.79907  0.77653  Biso   1.000  N
  N120     1.0000 0.50051  0.79907  0.77660  Biso   1.000  N
  C180     1.0000 0.62097  0.77749  0.77853  Biso   1.000  C
  H159     1.0000 0.66160  0.66703  0.86049  Biso   1.000  H
  C181     1.0000 0.62106  0.77749  0.77853  Biso   1.000  C
  N121     1.0000 0.69672  0.85032  0.79202  Biso   1.000  N
  N122     1.0000 0.69680  0.85032  0.79209  Biso   1.000  N
  O54      1.0000 0.82793  0.90055  0.90351  Biso   1.000  O
  C182     1.0000 0.56081  0.17145  0.30592  Biso   1.000  C
  N123     1.0000 0.30328  0.14968  0.20798  Biso   1.000  N
  H160     1.0000 0.20692  0.06067  0.26629  Biso   1.000  H
  H161     1.0000 0.27786  0.11842  0.33960  Biso   1.000  H
  H162     1.0000 0.27795  0.11842  0.33960  Biso   1.000  H
  C183     1.0000 0.43919  0.82855  0.69408  Biso   1.000  C
  H163     1.0000 0.64123  0.74247  0.72382  Biso   1.000  H
  C184     1.0000 0.71767  0.91189  0.72009  Biso   1.000  C
  C185     1.0000 0.71775  0.91189  0.72009  Biso   1.000  C
  N124     1.0000 0.49950  0.20093  0.22347  Biso   1.000  N
  H164     1.0000 0.52689  0.19851  0.36007  Biso   1.000  H
  H165     1.0000 0.64138  0.19100  0.30412  Biso   1.000  H
  N125     1.0000 0.49958  0.20093  0.22347  Biso   1.000  N
  C186     1.0000 0.37903  0.22251  0.22147  Biso   1.000  C
  C187     1.0000 0.24313  0.15203  0.12477  Biso   1.000  C
  N126     1.0000 0.43914  0.91927  0.68066  Biso   1.000  N
  H166     1.0000 0.47311  0.80149  0.63993  Biso   1.000  H
  H167     1.0000 0.35862  0.80900  0.69588  Biso   1.000  H
  N127     1.0000 0.63109  0.97708  0.71075  Biso   1.000  N
  H168     1.0000 0.79308  0.93933  0.73371  Biso   1.000  H
  H169     1.0000 0.72214  0.88158  0.66040  Biso   1.000  H
  H170     1.0000 0.79316  0.93933  0.73371  Biso   1.000  H
  C188     1.0000 0.55377  0.22799  0.14628  Biso   1.000  C
  C189     1.0000 0.55385  0.22799  0.14628  Biso   1.000  C
  H171     1.0000 0.35877  0.25753  0.27618  Biso   1.000  H
  C190     1.0000 0.36217  0.27274  0.12899  Biso   1.000  C
  H172     1.0000 0.35885  0.25753  0.27618  Biso   1.000  H
  C191     1.0000 0.36226  0.27274  0.12899  Biso   1.000  C
  O55      1.0000 0.17207  0.09945  0.09649  Biso   1.000  O
  N128     1.0000 0.27326  0.22442  0.07975  Biso   1.000  N
  N129     1.0000 0.27334  0.22442  0.07975  Biso   1.000  N
  C192     1.0000 0.35200  0.96899  0.71144  Biso   1.000  C
  C193     1.0000 0.53186  0.96906  0.64677  Biso   1.000  C
  C194     1.0000 0.53194  0.96906  0.64677  Biso   1.000  C
  C195     1.0000 0.65793  0.06106  0.72666  Biso   1.000  C
  O56      1.0000 0.65534  0.21888  0.13190  Biso   1.000  O
  N130     1.0000 0.47348  0.26759  0.08867  Biso   1.000  N
  H173     1.0000 0.33840  0.33297  0.13951  Biso   1.000  H
  C196     1.0000 0.21642  0.25275  0.99461  Biso   1.000  C
  O57      1.0000 0.26501  0.94270  0.74651  Biso   1.000  O
  N131     1.0000 0.37886  0.05240  0.69609  Biso   1.000  N
  H174     1.0000 0.55418  0.94939  0.58432  Biso   1.000  H
  C197     1.0000 0.48127  0.06080  0.64338  Biso   1.000  C
  C198     1.0000 0.48135  0.06080  0.64338  Biso   1.000  C
  N132     1.0000 0.57266  0.11059  0.68765  Biso   1.000  N
  O58      1.0000 0.74467  0.08767  0.76892  Biso   1.000  O
  C199     1.0000 0.50484  0.31967  0.01100  Biso   1.000  C
  C200     1.0000 0.50484  0.31967  0.01107  Biso   1.000  C
  N133     1.0000 0.27905  0.23232  0.91334  Biso   1.000  N
  H175     1.0000 0.13947  0.22608  0.98880  Biso   1.000  H
  H176     1.0000 0.20552  0.31521  0.99751  Biso   1.000  H
  H177     1.0000 0.13955  0.22608  0.98880  Biso   1.000  H
  C201     1.0000 0.29124  0.11778  0.69906  Biso   1.000  C
  H178     1.0000 0.46300  0.08009  0.57858  Biso   1.000  H
  C202     1.0000 0.56736  0.20125  0.70383  Biso   1.000  C
  C203     1.0000 0.56745  0.20125  0.70383  Biso   1.000  C
  N134     1.0000 0.47732  0.28070  0.92260  Biso   1.000  N
  H179     1.0000 0.58828  0.33119  0.01618  Biso   1.000  H
  H180     1.0000 0.46438  0.37499  0.01411  Biso   1.000  H
  H181     1.0000 0.46446  0.37499  0.01411  Biso   1.000  H
  C204     1.0000 0.24808  0.16623  0.85614  Biso   1.000  C
  C205     1.0000 0.36504  0.28701  0.87557  Biso   1.000  C
  H182     1.0000 0.29197  0.15191  0.64159  Biso   1.000  H
  H183     1.0000 0.21498  0.09028  0.70141  Biso   1.000  H
  N135     1.0000 0.30769  0.17381  0.77777  Biso   1.000  N
  H184     1.0000 0.29206  0.15191  0.64159  Biso   1.000  H
  H185     1.0000 0.53118  0.22869  0.64843  Biso   1.000  H
  H186     1.0000 0.64673  0.22328  0.71137  Biso   1.000  H
  N136     1.0000 0.50468  0.22608  0.78400  Biso   1.000  N
  H187     1.0000 0.53126  0.22869  0.64843  Biso   1.000  H
  H188     1.0000 0.64673  0.22328  0.71144  Biso   1.000  H
  C206     1.0000 0.55907  0.25154  0.86513  Biso   1.000  C
  C207     1.0000 0.55915  0.25154  0.86513  Biso   1.000  C
  O59      1.0000 0.17708  0.11116  0.87163  Biso   1.000  O
  C208     1.0000 0.38329  0.24683  0.77916  Biso   1.000  C
  H189     1.0000 0.33826  0.34742  0.87032  Biso   1.000  H
  H190     1.0000 0.33835  0.34742  0.87032  Biso   1.000  H
  O60      1.0000 0.66318  0.24906  0.88318  Biso   1.000  O
  H191     1.0000 0.36326  0.28739  0.72770  Biso   1.000  H
  H192     1.0000 0.36334  0.28739  0.72770  Biso   1.000  H
  O61      1.0000 0.84460  0.71885  0.36810  Biso   1.000  O
  C209     1.0000 0.94618  0.72796  0.35371  Biso   1.000  C
  N137     1.0000 0.00045  0.70090  0.27659  Biso   1.000  N
  N138     1.0000 0.02655  0.76762  0.41133  Biso   1.000  N
  C210     1.0000 0.93922  0.67142  0.19408  Biso   1.000  C
  C211     1.0000 0.12101  0.72254  0.27853  Biso   1.000  C
  C212     1.0000 0.13777  0.77271  0.37100  Biso   1.000  C
  C213     1.0000 0.99519  0.81970  0.48900  Biso   1.000  C
  N139     1.0000 0.93909  0.58070  0.18066  Biso   1.000  N
  H193     1.0000 0.97314  0.69848  0.13992  Biso   1.000  H
  H194     1.0000 0.85856  0.69103  0.19588  Biso   1.000  H
  N140     1.0000 0.19675  0.64971  0.29202  Biso   1.000  N
  H195     1.0000 0.14118  0.75750  0.22382  Biso   1.000  H
  N141     1.0000 0.22669  0.72445  0.42025  Biso   1.000  N
  H196     1.0000 0.16163  0.83300  0.36049  Biso   1.000  H
  H197     1.0000 0.91167  0.83122  0.48381  Biso   1.000  H
  N142     1.0000 0.02271  0.78067  0.57739  Biso   1.000  N
  H198     1.0000 0.03557  0.87502  0.48589  Biso   1.000  H
  C214     1.0000 0.85204  0.53104  0.21144  Biso   1.000  C
  C215     1.0000 0.03189  0.53091  0.14677  Biso   1.000  C
  C216     1.0000 0.21770  0.58808  0.22008  Biso   1.000  C
  C217     1.0000 0.25691  0.65200  0.37529  Biso   1.000  C
  C218     1.0000 0.28361  0.75272  0.50539  Biso   1.000  C
  C219     1.0000 0.94088  0.75158  0.63487  Biso   1.000  C
  C220     1.0000 0.13500  0.78704  0.62449  Biso   1.000  C
  N143     1.0000 0.87881  0.44757  0.19608  Biso   1.000  N
  O62      1.0000 0.76504  0.55727  0.24651  Biso   1.000  O
  C221     1.0000 0.98130  0.43917  0.14338  Biso   1.000  C
  N144     1.0000 0.13104  0.52289  0.21075  Biso   1.000  N
  H199     1.0000 0.05422  0.55058  0.08431  Biso   1.000  H
  H200     1.0000 0.29311  0.56071  0.23371  Biso   1.000  H
  H201     1.0000 0.22209  0.61839  0.16039  Biso   1.000  H
  O63      1.0000 0.32788  0.59948  0.40351  Biso   1.000  O
  N145     1.0000 0.22099  0.73235  0.58666  Biso   1.000  N
  H202     1.0000 0.36048  0.72611  0.51120  Biso   1.000  H
  H203     1.0000 0.29451  0.81518  0.50249  Biso   1.000  H
  N146     1.0000 0.99535  0.72605  0.71600  Biso   1.000  N
  O64      1.0000 0.83677  0.74909  0.61682  Biso   1.000  O
  C222     1.0000 0.11666  0.74680  0.72084  Biso   1.000  C
  H204     1.0000 0.16169  0.84739  0.62968  Biso   1.000  H
  C223     1.0000 0.79118  0.38219  0.19906  Biso   1.000  C
  N147     1.0000 0.07260  0.38938  0.18765  Biso   1.000  N
  H205     1.0000 0.96303  0.41988  0.07857  Biso   1.000  H
  C224     1.0000 0.15788  0.43898  0.22665  Biso   1.000  C
  C225     1.0000 0.25187  0.66620  0.64386  Biso   1.000  C
  C226     1.0000 0.93259  0.70122  0.79623  Biso   1.000  C
  N148     1.0000 0.19235  0.67378  0.72222  Biso   1.000  N
  H206     1.0000 0.13669  0.78742  0.77230  Biso   1.000  H
  N149     1.0000 0.80772  0.32622  0.27777  Biso   1.000  N
  H207     1.0000 0.79200  0.34813  0.14158  Biso   1.000  H
  H208     1.0000 0.71501  0.40969  0.20141  Biso   1.000  H
  C227     1.0000 0.06740  0.29878  0.20383  Biso   1.000  C
  O65      1.0000 0.24470  0.41236  0.26891  Biso   1.000  O
  O66      1.0000 0.32295  0.61113  0.62837  Biso   1.000  O
  N150     1.0000 0.92738  0.61062  0.81235  Biso   1.000  N
  H209     1.0000 0.96877  0.72872  0.85163  Biso   1.000  H
  H210     1.0000 0.85331  0.72331  0.78862  Biso   1.000  H
  C228     1.0000 0.20880  0.61781  0.80093  Biso   1.000  C
  C229     1.0000 0.74811  0.33380  0.35613  Biso   1.000  C
  C230     1.0000 0.88332  0.25320  0.27915  Biso   1.000  C
  N151     1.0000 0.00471  0.27395  0.28399  Biso   1.000  N
  H211     1.0000 0.03121  0.27128  0.14843  Biso   1.000  H
  H212     1.0000 0.14667  0.27669  0.21137  Biso   1.000  H
  C231     1.0000 0.84210  0.56102  0.77334  Biso   1.000  C
  C232     1.0000 0.01868  0.56083  0.85661  Biso   1.000  C
  N152     1.0000 0.12117  0.55243  0.80391  Biso   1.000  N
  H213     1.0000 0.20798  0.65187  0.85841  Biso   1.000  H
  H214     1.0000 0.28497  0.59031  0.79858  Biso   1.000  H
  O67      1.0000 0.67703  0.38887  0.37163  Biso   1.000  O
  N153     1.0000 0.77908  0.26765  0.41333  Biso   1.000  N
  C233     1.0000 0.86498  0.21296  0.37557  Biso   1.000  C
  H215     1.0000 0.86329  0.21258  0.22769  Biso   1.000  H
  C234     1.0000 0.05910  0.24842  0.36512  Biso   1.000  C
  N154     1.0000 0.86894  0.47711  0.78925  Biso   1.000  N
  O68      1.0000 0.75537  0.58764  0.73108  Biso   1.000  O
  C235     1.0000 0.96809  0.46909  0.85322  Biso   1.000  C
  H216     1.0000 0.03703  0.58012  0.92142  Biso   1.000  H
  C236     1.0000 0.14803  0.46896  0.78855  Biso   1.000  C
  C237     1.0000 0.71637  0.24728  0.49460  Biso   1.000  C
  N155     1.0000 0.97727  0.21933  0.42260  Biso   1.000  N
  H217     1.0000 0.83829  0.15261  0.37031  Biso   1.000  H
  O69      1.0000 0.16321  0.25091  0.38318  Biso   1.000  O
  C238     1.0000 0.78228  0.41192  0.77991  Biso   1.000  C
  N156     1.0000 0.06089  0.41930  0.81940  Biso   1.000  N
  H218     1.0000 0.94576  0.44942  0.91568  Biso   1.000  H
  O70      1.0000 0.23502  0.44273  0.75349  Biso   1.000  O
  N157     1.0000 0.77329  0.27555  0.57974  Biso   1.000  N
  H219     1.0000 0.63950  0.27389  0.48879  Biso   1.000  H
  H220     1.0000 0.70547  0.18482  0.49751  Biso   1.000  H
  C239     1.0000 0.00479  0.18030  0.51106  Biso   1.000  C
  N158     1.0000 0.80323  0.35029  0.70798  Biso   1.000  N
  H221     1.0000 0.70687  0.43929  0.76628  Biso   1.000  H
  H222     1.0000 0.77789  0.38161  0.83960  Biso   1.000  H
  C240     1.0000 0.06076  0.32858  0.80591  Biso   1.000  C
  C241     1.0000 0.86221  0.22729  0.62899  Biso   1.000  C
  C242     1.0000 0.74307  0.34800  0.62477  Biso   1.000  C
  N159     1.0000 0.97352  0.23238  0.58867  Biso   1.000  N
  H223     1.0000 0.96441  0.12498  0.51411  Biso   1.000  H
  H224     1.0000 0.08831  0.16878  0.51618  Biso   1.000  H
  C243     1.0000 0.87898  0.27746  0.72146  Biso   1.000  C
  N160     1.0000 0.99953  0.29910  0.72347  Biso   1.000  N
  H225     1.0000 0.02693  0.30152  0.86007  Biso   1.000  H
  H226     1.0000 0.14142  0.30897  0.80412  Biso   1.000  H
  H227     1.0000 0.83843  0.16700  0.63950  Biso   1.000  H
  O71      1.0000 0.67210  0.40052  0.59648  Biso   1.000  O
  C244     1.0000 0.05380  0.27204  0.64628  Biso   1.000  C
  H228     1.0000 0.85880  0.24250  0.77617  Biso   1.000  H
  O72      1.0000 0.15538  0.28115  0.63189  Biso   1.000  O
  O73      1.0000 0.84460  0.71885  0.36810  Biso   1.000  O
  C245     1.0000 0.94618  0.72796  0.35371  Biso   1.000  C
  N161     1.0000 0.00045  0.70090  0.27659  Biso   1.000  N
  N162     1.0000 0.02655  0.76762  0.41133  Biso   1.000  N
  C246     1.0000 0.93922  0.67142  0.19408  Biso   1.000  C
  C247     1.0000 0.12101  0.72254  0.27853  Biso   1.000  C
  C248     1.0000 0.13777  0.77271  0.37100  Biso   1.000  C
  C249     1.0000 0.99519  0.81970  0.48900  Biso   1.000  C
  N163     1.0000 0.93909  0.58070  0.18066  Biso   1.000  N
  H229     1.0000 0.97314  0.69848  0.13992  Biso   1.000  H
  H230     1.0000 0.85856  0.69103  0.19588  Biso   1.000  H
  N164     1.0000 0.19675  0.64971  0.29202  Biso   1.000  N
  H231     1.0000 0.14118  0.75750  0.22382  Biso   1.000  H
  N165     1.0000 0.22669  0.72445  0.42025  Biso   1.000  N
  H232     1.0000 0.16163  0.83300  0.36049  Biso   1.000  H
  H233     1.0000 0.91167  0.83122  0.48381  Biso   1.000  H
  N166     1.0000 0.02271  0.78067  0.57739  Biso   1.000  N
  H234     1.0000 0.03557  0.87502  0.48589  Biso   1.000  H
  C250     1.0000 0.85204  0.53104  0.21144  Biso   1.000  C
  C251     1.0000 0.03189  0.53091  0.14677  Biso   1.000  C
  C252     1.0000 0.21770  0.58808  0.22008  Biso   1.000  C
  C253     1.0000 0.25691  0.65200  0.37529  Biso   1.000  C
  C254     1.0000 0.28361  0.75272  0.50539  Biso   1.000  C
  C255     1.0000 0.94088  0.75158  0.63487  Biso   1.000  C
  C256     1.0000 0.13500  0.78704  0.62449  Biso   1.000  C
  N167     1.0000 0.87881  0.44757  0.19608  Biso   1.000  N
  O74      1.0000 0.76504  0.55727  0.24651  Biso   1.000  O
  C257     1.0000 0.98130  0.43917  0.14338  Biso   1.000  C
  N168     1.0000 0.13104  0.52289  0.21075  Biso   1.000  N
  H235     1.0000 0.05422  0.55058  0.08431  Biso   1.000  H
  H236     1.0000 0.29311  0.56071  0.23371  Biso   1.000  H
  H237     1.0000 0.22209  0.61839  0.16039  Biso   1.000  H
  O75      1.0000 0.32788  0.59948  0.40351  Biso   1.000  O
  N169     1.0000 0.22099  0.73235  0.58666  Biso   1.000  N
  H238     1.0000 0.36048  0.72611  0.51120  Biso   1.000  H
  H239     1.0000 0.29451  0.81518  0.50249  Biso   1.000  H
  N170     1.0000 0.99535  0.72605  0.71600  Biso   1.000  N
  O76      1.0000 0.83677  0.74909  0.61682  Biso   1.000  O
  C258     1.0000 0.11666  0.74680  0.72084  Biso   1.000  C
  H240     1.0000 0.16169  0.84739  0.62968  Biso   1.000  H
  C259     1.0000 0.79118  0.38219  0.19906  Biso   1.000  C
  N171     1.0000 0.07260  0.38938  0.18765  Biso   1.000  N
  H241     1.0000 0.96303  0.41988  0.07857  Biso   1.000  H
  C260     1.0000 0.15788  0.43898  0.22665  Biso   1.000  C
  C261     1.0000 0.25187  0.66620  0.64386  Biso   1.000  C
  C262     1.0000 0.93259  0.70122  0.79623  Biso   1.000  C
  N172     1.0000 0.19235  0.67378  0.72222  Biso   1.000  N
  H242     1.0000 0.13669  0.78742  0.77230  Biso   1.000  H
  N173     1.0000 0.80772  0.32622  0.27777  Biso   1.000  N
  H243     1.0000 0.79200  0.34813  0.14158  Biso   1.000  H
  H244     1.0000 0.71501  0.40969  0.20141  Biso   1.000  H
  C263     1.0000 0.06740  0.29878  0.20383  Biso   1.000  C
  O77      1.0000 0.24470  0.41236  0.26891  Biso   1.000  O
  O78      1.0000 0.32295  0.61113  0.62837  Biso   1.000  O
  N174     1.0000 0.92738  0.61062  0.81235  Biso   1.000  N
  H245     1.0000 0.96877  0.72872  0.85163  Biso   1.000  H
  H246     1.0000 0.85331  0.72331  0.78862  Biso   1.000  H
  C264     1.0000 0.20880  0.61781  0.80093  Biso   1.000  C
  C265     1.0000 0.74811  0.33380  0.35613  Biso   1.000  C
  C266     1.0000 0.88332  0.25320  0.27915  Biso   1.000  C
  N175     1.0000 0.00471  0.27395  0.28399  Biso   1.000  N
  H247     1.0000 0.03121  0.27128  0.14843  Biso   1.000  H
  H248     1.0000 0.14667  0.27669  0.21137  Biso   1.000  H
  C267     1.0000 0.84210  0.56102  0.77334  Biso   1.000  C
  C268     1.0000 0.01868  0.56083  0.85661  Biso   1.000  C
  N176     1.0000 0.12117  0.55243  0.80391  Biso   1.000  N
  H249     1.0000 0.20798  0.65187  0.85841  Biso   1.000  H
  H250     1.0000 0.28497  0.59031  0.79858  Biso   1.000  H
  O79      1.0000 0.67703  0.38887  0.37163  Biso   1.000  O
  N177     1.0000 0.77908  0.26765  0.41333  Biso   1.000  N
  C269     1.0000 0.86498  0.21296  0.37557  Biso   1.000  C
  H251     1.0000 0.86329  0.21258  0.22769  Biso   1.000  H
  C270     1.0000 0.05910  0.24842  0.36512  Biso   1.000  C
  N178     1.0000 0.86894  0.47711  0.78925  Biso   1.000  N
  O80      1.0000 0.75537  0.58764  0.73108  Biso   1.000  O
  C271     1.0000 0.96809  0.46909  0.85322  Biso   1.000  C
  H252     1.0000 0.03703  0.58012  0.92142  Biso   1.000  H
  C272     1.0000 0.14803  0.46896  0.78855  Biso   1.000  C
  C273     1.0000 0.71637  0.24728  0.49460  Biso   1.000  C
  N179     1.0000 0.97727  0.21933  0.42260  Biso   1.000  N
  H253     1.0000 0.83829  0.15261  0.37031  Biso   1.000  H
  O81      1.0000 0.16321  0.25091  0.38318  Biso   1.000  O
  C274     1.0000 0.78228  0.41192  0.77991  Biso   1.000  C
  N180     1.0000 0.06089  0.41930  0.81940  Biso   1.000  N
  H254     1.0000 0.94576  0.44942  0.91568  Biso   1.000  H
  O82      1.0000 0.23502  0.44273  0.75349  Biso   1.000  O
  N181     1.0000 0.77329  0.27555  0.57974  Biso   1.000  N
  H255     1.0000 0.63950  0.27389  0.48879  Biso   1.000  H
  H256     1.0000 0.70547  0.18482  0.49751  Biso   1.000  H
  C275     1.0000 0.00479  0.18030  0.51106  Biso   1.000  C
  N182     1.0000 0.80323  0.35029  0.70798  Biso   1.000  N
  H257     1.0000 0.70687  0.43929  0.76628  Biso   1.000  H
  H258     1.0000 0.77789  0.38161  0.83960  Biso   1.000  H
  C276     1.0000 0.06076  0.32858  0.80591  Biso   1.000  C
  C277     1.0000 0.86221  0.22729  0.62899  Biso   1.000  C
  C278     1.0000 0.74307  0.34800  0.62477  Biso   1.000  C
  N183     1.0000 0.97352  0.23238  0.58867  Biso   1.000  N
  H259     1.0000 0.96441  0.12498  0.51411  Biso   1.000  H
  H260     1.0000 0.08831  0.16878  0.51618  Biso   1.000  H
  C279     1.0000 0.87898  0.27746  0.72146  Biso   1.000  C
  N184     1.0000 0.99953  0.29910  0.72347  Biso   1.000  N
  H261     1.0000 0.02693  0.30152  0.86007  Biso   1.000  H
  H262     1.0000 0.14142  0.30897  0.80412  Biso   1.000  H
  H263     1.0000 0.83843  0.16700  0.63950  Biso   1.000  H
  O83      1.0000 0.67210  0.40052  0.59648  Biso   1.000  O
  C280     1.0000 0.05380  0.27204  0.64628  Biso   1.000  C
  H264     1.0000 0.85880  0.24250  0.77617  Biso   1.000  H
  O84      1.0000 0.15538  0.28115  0.63189  Biso   1.000  O
