data_image0
_cell_length_a       15.922
_cell_length_b       16.791
_cell_length_c       16.453
_cell_angle_alpha    90
_cell_angle_beta     90
_cell_angle_gamma    90

_symmetry_space_group_name_H-M    "P 1"
_symmetry_int_tables_number       1

loop_
  _symmetry_equiv_pos_as_xyz
  'x, y, z'

loop_
  _atom_site_label
  _atom_site_occupancy
  _atom_site_fract_x
  _atom_site_fract_y
  _atom_site_fract_z
  _atom_site_thermal_displace_type
  _atom_site_B_iso_or_equiv
  _atom_site_type_symbol
  C1       1.0000 0.19753  0.51861  0.41391  Biso   1.000  C
  C2       1.0000 0.10721  0.53112  0.43111  Biso   1.000  C
  O1       1.0000 0.23810  0.59151  0.40588  Biso   1.000  O
  H1       1.0000 0.20368  0.48812  0.36413  Biso   1.000  H
  H2       1.0000 0.22277  0.48842  0.45779  Biso   1.000  H
  O2       1.0000 0.07003  0.57668  0.36638  Biso   1.000  O
  H3       1.0000 0.10068  0.55929  0.48222  Biso   1.000  H
  H4       1.0000 0.07901  0.48008  0.43573  Biso   1.000  H
  C3       1.0000 0.32471  0.58359  0.38662  Biso   1.000  C
  C4       1.0000 0.98348  0.57316  0.36322  Biso   1.000  C
  H5       1.0000 0.35473  0.56018  0.43202  Biso   1.000  H
  H6       1.0000 0.33162  0.54922  0.33969  Biso   1.000  H
  C5       1.0000 0.35837  0.66417  0.36863  Biso   1.000  C
  C6       1.0000 0.94643  0.52105  0.30809  Biso   1.000  C
  C7       1.0000 0.93512  0.62349  0.41202  Biso   1.000  C
  N1       1.0000 0.33325  0.69263  0.28767  Biso   1.000  N
  H7       1.0000 0.41929  0.66280  0.37179  Biso   1.000  H
  H8       1.0000 0.33840  0.70127  0.40941  Biso   1.000  H
  C8       1.0000 0.00000  0.47210  0.24998  Biso   1.000  C
  C9       1.0000 0.85988  0.51462  0.30760  Biso   1.000  C
  C10      1.0000 0.84839  0.61509  0.40862  Biso   1.000  C
  C11      1.0000 0.97450  0.68638  0.46599  Biso   1.000  C
  C12      1.0000 0.37043  0.76940  0.26749  Biso   1.000  C
  H9       1.0000 0.27239  0.69561  0.28609  Biso   1.000  H
  C13      1.0000 0.05357  0.52105  0.19188  Biso   1.000  C
  H10      1.0000 0.03969  0.43249  0.28007  Biso   1.000  H
  H11      1.0000 0.96031  0.43249  0.21990  Biso   1.000  H
  C14      1.0000 0.81083  0.56072  0.35817  Biso   1.000  C
  H12      1.0000 0.83432  0.47847  0.27259  Biso   1.000  H
  H13      1.0000 0.81497  0.64707  0.44138  Biso   1.000  H
  C15      1.0000 0.02663  0.74760  0.42120  Biso   1.000  C
  H14      1.0000 0.00992  0.66012  0.50580  Biso   1.000  H
  H15      1.0000 0.93022  0.71372  0.49529  Biso   1.000  H
  C16      1.0000 0.35002  0.79471  0.18337  Biso   1.000  C
  H16      1.0000 0.35002  0.80930  0.30529  Biso   1.000  H
  H17      1.0000 0.43091  0.76607  0.27351  Biso   1.000  H
  C17      1.0000 0.14012  0.51462  0.19243  Biso   1.000  C
  C18      1.0000 0.01652  0.57316  0.13681  Biso   1.000  C
  H18      1.0000 0.75267  0.55488  0.35811  Biso   1.000  H
  C19      1.0000 0.11242  0.75368  0.43421  Biso   1.000  C
  C20      1.0000 0.99039  0.79852  0.36419  Biso   1.000  C
  O3       1.0000 0.26448  0.82002  0.18416  Biso   1.000  O
  H19      1.0000 0.35743  0.75058  0.14599  Biso   1.000  H
  H20      1.0000 0.38638  0.83801  0.16672  Biso   1.000  H
  C21      1.0000 0.18917  0.56072  0.14180  Biso   1.000  C
  H21      1.0000 0.16568  0.47847  0.22737  Biso   1.000  H
  C22      1.0000 0.06488  0.62349  0.08801  Biso   1.000  C
  O4       1.0000 0.92997  0.57668  0.13359  Biso   1.000  O
  C23      1.0000 0.15990  0.80781  0.39251  Biso   1.000  C
  H22      1.0000 0.13799  0.72039  0.47201  Biso   1.000  H
  C24      1.0000 0.03800  0.85141  0.31757  Biso   1.000  C
  O5       1.0000 0.90435  0.79322  0.35258  Biso   1.000  O
  C25      1.0000 0.23301  0.83318  0.10740  Biso   1.000  C
  C26      1.0000 0.15161  0.61509  0.09141  Biso   1.000  C
  H23      1.0000 0.24733  0.55488  0.14192  Biso   1.000  H
  C27      1.0000 0.02550  0.68638  0.03398  Biso   1.000  C
  C28      1.0000 0.89279  0.53112  0.06892  Biso   1.000  C
  C29      1.0000 0.12348  0.85516  0.33429  Biso   1.000  C
  H24      1.0000 0.21700  0.81258  0.40357  Biso   1.000  H
  C30      1.0000 0.00000  0.90060  0.24998  Biso   1.000  C
  C31      1.0000 0.85749  0.85588  0.38978  Biso   1.000  C
  C32      1.0000 0.14251  0.85588  0.11019  Biso   1.000  C
  H25      1.0000 0.26479  0.87541  0.08138  Biso   1.000  H
  H26      1.0000 0.23948  0.78530  0.07512  Biso   1.000  H
  H27      1.0000 0.18503  0.64707  0.05859  Biso   1.000  H
  H28      1.0000 0.06978  0.71372  0.00468  Biso   1.000  H
  H29      1.0000 0.99008  0.66012  0.99423  Biso   1.000  H
  C33      1.0000 0.97337  0.74760  0.07877  Biso   1.000  C
  C34      1.0000 0.80247  0.51861  0.08612  Biso   1.000  C
  H30      1.0000 0.89932  0.55929  0.01781  Biso   1.000  H
  H31      1.0000 0.92099  0.48008  0.06430  Biso   1.000  H
  H32      1.0000 0.15689  0.89077  0.30542  Biso   1.000  H
  C35      1.0000 0.96200  0.85141  0.18240  Biso   1.000  C
  H33      1.0000 0.04692  0.94229  0.22640  Biso   1.000  H
  H34      1.0000 0.95308  0.94229  0.27363  Biso   1.000  H
  H35      1.0000 0.87809  0.86517  0.44442  Biso   1.000  H
  H36      1.0000 0.86421  0.90459  0.35878  Biso   1.000  H
  C36      1.0000 0.76699  0.83318  0.39257  Biso   1.000  C
  O6       1.0000 0.09565  0.79322  0.14745  Biso   1.000  O
  H37      1.0000 0.12191  0.86517  0.05561  Biso   1.000  H
  H38      1.0000 0.13579  0.90459  0.14119  Biso   1.000  H
  C37      1.0000 0.00961  0.79852  0.13584  Biso   1.000  C
  C38      1.0000 0.88758  0.75368  0.06582  Biso   1.000  C
  O7       1.0000 0.76190  0.59151  0.09415  Biso   1.000  O
  H39      1.0000 0.79632  0.48812  0.13590  Biso   1.000  H
  H40      1.0000 0.77723  0.48842  0.04218  Biso   1.000  H
  C39      1.0000 0.87652  0.85516  0.16568  Biso   1.000  C
  O8       1.0000 0.73552  0.82002  0.31587  Biso   1.000  O
  H41      1.0000 0.73521  0.87541  0.41859  Biso   1.000  H
  H42      1.0000 0.76052  0.78530  0.42491  Biso   1.000  H
  C40      1.0000 0.84010  0.80781  0.10752  Biso   1.000  C
  H43      1.0000 0.86201  0.72039  0.02802  Biso   1.000  H
  C41      1.0000 0.67529  0.58359  0.11341  Biso   1.000  C
  H44      1.0000 0.84311  0.89077  0.19461  Biso   1.000  H
  C42      1.0000 0.64998  0.79471  0.31660  Biso   1.000  C
  H45      1.0000 0.78300  0.81258  0.09640  Biso   1.000  H
  C43      1.0000 0.64163  0.66417  0.13140  Biso   1.000  C
  H46      1.0000 0.64527  0.56018  0.06801  Biso   1.000  H
  H47      1.0000 0.66838  0.54922  0.16027  Biso   1.000  H
  C44      1.0000 0.62957  0.76940  0.23248  Biso   1.000  C
  H48      1.0000 0.64257  0.75058  0.35398  Biso   1.000  H
  H49      1.0000 0.61362  0.83801  0.33331  Biso   1.000  H
  N2       1.0000 0.66675  0.69263  0.21230  Biso   1.000  N
  H50      1.0000 0.58071  0.66280  0.12818  Biso   1.000  H
  H51      1.0000 0.66160  0.70127  0.09062  Biso   1.000  H
  H52      1.0000 0.64998  0.80930  0.19468  Biso   1.000  H
  H53      1.0000 0.56909  0.76607  0.22652  Biso   1.000  H
  H54      1.0000 0.72761  0.69561  0.21388  Biso   1.000  H
  C45      1.0000 0.19753  0.51861  0.41391  Biso   1.000  C
  C46      1.0000 0.10721  0.53112  0.43111  Biso   1.000  C
  O9       1.0000 0.23810  0.59151  0.40588  Biso   1.000  O
  H55      1.0000 0.20368  0.48812  0.36413  Biso   1.000  H
  H56      1.0000 0.22277  0.48842  0.45779  Biso   1.000  H
  O10      1.0000 0.07003  0.57668  0.36638  Biso   1.000  O
  H57      1.0000 0.10068  0.55929  0.48222  Biso   1.000  H
  H58      1.0000 0.07901  0.48008  0.43573  Biso   1.000  H
  C47      1.0000 0.32471  0.58359  0.38662  Biso   1.000  C
  C48      1.0000 0.98348  0.57316  0.36322  Biso   1.000  C
  H59      1.0000 0.35473  0.56018  0.43202  Biso   1.000  H
  H60      1.0000 0.33162  0.54922  0.33969  Biso   1.000  H
  C49      1.0000 0.35837  0.66417  0.36863  Biso   1.000  C
  C50      1.0000 0.94643  0.52105  0.30809  Biso   1.000  C
  C51      1.0000 0.93512  0.62349  0.41202  Biso   1.000  C
  N3       1.0000 0.33325  0.69263  0.28767  Biso   1.000  N
  H61      1.0000 0.41929  0.66280  0.37179  Biso   1.000  H
  H62      1.0000 0.33840  0.70127  0.40941  Biso   1.000  H
  C52      1.0000 0.00000  0.47210  0.24998  Biso   1.000  C
  C53      1.0000 0.85988  0.51462  0.30760  Biso   1.000  C
  C54      1.0000 0.84839  0.61509  0.40862  Biso   1.000  C
  C55      1.0000 0.97450  0.68638  0.46599  Biso   1.000  C
  C56      1.0000 0.37043  0.76940  0.26749  Biso   1.000  C
  H63      1.0000 0.27239  0.69561  0.28609  Biso   1.000  H
  C57      1.0000 0.05357  0.52105  0.19188  Biso   1.000  C
  H64      1.0000 0.03969  0.43249  0.28007  Biso   1.000  H
  H65      1.0000 0.96031  0.43249  0.21990  Biso   1.000  H
  C58      1.0000 0.81083  0.56072  0.35817  Biso   1.000  C
  H66      1.0000 0.83432  0.47847  0.27259  Biso   1.000  H
  H67      1.0000 0.81497  0.64707  0.44138  Biso   1.000  H
  C59      1.0000 0.02663  0.74760  0.42120  Biso   1.000  C
  H68      1.0000 0.00992  0.66012  0.50580  Biso   1.000  H
  H69      1.0000 0.93022  0.71372  0.49529  Biso   1.000  H
  C60      1.0000 0.35002  0.79471  0.18337  Biso   1.000  C
  H70      1.0000 0.35002  0.80930  0.30529  Biso   1.000  H
  H71      1.0000 0.43091  0.76607  0.27351  Biso   1.000  H
  C61      1.0000 0.14012  0.51462  0.19243  Biso   1.000  C
  C62      1.0000 0.01652  0.57316  0.13681  Biso   1.000  C
  H72      1.0000 0.75267  0.55488  0.35811  Biso   1.000  H
  C63      1.0000 0.11242  0.75368  0.43421  Biso   1.000  C
  C64      1.0000 0.99039  0.79852  0.36419  Biso   1.000  C
  O11      1.0000 0.26448  0.82002  0.18416  Biso   1.000  O
  H73      1.0000 0.35743  0.75058  0.14599  Biso   1.000  H
  H74      1.0000 0.38638  0.83801  0.16672  Biso   1.000  H
  C65      1.0000 0.18917  0.56072  0.14180  Biso   1.000  C
  H75      1.0000 0.16568  0.47847  0.22737  Biso   1.000  H
  C66      1.0000 0.06488  0.62349  0.08801  Biso   1.000  C
  O12      1.0000 0.92997  0.57668  0.13359  Biso   1.000  O
  C67      1.0000 0.15990  0.80781  0.39251  Biso   1.000  C
  H76      1.0000 0.13799  0.72039  0.47201  Biso   1.000  H
  C68      1.0000 0.03800  0.85141  0.31757  Biso   1.000  C
  O13      1.0000 0.90435  0.79322  0.35258  Biso   1.000  O
  C69      1.0000 0.23301  0.83318  0.10740  Biso   1.000  C
  C70      1.0000 0.15161  0.61509  0.09141  Biso   1.000  C
  H77      1.0000 0.24733  0.55488  0.14192  Biso   1.000  H
  C71      1.0000 0.02550  0.68638  0.03398  Biso   1.000  C
  C72      1.0000 0.89279  0.53112  0.06892  Biso   1.000  C
  C73      1.0000 0.12348  0.85516  0.33429  Biso   1.000  C
  H78      1.0000 0.21700  0.81258  0.40357  Biso   1.000  H
  C74      1.0000 0.00000  0.90060  0.24998  Biso   1.000  C
  C75      1.0000 0.85749  0.85588  0.38978  Biso   1.000  C
  C76      1.0000 0.14251  0.85588  0.11019  Biso   1.000  C
  H79      1.0000 0.26479  0.87541  0.08138  Biso   1.000  H
  H80      1.0000 0.23948  0.78530  0.07512  Biso   1.000  H
  H81      1.0000 0.18503  0.64707  0.05859  Biso   1.000  H
  H82      1.0000 0.06978  0.71372  0.00468  Biso   1.000  H
  H83      1.0000 0.99008  0.66012  0.99423  Biso   1.000  H
  C77      1.0000 0.97337  0.74760  0.07877  Biso   1.000  C
  C78      1.0000 0.80247  0.51861  0.08612  Biso   1.000  C
  H84      1.0000 0.89932  0.55929  0.01781  Biso   1.000  H
  H85      1.0000 0.92099  0.48008  0.06430  Biso   1.000  H
  H86      1.0000 0.15689  0.89077  0.30542  Biso   1.000  H
  C79      1.0000 0.96200  0.85141  0.18240  Biso   1.000  C
  H87      1.0000 0.04692  0.94229  0.22640  Biso   1.000  H
  H88      1.0000 0.95308  0.94229  0.27363  Biso   1.000  H
  H89      1.0000 0.87809  0.86517  0.44442  Biso   1.000  H
  H90      1.0000 0.86421  0.90459  0.35878  Biso   1.000  H
  C80      1.0000 0.76699  0.83318  0.39257  Biso   1.000  C
  O14      1.0000 0.09565  0.79322  0.14745  Biso   1.000  O
  H91      1.0000 0.12191  0.86517  0.05561  Biso   1.000  H
  H92      1.0000 0.13579  0.90459  0.14119  Biso   1.000  H
  C81      1.0000 0.00961  0.79852  0.13584  Biso   1.000  C
  C82      1.0000 0.88758  0.75368  0.06582  Biso   1.000  C
  O15      1.0000 0.76190  0.59151  0.09415  Biso   1.000  O
  H93      1.0000 0.79632  0.48812  0.13590  Biso   1.000  H
  H94      1.0000 0.77723  0.48842  0.04218  Biso   1.000  H
  C83      1.0000 0.87652  0.85516  0.16568  Biso   1.000  C
  O16      1.0000 0.73552  0.82002  0.31587  Biso   1.000  O
  H95      1.0000 0.73521  0.87541  0.41859  Biso   1.000  H
  H96      1.0000 0.76052  0.78530  0.42491  Biso   1.000  H
  C84      1.0000 0.84010  0.80781  0.10752  Biso   1.000  C
  H97      1.0000 0.86201  0.72039  0.02802  Biso   1.000  H
  C85      1.0000 0.67529  0.58359  0.11341  Biso   1.000  C
  H98      1.0000 0.84311  0.89077  0.19461  Biso   1.000  H
  C86      1.0000 0.64998  0.79471  0.31660  Biso   1.000  C
  H99      1.0000 0.78300  0.81258  0.09640  Biso   1.000  H
  C87      1.0000 0.64163  0.66417  0.13140  Biso   1.000  C
  H100     1.0000 0.64527  0.56018  0.06801  Biso   1.000  H
  H101     1.0000 0.66838  0.54922  0.16027  Biso   1.000  H
  C88      1.0000 0.62957  0.76940  0.23248  Biso   1.000  C
  H102     1.0000 0.64257  0.75058  0.35398  Biso   1.000  H
  H103     1.0000 0.61362  0.83801  0.33331  Biso   1.000  H
  N4       1.0000 0.66675  0.69263  0.21230  Biso   1.000  N
  H104     1.0000 0.58071  0.66280  0.12818  Biso   1.000  H
  H105     1.0000 0.66160  0.70127  0.09062  Biso   1.000  H
  H106     1.0000 0.64998  0.80930  0.19468  Biso   1.000  H
  H107     1.0000 0.56909  0.76607  0.22652  Biso   1.000  H
  H108     1.0000 0.72761  0.69561  0.21388  Biso   1.000  H
  C89      1.0000 0.15161  0.38491  0.59138  Biso   1.000  C
  C90      1.0000 0.06488  0.37651  0.58798  Biso   1.000  C
  H109     1.0000 0.18503  0.35287  0.55862  Biso   1.000  H
  C91      1.0000 0.18917  0.43928  0.64183  Biso   1.000  C
  C92      1.0000 0.02550  0.31362  0.53401  Biso   1.000  C
  C93      1.0000 0.01652  0.42684  0.63678  Biso   1.000  C
  H110     1.0000 0.24733  0.44512  0.64189  Biso   1.000  H
  C94      1.0000 0.14012  0.48538  0.69240  Biso   1.000  C
  C95      1.0000 0.97337  0.25240  0.57880  Biso   1.000  C
  H111     1.0000 0.06978  0.28628  0.50471  Biso   1.000  H
  H112     1.0000 0.99008  0.33988  0.49420  Biso   1.000  H
  C96      1.0000 0.05357  0.47895  0.69191  Biso   1.000  C
  O17      1.0000 0.92997  0.42332  0.63362  Biso   1.000  O
  H113     1.0000 0.16568  0.52147  0.72741  Biso   1.000  H
  C97      1.0000 0.00961  0.20148  0.63581  Biso   1.000  C
  C98      1.0000 0.88758  0.24632  0.56579  Biso   1.000  C
  C99      1.0000 0.00000  0.52790  0.75002  Biso   1.000  C
  C100     1.0000 0.89279  0.46888  0.56889  Biso   1.000  C
  O18      1.0000 0.09565  0.20678  0.64742  Biso   1.000  O
  C101     1.0000 0.96200  0.14859  0.68243  Biso   1.000  C
  C102     1.0000 0.84010  0.19219  0.60749  Biso   1.000  C
  H114     1.0000 0.86201  0.27961  0.52799  Biso   1.000  H
  H115     1.0000 0.03969  0.56751  0.78010  Biso   1.000  H
  C103     1.0000 0.94643  0.47895  0.80812  Biso   1.000  C
  H116     1.0000 0.96031  0.56751  0.71993  Biso   1.000  H
  H117     1.0000 0.89932  0.44071  0.51778  Biso   1.000  H
  H118     1.0000 0.92099  0.51992  0.56427  Biso   1.000  H
  C104     1.0000 0.80247  0.48139  0.58609  Biso   1.000  C
  C105     1.0000 0.14251  0.14412  0.61022  Biso   1.000  C
  C106     1.0000 0.00000  0.09940  0.75002  Biso   1.000  C
  C107     1.0000 0.87652  0.14478  0.66571  Biso   1.000  C
  H119     1.0000 0.78300  0.18742  0.59643  Biso   1.000  H
  C108     1.0000 0.98348  0.42684  0.86319  Biso   1.000  C
  C109     1.0000 0.85988  0.48538  0.80757  Biso   1.000  C
  O19      1.0000 0.76190  0.40849  0.59412  Biso   1.000  O
  H120     1.0000 0.79632  0.51188  0.63587  Biso   1.000  H
  H121     1.0000 0.77723  0.51158  0.54221  Biso   1.000  H
  C110     1.0000 0.23301  0.16682  0.60743  Biso   1.000  C
  H122     1.0000 0.12191  0.13477  0.55558  Biso   1.000  H
  H123     1.0000 0.13579  0.09541  0.64122  Biso   1.000  H
  H124     1.0000 0.04692  0.05771  0.72637  Biso   1.000  H
  C111     1.0000 0.03800  0.14859  0.81760  Biso   1.000  C
  H125     1.0000 0.95308  0.05771  0.77360  Biso   1.000  H
  H126     1.0000 0.84311  0.10923  0.69458  Biso   1.000  H
  C112     1.0000 0.93512  0.37651  0.91199  Biso   1.000  C
  O20      1.0000 0.07003  0.42332  0.86641  Biso   1.000  O
  C113     1.0000 0.81083  0.43928  0.85820  Biso   1.000  C
  H127     1.0000 0.83432  0.52147  0.77263  Biso   1.000  H
  C114     1.0000 0.67529  0.41641  0.61338  Biso   1.000  C
  O21      1.0000 0.26448  0.17992  0.68413  Biso   1.000  O
  H128     1.0000 0.26479  0.12459  0.58141  Biso   1.000  H
  H129     1.0000 0.23948  0.21470  0.57509  Biso   1.000  H
  C115     1.0000 0.12348  0.14478  0.83432  Biso   1.000  C
  C116     1.0000 0.99039  0.20148  0.86416  Biso   1.000  C
  C117     1.0000 0.97450  0.31362  0.96602  Biso   1.000  C
  C118     1.0000 0.84839  0.38491  0.90859  Biso   1.000  C
  C119     1.0000 0.10721  0.46888  0.93108  Biso   1.000  C
  H130     1.0000 0.75267  0.44512  0.85808  Biso   1.000  H
  H131     1.0000 0.64527  0.43982  0.56798  Biso   1.000  H
  H132     1.0000 0.66838  0.45078  0.66031  Biso   1.000  H
  C120     1.0000 0.64163  0.33578  0.63137  Biso   1.000  C
  C121     1.0000 0.35002  0.20529  0.68340  Biso   1.000  C
  H133     1.0000 0.15689  0.10923  0.80539  Biso   1.000  H
  C122     1.0000 0.15990  0.19219  0.89248  Biso   1.000  C
  C123     1.0000 0.02663  0.25240  0.92123  Biso   1.000  C
  O22      1.0000 0.90435  0.20678  0.85255  Biso   1.000  O
  H134     1.0000 0.93022  0.28628  0.99532  Biso   1.000  H
  H135     1.0000 0.00992  0.33988  0.00577  Biso   1.000  H
  H136     1.0000 0.81497  0.35287  0.94141  Biso   1.000  H
  C124     1.0000 0.19753  0.48139  0.91388  Biso   1.000  C
  H137     1.0000 0.10068  0.44071  0.98219  Biso   1.000  H
  H138     1.0000 0.07901  0.51992  0.93570  Biso   1.000  H
  N5       1.0000 0.66675  0.30737  0.71233  Biso   1.000  N
  H139     1.0000 0.58071  0.33720  0.62821  Biso   1.000  H
  H140     1.0000 0.66160  0.29867  0.59059  Biso   1.000  H
  C125     1.0000 0.37043  0.23060  0.76752  Biso   1.000  C
  H141     1.0000 0.35743  0.24942  0.64602  Biso   1.000  H
  H142     1.0000 0.38638  0.16199  0.66669  Biso   1.000  H
  H143     1.0000 0.21700  0.18742  0.90360  Biso   1.000  H
  C126     1.0000 0.11242  0.24632  0.93418  Biso   1.000  C
  C127     1.0000 0.85749  0.14412  0.88981  Biso   1.000  C
  O23      1.0000 0.23810  0.40849  0.90585  Biso   1.000  O
  H144     1.0000 0.20368  0.51188  0.86410  Biso   1.000  H
  H145     1.0000 0.22277  0.51158  0.95782  Biso   1.000  H
  C128     1.0000 0.62957  0.23060  0.73251  Biso   1.000  C
  H146     1.0000 0.72761  0.30439  0.71391  Biso   1.000  H
  N6       1.0000 0.33325  0.30737  0.78770  Biso   1.000  N
  H147     1.0000 0.35002  0.19070  0.80532  Biso   1.000  H
  H148     1.0000 0.43091  0.23388  0.77348  Biso   1.000  H
  H149     1.0000 0.13799  0.27961  0.97198  Biso   1.000  H
  C129     1.0000 0.76699  0.16682  0.89260  Biso   1.000  C
  H150     1.0000 0.87809  0.13477  0.94439  Biso   1.000  H
  H151     1.0000 0.86421  0.09541  0.85881  Biso   1.000  H
  C130     1.0000 0.32471  0.41641  0.88659  Biso   1.000  C
  C131     1.0000 0.64998  0.20529  0.81663  Biso   1.000  C
  H152     1.0000 0.64998  0.19070  0.69471  Biso   1.000  H
  H153     1.0000 0.56909  0.23388  0.72649  Biso   1.000  H
  H154     1.0000 0.27239  0.30439  0.78612  Biso   1.000  H
  C132     1.0000 0.35837  0.33578  0.86860  Biso   1.000  C
  O24      1.0000 0.73552  0.17992  0.81584  Biso   1.000  O
  H155     1.0000 0.73521  0.12459  0.91862  Biso   1.000  H
  H156     1.0000 0.76052  0.21470  0.92488  Biso   1.000  H
  H157     1.0000 0.35473  0.43982  0.93199  Biso   1.000  H
  H158     1.0000 0.33162  0.45078  0.83973  Biso   1.000  H
  H159     1.0000 0.64257  0.24942  0.85401  Biso   1.000  H
  H160     1.0000 0.61362  0.16199  0.83328  Biso   1.000  H
  H161     1.0000 0.41929  0.33720  0.87182  Biso   1.000  H
  H162     1.0000 0.33840  0.29867  0.90938  Biso   1.000  H
  C133     1.0000 0.15161  0.38491  0.59138  Biso   1.000  C
  C134     1.0000 0.06488  0.37651  0.58798  Biso   1.000  C
  H163     1.0000 0.18503  0.35287  0.55862  Biso   1.000  H
  C135     1.0000 0.18917  0.43928  0.64183  Biso   1.000  C
  C136     1.0000 0.02550  0.31362  0.53401  Biso   1.000  C
  C137     1.0000 0.01652  0.42684  0.63678  Biso   1.000  C
  H164     1.0000 0.24733  0.44512  0.64189  Biso   1.000  H
  C138     1.0000 0.14012  0.48538  0.69240  Biso   1.000  C
  C139     1.0000 0.97337  0.25240  0.57880  Biso   1.000  C
  H165     1.0000 0.06978  0.28628  0.50471  Biso   1.000  H
  H166     1.0000 0.99008  0.33988  0.49420  Biso   1.000  H
  C140     1.0000 0.05357  0.47895  0.69191  Biso   1.000  C
  O25      1.0000 0.92997  0.42332  0.63362  Biso   1.000  O
  H167     1.0000 0.16568  0.52147  0.72741  Biso   1.000  H
  C141     1.0000 0.00961  0.20148  0.63581  Biso   1.000  C
  C142     1.0000 0.88758  0.24632  0.56579  Biso   1.000  C
  C143     1.0000 0.00000  0.52790  0.75002  Biso   1.000  C
  C144     1.0000 0.89279  0.46888  0.56889  Biso   1.000  C
  O26      1.0000 0.09565  0.20678  0.64742  Biso   1.000  O
  C145     1.0000 0.96200  0.14859  0.68243  Biso   1.000  C
  C146     1.0000 0.84010  0.19219  0.60749  Biso   1.000  C
  H168     1.0000 0.86201  0.27961  0.52799  Biso   1.000  H
  H169     1.0000 0.03969  0.56751  0.78010  Biso   1.000  H
  C147     1.0000 0.94643  0.47895  0.80812  Biso   1.000  C
  H170     1.0000 0.96031  0.56751  0.71993  Biso   1.000  H
  H171     1.0000 0.89932  0.44071  0.51778  Biso   1.000  H
  H172     1.0000 0.92099  0.51992  0.56427  Biso   1.000  H
  C148     1.0000 0.80247  0.48139  0.58609  Biso   1.000  C
  C149     1.0000 0.14251  0.14412  0.61022  Biso   1.000  C
  C150     1.0000 0.00000  0.09940  0.75002  Biso   1.000  C
  C151     1.0000 0.87652  0.14478  0.66571  Biso   1.000  C
  H173     1.0000 0.78300  0.18742  0.59643  Biso   1.000  H
  C152     1.0000 0.98348  0.42684  0.86319  Biso   1.000  C
  C153     1.0000 0.85988  0.48538  0.80757  Biso   1.000  C
  O27      1.0000 0.76190  0.40849  0.59412  Biso   1.000  O
  H174     1.0000 0.79632  0.51188  0.63587  Biso   1.000  H
  H175     1.0000 0.77723  0.51158  0.54221  Biso   1.000  H
  C154     1.0000 0.23301  0.16682  0.60743  Biso   1.000  C
  H176     1.0000 0.12191  0.13477  0.55558  Biso   1.000  H
  H177     1.0000 0.13579  0.09541  0.64122  Biso   1.000  H
  H178     1.0000 0.04692  0.05771  0.72637  Biso   1.000  H
  C155     1.0000 0.03800  0.14859  0.81760  Biso   1.000  C
  H179     1.0000 0.95308  0.05771  0.77360  Biso   1.000  H
  H180     1.0000 0.84311  0.10923  0.69458  Biso   1.000  H
  C156     1.0000 0.93512  0.37651  0.91199  Biso   1.000  C
  O28      1.0000 0.07003  0.42332  0.86641  Biso   1.000  O
  C157     1.0000 0.81083  0.43928  0.85820  Biso   1.000  C
  H181     1.0000 0.83432  0.52147  0.77263  Biso   1.000  H
  C158     1.0000 0.67529  0.41641  0.61338  Biso   1.000  C
  O29      1.0000 0.26448  0.17992  0.68413  Biso   1.000  O
  H182     1.0000 0.26479  0.12459  0.58141  Biso   1.000  H
  H183     1.0000 0.23948  0.21470  0.57509  Biso   1.000  H
  C159     1.0000 0.12348  0.14478  0.83432  Biso   1.000  C
  C160     1.0000 0.99039  0.20148  0.86416  Biso   1.000  C
  C161     1.0000 0.97450  0.31362  0.96602  Biso   1.000  C
  C162     1.0000 0.84839  0.38491  0.90859  Biso   1.000  C
  C163     1.0000 0.10721  0.46888  0.93108  Biso   1.000  C
  H184     1.0000 0.75267  0.44512  0.85808  Biso   1.000  H
  H185     1.0000 0.64527  0.43982  0.56798  Biso   1.000  H
  H186     1.0000 0.66838  0.45078  0.66031  Biso   1.000  H
  C164     1.0000 0.64163  0.33578  0.63137  Biso   1.000  C
  C165     1.0000 0.35002  0.20529  0.68340  Biso   1.000  C
  H187     1.0000 0.15689  0.10923  0.80539  Biso   1.000  H
  C166     1.0000 0.15990  0.19219  0.89248  Biso   1.000  C
  C167     1.0000 0.02663  0.25240  0.92123  Biso   1.000  C
  O30      1.0000 0.90435  0.20678  0.85255  Biso   1.000  O
  H188     1.0000 0.93022  0.28628  0.99532  Biso   1.000  H
  H189     1.0000 0.00992  0.33988  0.00577  Biso   1.000  H
  H190     1.0000 0.81497  0.35287  0.94141  Biso   1.000  H
  C168     1.0000 0.19753  0.48139  0.91388  Biso   1.000  C
  H191     1.0000 0.10068  0.44071  0.98219  Biso   1.000  H
  H192     1.0000 0.07901  0.51992  0.93570  Biso   1.000  H
  N7       1.0000 0.66675  0.30737  0.71233  Biso   1.000  N
  H193     1.0000 0.58071  0.33720  0.62821  Biso   1.000  H
  H194     1.0000 0.66160  0.29867  0.59059  Biso   1.000  H
  C169     1.0000 0.37043  0.23060  0.76752  Biso   1.000  C
  H195     1.0000 0.35743  0.24942  0.64602  Biso   1.000  H
  H196     1.0000 0.38638  0.16199  0.66669  Biso   1.000  H
  H197     1.0000 0.21700  0.18742  0.90360  Biso   1.000  H
  C170     1.0000 0.11242  0.24632  0.93418  Biso   1.000  C
  C171     1.0000 0.85749  0.14412  0.88981  Biso   1.000  C
  O31      1.0000 0.23810  0.40849  0.90585  Biso   1.000  O
  H198     1.0000 0.20368  0.51188  0.86410  Biso   1.000  H
  H199     1.0000 0.22277  0.51158  0.95782  Biso   1.000  H
  C172     1.0000 0.62957  0.23060  0.73251  Biso   1.000  C
  H200     1.0000 0.72761  0.30439  0.71391  Biso   1.000  H
  N8       1.0000 0.33325  0.30737  0.78770  Biso   1.000  N
  H201     1.0000 0.35002  0.19070  0.80532  Biso   1.000  H
  H202     1.0000 0.43091  0.23388  0.77348  Biso   1.000  H
  H203     1.0000 0.13799  0.27961  0.97198  Biso   1.000  H
  C173     1.0000 0.76699  0.16682  0.89260  Biso   1.000  C
  H204     1.0000 0.87809  0.13477  0.94439  Biso   1.000  H
  H205     1.0000 0.86421  0.09541  0.85881  Biso   1.000  H
  C174     1.0000 0.32471  0.41641  0.88659  Biso   1.000  C
  C175     1.0000 0.64998  0.20529  0.81663  Biso   1.000  C
  H206     1.0000 0.64998  0.19070  0.69471  Biso   1.000  H
  H207     1.0000 0.56909  0.23388  0.72649  Biso   1.000  H
  H208     1.0000 0.27239  0.30439  0.78612  Biso   1.000  H
  C176     1.0000 0.35837  0.33578  0.86860  Biso   1.000  C
  O32      1.0000 0.73552  0.17992  0.81584  Biso   1.000  O
  H209     1.0000 0.73521  0.12459  0.91862  Biso   1.000  H
  H210     1.0000 0.76052  0.21470  0.92488  Biso   1.000  H
  H211     1.0000 0.35473  0.43982  0.93199  Biso   1.000  H
  H212     1.0000 0.33162  0.45078  0.83973  Biso   1.000  H
  H213     1.0000 0.64257  0.24942  0.85401  Biso   1.000  H
  H214     1.0000 0.61362  0.16199  0.83328  Biso   1.000  H
  H215     1.0000 0.41929  0.33720  0.87182  Biso   1.000  H
  H216     1.0000 0.33840  0.29867  0.90938  Biso   1.000  H
  C177     1.0000 0.26699  0.66679  0.60743  Biso   1.000  C
  C178     1.0000 0.35749  0.64410  0.61022  Biso   1.000  C
  O33      1.0000 0.23552  0.67995  0.68413  Biso   1.000  O
  H217     1.0000 0.23521  0.62462  0.58141  Biso   1.000  H
  H218     1.0000 0.26052  0.71467  0.57509  Biso   1.000  H
  O34      1.0000 0.40435  0.70675  0.64742  Biso   1.000  O
  H219     1.0000 0.37809  0.63480  0.55558  Biso   1.000  H
  H220     1.0000 0.36421  0.59538  0.64122  Biso   1.000  H
  C179     1.0000 0.14998  0.70532  0.68340  Biso   1.000  C
  C180     1.0000 0.49039  0.70145  0.63581  Biso   1.000  C
  C181     1.0000 0.12957  0.73057  0.76752  Biso   1.000  C
  H221     1.0000 0.14257  0.74939  0.64602  Biso   1.000  H
  H222     1.0000 0.11362  0.66202  0.66669  Biso   1.000  H
  C182     1.0000 0.52663  0.75237  0.57880  Biso   1.000  C
  C183     1.0000 0.53800  0.64862  0.68243  Biso   1.000  C
  N9       1.0000 0.16675  0.80740  0.78770  Biso   1.000  N
  H223     1.0000 0.14998  0.69067  0.80532  Biso   1.000  H
  H224     1.0000 0.06909  0.73391  0.77348  Biso   1.000  H
  C184     1.0000 0.47450  0.81359  0.53401  Biso   1.000  C
  C185     1.0000 0.61242  0.74629  0.56579  Biso   1.000  C
  C186     1.0000 0.50000  0.59937  0.75002  Biso   1.000  C
  C187     1.0000 0.62348  0.64481  0.66571  Biso   1.000  C
  H225     1.0000 0.22761  0.80442  0.78612  Biso   1.000  H
  C188     1.0000 0.14163  0.83580  0.86860  Biso   1.000  C
  C189     1.0000 0.43512  0.87648  0.58798  Biso   1.000  C
  H226     1.0000 0.50992  0.83991  0.49420  Biso   1.000  H
  H227     1.0000 0.43022  0.78631  0.50471  Biso   1.000  H
  C190     1.0000 0.65990  0.69222  0.60749  Biso   1.000  C
  H228     1.0000 0.63799  0.77958  0.52799  Biso   1.000  H
  C191     1.0000 0.46200  0.64862  0.81760  Biso   1.000  C
  H229     1.0000 0.54692  0.55768  0.77360  Biso   1.000  H
  H230     1.0000 0.45308  0.55768  0.72637  Biso   1.000  H
  H231     1.0000 0.65689  0.60920  0.69458  Biso   1.000  H
  C192     1.0000 0.17529  0.91638  0.88659  Biso   1.000  C
  H232     1.0000 0.08071  0.83717  0.87182  Biso   1.000  H
  H233     1.0000 0.16160  0.79870  0.90938  Biso   1.000  H
  C193     1.0000 0.48348  0.92681  0.63678  Biso   1.000  C
  C194     1.0000 0.34839  0.88488  0.59138  Biso   1.000  C
  H234     1.0000 0.71700  0.68739  0.59643  Biso   1.000  H
  C195     1.0000 0.50961  0.70145  0.86416  Biso   1.000  C
  C196     1.0000 0.37652  0.64481  0.83432  Biso   1.000  C
  O35      1.0000 0.26190  0.90846  0.90585  Biso   1.000  O
  H235     1.0000 0.14527  0.93979  0.93199  Biso   1.000  H
  H236     1.0000 0.16838  0.95081  0.83973  Biso   1.000  H
  O36      1.0000 0.57003  0.92335  0.63362  Biso   1.000  O
  C197     1.0000 0.44643  0.97892  0.69191  Biso   1.000  C
  H237     1.0000 0.31497  0.85290  0.55862  Biso   1.000  H
  C198     1.0000 0.31083  0.93931  0.64183  Biso   1.000  C
  O37      1.0000 0.59565  0.70675  0.85255  Biso   1.000  O
  C199     1.0000 0.47337  0.75237  0.92123  Biso   1.000  C
  H238     1.0000 0.34311  0.60920  0.80539  Biso   1.000  H
  C200     1.0000 0.34010  0.69222  0.89248  Biso   1.000  C
  C201     1.0000 0.30247  0.98136  0.91388  Biso   1.000  C
  C202     1.0000 0.60721  0.96891  0.56889  Biso   1.000  C
  C203     1.0000 0.35988  0.98541  0.69240  Biso   1.000  C
  C204     1.0000 0.50000  0.02787  0.75002  Biso   1.000  C
  H239     1.0000 0.25267  0.94509  0.64189  Biso   1.000  H
  C205     1.0000 0.64251  0.64410  0.88981  Biso   1.000  C
  C206     1.0000 0.38758  0.74629  0.93418  Biso   1.000  C
  C207     1.0000 0.52550  0.81359  0.96602  Biso   1.000  C
  H240     1.0000 0.28300  0.68739  0.90360  Biso   1.000  H
  C208     1.0000 0.39279  0.96891  0.93108  Biso   1.000  C
  H241     1.0000 0.29632  0.01191  0.86410  Biso   1.000  H
  H242     1.0000 0.27723  0.01161  0.95782  Biso   1.000  H
  C209     1.0000 0.69753  0.98136  0.58609  Biso   1.000  C
  H243     1.0000 0.60068  0.94068  0.51778  Biso   1.000  H
  H244     1.0000 0.57901  0.01989  0.56427  Biso   1.000  H
  H245     1.0000 0.33432  0.02150  0.72741  Biso   1.000  H
  C210     1.0000 0.55357  0.97892  0.80812  Biso   1.000  C
  H246     1.0000 0.53969  0.06748  0.71993  Biso   1.000  H
  H247     1.0000 0.46031  0.06748  0.78010  Biso   1.000  H
  H248     1.0000 0.62191  0.63480  0.94439  Biso   1.000  H
  H249     1.0000 0.63579  0.59538  0.85881  Biso   1.000  H
  C211     1.0000 0.73301  0.66679  0.89260  Biso   1.000  C
  H250     1.0000 0.36201  0.77958  0.97198  Biso   1.000  H
  H251     1.0000 0.56978  0.78631  0.99532  Biso   1.000  H
  C212     1.0000 0.56488  0.87648  0.91199  Biso   1.000  C
  H252     1.0000 0.49008  0.83991  0.00577  Biso   1.000  H
  O38      1.0000 0.42997  0.92335  0.86641  Biso   1.000  O
  H253     1.0000 0.39932  0.94068  0.98219  Biso   1.000  H
  H254     1.0000 0.42099  0.01989  0.93570  Biso   1.000  H
  O39      1.0000 0.73810  0.90846  0.59412  Biso   1.000  O
  H255     1.0000 0.70368  0.01191  0.63587  Biso   1.000  H
  H256     1.0000 0.72277  0.01161  0.54221  Biso   1.000  H
  C213     1.0000 0.64012  0.98541  0.80757  Biso   1.000  C
  C214     1.0000 0.51652  0.92681  0.86319  Biso   1.000  C
  O40      1.0000 0.76448  0.67995  0.81584  Biso   1.000  O
  H257     1.0000 0.76479  0.62462  0.91862  Biso   1.000  H
  H258     1.0000 0.73948  0.71467  0.92488  Biso   1.000  H
  C215     1.0000 0.65161  0.88488  0.90859  Biso   1.000  C
  C216     1.0000 0.82471  0.91638  0.61338  Biso   1.000  C
  C217     1.0000 0.68917  0.93931  0.85820  Biso   1.000  C
  H259     1.0000 0.66568  0.02150  0.77263  Biso   1.000  H
  C218     1.0000 0.85002  0.70532  0.81663  Biso   1.000  C
  H260     1.0000 0.68503  0.85290  0.94141  Biso   1.000  H
  C219     1.0000 0.85837  0.83580  0.63137  Biso   1.000  C
  H261     1.0000 0.85473  0.93979  0.56798  Biso   1.000  H
  H262     1.0000 0.83162  0.95081  0.66031  Biso   1.000  H
  H263     1.0000 0.74733  0.94509  0.85808  Biso   1.000  H
  C220     1.0000 0.87043  0.73057  0.73251  Biso   1.000  C
  H264     1.0000 0.85743  0.74939  0.85401  Biso   1.000  H
  H265     1.0000 0.88638  0.66202  0.83328  Biso   1.000  H
  N10      1.0000 0.83325  0.80740  0.71233  Biso   1.000  N
  H266     1.0000 0.91929  0.83717  0.62821  Biso   1.000  H
  H267     1.0000 0.83840  0.79870  0.59059  Biso   1.000  H
  H268     1.0000 0.85002  0.69067  0.69471  Biso   1.000  H
  H269     1.0000 0.93091  0.73391  0.72649  Biso   1.000  H
  H270     1.0000 0.77239  0.80442  0.71391  Biso   1.000  H
  C221     1.0000 0.34010  0.30778  0.39251  Biso   1.000  C
  C222     1.0000 0.37652  0.35519  0.33429  Biso   1.000  C
  C223     1.0000 0.38758  0.25371  0.43421  Biso   1.000  C
  H271     1.0000 0.28300  0.31261  0.40357  Biso   1.000  H
  C224     1.0000 0.46200  0.35138  0.31757  Biso   1.000  C
  H272     1.0000 0.34311  0.39080  0.30542  Biso   1.000  H
  C225     1.0000 0.47337  0.24757  0.42120  Biso   1.000  C
  H273     1.0000 0.36201  0.22042  0.47201  Biso   1.000  H
  C226     1.0000 0.50000  0.40057  0.24998  Biso   1.000  C
  C227     1.0000 0.50961  0.29849  0.36419  Biso   1.000  C
  C228     1.0000 0.52550  0.18641  0.46599  Biso   1.000  C
  C229     1.0000 0.53800  0.35138  0.18240  Biso   1.000  C
  H274     1.0000 0.45308  0.44232  0.22640  Biso   1.000  H
  H275     1.0000 0.54692  0.44232  0.27363  Biso   1.000  H
  O41      1.0000 0.59565  0.29325  0.35258  Biso   1.000  O
  C230     1.0000 0.56488  0.12352  0.41202  Biso   1.000  C
  H276     1.0000 0.49008  0.16009  0.50580  Biso   1.000  H
  H277     1.0000 0.56978  0.21369  0.49529  Biso   1.000  H
  C231     1.0000 0.49039  0.29849  0.13584  Biso   1.000  C
  C232     1.0000 0.62348  0.35519  0.16568  Biso   1.000  C
  C233     1.0000 0.64251  0.35590  0.38978  Biso   1.000  C
  C234     1.0000 0.51652  0.07319  0.36322  Biso   1.000  C
  C235     1.0000 0.65161  0.11512  0.40862  Biso   1.000  C
  O42      1.0000 0.40435  0.29325  0.14745  Biso   1.000  O
  C236     1.0000 0.52663  0.24757  0.07877  Biso   1.000  C
  H278     1.0000 0.65689  0.39080  0.19461  Biso   1.000  H
  C237     1.0000 0.65990  0.30778  0.10752  Biso   1.000  C
  C238     1.0000 0.73301  0.33321  0.39257  Biso   1.000  C
  H279     1.0000 0.62191  0.36520  0.44442  Biso   1.000  H
  H280     1.0000 0.63579  0.40462  0.35878  Biso   1.000  H
  O43      1.0000 0.42997  0.07665  0.36638  Biso   1.000  O
  C239     1.0000 0.55357  0.02108  0.30809  Biso   1.000  C
  H281     1.0000 0.68503  0.14710  0.44138  Biso   1.000  H
  C240     1.0000 0.68917  0.06069  0.35817  Biso   1.000  C
  C241     1.0000 0.35749  0.35590  0.11019  Biso   1.000  C
  C242     1.0000 0.61242  0.25371  0.06582  Biso   1.000  C
  C243     1.0000 0.47450  0.18641  0.03398  Biso   1.000  C
  H282     1.0000 0.71700  0.31261  0.09640  Biso   1.000  H
  O44      1.0000 0.76448  0.32005  0.31587  Biso   1.000  O
  H283     1.0000 0.76479  0.37538  0.41859  Biso   1.000  H
  H284     1.0000 0.73948  0.28527  0.42491  Biso   1.000  H
  C244     1.0000 0.39279  0.03109  0.43111  Biso   1.000  C
  C245     1.0000 0.50000  0.97213  0.24998  Biso   1.000  C
  C246     1.0000 0.64012  0.01459  0.30760  Biso   1.000  C
  H285     1.0000 0.74733  0.05491  0.35811  Biso   1.000  H
  C247     1.0000 0.26699  0.33321  0.10740  Biso   1.000  C
  H286     1.0000 0.37809  0.36520  0.05561  Biso   1.000  H
  H287     1.0000 0.36421  0.40462  0.14119  Biso   1.000  H
  H288     1.0000 0.63799  0.22042  0.02802  Biso   1.000  H
  H289     1.0000 0.43022  0.21369  0.00468  Biso   1.000  H
  C248     1.0000 0.43512  0.12352  0.08801  Biso   1.000  C
  H290     1.0000 0.50992  0.16009  0.99423  Biso   1.000  H
  C249     1.0000 0.85002  0.29468  0.31660  Biso   1.000  C
  C250     1.0000 0.30247  0.01858  0.41391  Biso   1.000  C
  H291     1.0000 0.39932  0.05932  0.48222  Biso   1.000  H
  H292     1.0000 0.42099  0.98011  0.43573  Biso   1.000  H
  C251     1.0000 0.44643  0.02108  0.19188  Biso   1.000  C
  H293     1.0000 0.46031  0.93252  0.28007  Biso   1.000  H
  H294     1.0000 0.53969  0.93252  0.21990  Biso   1.000  H
  H295     1.0000 0.66568  0.97850  0.27259  Biso   1.000  H
  O45      1.0000 0.23552  0.32005  0.18416  Biso   1.000  O
  H296     1.0000 0.23521  0.37538  0.08138  Biso   1.000  H
  H297     1.0000 0.26052  0.28527  0.07512  Biso   1.000  H
  C252     1.0000 0.34839  0.11512  0.09141  Biso   1.000  C
  C253     1.0000 0.48348  0.07319  0.13681  Biso   1.000  C
  C254     1.0000 0.87043  0.26937  0.23248  Biso   1.000  C
  H298     1.0000 0.85743  0.25061  0.35398  Biso   1.000  H
  H299     1.0000 0.88638  0.33798  0.33331  Biso   1.000  H
  O46      1.0000 0.26190  0.09154  0.40588  Biso   1.000  O
  H300     1.0000 0.29632  0.98809  0.36413  Biso   1.000  H
  H301     1.0000 0.27723  0.98839  0.45779  Biso   1.000  H
  C255     1.0000 0.35988  0.01459  0.19243  Biso   1.000  C
  C256     1.0000 0.14998  0.29468  0.18337  Biso   1.000  C
  H302     1.0000 0.31497  0.14710  0.05859  Biso   1.000  H
  C257     1.0000 0.31083  0.06069  0.14180  Biso   1.000  C
  O47      1.0000 0.57003  0.07665  0.13359  Biso   1.000  O
  N11      1.0000 0.83325  0.19260  0.21230  Biso   1.000  N
  H303     1.0000 0.85002  0.30927  0.19468  Biso   1.000  H
  H304     1.0000 0.93091  0.26609  0.22652  Biso   1.000  H
  C258     1.0000 0.17529  0.08362  0.38662  Biso   1.000  C
  H305     1.0000 0.33432  0.97850  0.22737  Biso   1.000  H
  C259     1.0000 0.12957  0.26937  0.26749  Biso   1.000  C
  H306     1.0000 0.14257  0.25061  0.14599  Biso   1.000  H
  H307     1.0000 0.11362  0.33798  0.16672  Biso   1.000  H
  H308     1.0000 0.25267  0.05491  0.14192  Biso   1.000  H
  C260     1.0000 0.60721  0.03109  0.06892  Biso   1.000  C
  C261     1.0000 0.85837  0.16420  0.13140  Biso   1.000  C
  H309     1.0000 0.77239  0.19558  0.21388  Biso   1.000  H
  C262     1.0000 0.14163  0.16420  0.36863  Biso   1.000  C
  H310     1.0000 0.14527  0.06021  0.43202  Biso   1.000  H
  H311     1.0000 0.16838  0.04919  0.33969  Biso   1.000  H
  N12      1.0000 0.16675  0.19260  0.28767  Biso   1.000  N
  H312     1.0000 0.14998  0.30927  0.30529  Biso   1.000  H
  H313     1.0000 0.06909  0.26609  0.27351  Biso   1.000  H
  H314     1.0000 0.60068  0.05932  0.01781  Biso   1.000  H
  C263     1.0000 0.69753  0.01858  0.08612  Biso   1.000  C
  H315     1.0000 0.57901  0.98011  0.06430  Biso   1.000  H
  C264     1.0000 0.82471  0.08362  0.11341  Biso   1.000  C
  H316     1.0000 0.91929  0.16283  0.12818  Biso   1.000  H
  H317     1.0000 0.83840  0.20130  0.09062  Biso   1.000  H
  H318     1.0000 0.08071  0.16283  0.37179  Biso   1.000  H
  H319     1.0000 0.16160  0.20130  0.40941  Biso   1.000  H
  H320     1.0000 0.22761  0.19558  0.28609  Biso   1.000  H
  O48      1.0000 0.73810  0.09154  0.09415  Biso   1.000  O
  H321     1.0000 0.70368  0.98809  0.13590  Biso   1.000  H
  H322     1.0000 0.72277  0.98839  0.04218  Biso   1.000  H
  H323     1.0000 0.85473  0.06021  0.06801  Biso   1.000  H
  H324     1.0000 0.83162  0.04919  0.16027  Biso   1.000  H
