data_image0
_cell_length_a       12.355
_cell_length_b       19.33
_cell_length_c       15.76
_cell_angle_alpha    90
_cell_angle_beta     106.25
_cell_angle_gamma    90

_symmetry_space_group_name_H-M    "P 1"
_symmetry_int_tables_number       1

loop_
  _symmetry_equiv_pos_as_xyz
  'x, y, z'

loop_
  _atom_site_label
  _atom_site_occupancy
  _atom_site_fract_x
  _atom_site_fract_y
  _atom_site_fract_z
  _atom_site_thermal_displace_type
  _atom_site_B_iso_or_equiv
  _atom_site_type_symbol
  N1       1.0000 0.07143  0.30812  0.20872  Biso   1.000  N
  C1       1.0000 0.16779  0.32618  0.18618  Biso   1.000  C
  C2       1.0000 0.06276  0.34351  0.28783  Biso   1.000  C
  C3       1.0000 0.06273  0.34351  0.28777  Biso   1.000  C
  C4       1.0000 0.99420  0.25618  0.15902  Biso   1.000  C
  C5       1.0000 0.99417  0.25618  0.15895  Biso   1.000  C
  O1       1.0000 0.19750  0.30279  0.12359  Biso   1.000  O
  N2       1.0000 0.22620  0.37362  0.24732  Biso   1.000  N
  N3       1.0000 0.07140  0.30812  0.20865  Biso   1.000  N
  C6       1.0000 0.17342  0.38722  0.31737  Biso   1.000  C
  H1       1.0000 0.05744  0.31061  0.33370  Biso   1.000  H
  N4       1.0000 0.97410  0.39571  0.27323  Biso   1.000  N
  N5       1.0000 0.97407  0.39571  0.27316  Biso   1.000  N
  H2       1.0000 0.03520  0.22571  0.13014  Biso   1.000  H
  H3       1.0000 0.03518  0.22571  0.13007  Biso   1.000  H
  H4       1.0000 0.96655  0.22850  0.19993  Biso   1.000  H
  N6       1.0000 0.89835  0.28541  0.09253  Biso   1.000  N
  H5       1.0000 0.96652  0.22850  0.19986  Biso   1.000  H
  N7       1.0000 0.89832  0.28541  0.09246  Biso   1.000  N
  C7       1.0000 0.34020  0.39529  0.24923  Biso   1.000  C
  C8       1.0000 0.34017  0.39529  0.24917  Biso   1.000  C
  H6       1.0000 0.22133  0.37268  0.37540  Biso   1.000  H
  N8       1.0000 0.13219  0.45768  0.31909  Biso   1.000  N
  C9       1.0000 0.01810  0.46011  0.29788  Biso   1.000  C
  C10      1.0000 0.85393  0.38112  0.25221  Biso   1.000  C
  C11      1.0000 0.88891  0.28438  0.00350  Biso   1.000  C
  C12      1.0000 0.79402  0.30698  0.11090  Biso   1.000  C
  H7       1.0000 0.37209  0.36141  0.21771  Biso   1.000  H
  H8       1.0000 0.38651  0.39612  0.31004  Biso   1.000  H
  N9       1.0000 0.34484  0.46265  0.21031  Biso   1.000  N
  H9       1.0000 0.38648  0.39612  0.30997  Biso   1.000  H
  C13      1.0000 0.20390  0.51862  0.34652  Biso   1.000  C
  C14      1.0000 0.20388  0.51862  0.34646  Biso   1.000  C
  O2       1.0000 0.96040  0.51304  0.29880  Biso   1.000  O
  H10      1.0000 0.81712  0.41878  0.27382  Biso   1.000  H
  H11      1.0000 0.84302  0.33942  0.28287  Biso   1.000  H
  N10      1.0000 0.80034  0.37222  0.15763  Biso   1.000  N
  H12      1.0000 0.81710  0.41878  0.27375  Biso   1.000  H
  N11      1.0000 0.80031  0.37222  0.15756  Biso   1.000  N
  N12      1.0000 0.78438  0.31102  0.95849  Biso   1.000  N
  O3       1.0000 0.96107  0.26456  0.96847  Biso   1.000  O
  N13      1.0000 0.78435  0.31102  0.95843  Biso   1.000  N
  H13      1.0000 0.76358  0.27020  0.14038  Biso   1.000  H
  C15      1.0000 0.71327  0.32318  0.01778  Biso   1.000  C
  C16      1.0000 0.35060  0.52768  0.26001  Biso   1.000  C
  C17      1.0000 0.36545  0.47237  0.13040  Biso   1.000  C
  N14      1.0000 0.24487  0.54832  0.27673  Biso   1.000  N
  N15      1.0000 0.24477  0.54832  0.27666  Biso   1.000  N
  H14      1.0000 0.26806  0.50579  0.39543  Biso   1.000  H
  H15      1.0000 0.16153  0.55360  0.36774  Biso   1.000  H
  H16      1.0000 0.26804  0.50579  0.39536  Biso   1.000  H
  H17      1.0000 0.16151  0.55360  0.36767  Biso   1.000  H
  C18      1.0000 0.73032  0.42250  0.10773  Biso   1.000  C
  C19      1.0000 0.73030  0.42250  0.10766  Biso   1.000  C
  C20      1.0000 0.73950  0.30528  0.86226  Biso   1.000  C
  H18      1.0000 0.64668  0.29327  0.00357  Biso   1.000  H
  N16      1.0000 0.68383  0.39534  0.02419  Biso   1.000  N
  C21      1.0000 0.36904  0.58272  0.19352  Biso   1.000  C
  H19      1.0000 0.41299  0.52732  0.31440  Biso   1.000  H
  C22      1.0000 0.36901  0.58272  0.19345  Biso   1.000  C
  N17      1.0000 0.37049  0.54242  0.11573  Biso   1.000  N
  O4       1.0000 0.37724  0.42669  0.07931  Biso   1.000  O
  N18      1.0000 0.37046  0.54242  0.11566  Biso   1.000  N
  C23      1.0000 0.20761  0.61092  0.23833  Biso   1.000  C
  C24      1.0000 0.20759  0.61092  0.23826  Biso   1.000  C
  O5       1.0000 0.71199  0.48019  0.13258  Biso   1.000  O
  H20      1.0000 0.78878  0.27579  0.83999  Biso   1.000  H
  H21      1.0000 0.66599  0.28329  0.84838  Biso   1.000  H
  N19      1.0000 0.72869  0.37186  0.81745  Biso   1.000  N
  H22      1.0000 0.78875  0.27579  0.83992  Biso   1.000  H
  H23      1.0000 0.66597  0.28329  0.84832  Biso   1.000  H
  C25      1.0000 0.59448  0.43001  0.95869  Biso   1.000  C
  C26      1.0000 0.59446  0.43001  0.95863  Biso   1.000  C
  H24      1.0000 0.43993  0.60781  0.21731  Biso   1.000  H
  N20      1.0000 0.27142  0.62814  0.18261  Biso   1.000  N
  C27      1.0000 0.40562  0.56999  0.04137  Biso   1.000  C
  O6       1.0000 0.12802  0.64490  0.24890  Biso   1.000  O
  C28      1.0000 0.79249  0.38908  0.76174  Biso   1.000  C
  C29      1.0000 0.63107  0.41728  0.80655  Biso   1.000  C
  H25      1.0000 0.56592  0.46762  0.98685  Biso   1.000  H
  H26      1.0000 0.53323  0.39762  0.93629  Biso   1.000  H
  N21      1.0000 0.62962  0.45758  0.88434  Biso   1.000  N
  H27      1.0000 0.53320  0.39762  0.93622  Biso   1.000  H
  C30      1.0000 0.26060  0.69472  0.13780  Biso   1.000  C
  H28      1.0000 0.43418  0.53238  0.01322  Biso   1.000  H
  H29      1.0000 0.46688  0.60238  0.06378  Biso   1.000  H
  H30      1.0000 0.43416  0.53238  0.01315  Biso   1.000  H
  N22      1.0000 0.31628  0.60466  0.97588  Biso   1.000  N
  N23      1.0000 0.75523  0.45168  0.72334  Biso   1.000  N
  O7       1.0000 0.87208  0.35510  0.75116  Biso   1.000  O
  H31      1.0000 0.56017  0.39219  0.78276  Biso   1.000  H
  C31      1.0000 0.64951  0.47232  0.74006  Biso   1.000  C
  C32      1.0000 0.63466  0.52763  0.86967  Biso   1.000  C
  H32      1.0000 0.21133  0.72421  0.16008  Biso   1.000  H
  H33      1.0000 0.33411  0.71671  0.15168  Biso   1.000  H
  N24      1.0000 0.21573  0.68898  0.04157  Biso   1.000  N
  C33      1.0000 0.28684  0.67682  0.98229  Biso   1.000  C
  C34      1.0000 0.26978  0.57750  0.89234  Biso   1.000  C
  C35      1.0000 0.28681  0.67682  0.98222  Biso   1.000  C
  C36      1.0000 0.79620  0.48138  0.65354  Biso   1.000  C
  H34      1.0000 0.58711  0.47268  0.68567  Biso   1.000  H
  N25      1.0000 0.65527  0.53735  0.78976  Biso   1.000  N
  O8       1.0000 0.62287  0.57331  0.92076  Biso   1.000  O
  C37      1.0000 0.11120  0.71562  0.99656  Biso   1.000  C
  C38      1.0000 0.20609  0.69302  0.88916  Biso   1.000  C
  H35      1.0000 0.35342  0.70673  0.99650  Biso   1.000  H
  H36      1.0000 0.35340  0.70673  0.99643  Biso   1.000  H
  N26      1.0000 0.19977  0.62778  0.84244  Biso   1.000  N
  O9       1.0000 0.28811  0.51981  0.86749  Biso   1.000  O
  O10      1.0000 0.28809  0.51981  0.86742  Biso   1.000  O
  H37      1.0000 0.73204  0.49421  0.60464  Biso   1.000  H
  H38      1.0000 0.83857  0.44640  0.63233  Biso   1.000  H
  N27      1.0000 0.86791  0.54232  0.68097  Biso   1.000  N
  N28      1.0000 0.86789  0.54232  0.68091  Biso   1.000  N
  C39      1.0000 0.65991  0.60471  0.75083  Biso   1.000  C
  O11      1.0000 0.03904  0.73544  0.03159  Biso   1.000  O
  O12      1.0000 0.03896  0.73544  0.03159  Biso   1.000  O
  N29      1.0000 0.10176  0.71459  0.90754  Biso   1.000  N
  H39      1.0000 0.23652  0.72980  0.85969  Biso   1.000  H
  H40      1.0000 0.23650  0.72980  0.85962  Biso   1.000  H
  C40      1.0000 0.14618  0.61888  0.74786  Biso   1.000  C
  C41      1.0000 0.82668  0.61278  0.68269  Biso   1.000  C
  C42      1.0000 0.98200  0.53989  0.70219  Biso   1.000  C
  C43      1.0000 0.82666  0.61278  0.68263  Biso   1.000  C
  C44      1.0000 0.98198  0.53989  0.70212  Biso   1.000  C
  H41      1.0000 0.62802  0.63859  0.78236  Biso   1.000  H
  H42      1.0000 0.61360  0.60388  0.69003  Biso   1.000  H
  N30      1.0000 0.77391  0.62638  0.75275  Biso   1.000  N
  C45      1.0000 0.00591  0.74382  0.84105  Biso   1.000  C
  H43      1.0000 0.18298  0.58122  0.72625  Biso   1.000  H
  H44      1.0000 0.15709  0.66058  0.71719  Biso   1.000  H
  N31      1.0000 0.02601  0.60429  0.72684  Biso   1.000  N
  H45      1.0000 0.15706  0.66058  0.71713  Biso   1.000  H
  N32      1.0000 0.02593  0.60429  0.72684  Biso   1.000  N
  C46      1.0000 0.93735  0.65649  0.71223  Biso   1.000  C
  H46      1.0000 0.77877  0.62732  0.62466  Biso   1.000  H
  O13      1.0000 0.03970  0.48696  0.70126  Biso   1.000  O
  C47      1.0000 0.83231  0.67382  0.81388  Biso   1.000  C
  C48      1.0000 0.83229  0.67382  0.81382  Biso   1.000  C
  H47      1.0000 0.96490  0.77429  0.86993  Biso   1.000  H
  N33      1.0000 0.92868  0.69188  0.79135  Biso   1.000  N
  H48      1.0000 0.03356  0.77150  0.80014  Biso   1.000  H
  H49      1.0000 0.94267  0.68939  0.66637  Biso   1.000  H
  O14      1.0000 0.80261  0.69721  0.87647  Biso   1.000  O
  N34      1.0000 0.07143  0.30812  0.20872  Biso   1.000  N
  C49      1.0000 0.16779  0.32618  0.18618  Biso   1.000  C
  C50      1.0000 0.06276  0.34351  0.28783  Biso   1.000  C
  C51      1.0000 0.06273  0.34351  0.28777  Biso   1.000  C
  C52      1.0000 0.99420  0.25618  0.15902  Biso   1.000  C
  C53      1.0000 0.99417  0.25618  0.15895  Biso   1.000  C
  O15      1.0000 0.19750  0.30279  0.12359  Biso   1.000  O
  N35      1.0000 0.22620  0.37362  0.24732  Biso   1.000  N
  N36      1.0000 0.07140  0.30812  0.20865  Biso   1.000  N
  C54      1.0000 0.17342  0.38722  0.31737  Biso   1.000  C
  H50      1.0000 0.05744  0.31061  0.33370  Biso   1.000  H
  N37      1.0000 0.97410  0.39571  0.27323  Biso   1.000  N
  N38      1.0000 0.97407  0.39571  0.27316  Biso   1.000  N
  H51      1.0000 0.03520  0.22571  0.13014  Biso   1.000  H
  H52      1.0000 0.03518  0.22571  0.13007  Biso   1.000  H
  H53      1.0000 0.96655  0.22850  0.19993  Biso   1.000  H
  N39      1.0000 0.89835  0.28541  0.09253  Biso   1.000  N
  H54      1.0000 0.96652  0.22850  0.19986  Biso   1.000  H
  N40      1.0000 0.89832  0.28541  0.09246  Biso   1.000  N
  C55      1.0000 0.34020  0.39529  0.24923  Biso   1.000  C
  C56      1.0000 0.34017  0.39529  0.24917  Biso   1.000  C
  H55      1.0000 0.22133  0.37268  0.37540  Biso   1.000  H
  N41      1.0000 0.13219  0.45768  0.31909  Biso   1.000  N
  C57      1.0000 0.01810  0.46011  0.29788  Biso   1.000  C
  C58      1.0000 0.85393  0.38112  0.25221  Biso   1.000  C
  C59      1.0000 0.88891  0.28438  0.00350  Biso   1.000  C
  C60      1.0000 0.79402  0.30698  0.11090  Biso   1.000  C
  H56      1.0000 0.37209  0.36141  0.21771  Biso   1.000  H
  N42      1.0000 0.34484  0.46265  0.21031  Biso   1.000  N
  H57      1.0000 0.38651  0.39612  0.31004  Biso   1.000  H
  H58      1.0000 0.38648  0.39612  0.30997  Biso   1.000  H
  C61      1.0000 0.20390  0.51862  0.34652  Biso   1.000  C
  C62      1.0000 0.20388  0.51862  0.34646  Biso   1.000  C
  O16      1.0000 0.96040  0.51304  0.29880  Biso   1.000  O
  H59      1.0000 0.81712  0.41878  0.27382  Biso   1.000  H
  H60      1.0000 0.84302  0.33942  0.28287  Biso   1.000  H
  N43      1.0000 0.80034  0.37222  0.15763  Biso   1.000  N
  H61      1.0000 0.81710  0.41878  0.27375  Biso   1.000  H
  N44      1.0000 0.80031  0.37222  0.15756  Biso   1.000  N
  N45      1.0000 0.78438  0.31102  0.95849  Biso   1.000  N
  O17      1.0000 0.96107  0.26456  0.96847  Biso   1.000  O
  N46      1.0000 0.78435  0.31102  0.95843  Biso   1.000  N
  H62      1.0000 0.76358  0.27020  0.14038  Biso   1.000  H
  C63      1.0000 0.71327  0.32318  0.01778  Biso   1.000  C
  C64      1.0000 0.35060  0.52768  0.26001  Biso   1.000  C
  C65      1.0000 0.36545  0.47237  0.13040  Biso   1.000  C
  H63      1.0000 0.26806  0.50579  0.39543  Biso   1.000  H
  H64      1.0000 0.16153  0.55360  0.36774  Biso   1.000  H
  N47      1.0000 0.24487  0.54832  0.27673  Biso   1.000  N
  H65      1.0000 0.26804  0.50579  0.39536  Biso   1.000  H
  H66      1.0000 0.16151  0.55360  0.36767  Biso   1.000  H
  N48      1.0000 0.24477  0.54832  0.27666  Biso   1.000  N
  C66      1.0000 0.73032  0.42250  0.10773  Biso   1.000  C
  C67      1.0000 0.73030  0.42250  0.10766  Biso   1.000  C
  C68      1.0000 0.73950  0.30528  0.86226  Biso   1.000  C
  H67      1.0000 0.64668  0.29327  0.00357  Biso   1.000  H
  N49      1.0000 0.68383  0.39534  0.02419  Biso   1.000  N
  H68      1.0000 0.41299  0.52732  0.31440  Biso   1.000  H
  C69      1.0000 0.36904  0.58272  0.19352  Biso   1.000  C
  C70      1.0000 0.36901  0.58272  0.19345  Biso   1.000  C
  O18      1.0000 0.37724  0.42669  0.07931  Biso   1.000  O
  N50      1.0000 0.37049  0.54242  0.11573  Biso   1.000  N
  N51      1.0000 0.37046  0.54242  0.11566  Biso   1.000  N
  C71      1.0000 0.20761  0.61092  0.23833  Biso   1.000  C
  C72      1.0000 0.20759  0.61092  0.23826  Biso   1.000  C
  O19      1.0000 0.71199  0.48019  0.13258  Biso   1.000  O
  H69      1.0000 0.78878  0.27579  0.83999  Biso   1.000  H
  H70      1.0000 0.66599  0.28329  0.84838  Biso   1.000  H
  N52      1.0000 0.72869  0.37186  0.81745  Biso   1.000  N
  H71      1.0000 0.78875  0.27579  0.83992  Biso   1.000  H
  H72      1.0000 0.66597  0.28329  0.84832  Biso   1.000  H
  C73      1.0000 0.59448  0.43001  0.95869  Biso   1.000  C
  C74      1.0000 0.59446  0.43001  0.95863  Biso   1.000  C
  H73      1.0000 0.43993  0.60781  0.21731  Biso   1.000  H
  N53      1.0000 0.27142  0.62814  0.18261  Biso   1.000  N
  C75      1.0000 0.40562  0.56999  0.04137  Biso   1.000  C
  O20      1.0000 0.12802  0.64490  0.24890  Biso   1.000  O
  C76      1.0000 0.79249  0.38908  0.76174  Biso   1.000  C
  C77      1.0000 0.63107  0.41728  0.80655  Biso   1.000  C
  H74      1.0000 0.56592  0.46762  0.98685  Biso   1.000  H
  H75      1.0000 0.53323  0.39762  0.93629  Biso   1.000  H
  N54      1.0000 0.62962  0.45758  0.88434  Biso   1.000  N
  H76      1.0000 0.53320  0.39762  0.93622  Biso   1.000  H
  C78      1.0000 0.26060  0.69472  0.13780  Biso   1.000  C
  H77      1.0000 0.46688  0.60238  0.06378  Biso   1.000  H
  H78      1.0000 0.43418  0.53238  0.01322  Biso   1.000  H
  H79      1.0000 0.43416  0.53238  0.01315  Biso   1.000  H
  N55      1.0000 0.31628  0.60466  0.97588  Biso   1.000  N
  N56      1.0000 0.75523  0.45168  0.72334  Biso   1.000  N
  O21      1.0000 0.87208  0.35510  0.75116  Biso   1.000  O
  H80      1.0000 0.56017  0.39219  0.78276  Biso   1.000  H
  C79      1.0000 0.64951  0.47232  0.74006  Biso   1.000  C
  C80      1.0000 0.63466  0.52763  0.86967  Biso   1.000  C
  H81      1.0000 0.21133  0.72421  0.16008  Biso   1.000  H
  H82      1.0000 0.33411  0.71671  0.15168  Biso   1.000  H
  N57      1.0000 0.21573  0.68898  0.04157  Biso   1.000  N
  C81      1.0000 0.28684  0.67682  0.98229  Biso   1.000  C
  C82      1.0000 0.26978  0.57750  0.89234  Biso   1.000  C
  C83      1.0000 0.28681  0.67682  0.98222  Biso   1.000  C
  C84      1.0000 0.79620  0.48138  0.65354  Biso   1.000  C
  H83      1.0000 0.58711  0.47268  0.68567  Biso   1.000  H
  N58      1.0000 0.65527  0.53735  0.78976  Biso   1.000  N
  O22      1.0000 0.62287  0.57331  0.92076  Biso   1.000  O
  C85      1.0000 0.11120  0.71562  0.99656  Biso   1.000  C
  C86      1.0000 0.20609  0.69302  0.88916  Biso   1.000  C
  H84      1.0000 0.35342  0.70673  0.99650  Biso   1.000  H
  H85      1.0000 0.35340  0.70673  0.99643  Biso   1.000  H
  N59      1.0000 0.19977  0.62778  0.84244  Biso   1.000  N
  O23      1.0000 0.28811  0.51981  0.86749  Biso   1.000  O
  O24      1.0000 0.28809  0.51981  0.86742  Biso   1.000  O
  H86      1.0000 0.73204  0.49421  0.60464  Biso   1.000  H
  H87      1.0000 0.83857  0.44640  0.63233  Biso   1.000  H
  N60      1.0000 0.86791  0.54232  0.68097  Biso   1.000  N
  N61      1.0000 0.86789  0.54232  0.68091  Biso   1.000  N
  C87      1.0000 0.65991  0.60471  0.75083  Biso   1.000  C
  O25      1.0000 0.03904  0.73544  0.03159  Biso   1.000  O
  O26      1.0000 0.03896  0.73544  0.03159  Biso   1.000  O
  N62      1.0000 0.10176  0.71459  0.90754  Biso   1.000  N
  H88      1.0000 0.23652  0.72980  0.85969  Biso   1.000  H
  H89      1.0000 0.23650  0.72980  0.85962  Biso   1.000  H
  C88      1.0000 0.14618  0.61888  0.74786  Biso   1.000  C
  C89      1.0000 0.98200  0.53989  0.70219  Biso   1.000  C
  C90      1.0000 0.98198  0.53989  0.70212  Biso   1.000  C
  C91      1.0000 0.82668  0.61278  0.68269  Biso   1.000  C
  C92      1.0000 0.82666  0.61278  0.68263  Biso   1.000  C
  H90      1.0000 0.62802  0.63859  0.78236  Biso   1.000  H
  H91      1.0000 0.61360  0.60388  0.69003  Biso   1.000  H
  N63      1.0000 0.77391  0.62638  0.75275  Biso   1.000  N
  C93      1.0000 0.00591  0.74382  0.84105  Biso   1.000  C
  H92      1.0000 0.18298  0.58122  0.72625  Biso   1.000  H
  H93      1.0000 0.15709  0.66058  0.71719  Biso   1.000  H
  N64      1.0000 0.02601  0.60429  0.72684  Biso   1.000  N
  H94      1.0000 0.15706  0.66058  0.71713  Biso   1.000  H
  N65      1.0000 0.02593  0.60429  0.72684  Biso   1.000  N
  O27      1.0000 0.03970  0.48696  0.70126  Biso   1.000  O
  C94      1.0000 0.93735  0.65649  0.71223  Biso   1.000  C
  H95      1.0000 0.77877  0.62732  0.62466  Biso   1.000  H
  C95      1.0000 0.83231  0.67382  0.81388  Biso   1.000  C
  C96      1.0000 0.83229  0.67382  0.81382  Biso   1.000  C
  H96      1.0000 0.96490  0.77429  0.86993  Biso   1.000  H
  N66      1.0000 0.92868  0.69188  0.79135  Biso   1.000  N
  H97      1.0000 0.03356  0.77150  0.80014  Biso   1.000  H
  H98      1.0000 0.94267  0.68939  0.66637  Biso   1.000  H
  O28      1.0000 0.80261  0.69721  0.87647  Biso   1.000  O
  N67      1.0000 0.07143  0.30812  0.20872  Biso   1.000  N
  C97      1.0000 0.16779  0.32618  0.18618  Biso   1.000  C
  C98      1.0000 0.99420  0.25618  0.15902  Biso   1.000  C
  C99      1.0000 0.99417  0.25618  0.15895  Biso   1.000  C
  C100     1.0000 0.06276  0.34351  0.28783  Biso   1.000  C
  C101     1.0000 0.06273  0.34351  0.28777  Biso   1.000  C
  O29      1.0000 0.19750  0.30279  0.12359  Biso   1.000  O
  N68      1.0000 0.22620  0.37362  0.24732  Biso   1.000  N
  N69      1.0000 0.07140  0.30812  0.20865  Biso   1.000  N
  H99      1.0000 0.96655  0.22850  0.19993  Biso   1.000  H
  N70      1.0000 0.89835  0.28541  0.09253  Biso   1.000  N
  H100     1.0000 0.96652  0.22850  0.19986  Biso   1.000  H
  N71      1.0000 0.89832  0.28541  0.09246  Biso   1.000  N
  H101     1.0000 0.03520  0.22571  0.13014  Biso   1.000  H
  H102     1.0000 0.03518  0.22571  0.13007  Biso   1.000  H
  C102     1.0000 0.17342  0.38722  0.31737  Biso   1.000  C
  H103     1.0000 0.05744  0.31061  0.33370  Biso   1.000  H
  N72      1.0000 0.97410  0.39571  0.27323  Biso   1.000  N
  N73      1.0000 0.97407  0.39571  0.27316  Biso   1.000  N
  C103     1.0000 0.34020  0.39529  0.24923  Biso   1.000  C
  C104     1.0000 0.34017  0.39529  0.24917  Biso   1.000  C
  C105     1.0000 0.88891  0.28438  0.00350  Biso   1.000  C
  C106     1.0000 0.79402  0.30698  0.11090  Biso   1.000  C
  H104     1.0000 0.22133  0.37268  0.37540  Biso   1.000  H
  N74      1.0000 0.13219  0.45768  0.31909  Biso   1.000  N
  C107     1.0000 0.01810  0.46011  0.29788  Biso   1.000  C
  C108     1.0000 0.85393  0.38112  0.25221  Biso   1.000  C
  H105     1.0000 0.37209  0.36141  0.21771  Biso   1.000  H
  N75      1.0000 0.34484  0.46265  0.21031  Biso   1.000  N
  H106     1.0000 0.38651  0.39612  0.31004  Biso   1.000  H
  H107     1.0000 0.38648  0.39612  0.30997  Biso   1.000  H
  N76      1.0000 0.78438  0.31102  0.95849  Biso   1.000  N
  O30      1.0000 0.96107  0.26456  0.96847  Biso   1.000  O
  N77      1.0000 0.78435  0.31102  0.95843  Biso   1.000  N
  H108     1.0000 0.76358  0.27020  0.14038  Biso   1.000  H
  C109     1.0000 0.71327  0.32318  0.01778  Biso   1.000  C
  N78      1.0000 0.80034  0.37222  0.15763  Biso   1.000  N
  N79      1.0000 0.80031  0.37222  0.15756  Biso   1.000  N
  C110     1.0000 0.20390  0.51862  0.34652  Biso   1.000  C
  C111     1.0000 0.20388  0.51862  0.34646  Biso   1.000  C
  O31      1.0000 0.96040  0.51304  0.29880  Biso   1.000  O
  H109     1.0000 0.81712  0.41878  0.27382  Biso   1.000  H
  H110     1.0000 0.84302  0.33942  0.28287  Biso   1.000  H
  H111     1.0000 0.81710  0.41878  0.27375  Biso   1.000  H
  C112     1.0000 0.35060  0.52768  0.26001  Biso   1.000  C
  C113     1.0000 0.36545  0.47237  0.13040  Biso   1.000  C
  C114     1.0000 0.73950  0.30528  0.86226  Biso   1.000  C
  H112     1.0000 0.64668  0.29327  0.00357  Biso   1.000  H
  N80      1.0000 0.68383  0.39534  0.02419  Biso   1.000  N
  C115     1.0000 0.73032  0.42250  0.10773  Biso   1.000  C
  C116     1.0000 0.73030  0.42250  0.10766  Biso   1.000  C
  H113     1.0000 0.26806  0.50579  0.39543  Biso   1.000  H
  H114     1.0000 0.16153  0.55360  0.36774  Biso   1.000  H
  N81      1.0000 0.24487  0.54832  0.27673  Biso   1.000  N
  H115     1.0000 0.26804  0.50579  0.39536  Biso   1.000  H
  H116     1.0000 0.16151  0.55360  0.36767  Biso   1.000  H
  N82      1.0000 0.24477  0.54832  0.27666  Biso   1.000  N
  H117     1.0000 0.41299  0.52732  0.31440  Biso   1.000  H
  C117     1.0000 0.36904  0.58272  0.19352  Biso   1.000  C
  C118     1.0000 0.36901  0.58272  0.19345  Biso   1.000  C
  O32      1.0000 0.37724  0.42669  0.07931  Biso   1.000  O
  N83      1.0000 0.37049  0.54242  0.11573  Biso   1.000  N
  N84      1.0000 0.37046  0.54242  0.11566  Biso   1.000  N
  H118     1.0000 0.78878  0.27579  0.83999  Biso   1.000  H
  H119     1.0000 0.66599  0.28329  0.84838  Biso   1.000  H
  N85      1.0000 0.72869  0.37186  0.81745  Biso   1.000  N
  H120     1.0000 0.78875  0.27579  0.83992  Biso   1.000  H
  H121     1.0000 0.66597  0.28329  0.84832  Biso   1.000  H
  C119     1.0000 0.59448  0.43001  0.95869  Biso   1.000  C
  C120     1.0000 0.59446  0.43001  0.95863  Biso   1.000  C
  O33      1.0000 0.71199  0.48019  0.13258  Biso   1.000  O
  C121     1.0000 0.20761  0.61092  0.23833  Biso   1.000  C
  C122     1.0000 0.20759  0.61092  0.23826  Biso   1.000  C
  H122     1.0000 0.43993  0.60781  0.21731  Biso   1.000  H
  N86      1.0000 0.27142  0.62814  0.18261  Biso   1.000  N
  C123     1.0000 0.40562  0.56999  0.04137  Biso   1.000  C
  C124     1.0000 0.79249  0.38908  0.76174  Biso   1.000  C
  C125     1.0000 0.63107  0.41728  0.80655  Biso   1.000  C
  H123     1.0000 0.56592  0.46762  0.98685  Biso   1.000  H
  H124     1.0000 0.53323  0.39762  0.93629  Biso   1.000  H
  N87      1.0000 0.62962  0.45758  0.88434  Biso   1.000  N
  H125     1.0000 0.53320  0.39762  0.93622  Biso   1.000  H
  O34      1.0000 0.12802  0.64490  0.24890  Biso   1.000  O
  C126     1.0000 0.26060  0.69472  0.13780  Biso   1.000  C
  H126     1.0000 0.46688  0.60238  0.06378  Biso   1.000  H
  N88      1.0000 0.31628  0.60466  0.97588  Biso   1.000  N
  H127     1.0000 0.43418  0.53238  0.01322  Biso   1.000  H
  H128     1.0000 0.43416  0.53238  0.01315  Biso   1.000  H
  N89      1.0000 0.75523  0.45168  0.72334  Biso   1.000  N
  O35      1.0000 0.87208  0.35510  0.75116  Biso   1.000  O
  H129     1.0000 0.56017  0.39219  0.78276  Biso   1.000  H
  C127     1.0000 0.64951  0.47232  0.74006  Biso   1.000  C
  C128     1.0000 0.63466  0.52763  0.86967  Biso   1.000  C
  H130     1.0000 0.21133  0.72421  0.16008  Biso   1.000  H
  H131     1.0000 0.33411  0.71671  0.15168  Biso   1.000  H
  N90      1.0000 0.21573  0.68898  0.04157  Biso   1.000  N
  C129     1.0000 0.28684  0.67682  0.98229  Biso   1.000  C
  C130     1.0000 0.26978  0.57750  0.89234  Biso   1.000  C
  C131     1.0000 0.28681  0.67682  0.98222  Biso   1.000  C
  C132     1.0000 0.79620  0.48138  0.65354  Biso   1.000  C
  H132     1.0000 0.58711  0.47268  0.68567  Biso   1.000  H
  N91      1.0000 0.65527  0.53735  0.78976  Biso   1.000  N
  O36      1.0000 0.62287  0.57331  0.92076  Biso   1.000  O
  C133     1.0000 0.11120  0.71562  0.99656  Biso   1.000  C
  C134     1.0000 0.20609  0.69302  0.88916  Biso   1.000  C
  H133     1.0000 0.35342  0.70673  0.99650  Biso   1.000  H
  H134     1.0000 0.35340  0.70673  0.99643  Biso   1.000  H
  N92      1.0000 0.19977  0.62778  0.84244  Biso   1.000  N
  O37      1.0000 0.28811  0.51981  0.86749  Biso   1.000  O
  O38      1.0000 0.28809  0.51981  0.86742  Biso   1.000  O
  H135     1.0000 0.73204  0.49421  0.60464  Biso   1.000  H
  H136     1.0000 0.83857  0.44640  0.63233  Biso   1.000  H
  N93      1.0000 0.86791  0.54232  0.68097  Biso   1.000  N
  N94      1.0000 0.86789  0.54232  0.68091  Biso   1.000  N
  C135     1.0000 0.65991  0.60471  0.75083  Biso   1.000  C
  N95      1.0000 0.10176  0.71459  0.90754  Biso   1.000  N
  O39      1.0000 0.03904  0.73544  0.03159  Biso   1.000  O
  O40      1.0000 0.03896  0.73544  0.03159  Biso   1.000  O
  H137     1.0000 0.23652  0.72980  0.85969  Biso   1.000  H
  H138     1.0000 0.23650  0.72980  0.85962  Biso   1.000  H
  C136     1.0000 0.14618  0.61888  0.74786  Biso   1.000  C
  C137     1.0000 0.98200  0.53989  0.70219  Biso   1.000  C
  C138     1.0000 0.98198  0.53989  0.70212  Biso   1.000  C
  C139     1.0000 0.82668  0.61278  0.68269  Biso   1.000  C
  C140     1.0000 0.82666  0.61278  0.68263  Biso   1.000  C
  H139     1.0000 0.62802  0.63859  0.78236  Biso   1.000  H
  H140     1.0000 0.61360  0.60388  0.69003  Biso   1.000  H
  N96      1.0000 0.77391  0.62638  0.75275  Biso   1.000  N
  C141     1.0000 0.00591  0.74382  0.84105  Biso   1.000  C
  H141     1.0000 0.18298  0.58122  0.72625  Biso   1.000  H
  H142     1.0000 0.15709  0.66058  0.71719  Biso   1.000  H
  N97      1.0000 0.02601  0.60429  0.72684  Biso   1.000  N
  H143     1.0000 0.15706  0.66058  0.71713  Biso   1.000  H
  N98      1.0000 0.02593  0.60429  0.72684  Biso   1.000  N
  O41      1.0000 0.03970  0.48696  0.70126  Biso   1.000  O
  C142     1.0000 0.93735  0.65649  0.71223  Biso   1.000  C
  H144     1.0000 0.77877  0.62732  0.62466  Biso   1.000  H
  C143     1.0000 0.83231  0.67382  0.81388  Biso   1.000  C
  C144     1.0000 0.83229  0.67382  0.81382  Biso   1.000  C
  H145     1.0000 0.96490  0.77429  0.86993  Biso   1.000  H
  N99      1.0000 0.92868  0.69188  0.79135  Biso   1.000  N
  H146     1.0000 0.03356  0.77150  0.80014  Biso   1.000  H
  H147     1.0000 0.94267  0.68939  0.66637  Biso   1.000  H
  O42      1.0000 0.80261  0.69721  0.87647  Biso   1.000  O
  N100     1.0000 0.07143  0.30812  0.20872  Biso   1.000  N
  C145     1.0000 0.16779  0.32618  0.18618  Biso   1.000  C
  C146     1.0000 0.99420  0.25618  0.15902  Biso   1.000  C
  C147     1.0000 0.99417  0.25618  0.15895  Biso   1.000  C
  C148     1.0000 0.06276  0.34351  0.28783  Biso   1.000  C
  C149     1.0000 0.06273  0.34351  0.28777  Biso   1.000  C
  O43      1.0000 0.19750  0.30279  0.12359  Biso   1.000  O
  N101     1.0000 0.22620  0.37362  0.24732  Biso   1.000  N
  N102     1.0000 0.07140  0.30812  0.20865  Biso   1.000  N
  H148     1.0000 0.96655  0.22850  0.19993  Biso   1.000  H
  N103     1.0000 0.89835  0.28541  0.09253  Biso   1.000  N
  H149     1.0000 0.96652  0.22850  0.19986  Biso   1.000  H
  N104     1.0000 0.89832  0.28541  0.09246  Biso   1.000  N
  H150     1.0000 0.03520  0.22571  0.13014  Biso   1.000  H
  H151     1.0000 0.03518  0.22571  0.13007  Biso   1.000  H
  C150     1.0000 0.17342  0.38722  0.31737  Biso   1.000  C
  H152     1.0000 0.05744  0.31061  0.33370  Biso   1.000  H
  N105     1.0000 0.97410  0.39571  0.27323  Biso   1.000  N
  N106     1.0000 0.97407  0.39571  0.27316  Biso   1.000  N
  C151     1.0000 0.34020  0.39529  0.24923  Biso   1.000  C
  C152     1.0000 0.34017  0.39529  0.24917  Biso   1.000  C
  C153     1.0000 0.88891  0.28438  0.00350  Biso   1.000  C
  C154     1.0000 0.79402  0.30698  0.11090  Biso   1.000  C
  H153     1.0000 0.22133  0.37268  0.37540  Biso   1.000  H
  N107     1.0000 0.13219  0.45768  0.31909  Biso   1.000  N
  C155     1.0000 0.01810  0.46011  0.29788  Biso   1.000  C
  C156     1.0000 0.85393  0.38112  0.25221  Biso   1.000  C
  H154     1.0000 0.37209  0.36141  0.21771  Biso   1.000  H
  N108     1.0000 0.34484  0.46265  0.21031  Biso   1.000  N
  H155     1.0000 0.38651  0.39612  0.31004  Biso   1.000  H
  H156     1.0000 0.38648  0.39612  0.30997  Biso   1.000  H
  N109     1.0000 0.78438  0.31102  0.95849  Biso   1.000  N
  O44      1.0000 0.96107  0.26456  0.96847  Biso   1.000  O
  N110     1.0000 0.78435  0.31102  0.95843  Biso   1.000  N
  H157     1.0000 0.76358  0.27020  0.14038  Biso   1.000  H
  C157     1.0000 0.71327  0.32318  0.01778  Biso   1.000  C
  N111     1.0000 0.80034  0.37222  0.15763  Biso   1.000  N
  N112     1.0000 0.80031  0.37222  0.15756  Biso   1.000  N
  C158     1.0000 0.20390  0.51862  0.34652  Biso   1.000  C
  C159     1.0000 0.20388  0.51862  0.34646  Biso   1.000  C
  O45      1.0000 0.96040  0.51304  0.29880  Biso   1.000  O
  H158     1.0000 0.81712  0.41878  0.27382  Biso   1.000  H
  H159     1.0000 0.84302  0.33942  0.28287  Biso   1.000  H
  H160     1.0000 0.81710  0.41878  0.27375  Biso   1.000  H
  C160     1.0000 0.35060  0.52768  0.26001  Biso   1.000  C
  C161     1.0000 0.36545  0.47237  0.13040  Biso   1.000  C
  C162     1.0000 0.73950  0.30528  0.86226  Biso   1.000  C
  H161     1.0000 0.64668  0.29327  0.00357  Biso   1.000  H
  N113     1.0000 0.68383  0.39534  0.02419  Biso   1.000  N
  C163     1.0000 0.73032  0.42250  0.10773  Biso   1.000  C
  C164     1.0000 0.73030  0.42250  0.10766  Biso   1.000  C
  H162     1.0000 0.26806  0.50579  0.39543  Biso   1.000  H
  H163     1.0000 0.16153  0.55360  0.36774  Biso   1.000  H
  N114     1.0000 0.24487  0.54832  0.27673  Biso   1.000  N
  H164     1.0000 0.26804  0.50579  0.39536  Biso   1.000  H
  H165     1.0000 0.16151  0.55360  0.36767  Biso   1.000  H
  N115     1.0000 0.24477  0.54832  0.27666  Biso   1.000  N
  H166     1.0000 0.41299  0.52732  0.31440  Biso   1.000  H
  C165     1.0000 0.36904  0.58272  0.19352  Biso   1.000  C
  C166     1.0000 0.36901  0.58272  0.19345  Biso   1.000  C
  O46      1.0000 0.37724  0.42669  0.07931  Biso   1.000  O
  N116     1.0000 0.37049  0.54242  0.11573  Biso   1.000  N
  N117     1.0000 0.37046  0.54242  0.11566  Biso   1.000  N
  H167     1.0000 0.78878  0.27579  0.83999  Biso   1.000  H
  H168     1.0000 0.66599  0.28329  0.84838  Biso   1.000  H
  N118     1.0000 0.72869  0.37186  0.81745  Biso   1.000  N
  H169     1.0000 0.78875  0.27579  0.83992  Biso   1.000  H
  H170     1.0000 0.66597  0.28329  0.84832  Biso   1.000  H
  C167     1.0000 0.59448  0.43001  0.95869  Biso   1.000  C
  C168     1.0000 0.59446  0.43001  0.95863  Biso   1.000  C
  O47      1.0000 0.71199  0.48019  0.13258  Biso   1.000  O
  C169     1.0000 0.20761  0.61092  0.23833  Biso   1.000  C
  C170     1.0000 0.20759  0.61092  0.23826  Biso   1.000  C
  H171     1.0000 0.43993  0.60781  0.21731  Biso   1.000  H
  N119     1.0000 0.27142  0.62814  0.18261  Biso   1.000  N
  C171     1.0000 0.40562  0.56999  0.04137  Biso   1.000  C
  C172     1.0000 0.79249  0.38908  0.76174  Biso   1.000  C
  C173     1.0000 0.63107  0.41728  0.80655  Biso   1.000  C
  H172     1.0000 0.56592  0.46762  0.98685  Biso   1.000  H
  H173     1.0000 0.53323  0.39762  0.93629  Biso   1.000  H
  N120     1.0000 0.62962  0.45758  0.88434  Biso   1.000  N
  H174     1.0000 0.53320  0.39762  0.93622  Biso   1.000  H
  O48      1.0000 0.12802  0.64490  0.24890  Biso   1.000  O
  C174     1.0000 0.26060  0.69472  0.13780  Biso   1.000  C
  H175     1.0000 0.46688  0.60238  0.06378  Biso   1.000  H
  N121     1.0000 0.31628  0.60466  0.97588  Biso   1.000  N
  H176     1.0000 0.43418  0.53238  0.01322  Biso   1.000  H
  H177     1.0000 0.43416  0.53238  0.01315  Biso   1.000  H
  N122     1.0000 0.75523  0.45168  0.72334  Biso   1.000  N
  O49      1.0000 0.87208  0.35510  0.75116  Biso   1.000  O
  H178     1.0000 0.56017  0.39219  0.78276  Biso   1.000  H
  C175     1.0000 0.64951  0.47232  0.74006  Biso   1.000  C
  C176     1.0000 0.63466  0.52763  0.86967  Biso   1.000  C
  H179     1.0000 0.21133  0.72421  0.16008  Biso   1.000  H
  H180     1.0000 0.33411  0.71671  0.15168  Biso   1.000  H
  N123     1.0000 0.21573  0.68898  0.04157  Biso   1.000  N
  C177     1.0000 0.28684  0.67682  0.98229  Biso   1.000  C
  C178     1.0000 0.26978  0.57750  0.89234  Biso   1.000  C
  C179     1.0000 0.28681  0.67682  0.98222  Biso   1.000  C
  C180     1.0000 0.79620  0.48138  0.65354  Biso   1.000  C
  H181     1.0000 0.58711  0.47268  0.68567  Biso   1.000  H
  N124     1.0000 0.65527  0.53735  0.78976  Biso   1.000  N
  O50      1.0000 0.62287  0.57331  0.92076  Biso   1.000  O
  C181     1.0000 0.11120  0.71562  0.99656  Biso   1.000  C
  C182     1.0000 0.20609  0.69302  0.88916  Biso   1.000  C
  H182     1.0000 0.35342  0.70673  0.99650  Biso   1.000  H
  H183     1.0000 0.35340  0.70673  0.99643  Biso   1.000  H
  N125     1.0000 0.19977  0.62778  0.84244  Biso   1.000  N
  O51      1.0000 0.28811  0.51981  0.86749  Biso   1.000  O
  O52      1.0000 0.28809  0.51981  0.86742  Biso   1.000  O
  H184     1.0000 0.73204  0.49421  0.60464  Biso   1.000  H
  H185     1.0000 0.83857  0.44640  0.63233  Biso   1.000  H
  N126     1.0000 0.86791  0.54232  0.68097  Biso   1.000  N
  N127     1.0000 0.86789  0.54232  0.68091  Biso   1.000  N
  C183     1.0000 0.65991  0.60471  0.75083  Biso   1.000  C
  N128     1.0000 0.10176  0.71459  0.90754  Biso   1.000  N
  O53      1.0000 0.03904  0.73544  0.03159  Biso   1.000  O
  O54      1.0000 0.03896  0.73544  0.03159  Biso   1.000  O
  H186     1.0000 0.23652  0.72980  0.85969  Biso   1.000  H
  H187     1.0000 0.23650  0.72980  0.85962  Biso   1.000  H
  C184     1.0000 0.14618  0.61888  0.74786  Biso   1.000  C
  C185     1.0000 0.98200  0.53989  0.70219  Biso   1.000  C
  C186     1.0000 0.98198  0.53989  0.70212  Biso   1.000  C
  C187     1.0000 0.82668  0.61278  0.68269  Biso   1.000  C
  C188     1.0000 0.82666  0.61278  0.68263  Biso   1.000  C
  H188     1.0000 0.62802  0.63859  0.78236  Biso   1.000  H
  H189     1.0000 0.61360  0.60388  0.69003  Biso   1.000  H
  N129     1.0000 0.77391  0.62638  0.75275  Biso   1.000  N
  C189     1.0000 0.00591  0.74382  0.84105  Biso   1.000  C
  H190     1.0000 0.18298  0.58122  0.72625  Biso   1.000  H
  H191     1.0000 0.15709  0.66058  0.71719  Biso   1.000  H
  N130     1.0000 0.02601  0.60429  0.72684  Biso   1.000  N
  H192     1.0000 0.15706  0.66058  0.71713  Biso   1.000  H
  N131     1.0000 0.02593  0.60429  0.72684  Biso   1.000  N
  O55      1.0000 0.03970  0.48696  0.70126  Biso   1.000  O
  C190     1.0000 0.93735  0.65649  0.71223  Biso   1.000  C
  H193     1.0000 0.77877  0.62732  0.62466  Biso   1.000  H
  C191     1.0000 0.83231  0.67382  0.81388  Biso   1.000  C
  C192     1.0000 0.83229  0.67382  0.81382  Biso   1.000  C
  H194     1.0000 0.96490  0.77429  0.86993  Biso   1.000  H
  N132     1.0000 0.92868  0.69188  0.79135  Biso   1.000  N
  H195     1.0000 0.03356  0.77150  0.80014  Biso   1.000  H
  H196     1.0000 0.94267  0.68939  0.66637  Biso   1.000  H
  O56      1.0000 0.80261  0.69721  0.87647  Biso   1.000  O
  O57      1.0000 0.87198  0.14490  0.25108  Biso   1.000  O
  C193     1.0000 0.79241  0.11092  0.26172  Biso   1.000  C
  N133     1.0000 0.75523  0.04832  0.22333  Biso   1.000  N
  N134     1.0000 0.72858  0.12814  0.31737  Biso   1.000  N
  C194     1.0000 0.79612  0.01862  0.15353  Biso   1.000  C
  C195     1.0000 0.64940  0.02768  0.23998  Biso   1.000  C
  C196     1.0000 0.63107  0.08272  0.30654  Biso   1.000  C
  C197     1.0000 0.73940  0.19472  0.36219  Biso   1.000  C
  N135     1.0000 0.86781  0.95768  0.18089  Biso   1.000  N
  H197     1.0000 0.73204  0.00579  0.10462  Biso   1.000  H
  H198     1.0000 0.83849  0.05360  0.13232  Biso   1.000  H
  N136     1.0000 0.65524  0.96265  0.28968  Biso   1.000  N
  H199     1.0000 0.58701  0.02732  0.18559  Biso   1.000  H
  H200     1.0000 0.56015  0.10781  0.28268  Biso   1.000  H
  N137     1.0000 0.62954  0.04242  0.38433  Biso   1.000  N
  H201     1.0000 0.78875  0.22421  0.33991  Biso   1.000  H
  H202     1.0000 0.66597  0.21671  0.34831  Biso   1.000  H
  N138     1.0000 0.78435  0.18898  0.45842  Biso   1.000  N
  C198     1.0000 0.98190  0.96011  0.20211  Biso   1.000  C
  C199     1.0000 0.82666  0.88722  0.18261  Biso   1.000  C
  C200     1.0000 0.65983  0.89529  0.25082  Biso   1.000  C
  C201     1.0000 0.63464  0.97237  0.36959  Biso   1.000  C
  C202     1.0000 0.59446  0.06999  0.45861  Biso   1.000  C
  C203     1.0000 0.88891  0.21562  0.50349  Biso   1.000  C
  C204     1.0000 0.71337  0.17682  0.51783  Biso   1.000  C
  O58      1.0000 0.03960  0.01304  0.20118  Biso   1.000  O
  N139     1.0000 0.02593  0.89571  0.22683  Biso   1.000  N
  C205     1.0000 0.93735  0.84351  0.21222  Biso   1.000  C
  H203     1.0000 0.77867  0.87268  0.12458  Biso   1.000  H
  N140     1.0000 0.77382  0.87362  0.25274  Biso   1.000  N
  H204     1.0000 0.62791  0.86141  0.28228  Biso   1.000  H
  H205     1.0000 0.61352  0.89612  0.19001  Biso   1.000  H
  O59      1.0000 0.62284  0.92669  0.42068  Biso   1.000  O
  H206     1.0000 0.56584  0.03238  0.48683  Biso   1.000  H
  H207     1.0000 0.53312  0.10238  0.43621  Biso   1.000  H
  N141     1.0000 0.68385  0.10466  0.52424  Biso   1.000  N
  N142     1.0000 0.89835  0.21459  0.59252  Biso   1.000  N
  O60      1.0000 0.96104  0.23544  0.46840  Biso   1.000  O
  C206     1.0000 0.79402  0.19302  0.61089  Biso   1.000  C
  H208     1.0000 0.64678  0.20673  0.50362  Biso   1.000  H
  C207     1.0000 0.14615  0.88112  0.24778  Biso   1.000  C
  H209     1.0000 0.94264  0.81061  0.16629  Biso   1.000  H
  N143     1.0000 0.92860  0.80812  0.29133  Biso   1.000  N
  C208     1.0000 0.83221  0.82618  0.31381  Biso   1.000  C
  C209     1.0000 0.73032  0.07750  0.60772  Biso   1.000  C
  C210     1.0000 0.99428  0.24382  0.65901  Biso   1.000  C
  H210     1.0000 0.76369  0.22980  0.64043  Biso   1.000  H
  N144     1.0000 0.80034  0.12778  0.65762  Biso   1.000  N
  H211     1.0000 0.18290  0.91878  0.22623  Biso   1.000  H
  H212     1.0000 0.15706  0.83942  0.21711  Biso   1.000  H
  N145     1.0000 0.19977  0.87222  0.34242  Biso   1.000  N
  C211     1.0000 0.00583  0.75618  0.34104  Biso   1.000  C
  O61      1.0000 0.80250  0.80279  0.37639  Biso   1.000  O
  O62      1.0000 0.71210  0.01981  0.63263  Biso   1.000  O
  H213     1.0000 0.03528  0.27429  0.63012  Biso   1.000  H
  N146     1.0000 0.07143  0.19188  0.70871  Biso   1.000  N
  H214     1.0000 0.96655  0.27150  0.69992  Biso   1.000  H
  C212     1.0000 0.85393  0.11888  0.75219  Biso   1.000  C
  C213     1.0000 0.20606  0.80698  0.38908  Biso   1.000  C
  C214     1.0000 0.26970  0.92250  0.39232  Biso   1.000  C
  H215     1.0000 0.96482  0.72571  0.36992  Biso   1.000  H
  H216     1.0000 0.03356  0.72850  0.30012  Biso   1.000  H
  N147     1.0000 0.10176  0.78541  0.40752  Biso   1.000  N
  C215     1.0000 0.16790  0.17382  0.68623  Biso   1.000  C
  C216     1.0000 0.06276  0.15649  0.78782  Biso   1.000  C
  H217     1.0000 0.81721  0.08122  0.77381  Biso   1.000  H
  H218     1.0000 0.84304  0.16058  0.78293  Biso   1.000  H
  N148     1.0000 0.97418  0.10429  0.77321  Biso   1.000  N
  H219     1.0000 0.23641  0.77020  0.35961  Biso   1.000  H
  C217     1.0000 0.28673  0.82318  0.48221  Biso   1.000  C
  N149     1.0000 0.31625  0.89534  0.47580  Biso   1.000  N
  O63      1.0000 0.28800  0.98019  0.36741  Biso   1.000  O
  C218     1.0000 0.11117  0.78438  0.49648  Biso   1.000  C
  N150     1.0000 0.22628  0.12638  0.74730  Biso   1.000  N
  O64      1.0000 0.19760  0.19721  0.62365  Biso   1.000  O
  C219     1.0000 0.17345  0.11278  0.81743  Biso   1.000  C
  H220     1.0000 0.05744  0.18939  0.83369  Biso   1.000  H
  C220     1.0000 0.01821  0.03989  0.79793  Biso   1.000  C
  H221     1.0000 0.35332  0.79327  0.49642  Biso   1.000  H
  N151     1.0000 0.21575  0.81102  0.54163  Biso   1.000  N
  C221     1.0000 0.40565  0.93001  0.54143  Biso   1.000  C
  O65      1.0000 0.03904  0.76456  0.53158  Biso   1.000  O
  C222     1.0000 0.34028  0.10471  0.74922  Biso   1.000  C
  N152     1.0000 0.13230  0.04232  0.81915  Biso   1.000  N
  H222     1.0000 0.22133  0.12732  0.87539  Biso   1.000  H
  O66      1.0000 0.96048  0.98696  0.79879  Biso   1.000  O
  C223     1.0000 0.26068  0.80528  0.63779  Biso   1.000  C
  H223     1.0000 0.43426  0.96762  0.51321  Biso   1.000  H
  H224     1.0000 0.46698  0.89762  0.56383  Biso   1.000  H
  N153     1.0000 0.37057  0.95758  0.61571  Biso   1.000  N
  N154     1.0000 0.34484  0.03735  0.71029  Biso   1.000  N
  H225     1.0000 0.37217  0.13859  0.71769  Biso   1.000  H
  H226     1.0000 0.38659  0.10388  0.81003  Biso   1.000  H
  C224     1.0000 0.20398  0.98138  0.84651  Biso   1.000  C
  H227     1.0000 0.21135  0.77579  0.66013  Biso   1.000  H
  H228     1.0000 0.33413  0.78329  0.65173  Biso   1.000  H
  N155     1.0000 0.27150  0.87186  0.68260  Biso   1.000  N
  C225     1.0000 0.36545  0.02763  0.63039  Biso   1.000  C
  C226     1.0000 0.36904  0.91728  0.69351  Biso   1.000  C
  C227     1.0000 0.35068  0.97232  0.75999  Biso   1.000  C
  N156     1.0000 0.24487  0.95168  0.77672  Biso   1.000  N
  H229     1.0000 0.26806  0.99421  0.89542  Biso   1.000  H
  H230     1.0000 0.16162  0.94640  0.86772  Biso   1.000  H
  C228     1.0000 0.20769  0.88908  0.73832  Biso   1.000  C
  O67      1.0000 0.37724  0.07331  0.57930  Biso   1.000  O
  H231     1.0000 0.43993  0.89219  0.71730  Biso   1.000  H
  H232     1.0000 0.41307  0.97268  0.81439  Biso   1.000  H
  O68      1.0000 0.12810  0.85510  0.74889  Biso   1.000  O
  O69      1.0000 0.87198  0.14490  0.25108  Biso   1.000  O
  C229     1.0000 0.79241  0.11092  0.26172  Biso   1.000  C
  N157     1.0000 0.75523  0.04832  0.22333  Biso   1.000  N
  N158     1.0000 0.72858  0.12814  0.31737  Biso   1.000  N
  C230     1.0000 0.79612  0.01862  0.15353  Biso   1.000  C
  C231     1.0000 0.64940  0.02768  0.23998  Biso   1.000  C
  C232     1.0000 0.63107  0.08272  0.30654  Biso   1.000  C
  C233     1.0000 0.73940  0.19472  0.36219  Biso   1.000  C
  N159     1.0000 0.86781  0.95768  0.18089  Biso   1.000  N
  H233     1.0000 0.73204  0.00579  0.10462  Biso   1.000  H
  H234     1.0000 0.83849  0.05360  0.13232  Biso   1.000  H
  N160     1.0000 0.65524  0.96265  0.28968  Biso   1.000  N
  H235     1.0000 0.58701  0.02732  0.18559  Biso   1.000  H
  H236     1.0000 0.56015  0.10781  0.28268  Biso   1.000  H
  N161     1.0000 0.62954  0.04242  0.38433  Biso   1.000  N
  H237     1.0000 0.78875  0.22421  0.33991  Biso   1.000  H
  H238     1.0000 0.66597  0.21671  0.34831  Biso   1.000  H
  N162     1.0000 0.78435  0.18898  0.45842  Biso   1.000  N
  C234     1.0000 0.98190  0.96011  0.20211  Biso   1.000  C
  C235     1.0000 0.82666  0.88722  0.18261  Biso   1.000  C
  C236     1.0000 0.65983  0.89529  0.25082  Biso   1.000  C
  C237     1.0000 0.63464  0.97237  0.36959  Biso   1.000  C
  C238     1.0000 0.59446  0.06999  0.45861  Biso   1.000  C
  C239     1.0000 0.88891  0.21562  0.50349  Biso   1.000  C
  C240     1.0000 0.71337  0.17682  0.51783  Biso   1.000  C
  O70      1.0000 0.03960  0.01304  0.20118  Biso   1.000  O
  N163     1.0000 0.02593  0.89571  0.22683  Biso   1.000  N
  C241     1.0000 0.93735  0.84351  0.21222  Biso   1.000  C
  H239     1.0000 0.77867  0.87268  0.12458  Biso   1.000  H
  N164     1.0000 0.77382  0.87362  0.25274  Biso   1.000  N
  H240     1.0000 0.62791  0.86141  0.28228  Biso   1.000  H
  H241     1.0000 0.61352  0.89612  0.19001  Biso   1.000  H
  O71      1.0000 0.62284  0.92669  0.42068  Biso   1.000  O
  H242     1.0000 0.56584  0.03238  0.48683  Biso   1.000  H
  H243     1.0000 0.53312  0.10238  0.43621  Biso   1.000  H
  N165     1.0000 0.68385  0.10466  0.52424  Biso   1.000  N
  N166     1.0000 0.89835  0.21459  0.59252  Biso   1.000  N
  O72      1.0000 0.96104  0.23544  0.46840  Biso   1.000  O
  C242     1.0000 0.79402  0.19302  0.61089  Biso   1.000  C
  H244     1.0000 0.64678  0.20673  0.50362  Biso   1.000  H
  C243     1.0000 0.14615  0.88112  0.24778  Biso   1.000  C
  H245     1.0000 0.94264  0.81061  0.16629  Biso   1.000  H
  N167     1.0000 0.92860  0.80812  0.29133  Biso   1.000  N
  C244     1.0000 0.83221  0.82618  0.31381  Biso   1.000  C
  C245     1.0000 0.73032  0.07750  0.60772  Biso   1.000  C
  C246     1.0000 0.99428  0.24382  0.65901  Biso   1.000  C
  H246     1.0000 0.76369  0.22980  0.64043  Biso   1.000  H
  N168     1.0000 0.80034  0.12778  0.65762  Biso   1.000  N
  H247     1.0000 0.18290  0.91878  0.22623  Biso   1.000  H
  H248     1.0000 0.15706  0.83942  0.21711  Biso   1.000  H
  N169     1.0000 0.19977  0.87222  0.34242  Biso   1.000  N
  C247     1.0000 0.00583  0.75618  0.34104  Biso   1.000  C
  O73      1.0000 0.80250  0.80279  0.37639  Biso   1.000  O
  O74      1.0000 0.71210  0.01981  0.63263  Biso   1.000  O
  H249     1.0000 0.03528  0.27429  0.63012  Biso   1.000  H
  N170     1.0000 0.07143  0.19188  0.70871  Biso   1.000  N
  H250     1.0000 0.96655  0.27150  0.69992  Biso   1.000  H
  C248     1.0000 0.85393  0.11888  0.75219  Biso   1.000  C
  C249     1.0000 0.20606  0.80698  0.38908  Biso   1.000  C
  C250     1.0000 0.26970  0.92250  0.39232  Biso   1.000  C
  H251     1.0000 0.96482  0.72571  0.36992  Biso   1.000  H
  H252     1.0000 0.03356  0.72850  0.30012  Biso   1.000  H
  N171     1.0000 0.10176  0.78541  0.40752  Biso   1.000  N
  C251     1.0000 0.16790  0.17382  0.68623  Biso   1.000  C
  C252     1.0000 0.06276  0.15649  0.78782  Biso   1.000  C
  H253     1.0000 0.81721  0.08122  0.77381  Biso   1.000  H
  H254     1.0000 0.84304  0.16058  0.78293  Biso   1.000  H
  N172     1.0000 0.97418  0.10429  0.77321  Biso   1.000  N
  H255     1.0000 0.23641  0.77020  0.35961  Biso   1.000  H
  C253     1.0000 0.28673  0.82318  0.48221  Biso   1.000  C
  N173     1.0000 0.31625  0.89534  0.47580  Biso   1.000  N
  O75      1.0000 0.28800  0.98019  0.36741  Biso   1.000  O
  C254     1.0000 0.11117  0.78438  0.49648  Biso   1.000  C
  N174     1.0000 0.22628  0.12638  0.74730  Biso   1.000  N
  O76      1.0000 0.19760  0.19721  0.62365  Biso   1.000  O
  C255     1.0000 0.17345  0.11278  0.81743  Biso   1.000  C
  H256     1.0000 0.05744  0.18939  0.83369  Biso   1.000  H
  C256     1.0000 0.01821  0.03989  0.79793  Biso   1.000  C
  H257     1.0000 0.35332  0.79327  0.49642  Biso   1.000  H
  N175     1.0000 0.21575  0.81102  0.54163  Biso   1.000  N
  C257     1.0000 0.40565  0.93001  0.54143  Biso   1.000  C
  O77      1.0000 0.03904  0.76456  0.53158  Biso   1.000  O
  C258     1.0000 0.34028  0.10471  0.74922  Biso   1.000  C
  N176     1.0000 0.13230  0.04232  0.81915  Biso   1.000  N
  H258     1.0000 0.22133  0.12732  0.87539  Biso   1.000  H
  O78      1.0000 0.96048  0.98696  0.79879  Biso   1.000  O
  C259     1.0000 0.26068  0.80528  0.63779  Biso   1.000  C
  H259     1.0000 0.43426  0.96762  0.51321  Biso   1.000  H
  H260     1.0000 0.46698  0.89762  0.56383  Biso   1.000  H
  N177     1.0000 0.37057  0.95758  0.61571  Biso   1.000  N
  N178     1.0000 0.34484  0.03735  0.71029  Biso   1.000  N
  H261     1.0000 0.37217  0.13859  0.71769  Biso   1.000  H
  H262     1.0000 0.38659  0.10388  0.81003  Biso   1.000  H
  C260     1.0000 0.20398  0.98138  0.84651  Biso   1.000  C
  H263     1.0000 0.21135  0.77579  0.66013  Biso   1.000  H
  H264     1.0000 0.33413  0.78329  0.65173  Biso   1.000  H
  N179     1.0000 0.27150  0.87186  0.68260  Biso   1.000  N
  C261     1.0000 0.36545  0.02763  0.63039  Biso   1.000  C
  C262     1.0000 0.36904  0.91728  0.69351  Biso   1.000  C
  C263     1.0000 0.35068  0.97232  0.75999  Biso   1.000  C
  N180     1.0000 0.24487  0.95168  0.77672  Biso   1.000  N
  H265     1.0000 0.26806  0.99421  0.89542  Biso   1.000  H
  H266     1.0000 0.16162  0.94640  0.86772  Biso   1.000  H
  C264     1.0000 0.20769  0.88908  0.73832  Biso   1.000  C
  O79      1.0000 0.37724  0.07331  0.57930  Biso   1.000  O
  H267     1.0000 0.43993  0.89219  0.71730  Biso   1.000  H
  H268     1.0000 0.41307  0.97268  0.81439  Biso   1.000  H
  O80      1.0000 0.12810  0.85510  0.74889  Biso   1.000  O
  O81      1.0000 0.87198  0.14490  0.25108  Biso   1.000  O
  C265     1.0000 0.79241  0.11092  0.26172  Biso   1.000  C
  N181     1.0000 0.75523  0.04832  0.22333  Biso   1.000  N
  N182     1.0000 0.72858  0.12814  0.31737  Biso   1.000  N
  C266     1.0000 0.79612  0.01862  0.15353  Biso   1.000  C
  C267     1.0000 0.64940  0.02768  0.23998  Biso   1.000  C
  C268     1.0000 0.63107  0.08272  0.30654  Biso   1.000  C
  C269     1.0000 0.73940  0.19472  0.36219  Biso   1.000  C
  N183     1.0000 0.86781  0.95768  0.18089  Biso   1.000  N
  H269     1.0000 0.73204  0.00579  0.10462  Biso   1.000  H
  H270     1.0000 0.83849  0.05360  0.13232  Biso   1.000  H
  N184     1.0000 0.65524  0.96265  0.28968  Biso   1.000  N
  H271     1.0000 0.58701  0.02732  0.18559  Biso   1.000  H
  H272     1.0000 0.56015  0.10781  0.28268  Biso   1.000  H
  N185     1.0000 0.62954  0.04242  0.38433  Biso   1.000  N
  H273     1.0000 0.78875  0.22421  0.33991  Biso   1.000  H
  H274     1.0000 0.66597  0.21671  0.34831  Biso   1.000  H
  N186     1.0000 0.78435  0.18898  0.45842  Biso   1.000  N
  C270     1.0000 0.98190  0.96011  0.20211  Biso   1.000  C
  C271     1.0000 0.82666  0.88722  0.18261  Biso   1.000  C
  C272     1.0000 0.65983  0.89529  0.25082  Biso   1.000  C
  C273     1.0000 0.63464  0.97237  0.36959  Biso   1.000  C
  C274     1.0000 0.59446  0.06999  0.45861  Biso   1.000  C
  C275     1.0000 0.88891  0.21562  0.50349  Biso   1.000  C
  C276     1.0000 0.71337  0.17682  0.51783  Biso   1.000  C
  O82      1.0000 0.03960  0.01304  0.20118  Biso   1.000  O
  N187     1.0000 0.02593  0.89571  0.22683  Biso   1.000  N
  C277     1.0000 0.93735  0.84351  0.21222  Biso   1.000  C
  H275     1.0000 0.77867  0.87268  0.12458  Biso   1.000  H
  N188     1.0000 0.77382  0.87362  0.25274  Biso   1.000  N
  H276     1.0000 0.62791  0.86141  0.28228  Biso   1.000  H
  H277     1.0000 0.61352  0.89612  0.19001  Biso   1.000  H
  O83      1.0000 0.62284  0.92669  0.42068  Biso   1.000  O
  H278     1.0000 0.56584  0.03238  0.48683  Biso   1.000  H
  H279     1.0000 0.53312  0.10238  0.43621  Biso   1.000  H
  N189     1.0000 0.68385  0.10466  0.52424  Biso   1.000  N
  N190     1.0000 0.89835  0.21459  0.59252  Biso   1.000  N
  O84      1.0000 0.96104  0.23544  0.46840  Biso   1.000  O
  C278     1.0000 0.79402  0.19302  0.61089  Biso   1.000  C
  H280     1.0000 0.64678  0.20673  0.50362  Biso   1.000  H
  C279     1.0000 0.14615  0.88112  0.24778  Biso   1.000  C
  H281     1.0000 0.94264  0.81061  0.16629  Biso   1.000  H
  N191     1.0000 0.92860  0.80812  0.29133  Biso   1.000  N
  C280     1.0000 0.83221  0.82618  0.31381  Biso   1.000  C
  C281     1.0000 0.73032  0.07750  0.60772  Biso   1.000  C
  C282     1.0000 0.99428  0.24382  0.65901  Biso   1.000  C
  H282     1.0000 0.76369  0.22980  0.64043  Biso   1.000  H
  N192     1.0000 0.80034  0.12778  0.65762  Biso   1.000  N
  H283     1.0000 0.18290  0.91878  0.22623  Biso   1.000  H
  H284     1.0000 0.15706  0.83942  0.21711  Biso   1.000  H
  N193     1.0000 0.19977  0.87222  0.34242  Biso   1.000  N
  C283     1.0000 0.00583  0.75618  0.34104  Biso   1.000  C
  O85      1.0000 0.80250  0.80279  0.37639  Biso   1.000  O
  O86      1.0000 0.71210  0.01981  0.63263  Biso   1.000  O
  H285     1.0000 0.03528  0.27429  0.63012  Biso   1.000  H
  N194     1.0000 0.07143  0.19188  0.70871  Biso   1.000  N
  H286     1.0000 0.96655  0.27150  0.69992  Biso   1.000  H
  C284     1.0000 0.85393  0.11888  0.75219  Biso   1.000  C
  C285     1.0000 0.20606  0.80698  0.38908  Biso   1.000  C
  C286     1.0000 0.26970  0.92250  0.39232  Biso   1.000  C
  H287     1.0000 0.96482  0.72571  0.36992  Biso   1.000  H
  H288     1.0000 0.03356  0.72850  0.30012  Biso   1.000  H
  N195     1.0000 0.10176  0.78541  0.40752  Biso   1.000  N
  C287     1.0000 0.16790  0.17382  0.68623  Biso   1.000  C
  C288     1.0000 0.06276  0.15649  0.78782  Biso   1.000  C
  H289     1.0000 0.81721  0.08122  0.77381  Biso   1.000  H
  H290     1.0000 0.84304  0.16058  0.78293  Biso   1.000  H
  N196     1.0000 0.97418  0.10429  0.77321  Biso   1.000  N
  H291     1.0000 0.23641  0.77020  0.35961  Biso   1.000  H
  C289     1.0000 0.28673  0.82318  0.48221  Biso   1.000  C
  N197     1.0000 0.31625  0.89534  0.47580  Biso   1.000  N
  O87      1.0000 0.28800  0.98019  0.36741  Biso   1.000  O
  C290     1.0000 0.11117  0.78438  0.49648  Biso   1.000  C
  N198     1.0000 0.22628  0.12638  0.74730  Biso   1.000  N
  O88      1.0000 0.19760  0.19721  0.62365  Biso   1.000  O
  C291     1.0000 0.17345  0.11278  0.81743  Biso   1.000  C
  H292     1.0000 0.05744  0.18939  0.83369  Biso   1.000  H
  C292     1.0000 0.01821  0.03989  0.79793  Biso   1.000  C
  H293     1.0000 0.35332  0.79327  0.49642  Biso   1.000  H
  N199     1.0000 0.21575  0.81102  0.54163  Biso   1.000  N
  C293     1.0000 0.40565  0.93001  0.54143  Biso   1.000  C
  O89      1.0000 0.03904  0.76456  0.53158  Biso   1.000  O
  C294     1.0000 0.34028  0.10471  0.74922  Biso   1.000  C
  N200     1.0000 0.13230  0.04232  0.81915  Biso   1.000  N
  H294     1.0000 0.22133  0.12732  0.87539  Biso   1.000  H
  O90      1.0000 0.96048  0.98696  0.79879  Biso   1.000  O
  C295     1.0000 0.26068  0.80528  0.63779  Biso   1.000  C
  H295     1.0000 0.43426  0.96762  0.51321  Biso   1.000  H
  H296     1.0000 0.46698  0.89762  0.56383  Biso   1.000  H
  N201     1.0000 0.37057  0.95758  0.61571  Biso   1.000  N
  N202     1.0000 0.34484  0.03735  0.71029  Biso   1.000  N
  H297     1.0000 0.37217  0.13859  0.71769  Biso   1.000  H
  H298     1.0000 0.38659  0.10388  0.81003  Biso   1.000  H
  C296     1.0000 0.20398  0.98138  0.84651  Biso   1.000  C
  H299     1.0000 0.21135  0.77579  0.66013  Biso   1.000  H
  H300     1.0000 0.33413  0.78329  0.65173  Biso   1.000  H
  N203     1.0000 0.27150  0.87186  0.68260  Biso   1.000  N
  C297     1.0000 0.36545  0.02763  0.63039  Biso   1.000  C
  C298     1.0000 0.36904  0.91728  0.69351  Biso   1.000  C
  C299     1.0000 0.35068  0.97232  0.75999  Biso   1.000  C
  N204     1.0000 0.24487  0.95168  0.77672  Biso   1.000  N
  H301     1.0000 0.26806  0.99421  0.89542  Biso   1.000  H
  H302     1.0000 0.16162  0.94640  0.86772  Biso   1.000  H
  C300     1.0000 0.20769  0.88908  0.73832  Biso   1.000  C
  O91      1.0000 0.37724  0.07331  0.57930  Biso   1.000  O
  H303     1.0000 0.43993  0.89219  0.71730  Biso   1.000  H
  H304     1.0000 0.41307  0.97268  0.81439  Biso   1.000  H
  O92      1.0000 0.12810  0.85510  0.74889  Biso   1.000  O
  O93      1.0000 0.87198  0.14490  0.25108  Biso   1.000  O
  C301     1.0000 0.79241  0.11092  0.26172  Biso   1.000  C
  N205     1.0000 0.75523  0.04832  0.22333  Biso   1.000  N
  N206     1.0000 0.72858  0.12814  0.31737  Biso   1.000  N
  C302     1.0000 0.79612  0.01862  0.15353  Biso   1.000  C
  C303     1.0000 0.64940  0.02768  0.23998  Biso   1.000  C
  C304     1.0000 0.63107  0.08272  0.30654  Biso   1.000  C
  C305     1.0000 0.73940  0.19472  0.36219  Biso   1.000  C
  N207     1.0000 0.86781  0.95768  0.18089  Biso   1.000  N
  H305     1.0000 0.73204  0.00579  0.10462  Biso   1.000  H
  H306     1.0000 0.83849  0.05360  0.13232  Biso   1.000  H
  N208     1.0000 0.65524  0.96265  0.28968  Biso   1.000  N
  H307     1.0000 0.58701  0.02732  0.18559  Biso   1.000  H
  H308     1.0000 0.56015  0.10781  0.28268  Biso   1.000  H
  N209     1.0000 0.62954  0.04242  0.38433  Biso   1.000  N
  H309     1.0000 0.78875  0.22421  0.33991  Biso   1.000  H
  H310     1.0000 0.66597  0.21671  0.34831  Biso   1.000  H
  N210     1.0000 0.78435  0.18898  0.45842  Biso   1.000  N
  C306     1.0000 0.98190  0.96011  0.20211  Biso   1.000  C
  C307     1.0000 0.82666  0.88722  0.18261  Biso   1.000  C
  C308     1.0000 0.65983  0.89529  0.25082  Biso   1.000  C
  C309     1.0000 0.63464  0.97237  0.36959  Biso   1.000  C
  C310     1.0000 0.59446  0.06999  0.45861  Biso   1.000  C
  C311     1.0000 0.88891  0.21562  0.50349  Biso   1.000  C
  C312     1.0000 0.71337  0.17682  0.51783  Biso   1.000  C
  O94      1.0000 0.03960  0.01304  0.20118  Biso   1.000  O
  N211     1.0000 0.02593  0.89571  0.22683  Biso   1.000  N
  C313     1.0000 0.93735  0.84351  0.21222  Biso   1.000  C
  H311     1.0000 0.77867  0.87268  0.12458  Biso   1.000  H
  N212     1.0000 0.77382  0.87362  0.25274  Biso   1.000  N
  H312     1.0000 0.62791  0.86141  0.28228  Biso   1.000  H
  H313     1.0000 0.61352  0.89612  0.19001  Biso   1.000  H
  O95      1.0000 0.62284  0.92669  0.42068  Biso   1.000  O
  H314     1.0000 0.56584  0.03238  0.48683  Biso   1.000  H
  H315     1.0000 0.53312  0.10238  0.43621  Biso   1.000  H
  N213     1.0000 0.68385  0.10466  0.52424  Biso   1.000  N
  N214     1.0000 0.89835  0.21459  0.59252  Biso   1.000  N
  O96      1.0000 0.96104  0.23544  0.46840  Biso   1.000  O
  C314     1.0000 0.79402  0.19302  0.61089  Biso   1.000  C
  H316     1.0000 0.64678  0.20673  0.50362  Biso   1.000  H
  C315     1.0000 0.14615  0.88112  0.24778  Biso   1.000  C
  H317     1.0000 0.94264  0.81061  0.16629  Biso   1.000  H
  N215     1.0000 0.92860  0.80812  0.29133  Biso   1.000  N
  C316     1.0000 0.83221  0.82618  0.31381  Biso   1.000  C
  C317     1.0000 0.73032  0.07750  0.60772  Biso   1.000  C
  C318     1.0000 0.99428  0.24382  0.65901  Biso   1.000  C
  H318     1.0000 0.76369  0.22980  0.64043  Biso   1.000  H
  N216     1.0000 0.80034  0.12778  0.65762  Biso   1.000  N
  H319     1.0000 0.18290  0.91878  0.22623  Biso   1.000  H
  H320     1.0000 0.15706  0.83942  0.21711  Biso   1.000  H
  N217     1.0000 0.19977  0.87222  0.34242  Biso   1.000  N
  C319     1.0000 0.00583  0.75618  0.34104  Biso   1.000  C
  O97      1.0000 0.80250  0.80279  0.37639  Biso   1.000  O
  O98      1.0000 0.71210  0.01981  0.63263  Biso   1.000  O
  H321     1.0000 0.03528  0.27429  0.63012  Biso   1.000  H
  N218     1.0000 0.07143  0.19188  0.70871  Biso   1.000  N
  H322     1.0000 0.96655  0.27150  0.69992  Biso   1.000  H
  C320     1.0000 0.85393  0.11888  0.75219  Biso   1.000  C
  C321     1.0000 0.20606  0.80698  0.38908  Biso   1.000  C
  C322     1.0000 0.26970  0.92250  0.39232  Biso   1.000  C
  H323     1.0000 0.96482  0.72571  0.36992  Biso   1.000  H
  H324     1.0000 0.03356  0.72850  0.30012  Biso   1.000  H
  N219     1.0000 0.10176  0.78541  0.40752  Biso   1.000  N
  C323     1.0000 0.16790  0.17382  0.68623  Biso   1.000  C
  C324     1.0000 0.06276  0.15649  0.78782  Biso   1.000  C
  H325     1.0000 0.81721  0.08122  0.77381  Biso   1.000  H
  H326     1.0000 0.84304  0.16058  0.78293  Biso   1.000  H
  N220     1.0000 0.97418  0.10429  0.77321  Biso   1.000  N
  H327     1.0000 0.23641  0.77020  0.35961  Biso   1.000  H
  C325     1.0000 0.28673  0.82318  0.48221  Biso   1.000  C
  N221     1.0000 0.31625  0.89534  0.47580  Biso   1.000  N
  O99      1.0000 0.28800  0.98019  0.36741  Biso   1.000  O
  C326     1.0000 0.11117  0.78438  0.49648  Biso   1.000  C
  N222     1.0000 0.22628  0.12638  0.74730  Biso   1.000  N
  O100     1.0000 0.19760  0.19721  0.62365  Biso   1.000  O
  C327     1.0000 0.17345  0.11278  0.81743  Biso   1.000  C
  H328     1.0000 0.05744  0.18939  0.83369  Biso   1.000  H
  C328     1.0000 0.01821  0.03989  0.79793  Biso   1.000  C
  H329     1.0000 0.35332  0.79327  0.49642  Biso   1.000  H
  N223     1.0000 0.21575  0.81102  0.54163  Biso   1.000  N
  C329     1.0000 0.40565  0.93001  0.54143  Biso   1.000  C
  O101     1.0000 0.03904  0.76456  0.53158  Biso   1.000  O
  C330     1.0000 0.34028  0.10471  0.74922  Biso   1.000  C
  N224     1.0000 0.13230  0.04232  0.81915  Biso   1.000  N
  H330     1.0000 0.22133  0.12732  0.87539  Biso   1.000  H
  O102     1.0000 0.96048  0.98696  0.79879  Biso   1.000  O
  C331     1.0000 0.26068  0.80528  0.63779  Biso   1.000  C
  H331     1.0000 0.43426  0.96762  0.51321  Biso   1.000  H
  H332     1.0000 0.46698  0.89762  0.56383  Biso   1.000  H
  N225     1.0000 0.37057  0.95758  0.61571  Biso   1.000  N
  N226     1.0000 0.34484  0.03735  0.71029  Biso   1.000  N
  H333     1.0000 0.37217  0.13859  0.71769  Biso   1.000  H
  H334     1.0000 0.38659  0.10388  0.81003  Biso   1.000  H
  C332     1.0000 0.20398  0.98138  0.84651  Biso   1.000  C
  H335     1.0000 0.21135  0.77579  0.66013  Biso   1.000  H
  H336     1.0000 0.33413  0.78329  0.65173  Biso   1.000  H
  N227     1.0000 0.27150  0.87186  0.68260  Biso   1.000  N
  C333     1.0000 0.36545  0.02763  0.63039  Biso   1.000  C
  C334     1.0000 0.36904  0.91728  0.69351  Biso   1.000  C
  C335     1.0000 0.35068  0.97232  0.75999  Biso   1.000  C
  N228     1.0000 0.24487  0.95168  0.77672  Biso   1.000  N
  H337     1.0000 0.26806  0.99421  0.89542  Biso   1.000  H
  H338     1.0000 0.16162  0.94640  0.86772  Biso   1.000  H
  C336     1.0000 0.20769  0.88908  0.73832  Biso   1.000  C
  O103     1.0000 0.37724  0.07331  0.57930  Biso   1.000  O
  H339     1.0000 0.43993  0.89219  0.71730  Biso   1.000  H
  H340     1.0000 0.41307  0.97268  0.81439  Biso   1.000  H
  O104     1.0000 0.12810  0.85510  0.74889  Biso   1.000  O
