data_image0
_cell_length_a       15.269
_cell_length_b       15.269
_cell_length_c       21.613
_cell_angle_alpha    90
_cell_angle_beta     90
_cell_angle_gamma    90

_symmetry_space_group_name_H-M    "P 1"
_symmetry_int_tables_number       1

loop_
  _symmetry_equiv_pos_as_xyz
  'x, y, z'

loop_
  _atom_site_label
  _atom_site_occupancy
  _atom_site_fract_x
  _atom_site_fract_y
  _atom_site_fract_z
  _atom_site_thermal_displace_type
  _atom_site_B_iso_or_equiv
  _atom_site_type_symbol
  C1       1.0000 0.11769  0.59447  0.56059  Biso   1.000  C
  C2       1.0000 0.08802  0.63960  0.50891  Biso   1.000  C
  N1       1.0000 0.20820  0.59172  0.57479  Biso   1.000  N
  C3       1.0000 0.05790  0.55040  0.59751  Biso   1.000  C
  H1       1.0000 0.12863  0.67057  0.48369  Biso   1.000  H
  C4       1.0000 0.99987  0.63979  0.49368  Biso   1.000  C
  S1       1.0000 0.26164  0.67961  0.59275  Biso   1.000  S
  H2       1.0000 0.23590  0.54110  0.57391  Biso   1.000  H
  H3       1.0000 0.07728  0.52079  0.63360  Biso   1.000  H
  C5       1.0000 0.97033  0.54928  0.58178  Biso   1.000  C
  C6       1.0000 0.93929  0.59290  0.53061  Biso   1.000  C
  H4       1.0000 0.98022  0.67143  0.45852  Biso   1.000  H
  O1       1.0000 0.34377  0.65021  0.61662  Biso   1.000  O
  O2       1.0000 0.26112  0.73692  0.54009  Biso   1.000  O
  C7       1.0000 0.20329  0.72998  0.65151  Biso   1.000  C
  S2       1.0000 0.89790  0.49303  0.62976  Biso   1.000  S
  H5       1.0000 0.87890  0.59159  0.52020  Biso   1.000  H
  C8       1.0000 0.17617  0.68249  0.70310  Biso   1.000  C
  C9       1.0000 0.18259  0.81760  0.64660  Biso   1.000  C
  O3       1.0000 0.81400  0.49080  0.59932  Biso   1.000  O
  O4       1.0000 0.93693  0.41358  0.65100  Biso   1.000  O
  N2       1.0000 0.88899  0.55158  0.69208  Biso   1.000  N
  H6       1.0000 0.19032  0.62211  0.70638  Biso   1.000  H
  C10      1.0000 0.12882  0.72277  0.74932  Biso   1.000  C
  C11      1.0000 0.13472  0.85749  0.69319  Biso   1.000  C
  H7       1.0000 0.20093  0.85042  0.61148  Biso   1.000  H
  C12      1.0000 0.86528  0.64248  0.69319  Biso   1.000  C
  H8       1.0000 0.89940  0.52577  0.72771  Biso   1.000  H
  H9       1.0000 0.11068  0.69068  0.78471  Biso   1.000  H
  C13      1.0000 0.10800  0.81073  0.74349  Biso   1.000  C
  N3       1.0000 0.11101  0.94839  0.69208  Biso   1.000  N
  C14      1.0000 0.89200  0.68931  0.74349  Biso   1.000  C
  C15      1.0000 0.81741  0.68243  0.64660  Biso   1.000  C
  H10      1.0000 0.07479  0.83869  0.77500  Biso   1.000  H
  H11      1.0000 0.10060  0.97420  0.72771  Biso   1.000  H
  S3       1.0000 0.10210  0.00701  0.62976  Biso   1.000  S
  C16      1.0000 0.87118  0.77720  0.74932  Biso   1.000  C
  H12      1.0000 0.92521  0.66127  0.77500  Biso   1.000  H
  C17      1.0000 0.79671  0.76999  0.65151  Biso   1.000  C
  H13      1.0000 0.79907  0.64962  0.61148  Biso   1.000  H
  C18      1.0000 0.02967  0.95068  0.58178  Biso   1.000  C
  O5       1.0000 0.18600  0.00917  0.59932  Biso   1.000  O
  O6       1.0000 0.06307  0.08638  0.65100  Biso   1.000  O
  C19      1.0000 0.82383  0.81747  0.70310  Biso   1.000  C
  H14      1.0000 0.88932  0.80929  0.78471  Biso   1.000  H
  S4       1.0000 0.73836  0.82042  0.59275  Biso   1.000  S
  C20      1.0000 0.06071  0.90713  0.53061  Biso   1.000  C
  C21      1.0000 0.94210  0.94957  0.59751  Biso   1.000  C
  H15      1.0000 0.80968  0.87792  0.70638  Biso   1.000  H
  O7       1.0000 0.65623  0.84983  0.61662  Biso   1.000  O
  O8       1.0000 0.73888  0.76311  0.54009  Biso   1.000  O
  N4       1.0000 0.79180  0.90831  0.57479  Biso   1.000  N
  H16      1.0000 0.12110  0.90838  0.52020  Biso   1.000  H
  C22      1.0000 0.00013  0.86017  0.49368  Biso   1.000  C
  C23      1.0000 0.88231  0.90549  0.56059  Biso   1.000  C
  H17      1.0000 0.92272  0.97917  0.63360  Biso   1.000  H
  H18      1.0000 0.76410  0.95887  0.57391  Biso   1.000  H
  H19      1.0000 0.01978  0.82861  0.45852  Biso   1.000  H
  C24      1.0000 0.91198  0.86037  0.50891  Biso   1.000  C
  H20      1.0000 0.87137  0.82939  0.48369  Biso   1.000  H
  C25      1.0000 0.11769  0.59447  0.56059  Biso   1.000  C
  C26      1.0000 0.08802  0.63960  0.50891  Biso   1.000  C
  N5       1.0000 0.20820  0.59172  0.57479  Biso   1.000  N
  C27      1.0000 0.05790  0.55040  0.59751  Biso   1.000  C
  H21      1.0000 0.12863  0.67057  0.48369  Biso   1.000  H
  C28      1.0000 0.99987  0.63979  0.49368  Biso   1.000  C
  S5       1.0000 0.26164  0.67961  0.59275  Biso   1.000  S
  H22      1.0000 0.23590  0.54110  0.57391  Biso   1.000  H
  H23      1.0000 0.07728  0.52079  0.63360  Biso   1.000  H
  C29      1.0000 0.97033  0.54928  0.58178  Biso   1.000  C
  C30      1.0000 0.93929  0.59290  0.53061  Biso   1.000  C
  H24      1.0000 0.98022  0.67143  0.45852  Biso   1.000  H
  O9       1.0000 0.34377  0.65021  0.61662  Biso   1.000  O
  O10      1.0000 0.26112  0.73692  0.54009  Biso   1.000  O
  C31      1.0000 0.20329  0.72998  0.65151  Biso   1.000  C
  S6       1.0000 0.89790  0.49303  0.62976  Biso   1.000  S
  H25      1.0000 0.87890  0.59159  0.52020  Biso   1.000  H
  C32      1.0000 0.17617  0.68249  0.70310  Biso   1.000  C
  C33      1.0000 0.18259  0.81760  0.64660  Biso   1.000  C
  O11      1.0000 0.81400  0.49080  0.59932  Biso   1.000  O
  O12      1.0000 0.93693  0.41358  0.65100  Biso   1.000  O
  N6       1.0000 0.88899  0.55158  0.69208  Biso   1.000  N
  H26      1.0000 0.19032  0.62211  0.70638  Biso   1.000  H
  C34      1.0000 0.12882  0.72277  0.74932  Biso   1.000  C
  C35      1.0000 0.13472  0.85749  0.69319  Biso   1.000  C
  H27      1.0000 0.20093  0.85042  0.61148  Biso   1.000  H
  C36      1.0000 0.86528  0.64248  0.69319  Biso   1.000  C
  H28      1.0000 0.89940  0.52577  0.72771  Biso   1.000  H
  H29      1.0000 0.11068  0.69068  0.78471  Biso   1.000  H
  C37      1.0000 0.10800  0.81073  0.74349  Biso   1.000  C
  N7       1.0000 0.11101  0.94839  0.69208  Biso   1.000  N
  C38      1.0000 0.89200  0.68931  0.74349  Biso   1.000  C
  C39      1.0000 0.81741  0.68243  0.64660  Biso   1.000  C
  H30      1.0000 0.07479  0.83869  0.77500  Biso   1.000  H
  H31      1.0000 0.10060  0.97420  0.72771  Biso   1.000  H
  S7       1.0000 0.10210  0.00701  0.62976  Biso   1.000  S
  C40      1.0000 0.87118  0.77720  0.74932  Biso   1.000  C
  H32      1.0000 0.92521  0.66127  0.77500  Biso   1.000  H
  C41      1.0000 0.79671  0.76999  0.65151  Biso   1.000  C
  H33      1.0000 0.79907  0.64962  0.61148  Biso   1.000  H
  C42      1.0000 0.02967  0.95068  0.58178  Biso   1.000  C
  O13      1.0000 0.18600  0.00917  0.59932  Biso   1.000  O
  O14      1.0000 0.06307  0.08638  0.65100  Biso   1.000  O
  C43      1.0000 0.82383  0.81747  0.70310  Biso   1.000  C
  H34      1.0000 0.88932  0.80929  0.78471  Biso   1.000  H
  S8       1.0000 0.73836  0.82042  0.59275  Biso   1.000  S
  C44      1.0000 0.06071  0.90713  0.53061  Biso   1.000  C
  C45      1.0000 0.94210  0.94957  0.59751  Biso   1.000  C
  H35      1.0000 0.80968  0.87792  0.70638  Biso   1.000  H
  O15      1.0000 0.65623  0.84983  0.61662  Biso   1.000  O
  O16      1.0000 0.73888  0.76311  0.54009  Biso   1.000  O
  N8       1.0000 0.79180  0.90831  0.57479  Biso   1.000  N
  H36      1.0000 0.12110  0.90838  0.52020  Biso   1.000  H
  C46      1.0000 0.00013  0.86017  0.49368  Biso   1.000  C
  C47      1.0000 0.88231  0.90549  0.56059  Biso   1.000  C
  H37      1.0000 0.92272  0.97917  0.63360  Biso   1.000  H
  H38      1.0000 0.76410  0.95887  0.57391  Biso   1.000  H
  H39      1.0000 0.01978  0.82861  0.45852  Biso   1.000  H
  C48      1.0000 0.91198  0.86037  0.50891  Biso   1.000  C
  H40      1.0000 0.87137  0.82939  0.48369  Biso   1.000  H
  O17      1.0000 0.18600  0.50920  0.40068  Biso   1.000  O
  S9       1.0000 0.10210  0.50697  0.37024  Biso   1.000  S
  N9       1.0000 0.11101  0.44842  0.30792  Biso   1.000  N
  O18      1.0000 0.06307  0.58642  0.34900  Biso   1.000  O
  C49      1.0000 0.02967  0.45072  0.41822  Biso   1.000  C
  C50      1.0000 0.13472  0.35752  0.30681  Biso   1.000  C
  H41      1.0000 0.10060  0.47423  0.27229  Biso   1.000  H
  C51      1.0000 0.06071  0.40710  0.46939  Biso   1.000  C
  C52      1.0000 0.94210  0.44960  0.40249  Biso   1.000  C
  C53      1.0000 0.18259  0.31757  0.35340  Biso   1.000  C
  C54      1.0000 0.10800  0.31069  0.25651  Biso   1.000  C
  H42      1.0000 0.12110  0.40841  0.47980  Biso   1.000  H
  C55      1.0000 0.00013  0.36021  0.50632  Biso   1.000  C
  C56      1.0000 0.88231  0.40553  0.43941  Biso   1.000  C
  H43      1.0000 0.92272  0.47921  0.36640  Biso   1.000  H
  C57      1.0000 0.20329  0.23001  0.34849  Biso   1.000  C
  H44      1.0000 0.20093  0.35038  0.38852  Biso   1.000  H
  C58      1.0000 0.12882  0.22280  0.25068  Biso   1.000  C
  H45      1.0000 0.07479  0.33873  0.22500  Biso   1.000  H
  H46      1.0000 0.01978  0.32857  0.54148  Biso   1.000  H
  C59      1.0000 0.91198  0.36040  0.49109  Biso   1.000  C
  N10      1.0000 0.79180  0.40828  0.42521  Biso   1.000  N
  C60      1.0000 0.17617  0.18253  0.29690  Biso   1.000  C
  S10      1.0000 0.26164  0.17958  0.40725  Biso   1.000  S
  H47      1.0000 0.11068  0.19071  0.21529  Biso   1.000  H
  H48      1.0000 0.87137  0.32943  0.51631  Biso   1.000  H
  S11      1.0000 0.73836  0.32039  0.40725  Biso   1.000  S
  H49      1.0000 0.76410  0.45890  0.42609  Biso   1.000  H
  H50      1.0000 0.19032  0.12208  0.29362  Biso   1.000  H
  O19      1.0000 0.34377  0.15017  0.38338  Biso   1.000  O
  O20      1.0000 0.26112  0.23689  0.45991  Biso   1.000  O
  N11      1.0000 0.20820  0.09169  0.42521  Biso   1.000  N
  C61      1.0000 0.79671  0.27002  0.34849  Biso   1.000  C
  O21      1.0000 0.65623  0.34979  0.38338  Biso   1.000  O
  O22      1.0000 0.73888  0.26308  0.45991  Biso   1.000  O
  H51      1.0000 0.23590  0.04113  0.42609  Biso   1.000  H
  C62      1.0000 0.11769  0.09451  0.43941  Biso   1.000  C
  C63      1.0000 0.81741  0.18240  0.35340  Biso   1.000  C
  C64      1.0000 0.82383  0.31751  0.29690  Biso   1.000  C
  C65      1.0000 0.08802  0.13963  0.49109  Biso   1.000  C
  C66      1.0000 0.05790  0.05043  0.40249  Biso   1.000  C
  C67      1.0000 0.86528  0.14251  0.30681  Biso   1.000  C
  H52      1.0000 0.79907  0.14958  0.38852  Biso   1.000  H
  C68      1.0000 0.87118  0.27723  0.25068  Biso   1.000  C
  H53      1.0000 0.80968  0.37789  0.29362  Biso   1.000  H
  H54      1.0000 0.12863  0.17061  0.51631  Biso   1.000  H
  C69      1.0000 0.99987  0.13983  0.50632  Biso   1.000  C
  H55      1.0000 0.07728  0.02083  0.36640  Biso   1.000  H
  C70      1.0000 0.97033  0.04932  0.41822  Biso   1.000  C
  N12      1.0000 0.88899  0.05161  0.30792  Biso   1.000  N
  C71      1.0000 0.89200  0.18927  0.25651  Biso   1.000  C
  H56      1.0000 0.88932  0.30932  0.21529  Biso   1.000  H
  C72      1.0000 0.93929  0.09287  0.46939  Biso   1.000  C
  H57      1.0000 0.98022  0.17139  0.54148  Biso   1.000  H
  S12      1.0000 0.89790  0.99299  0.37024  Biso   1.000  S
  H58      1.0000 0.89940  0.02580  0.27229  Biso   1.000  H
  H59      1.0000 0.92521  0.16131  0.22500  Biso   1.000  H
  H60      1.0000 0.87890  0.09162  0.47980  Biso   1.000  H
  O23      1.0000 0.81400  0.99083  0.40068  Biso   1.000  O
  O24      1.0000 0.93693  0.91362  0.34900  Biso   1.000  O
  O25      1.0000 0.18600  0.50920  0.40068  Biso   1.000  O
  S13      1.0000 0.10210  0.50697  0.37024  Biso   1.000  S
  N13      1.0000 0.11101  0.44842  0.30792  Biso   1.000  N
  O26      1.0000 0.06307  0.58642  0.34900  Biso   1.000  O
  C73      1.0000 0.02967  0.45072  0.41822  Biso   1.000  C
  C74      1.0000 0.13472  0.35752  0.30681  Biso   1.000  C
  H61      1.0000 0.10060  0.47423  0.27229  Biso   1.000  H
  C75      1.0000 0.06071  0.40710  0.46939  Biso   1.000  C
  C76      1.0000 0.94210  0.44960  0.40249  Biso   1.000  C
  C77      1.0000 0.18259  0.31757  0.35340  Biso   1.000  C
  C78      1.0000 0.10800  0.31069  0.25651  Biso   1.000  C
  H62      1.0000 0.12110  0.40841  0.47980  Biso   1.000  H
  C79      1.0000 0.00013  0.36021  0.50632  Biso   1.000  C
  C80      1.0000 0.88231  0.40553  0.43941  Biso   1.000  C
  H63      1.0000 0.92272  0.47921  0.36640  Biso   1.000  H
  C81      1.0000 0.20329  0.23001  0.34849  Biso   1.000  C
  H64      1.0000 0.20093  0.35038  0.38852  Biso   1.000  H
  C82      1.0000 0.12882  0.22280  0.25068  Biso   1.000  C
  H65      1.0000 0.07479  0.33873  0.22500  Biso   1.000  H
  H66      1.0000 0.01978  0.32857  0.54148  Biso   1.000  H
  C83      1.0000 0.91198  0.36040  0.49109  Biso   1.000  C
  N14      1.0000 0.79180  0.40828  0.42521  Biso   1.000  N
  C84      1.0000 0.17617  0.18253  0.29690  Biso   1.000  C
  S14      1.0000 0.26164  0.17958  0.40725  Biso   1.000  S
  H67      1.0000 0.11068  0.19071  0.21529  Biso   1.000  H
  H68      1.0000 0.87137  0.32943  0.51631  Biso   1.000  H
  S15      1.0000 0.73836  0.32039  0.40725  Biso   1.000  S
  H69      1.0000 0.76410  0.45890  0.42609  Biso   1.000  H
  H70      1.0000 0.19032  0.12208  0.29362  Biso   1.000  H
  O27      1.0000 0.34377  0.15017  0.38338  Biso   1.000  O
  O28      1.0000 0.26112  0.23689  0.45991  Biso   1.000  O
  N15      1.0000 0.20820  0.09169  0.42521  Biso   1.000  N
  C85      1.0000 0.79671  0.27002  0.34849  Biso   1.000  C
  O29      1.0000 0.65623  0.34979  0.38338  Biso   1.000  O
  O30      1.0000 0.73888  0.26308  0.45991  Biso   1.000  O
  H71      1.0000 0.23590  0.04113  0.42609  Biso   1.000  H
  C86      1.0000 0.11769  0.09451  0.43941  Biso   1.000  C
  C87      1.0000 0.81741  0.18240  0.35340  Biso   1.000  C
  C88      1.0000 0.82383  0.31751  0.29690  Biso   1.000  C
  C89      1.0000 0.08802  0.13963  0.49109  Biso   1.000  C
  C90      1.0000 0.05790  0.05043  0.40249  Biso   1.000  C
  C91      1.0000 0.86528  0.14251  0.30681  Biso   1.000  C
  H72      1.0000 0.79907  0.14958  0.38852  Biso   1.000  H
  C92      1.0000 0.87118  0.27723  0.25068  Biso   1.000  C
  H73      1.0000 0.80968  0.37789  0.29362  Biso   1.000  H
  H74      1.0000 0.12863  0.17061  0.51631  Biso   1.000  H
  C93      1.0000 0.99987  0.13983  0.50632  Biso   1.000  C
  H75      1.0000 0.07728  0.02083  0.36640  Biso   1.000  H
  C94      1.0000 0.97033  0.04932  0.41822  Biso   1.000  C
  N16      1.0000 0.88899  0.05161  0.30792  Biso   1.000  N
  C95      1.0000 0.89200  0.18927  0.25651  Biso   1.000  C
  H76      1.0000 0.88932  0.30932  0.21529  Biso   1.000  H
  C96      1.0000 0.93929  0.09287  0.46939  Biso   1.000  C
  H77      1.0000 0.98022  0.17139  0.54148  Biso   1.000  H
  S16      1.0000 0.89790  0.99299  0.37024  Biso   1.000  S
  H78      1.0000 0.89940  0.02580  0.27229  Biso   1.000  H
  H79      1.0000 0.92521  0.16131  0.22500  Biso   1.000  H
  H80      1.0000 0.87890  0.09162  0.47980  Biso   1.000  H
  O31      1.0000 0.81400  0.99083  0.40068  Biso   1.000  O
  O32      1.0000 0.93693  0.91362  0.34900  Biso   1.000  O
  N17      1.0000 0.30159  0.36099  0.55790  Biso   1.000  N
  C97      1.0000 0.39249  0.38470  0.55679  Biso   1.000  C
  S17      1.0000 0.24304  0.35209  0.62023  Biso   1.000  S
  H81      1.0000 0.27579  0.35058  0.52228  Biso   1.000  H
  C98      1.0000 0.43932  0.35798  0.50650  Biso   1.000  C
  C99      1.0000 0.43238  0.43258  0.60339  Biso   1.000  C
  O33      1.0000 0.24081  0.43598  0.65072  Biso   1.000  O
  O34      1.0000 0.16360  0.31312  0.59899  Biso   1.000  O
  C100     1.0000 0.29930  0.27972  0.66821  Biso   1.000  C
  C101     1.0000 0.52721  0.37881  0.50072  Biso   1.000  C
  H82      1.0000 0.41129  0.32478  0.47499  Biso   1.000  H
  C102     1.0000 0.52001  0.45327  0.59848  Biso   1.000  C
  H83      1.0000 0.39957  0.45091  0.63850  Biso   1.000  H
  C103     1.0000 0.34292  0.31069  0.71938  Biso   1.000  C
  C104     1.0000 0.30041  0.19209  0.65248  Biso   1.000  C
  C105     1.0000 0.56749  0.42622  0.54689  Biso   1.000  C
  H84      1.0000 0.55930  0.36073  0.46532  Biso   1.000  H
  S18      1.0000 0.57037  0.51169  0.65724  Biso   1.000  S
  H85      1.0000 0.34161  0.37108  0.72979  Biso   1.000  H
  C106     1.0000 0.38981  0.25011  0.75630  Biso   1.000  C
  C107     1.0000 0.34449  0.13229  0.68940  Biso   1.000  C
  H86      1.0000 0.27081  0.17270  0.61639  Biso   1.000  H
  H87      1.0000 0.62787  0.44030  0.54361  Biso   1.000  H
  O35      1.0000 0.59978  0.59382  0.63342  Biso   1.000  O
  O36      1.0000 0.51313  0.51110  0.70990  Biso   1.000  O
  N18      1.0000 0.65833  0.45818  0.67520  Biso   1.000  N
  H88      1.0000 0.42138  0.26983  0.79151  Biso   1.000  H
  C108     1.0000 0.38961  0.16203  0.74108  Biso   1.000  C
  N19      1.0000 0.34167  0.04178  0.67520  Biso   1.000  N
  H89      1.0000 0.70889  0.48589  0.67612  Biso   1.000  H
  C109     1.0000 0.65551  0.36767  0.68940  Biso   1.000  C
  H90      1.0000 0.42059  0.12142  0.76630  Biso   1.000  H
  H91      1.0000 0.29111  0.01408  0.67612  Biso   1.000  H
  S19      1.0000 0.42963  0.98834  0.65724  Biso   1.000  S
  C110     1.0000 0.61039  0.33801  0.74108  Biso   1.000  C
  C111     1.0000 0.69959  0.30788  0.65248  Biso   1.000  C
  C112     1.0000 0.47999  0.04670  0.59848  Biso   1.000  C
  O37      1.0000 0.40022  0.90622  0.63342  Biso   1.000  O
  O38      1.0000 0.48687  0.98893  0.70990  Biso   1.000  O
  C113     1.0000 0.61019  0.24992  0.75630  Biso   1.000  C
  H92      1.0000 0.57941  0.37861  0.76630  Biso   1.000  H
  C114     1.0000 0.70070  0.22032  0.66821  Biso   1.000  C
  H93      1.0000 0.72919  0.32733  0.61639  Biso   1.000  H
  C115     1.0000 0.43251  0.07381  0.54689  Biso   1.000  C
  C116     1.0000 0.56762  0.06739  0.60339  Biso   1.000  C
  C117     1.0000 0.65708  0.18927  0.71938  Biso   1.000  C
  H94      1.0000 0.57862  0.23020  0.79151  Biso   1.000  H
  S20      1.0000 0.75696  0.14788  0.62023  Biso   1.000  S
  H95      1.0000 0.37213  0.05973  0.54361  Biso   1.000  H
  C118     1.0000 0.47279  0.12123  0.50072  Biso   1.000  C
  C119     1.0000 0.60751  0.11533  0.55679  Biso   1.000  C
  H96      1.0000 0.60043  0.04912  0.63850  Biso   1.000  H
  H97      1.0000 0.65839  0.12889  0.72979  Biso   1.000  H
  O39      1.0000 0.75919  0.06399  0.65072  Biso   1.000  O
  O40      1.0000 0.83640  0.18691  0.59899  Biso   1.000  O
  N20      1.0000 0.69841  0.13897  0.55790  Biso   1.000  N
  C120     1.0000 0.56068  0.14199  0.50650  Biso   1.000  C
  H98      1.0000 0.44070  0.13930  0.46532  Biso   1.000  H
  H99      1.0000 0.72421  0.14939  0.52228  Biso   1.000  H
  H100     1.0000 0.58871  0.17519  0.47499  Biso   1.000  H
  C121     1.0000 0.43251  0.57378  0.45311  Biso   1.000  C
  C122     1.0000 0.47999  0.54673  0.40152  Biso   1.000  C
  H101     1.0000 0.37213  0.55970  0.45639  Biso   1.000  H
  C123     1.0000 0.47279  0.62119  0.49928  Biso   1.000  C
  S21      1.0000 0.42963  0.48831  0.34276  Biso   1.000  S
  C124     1.0000 0.56762  0.56742  0.39661  Biso   1.000  C
  H102     1.0000 0.44070  0.63927  0.53468  Biso   1.000  H
  C125     1.0000 0.56068  0.64202  0.49350  Biso   1.000  C
  O41      1.0000 0.40022  0.40618  0.36658  Biso   1.000  O
  O42      1.0000 0.48687  0.48890  0.29010  Biso   1.000  O
  N21      1.0000 0.34167  0.54182  0.32480  Biso   1.000  N
  C126     1.0000 0.60751  0.61530  0.44321  Biso   1.000  C
  H103     1.0000 0.60043  0.54909  0.36150  Biso   1.000  H
  H104     1.0000 0.58871  0.67522  0.52501  Biso   1.000  H
  H105     1.0000 0.29111  0.51411  0.32388  Biso   1.000  H
  C127     1.0000 0.34449  0.63233  0.31060  Biso   1.000  C
  N22      1.0000 0.69841  0.63901  0.44210  Biso   1.000  N
  C128     1.0000 0.38961  0.66199  0.25892  Biso   1.000  C
  C129     1.0000 0.30041  0.69212  0.34752  Biso   1.000  C
  S22      1.0000 0.75696  0.64791  0.37977  Biso   1.000  S
  H106     1.0000 0.72421  0.64942  0.47772  Biso   1.000  H
  C130     1.0000 0.38981  0.75008  0.24370  Biso   1.000  C
  H107     1.0000 0.42059  0.62139  0.23370  Biso   1.000  H
  C131     1.0000 0.29930  0.77968  0.33179  Biso   1.000  C
  H108     1.0000 0.27081  0.67267  0.38361  Biso   1.000  H
  O43      1.0000 0.75919  0.56402  0.34928  Biso   1.000  O
  O44      1.0000 0.83640  0.68688  0.40101  Biso   1.000  O
  C132     1.0000 0.70070  0.72028  0.33179  Biso   1.000  C
  C133     1.0000 0.34292  0.81073  0.28062  Biso   1.000  C
  H109     1.0000 0.42138  0.76980  0.20849  Biso   1.000  H
  S23      1.0000 0.24304  0.85212  0.37977  Biso   1.000  S
  C134     1.0000 0.65708  0.68931  0.28062  Biso   1.000  C
  C135     1.0000 0.69959  0.80791  0.34752  Biso   1.000  C
  H110     1.0000 0.34161  0.87111  0.27021  Biso   1.000  H
  O45      1.0000 0.24081  0.93601  0.34928  Biso   1.000  O
  O46      1.0000 0.16360  0.81309  0.40101  Biso   1.000  O
  N23      1.0000 0.30159  0.86103  0.44210  Biso   1.000  N
  H111     1.0000 0.65839  0.62892  0.27021  Biso   1.000  H
  C136     1.0000 0.61019  0.74989  0.24370  Biso   1.000  C
  C137     1.0000 0.65551  0.86771  0.31060  Biso   1.000  C
  H112     1.0000 0.72919  0.82730  0.38361  Biso   1.000  H
  H113     1.0000 0.27579  0.85061  0.47772  Biso   1.000  H
  C138     1.0000 0.39249  0.88467  0.44321  Biso   1.000  C
  H114     1.0000 0.57862  0.73017  0.20849  Biso   1.000  H
  C139     1.0000 0.61039  0.83797  0.25892  Biso   1.000  C
  N24      1.0000 0.65833  0.95822  0.32480  Biso   1.000  N
  C140     1.0000 0.43932  0.85801  0.49350  Biso   1.000  C
  C141     1.0000 0.43238  0.93261  0.39661  Biso   1.000  C
  H115     1.0000 0.57941  0.87858  0.23370  Biso   1.000  H
  S24      1.0000 0.57037  0.01166  0.34276  Biso   1.000  S
  H116     1.0000 0.70889  0.98592  0.32388  Biso   1.000  H
  C142     1.0000 0.52721  0.87877  0.49928  Biso   1.000  C
  H117     1.0000 0.41129  0.82481  0.52501  Biso   1.000  H
  C143     1.0000 0.52001  0.95330  0.40152  Biso   1.000  C
  H118     1.0000 0.39957  0.95088  0.36150  Biso   1.000  H
  O47      1.0000 0.59978  0.09378  0.36658  Biso   1.000  O
  O48      1.0000 0.51313  0.01107  0.29010  Biso   1.000  O
  C144     1.0000 0.56749  0.92619  0.45311  Biso   1.000  C
  H119     1.0000 0.55930  0.86070  0.53468  Biso   1.000  H
  H120     1.0000 0.62787  0.94027  0.45639  Biso   1.000  H
  C145     1.0000 0.11042  0.33801  0.75890  Biso   1.000  C
  C146     1.0000 0.11022  0.24992  0.74372  Biso   1.000  C
  H121     1.0000 0.07938  0.37861  0.73368  Biso   1.000  H
  C147     1.0000 0.15548  0.36767  0.81058  Biso   1.000  C
  C148     1.0000 0.15712  0.18927  0.78060  Biso   1.000  C
  H122     1.0000 0.07859  0.23020  0.70851  Biso   1.000  H
  C149     1.0000 0.19962  0.30788  0.84750  Biso   1.000  C
  N25      1.0000 0.15829  0.45818  0.82478  Biso   1.000  N
  C150     1.0000 0.20067  0.22032  0.83181  Biso   1.000  C
  H123     1.0000 0.15843  0.12889  0.77018  Biso   1.000  H
  H124     1.0000 0.22922  0.32733  0.88359  Biso   1.000  H
  S25      1.0000 0.07040  0.51169  0.84278  Biso   1.000  S
  H125     1.0000 0.20892  0.48589  0.82390  Biso   1.000  H
  S26      1.0000 0.25699  0.14788  0.87975  Biso   1.000  S
  O49      1.0000 0.09981  0.59382  0.86661  Biso   1.000  O
  O50      1.0000 0.01310  0.51110  0.79008  Biso   1.000  O
  C151     1.0000 0.01998  0.45327  0.90149  Biso   1.000  C
  O51      1.0000 0.25922  0.06399  0.84930  Biso   1.000  O
  O52      1.0000 0.33637  0.18691  0.90099  Biso   1.000  O
  N26      1.0000 0.19838  0.13897  0.94212  Biso   1.000  N
  C152     1.0000 0.06752  0.42622  0.95308  Biso   1.000  C
  C153     1.0000 0.93241  0.43258  0.89659  Biso   1.000  C
  H126     1.0000 0.22418  0.14939  0.97770  Biso   1.000  H
  C154     1.0000 0.10747  0.11533  0.94318  Biso   1.000  C
  H127     1.0000 0.12791  0.44030  0.95642  Biso   1.000  H
  C155     1.0000 0.02718  0.37881  0.99931  Biso   1.000  C
  C156     1.0000 0.89253  0.38470  0.94318  Biso   1.000  C
  H128     1.0000 0.89960  0.45091  0.86152  Biso   1.000  H
  C157     1.0000 0.06071  0.14199  0.99352  Biso   1.000  C
  C158     1.0000 0.06759  0.06739  0.89659  Biso   1.000  C
  C159     1.0000 0.93929  0.35798  0.99352  Biso   1.000  C
  H129     1.0000 0.05927  0.36073  0.03470  Biso   1.000  H
  N27      1.0000 0.80162  0.36099  0.94212  Biso   1.000  N
  C160     1.0000 0.97282  0.12123  0.99931  Biso   1.000  C
  H130     1.0000 0.08868  0.17519  0.02498  Biso   1.000  H
  H131     1.0000 0.10040  0.04912  0.86152  Biso   1.000  H
  C161     1.0000 0.98002  0.04670  0.90149  Biso   1.000  C
  H132     1.0000 0.91132  0.32478  0.02498  Biso   1.000  H
  S27      1.0000 0.74301  0.35209  0.87975  Biso   1.000  S
  H133     1.0000 0.77582  0.35058  0.97770  Biso   1.000  H
  C162     1.0000 0.93248  0.07381  0.95308  Biso   1.000  C
  H134     1.0000 0.94073  0.13930  0.03470  Biso   1.000  H
  S28      1.0000 0.92960  0.98834  0.84278  Biso   1.000  S
  O53      1.0000 0.74078  0.43598  0.84930  Biso   1.000  O
  O54      1.0000 0.66363  0.31312  0.90099  Biso   1.000  O
  C163     1.0000 0.79933  0.27972  0.83181  Biso   1.000  C
  H135     1.0000 0.87209  0.05973  0.95642  Biso   1.000  H
  O55      1.0000 0.90019  0.90622  0.86661  Biso   1.000  O
  O56      1.0000 0.98690  0.98893  0.79008  Biso   1.000  O
  N28      1.0000 0.84171  0.04178  0.82478  Biso   1.000  N
  C164     1.0000 0.80038  0.19209  0.84750  Biso   1.000  C
  C165     1.0000 0.84288  0.31069  0.78060  Biso   1.000  C
  H136     1.0000 0.79108  0.01408  0.82390  Biso   1.000  H
  C166     1.0000 0.84452  0.13229  0.81058  Biso   1.000  C
  H137     1.0000 0.77078  0.17270  0.88359  Biso   1.000  H
  C167     1.0000 0.88978  0.25011  0.74372  Biso   1.000  C
  H138     1.0000 0.84157  0.37108  0.77018  Biso   1.000  H
  C168     1.0000 0.88958  0.16203  0.75890  Biso   1.000  C
  H139     1.0000 0.92141  0.26983  0.70851  Biso   1.000  H
  H140     1.0000 0.92062  0.12142  0.73368  Biso   1.000  H
  C169     1.0000 0.11042  0.33801  0.75890  Biso   1.000  C
  C170     1.0000 0.11022  0.24992  0.74372  Biso   1.000  C
  H141     1.0000 0.07938  0.37861  0.73368  Biso   1.000  H
  C171     1.0000 0.15548  0.36767  0.81058  Biso   1.000  C
  C172     1.0000 0.15712  0.18927  0.78060  Biso   1.000  C
  H142     1.0000 0.07859  0.23020  0.70851  Biso   1.000  H
  C173     1.0000 0.19962  0.30788  0.84750  Biso   1.000  C
  N29      1.0000 0.15829  0.45818  0.82478  Biso   1.000  N
  C174     1.0000 0.20067  0.22032  0.83181  Biso   1.000  C
  H143     1.0000 0.15843  0.12889  0.77018  Biso   1.000  H
  H144     1.0000 0.22922  0.32733  0.88359  Biso   1.000  H
  S29      1.0000 0.07040  0.51169  0.84278  Biso   1.000  S
  H145     1.0000 0.20892  0.48589  0.82390  Biso   1.000  H
  S30      1.0000 0.25699  0.14788  0.87975  Biso   1.000  S
  O57      1.0000 0.09981  0.59382  0.86661  Biso   1.000  O
  O58      1.0000 0.01310  0.51110  0.79008  Biso   1.000  O
  C175     1.0000 0.01998  0.45327  0.90149  Biso   1.000  C
  O59      1.0000 0.25922  0.06399  0.84930  Biso   1.000  O
  O60      1.0000 0.33637  0.18691  0.90099  Biso   1.000  O
  N30      1.0000 0.19838  0.13897  0.94212  Biso   1.000  N
  C176     1.0000 0.06752  0.42622  0.95308  Biso   1.000  C
  C177     1.0000 0.93241  0.43258  0.89659  Biso   1.000  C
  H146     1.0000 0.22418  0.14939  0.97770  Biso   1.000  H
  C178     1.0000 0.10747  0.11533  0.94318  Biso   1.000  C
  H147     1.0000 0.12791  0.44030  0.95642  Biso   1.000  H
  C179     1.0000 0.02718  0.37881  0.99931  Biso   1.000  C
  C180     1.0000 0.89253  0.38470  0.94318  Biso   1.000  C
  H148     1.0000 0.89960  0.45091  0.86152  Biso   1.000  H
  C181     1.0000 0.06071  0.14199  0.99352  Biso   1.000  C
  C182     1.0000 0.06759  0.06739  0.89659  Biso   1.000  C
  C183     1.0000 0.93929  0.35798  0.99352  Biso   1.000  C
  H149     1.0000 0.05927  0.36073  0.03470  Biso   1.000  H
  N31      1.0000 0.80162  0.36099  0.94212  Biso   1.000  N
  C184     1.0000 0.97282  0.12123  0.99931  Biso   1.000  C
  H150     1.0000 0.08868  0.17519  0.02498  Biso   1.000  H
  H151     1.0000 0.10040  0.04912  0.86152  Biso   1.000  H
  C185     1.0000 0.98002  0.04670  0.90149  Biso   1.000  C
  H152     1.0000 0.91132  0.32478  0.02498  Biso   1.000  H
  S31      1.0000 0.74301  0.35209  0.87975  Biso   1.000  S
  H153     1.0000 0.77582  0.35058  0.97770  Biso   1.000  H
  C186     1.0000 0.93248  0.07381  0.95308  Biso   1.000  C
  H154     1.0000 0.94073  0.13930  0.03470  Biso   1.000  H
  S32      1.0000 0.92960  0.98834  0.84278  Biso   1.000  S
  O61      1.0000 0.74078  0.43598  0.84930  Biso   1.000  O
  O62      1.0000 0.66363  0.31312  0.90099  Biso   1.000  O
  C187     1.0000 0.79933  0.27972  0.83181  Biso   1.000  C
  H155     1.0000 0.87209  0.05973  0.95642  Biso   1.000  H
  O63      1.0000 0.90019  0.90622  0.86661  Biso   1.000  O
  O64      1.0000 0.98690  0.98893  0.79008  Biso   1.000  O
  N32      1.0000 0.84171  0.04178  0.82478  Biso   1.000  N
  C188     1.0000 0.80038  0.19209  0.84750  Biso   1.000  C
  C189     1.0000 0.84288  0.31069  0.78060  Biso   1.000  C
  H156     1.0000 0.79108  0.01408  0.82390  Biso   1.000  H
  C190     1.0000 0.84452  0.13229  0.81058  Biso   1.000  C
  H157     1.0000 0.77078  0.17270  0.88359  Biso   1.000  H
  C191     1.0000 0.88978  0.25011  0.74372  Biso   1.000  C
  H158     1.0000 0.84157  0.37108  0.77018  Biso   1.000  H
  C192     1.0000 0.88958  0.16203  0.75890  Biso   1.000  C
  H159     1.0000 0.92141  0.26983  0.70851  Biso   1.000  H
  H160     1.0000 0.92062  0.12142  0.73368  Biso   1.000  H
  C193     1.0000 0.11022  0.74989  0.25628  Biso   1.000  C
  C194     1.0000 0.15712  0.68931  0.21940  Biso   1.000  C
  H161     1.0000 0.07859  0.73017  0.29149  Biso   1.000  H
  C195     1.0000 0.11042  0.83797  0.24110  Biso   1.000  C
  C196     1.0000 0.20067  0.72028  0.16819  Biso   1.000  C
  H162     1.0000 0.15843  0.62892  0.22982  Biso   1.000  H
  C197     1.0000 0.15548  0.86771  0.18942  Biso   1.000  C
  H163     1.0000 0.07938  0.87858  0.26632  Biso   1.000  H
  S33      1.0000 0.25699  0.64791  0.12025  Biso   1.000  S
  C198     1.0000 0.19962  0.80791  0.15250  Biso   1.000  C
  N33      1.0000 0.15829  0.95822  0.17522  Biso   1.000  N
  O65      1.0000 0.25922  0.56402  0.15070  Biso   1.000  O
  O66      1.0000 0.33637  0.68688  0.09901  Biso   1.000  O
  N34      1.0000 0.19838  0.63901  0.05788  Biso   1.000  N
  H164     1.0000 0.22922  0.82730  0.11641  Biso   1.000  H
  H165     1.0000 0.20892  0.98592  0.17610  Biso   1.000  H
  S34      1.0000 0.07040  0.01166  0.15722  Biso   1.000  S
  C199     1.0000 0.10747  0.61530  0.05682  Biso   1.000  C
  H166     1.0000 0.22418  0.64942  0.02230  Biso   1.000  H
  C200     1.0000 0.01998  0.95330  0.09851  Biso   1.000  C
  O67      1.0000 0.09981  0.09378  0.13339  Biso   1.000  O
  O68      1.0000 0.01310  0.01107  0.20992  Biso   1.000  O
  C201     1.0000 0.06071  0.64202  0.00648  Biso   1.000  C
  C202     1.0000 0.06759  0.56742  0.10341  Biso   1.000  C
  C203     1.0000 0.06752  0.92619  0.04692  Biso   1.000  C
  C204     1.0000 0.93241  0.93261  0.10341  Biso   1.000  C
  C205     1.0000 0.97282  0.62119  0.00069  Biso   1.000  C
  H167     1.0000 0.08868  0.67522  0.97502  Biso   1.000  H
  H168     1.0000 0.10040  0.54909  0.13848  Biso   1.000  H
  C206     1.0000 0.98002  0.54673  0.09851  Biso   1.000  C
  H169     1.0000 0.12791  0.94027  0.04358  Biso   1.000  H
  C207     1.0000 0.02718  0.87877  0.00069  Biso   1.000  C
  C208     1.0000 0.89253  0.88467  0.05682  Biso   1.000  C
  H170     1.0000 0.89960  0.95088  0.13848  Biso   1.000  H
  H171     1.0000 0.94073  0.63927  0.96530  Biso   1.000  H
  C209     1.0000 0.93248  0.57378  0.04692  Biso   1.000  C
  S35      1.0000 0.92960  0.48831  0.15722  Biso   1.000  S
  C210     1.0000 0.93929  0.85801  0.00648  Biso   1.000  C
  H172     1.0000 0.05927  0.86070  0.96530  Biso   1.000  H
  N35      1.0000 0.80162  0.86103  0.05788  Biso   1.000  N
  H173     1.0000 0.87209  0.55970  0.04358  Biso   1.000  H
  O69      1.0000 0.90019  0.40618  0.13339  Biso   1.000  O
  O70      1.0000 0.98690  0.48890  0.20992  Biso   1.000  O
  N36      1.0000 0.84171  0.54182  0.17522  Biso   1.000  N
  H174     1.0000 0.91132  0.82481  0.97502  Biso   1.000  H
  S36      1.0000 0.74301  0.85212  0.12025  Biso   1.000  S
  H175     1.0000 0.77582  0.85061  0.02230  Biso   1.000  H
  H176     1.0000 0.79108  0.51411  0.17610  Biso   1.000  H
  C211     1.0000 0.84452  0.63233  0.18942  Biso   1.000  C
  C212     1.0000 0.79933  0.77968  0.16819  Biso   1.000  C
  O71      1.0000 0.74078  0.93601  0.15070  Biso   1.000  O
  O72      1.0000 0.66363  0.81309  0.09901  Biso   1.000  O
  C213     1.0000 0.88958  0.66199  0.24110  Biso   1.000  C
  C214     1.0000 0.80038  0.69212  0.15250  Biso   1.000  C
  C215     1.0000 0.84288  0.81073  0.21940  Biso   1.000  C
  C216     1.0000 0.88978  0.75008  0.25628  Biso   1.000  C
  H177     1.0000 0.92062  0.62139  0.26632  Biso   1.000  H
  H178     1.0000 0.77078  0.67267  0.11641  Biso   1.000  H
  H179     1.0000 0.84157  0.87111  0.22982  Biso   1.000  H
  H180     1.0000 0.92141  0.76980  0.29149  Biso   1.000  H
  C217     1.0000 0.11022  0.74989  0.25628  Biso   1.000  C
  C218     1.0000 0.15712  0.68931  0.21940  Biso   1.000  C
  H181     1.0000 0.07859  0.73017  0.29149  Biso   1.000  H
  C219     1.0000 0.11042  0.83797  0.24110  Biso   1.000  C
  C220     1.0000 0.20067  0.72028  0.16819  Biso   1.000  C
  H182     1.0000 0.15843  0.62892  0.22982  Biso   1.000  H
  C221     1.0000 0.15548  0.86771  0.18942  Biso   1.000  C
  H183     1.0000 0.07938  0.87858  0.26632  Biso   1.000  H
  S37      1.0000 0.25699  0.64791  0.12025  Biso   1.000  S
  C222     1.0000 0.19962  0.80791  0.15250  Biso   1.000  C
  N37      1.0000 0.15829  0.95822  0.17522  Biso   1.000  N
  O73      1.0000 0.25922  0.56402  0.15070  Biso   1.000  O
  O74      1.0000 0.33637  0.68688  0.09901  Biso   1.000  O
  N38      1.0000 0.19838  0.63901  0.05788  Biso   1.000  N
  H184     1.0000 0.22922  0.82730  0.11641  Biso   1.000  H
  H185     1.0000 0.20892  0.98592  0.17610  Biso   1.000  H
  S38      1.0000 0.07040  0.01166  0.15722  Biso   1.000  S
  C223     1.0000 0.10747  0.61530  0.05682  Biso   1.000  C
  H186     1.0000 0.22418  0.64942  0.02230  Biso   1.000  H
  C224     1.0000 0.01998  0.95330  0.09851  Biso   1.000  C
  O75      1.0000 0.09981  0.09378  0.13339  Biso   1.000  O
  O76      1.0000 0.01310  0.01107  0.20992  Biso   1.000  O
  C225     1.0000 0.06071  0.64202  0.00648  Biso   1.000  C
  C226     1.0000 0.06759  0.56742  0.10341  Biso   1.000  C
  C227     1.0000 0.06752  0.92619  0.04692  Biso   1.000  C
  C228     1.0000 0.93241  0.93261  0.10341  Biso   1.000  C
  C229     1.0000 0.97282  0.62119  0.00069  Biso   1.000  C
  H187     1.0000 0.08868  0.67522  0.97502  Biso   1.000  H
  H188     1.0000 0.10040  0.54909  0.13848  Biso   1.000  H
  C230     1.0000 0.98002  0.54673  0.09851  Biso   1.000  C
  H189     1.0000 0.12791  0.94027  0.04358  Biso   1.000  H
  C231     1.0000 0.02718  0.87877  0.00069  Biso   1.000  C
  C232     1.0000 0.89253  0.88467  0.05682  Biso   1.000  C
  H190     1.0000 0.89960  0.95088  0.13848  Biso   1.000  H
  H191     1.0000 0.94073  0.63927  0.96530  Biso   1.000  H
  C233     1.0000 0.93248  0.57378  0.04692  Biso   1.000  C
  S39      1.0000 0.92960  0.48831  0.15722  Biso   1.000  S
  C234     1.0000 0.93929  0.85801  0.00648  Biso   1.000  C
  H192     1.0000 0.05927  0.86070  0.96530  Biso   1.000  H
  N39      1.0000 0.80162  0.86103  0.05788  Biso   1.000  N
  H193     1.0000 0.87209  0.55970  0.04358  Biso   1.000  H
  O77      1.0000 0.90019  0.40618  0.13339  Biso   1.000  O
  O78      1.0000 0.98690  0.48890  0.20992  Biso   1.000  O
  N40      1.0000 0.84171  0.54182  0.17522  Biso   1.000  N
  H194     1.0000 0.91132  0.82481  0.97502  Biso   1.000  H
  S40      1.0000 0.74301  0.85212  0.12025  Biso   1.000  S
  H195     1.0000 0.77582  0.85061  0.02230  Biso   1.000  H
  H196     1.0000 0.79108  0.51411  0.17610  Biso   1.000  H
  C235     1.0000 0.84452  0.63233  0.18942  Biso   1.000  C
  C236     1.0000 0.79933  0.77968  0.16819  Biso   1.000  C
  O79      1.0000 0.74078  0.93601  0.15070  Biso   1.000  O
  O80      1.0000 0.66363  0.81309  0.09901  Biso   1.000  O
  C237     1.0000 0.88958  0.66199  0.24110  Biso   1.000  C
  C238     1.0000 0.80038  0.69212  0.15250  Biso   1.000  C
  C239     1.0000 0.84288  0.81073  0.21940  Biso   1.000  C
  C240     1.0000 0.88978  0.75008  0.25628  Biso   1.000  C
  H197     1.0000 0.92062  0.62139  0.26632  Biso   1.000  H
  H198     1.0000 0.77078  0.67267  0.11641  Biso   1.000  H
  H199     1.0000 0.84157  0.87111  0.22982  Biso   1.000  H
  H200     1.0000 0.92141  0.76980  0.29149  Biso   1.000  H
  C241     1.0000 0.37121  0.27723  0.24929  Biso   1.000  C
  C242     1.0000 0.32379  0.31751  0.20312  Biso   1.000  C
  H201     1.0000 0.38929  0.30932  0.28469  Biso   1.000  H
  C243     1.0000 0.39197  0.18927  0.24351  Biso   1.000  C
  C244     1.0000 0.29668  0.27002  0.15148  Biso   1.000  C
  H202     1.0000 0.30971  0.37789  0.20640  Biso   1.000  H
  C245     1.0000 0.36532  0.14251  0.19322  Biso   1.000  C
  H203     1.0000 0.42518  0.16131  0.27502  Biso   1.000  H
  S41      1.0000 0.23833  0.32039  0.09277  Biso   1.000  S
  C246     1.0000 0.31738  0.18240  0.14658  Biso   1.000  C
  N41      1.0000 0.38902  0.05161  0.19211  Biso   1.000  N
  O81      1.0000 0.15620  0.34979  0.11660  Biso   1.000  O
  O82      1.0000 0.23892  0.26308  0.04011  Biso   1.000  O
  N42      1.0000 0.29177  0.40828  0.07482  Biso   1.000  N
  H204     1.0000 0.29910  0.14958  0.11151  Biso   1.000  H
  H205     1.0000 0.39937  0.02580  0.22769  Biso   1.000  H
  S42      1.0000 0.39793  0.99299  0.12978  Biso   1.000  S
  H206     1.0000 0.26413  0.45890  0.07389  Biso   1.000  H
  C247     1.0000 0.38228  0.40553  0.06061  Biso   1.000  C
  C248     1.0000 0.47030  0.04932  0.08180  Biso   1.000  C
  O83      1.0000 0.31397  0.99083  0.09929  Biso   1.000  O
  O84      1.0000 0.43690  0.91362  0.15102  Biso   1.000  O
  C249     1.0000 0.41201  0.36040  0.00888  Biso   1.000  C
  C250     1.0000 0.44207  0.44960  0.09749  Biso   1.000  C
  C251     1.0000 0.43932  0.09287  0.03058  Biso   1.000  C
  C252     1.0000 0.55793  0.05043  0.09749  Biso   1.000  C
  C253     1.0000 0.50010  0.36021  0.99371  Biso   1.000  C
  H207     1.0000 0.37141  0.32943  0.98371  Biso   1.000  H
  C254     1.0000 0.52970  0.45072  0.08180  Biso   1.000  C
  H208     1.0000 0.42269  0.47921  0.13358  Biso   1.000  H
  H209     1.0000 0.37887  0.09162  0.02022  Biso   1.000  H
  C255     1.0000 0.49990  0.13983  0.99371  Biso   1.000  C
  C256     1.0000 0.61772  0.09451  0.06061  Biso   1.000  C
  H210     1.0000 0.57731  0.02083  0.13358  Biso   1.000  H
  C257     1.0000 0.56068  0.40710  0.03058  Biso   1.000  C
  H211     1.0000 0.51981  0.32857  0.95850  Biso   1.000  H
  S43      1.0000 0.60207  0.50697  0.12978  Biso   1.000  S
  C258     1.0000 0.58799  0.13963  0.00888  Biso   1.000  C
  H212     1.0000 0.48019  0.17139  0.95850  Biso   1.000  H
  N43      1.0000 0.70823  0.09169  0.07482  Biso   1.000  N
  H213     1.0000 0.62113  0.40841  0.02022  Biso   1.000  H
  O85      1.0000 0.68603  0.50920  0.09929  Biso   1.000  O
  O86      1.0000 0.56310  0.58642  0.15102  Biso   1.000  O
  N44      1.0000 0.61098  0.44842  0.19211  Biso   1.000  N
  H214     1.0000 0.62859  0.17061  0.98371  Biso   1.000  H
  S44      1.0000 0.76167  0.17958  0.09277  Biso   1.000  S
  H215     1.0000 0.73587  0.04113  0.07389  Biso   1.000  H
  C259     1.0000 0.63468  0.35752  0.19322  Biso   1.000  C
  H216     1.0000 0.60063  0.47423  0.22769  Biso   1.000  H
  C260     1.0000 0.70332  0.23001  0.15148  Biso   1.000  C
  O87      1.0000 0.84380  0.15017  0.11660  Biso   1.000  O
  O88      1.0000 0.76108  0.23689  0.04011  Biso   1.000  O
  C261     1.0000 0.60803  0.31069  0.24351  Biso   1.000  C
  C262     1.0000 0.68262  0.31757  0.14658  Biso   1.000  C
  C263     1.0000 0.67621  0.18253  0.20312  Biso   1.000  C
  C264     1.0000 0.62879  0.22280  0.24929  Biso   1.000  C
  H217     1.0000 0.57482  0.33873  0.27502  Biso   1.000  H
  H218     1.0000 0.70090  0.35038  0.11151  Biso   1.000  H
  H219     1.0000 0.69029  0.12208  0.20640  Biso   1.000  H
  H220     1.0000 0.61071  0.19071  0.28469  Biso   1.000  H
  C265     1.0000 0.39197  0.68931  0.75649  Biso   1.000  C
  C266     1.0000 0.36532  0.64248  0.80678  Biso   1.000  C
  C267     1.0000 0.37121  0.77720  0.75071  Biso   1.000  C
  H221     1.0000 0.42518  0.66127  0.72498  Biso   1.000  H
  C268     1.0000 0.31738  0.68243  0.85342  Biso   1.000  C
  N45      1.0000 0.38902  0.55158  0.80789  Biso   1.000  N
  C269     1.0000 0.32379  0.81747  0.79688  Biso   1.000  C
  H222     1.0000 0.38929  0.80929  0.71531  Biso   1.000  H
  C270     1.0000 0.29668  0.76999  0.84852  Biso   1.000  C
  H223     1.0000 0.29910  0.64962  0.88849  Biso   1.000  H
  S45      1.0000 0.39793  0.49303  0.87022  Biso   1.000  S
  H224     1.0000 0.39937  0.52577  0.77231  Biso   1.000  H
  H225     1.0000 0.30971  0.87792  0.79360  Biso   1.000  H
  S46      1.0000 0.23833  0.82042  0.90723  Biso   1.000  S
  O89      1.0000 0.31397  0.49080  0.90071  Biso   1.000  O
  O90      1.0000 0.43690  0.41358  0.84898  Biso   1.000  O
  C271     1.0000 0.47030  0.54928  0.91820  Biso   1.000  C
  O91      1.0000 0.15620  0.84983  0.88340  Biso   1.000  O
  O92      1.0000 0.23892  0.76311  0.95989  Biso   1.000  O
  N46      1.0000 0.29177  0.90831  0.92518  Biso   1.000  N
  C272     1.0000 0.43932  0.59290  0.96942  Biso   1.000  C
  C273     1.0000 0.55793  0.55040  0.90251  Biso   1.000  C
  H226     1.0000 0.26413  0.95887  0.92611  Biso   1.000  H
  C274     1.0000 0.38228  0.90549  0.93939  Biso   1.000  C
  H227     1.0000 0.37887  0.59159  0.97978  Biso   1.000  H
  C275     1.0000 0.49990  0.63979  0.00629  Biso   1.000  C
  C276     1.0000 0.61772  0.59447  0.93939  Biso   1.000  C
  H228     1.0000 0.57731  0.52079  0.86642  Biso   1.000  H
  C277     1.0000 0.41201  0.86037  0.99112  Biso   1.000  C
  C278     1.0000 0.44207  0.94957  0.90251  Biso   1.000  C
  C279     1.0000 0.58799  0.63960  0.99112  Biso   1.000  C
  H229     1.0000 0.48019  0.67143  0.04150  Biso   1.000  H
  N47      1.0000 0.70823  0.59172  0.92518  Biso   1.000  N
  C280     1.0000 0.50010  0.86017  0.00629  Biso   1.000  C
  H230     1.0000 0.37141  0.82939  0.01629  Biso   1.000  H
  C281     1.0000 0.52970  0.95068  0.91820  Biso   1.000  C
  H231     1.0000 0.42269  0.97917  0.86642  Biso   1.000  H
  H232     1.0000 0.62859  0.67057  0.01629  Biso   1.000  H
  S47      1.0000 0.76167  0.67961  0.90723  Biso   1.000  S
  H233     1.0000 0.73587  0.54110  0.92611  Biso   1.000  H
  C282     1.0000 0.56068  0.90713  0.96942  Biso   1.000  C
  H234     1.0000 0.51981  0.82861  0.04150  Biso   1.000  H
  S48      1.0000 0.60207  0.00701  0.87022  Biso   1.000  S
  O93      1.0000 0.84380  0.65021  0.88340  Biso   1.000  O
  O94      1.0000 0.76108  0.73692  0.95989  Biso   1.000  O
  C283     1.0000 0.70332  0.72998  0.84852  Biso   1.000  C
  H235     1.0000 0.62113  0.90838  0.97978  Biso   1.000  H
  N48      1.0000 0.61098  0.94839  0.80789  Biso   1.000  N
  O95      1.0000 0.68603  0.00917  0.90071  Biso   1.000  O
  O96      1.0000 0.56310  0.08638  0.84898  Biso   1.000  O
  C284     1.0000 0.67621  0.68249  0.79688  Biso   1.000  C
  C285     1.0000 0.68262  0.81760  0.85342  Biso   1.000  C
  H236     1.0000 0.60063  0.97420  0.77231  Biso   1.000  H
  C286     1.0000 0.63468  0.85749  0.80678  Biso   1.000  C
  H237     1.0000 0.69029  0.62211  0.79360  Biso   1.000  H
  C287     1.0000 0.62879  0.72277  0.75071  Biso   1.000  C
  H238     1.0000 0.70090  0.85042  0.88849  Biso   1.000  H
  C288     1.0000 0.60803  0.81073  0.75649  Biso   1.000  C
  H239     1.0000 0.61071  0.69068  0.71531  Biso   1.000  H
  H240     1.0000 0.57482  0.83869  0.72498  Biso   1.000  H
