data_image0
_cell_length_a       21.216
_cell_length_b       21.216
_cell_length_c       21.163
_cell_angle_alpha    90
_cell_angle_beta     90
_cell_angle_gamma    120

_symmetry_space_group_name_H-M    "P 1"
_symmetry_int_tables_number       1

loop_
  _symmetry_equiv_pos_as_xyz
  'x, y, z'

loop_
  _atom_site_label
  _atom_site_occupancy
  _atom_site_fract_x
  _atom_site_fract_y
  _atom_site_fract_z
  _atom_site_thermal_displace_type
  _atom_site_B_iso_or_equiv
  _atom_site_type_symbol
  C1       1.0000 0.22517  0.44591  0.60303  Biso   1.000  C
  C2       1.0000 0.23758  0.42746  0.54435  Biso   1.000  C
  C3       1.0000 0.28238  0.48123  0.64561  Biso   1.000  C
  C4       1.0000 0.15037  0.42735  0.62104  Biso   1.000  C
  C5       1.0000 0.30748  0.44265  0.52601  Biso   1.000  C
  H1       1.0000 0.19830  0.40395  0.51543  Biso   1.000  H
  C6       1.0000 0.35237  0.49745  0.62855  Biso   1.000  C
  H2       1.0000 0.27366  0.49435  0.68624  Biso   1.000  H
  N1       1.0000 0.13069  0.42795  0.67703  Biso   1.000  N
  H3       1.0000 0.11525  0.41424  0.58843  Biso   1.000  H
  C7       1.0000 0.31788  0.42235  0.46184  Biso   1.000  C
  C8       1.0000 0.36439  0.47764  0.56835  Biso   1.000  C
  C9       1.0000 0.41260  0.53626  0.67363  Biso   1.000  C
  C10      1.0000 0.05455  0.40803  0.68804  Biso   1.000  C
  N2       1.0000 0.37846  0.43584  0.44072  Biso   1.000  N
  H4       1.0000 0.27655  0.39774  0.43515  Biso   1.000  H
  H5       1.0000 0.41189  0.48836  0.55663  Biso   1.000  H
  N3       1.0000 0.47348  0.53963  0.66753  Biso   1.000  N
  H6       1.0000 0.40538  0.55972  0.70883  Biso   1.000  H
  C11      1.0000 0.05125  0.47204  0.71634  Biso   1.000  C
  H7       1.0000 0.03147  0.36601  0.71724  Biso   1.000  H
  H8       1.0000 0.02746  0.39372  0.64764  Biso   1.000  H
  C12      1.0000 0.38148  0.41445  0.37603  Biso   1.000  C
  C13      1.0000 0.52799  0.57926  0.71634  Biso   1.000  C
  N4       1.0000 0.06614  0.52652  0.66753  Biso   1.000  N
  H9       1.0000 0.00237  0.45506  0.73463  Biso   1.000  H
  H10      1.0000 0.08756  0.49402  0.75074  Biso   1.000  H
  C14      1.0000 0.41847  0.48042  0.33374  Biso   1.000  C
  H11      1.0000 0.33136  0.38153  0.36053  Biso   1.000  H
  H12      1.0000 0.40845  0.38751  0.37471  Biso   1.000  H
  H13      1.0000 0.54499  0.54736  0.73463  Biso   1.000  H
  H14      1.0000 0.50594  0.59351  0.75074  Biso   1.000  H
  C15      1.0000 0.59198  0.64653  0.68804  Biso   1.000  C
  C16      1.0000 0.12365  0.58742  0.67363  Biso   1.000  C
  N5       1.0000 0.37597  0.51824  0.33233  Biso   1.000  N
  H15      1.0000 0.46818  0.51394  0.34971  Biso   1.000  H
  H16      1.0000 0.42276  0.46534  0.29041  Biso   1.000  H
  N6       1.0000 0.57206  0.70275  0.67703  Biso   1.000  N
  H17      1.0000 0.63397  0.66547  0.71724  Biso   1.000  H
  H18      1.0000 0.60627  0.63374  0.64764  Biso   1.000  H
  C17      1.0000 0.14507  0.64761  0.62855  Biso   1.000  C
  H19      1.0000 0.15437  0.59466  0.70883  Biso   1.000  H
  C18      1.0000 0.40765  0.58453  0.34031  Biso   1.000  C
  C19      1.0000 0.57269  0.72305  0.62104  Biso   1.000  C
  C20      1.0000 0.11326  0.63564  0.56835  Biso   1.000  C
  C21      1.0000 0.19886  0.71766  0.64561  Biso   1.000  C
  C22      1.0000 0.36907  0.62671  0.34045  Biso   1.000  C
  H20      1.0000 0.45885  0.60973  0.34674  Biso   1.000  H
  C23      1.0000 0.55406  0.77922  0.60303  Biso   1.000  C
  H21      1.0000 0.58578  0.70106  0.58843  Biso   1.000  H
  C24      1.0000 0.13514  0.69252  0.52601  Biso   1.000  C
  H22      1.0000 0.07644  0.58813  0.55663  Biso   1.000  H
  H23      1.0000 0.22067  0.72631  0.68624  Biso   1.000  H
  C25      1.0000 0.22076  0.77486  0.60303  Biso   1.000  C
  C26      1.0000 0.29298  0.59134  0.34055  Biso   1.000  C
  C27      1.0000 0.40866  0.70166  0.34055  Biso   1.000  C
  C28      1.0000 0.51879  0.80115  0.64561  Biso   1.000  C
  C29      1.0000 0.57258  0.81013  0.54435  Biso   1.000  C
  C30      1.0000 0.10445  0.68212  0.46184  Biso   1.000  C
  C31      1.0000 0.18986  0.76245  0.54435  Biso   1.000  C
  C32      1.0000 0.27696  0.84964  0.62104  Biso   1.000  C
  H24      1.0000 0.26547  0.53952  0.34074  Biso   1.000  H
  C33      1.0000 0.25769  0.63096  0.34045  Biso   1.000  C
  C34      1.0000 0.37328  0.74232  0.34045  Biso   1.000  C
  H25      1.0000 0.46049  0.72593  0.34074  Biso   1.000  H
  C35      1.0000 0.50255  0.85492  0.62855  Biso   1.000  C
  H26      1.0000 0.50566  0.77932  0.68624  Biso   1.000  H
  C36      1.0000 0.55737  0.86483  0.52601  Biso   1.000  C
  H27      1.0000 0.59608  0.79435  0.51543  Biso   1.000  H
  N7       1.0000 0.05738  0.62154  0.44072  Biso   1.000  N
  H28      1.0000 0.12114  0.72343  0.43515  Biso   1.000  H
  H29      1.0000 0.20569  0.80175  0.51543  Biso   1.000  H
  N8       1.0000 0.29728  0.86935  0.67703  Biso   1.000  N
  H30      1.0000 0.29899  0.88475  0.58843  Biso   1.000  H
  C37      1.0000 0.29838  0.70705  0.34055  Biso   1.000  C
  C38      1.0000 0.17686  0.59232  0.34031  Biso   1.000  C
  C39      1.0000 0.41548  0.82314  0.34031  Biso   1.000  C
  C40      1.0000 0.52238  0.88676  0.56835  Biso   1.000  C
  C41      1.0000 0.46378  0.87637  0.67363  Biso   1.000  C
  C42      1.0000 0.57766  0.89552  0.46184  Biso   1.000  C
  C43      1.0000 0.03297  0.61855  0.37603  Biso   1.000  C
  C44      1.0000 0.35347  0.94543  0.68804  Biso   1.000  C
  H31      1.0000 0.27408  0.73453  0.34074  Biso   1.000  H
  N9       1.0000 0.14229  0.62405  0.33233  Biso   1.000  N
  H32      1.0000 0.15086  0.54116  0.34674  Biso   1.000  H
  N10      1.0000 0.48176  0.85775  0.33233  Biso   1.000  N
  H33      1.0000 0.39026  0.84915  0.34674  Biso   1.000  H
  H34      1.0000 0.51169  0.92355  0.55663  Biso   1.000  H
  N11      1.0000 0.46037  0.93384  0.66753  Biso   1.000  N
  H35      1.0000 0.44025  0.84562  0.70883  Biso   1.000  H
  N12      1.0000 0.56418  0.94266  0.44072  Biso   1.000  N
  H36      1.0000 0.60226  0.87882  0.43515  Biso   1.000  H
  C45      1.0000 0.06198  0.58154  0.33374  Biso   1.000  C
  H37      1.0000 0.05014  0.66862  0.36053  Biso   1.000  H
  H38      1.0000 0.97908  0.59156  0.37471  Biso   1.000  H
  C46      1.0000 0.42078  0.94875  0.71634  Biso   1.000  C
  H39      1.0000 0.33458  0.96856  0.71724  Biso   1.000  H
  H40      1.0000 0.36626  0.97254  0.64764  Biso   1.000  H
  C47      1.0000 0.51954  0.93803  0.33374  Biso   1.000  C
  C48      1.0000 0.58557  0.96704  0.37603  Biso   1.000  C
  H41      1.0000 0.04576  0.53185  0.34971  Biso   1.000  H
  H42      1.0000 0.04258  0.57724  0.29041  Biso   1.000  H
  H43      1.0000 0.45267  0.99763  0.73463  Biso   1.000  H
  H44      1.0000 0.40645  0.91245  0.75074  Biso   1.000  H
  H45      1.0000 0.48608  0.95425  0.34971  Biso   1.000  H
  H46      1.0000 0.53468  0.95746  0.29041  Biso   1.000  H
  H47      1.0000 0.61849  0.94984  0.36053  Biso   1.000  H
  H48      1.0000 0.61246  0.02092  0.37471  Biso   1.000  H
  C49      1.0000 0.98954  0.26386  0.54118  Biso   1.000  C
  N13      1.0000 0.04382  0.24149  0.52975  Biso   1.000  N
  N14      1.0000 0.04379  0.24143  0.52975  Biso   1.000  N
  N15      1.0000 0.04387  0.24149  0.52975  Biso   1.000  N
  N16      1.0000 0.04384  0.24143  0.52975  Biso   1.000  N
  H49      1.0000 0.00896  0.30468  0.57166  Biso   1.000  H
  H50      1.0000 0.00891  0.30468  0.57166  Biso   1.000  H
  H51      1.0000 0.97862  0.28067  0.50116  Biso   1.000  H
  C50      1.0000 0.92025  0.19947  0.56736  Biso   1.000  C
  H52      1.0000 0.97867  0.28067  0.50116  Biso   1.000  H
  C51      1.0000 0.06647  0.24709  0.47347  Biso   1.000  C
  C52      1.0000 0.06639  0.24704  0.47347  Biso   1.000  C
  C53      1.0000 0.06644  0.24704  0.47347  Biso   1.000  C
  H53      1.0000 0.93214  0.17716  0.60318  Biso   1.000  H
  H54      1.0000 0.88683  0.21607  0.58276  Biso   1.000  H
  N17      1.0000 0.88564  0.14619  0.51618  Biso   1.000  N
  N18      1.0000 0.88561  0.14613  0.51618  Biso   1.000  N
  C54      1.0000 0.12075  0.22576  0.45466  Biso   1.000  C
  C55      1.0000 0.12070  0.22576  0.45466  Biso   1.000  C
  H55      1.0000 0.04804  0.26549  0.44214  Biso   1.000  H
  H56      1.0000 0.04802  0.26544  0.44214  Biso   1.000  H
  C56      1.0000 0.86805  0.08028  0.52937  Biso   1.000  C
  C57      1.0000 0.15005  0.23986  0.39564  Biso   1.000  C
  C58      1.0000 0.14142  0.19027  0.49875  Biso   1.000  C
  C59      1.0000 0.14147  0.19027  0.49875  Biso   1.000  C
  C60      1.0000 0.83023  0.02226  0.48197  Biso   1.000  C
  H57      1.0000 0.87941  0.06896  0.56967  Biso   1.000  H
  H58      1.0000 0.87945  0.06896  0.56967  Biso   1.000  H
  C61      1.0000 0.20143  0.22026  0.37788  Biso   1.000  C
  H59      1.0000 0.13523  0.26348  0.36597  Biso   1.000  H
  C62      1.0000 0.19201  0.16975  0.48197  Biso   1.000  C
  C63      1.0000 0.19206  0.16975  0.48197  Biso   1.000  C
  H60      1.0000 0.12104  0.18015  0.54005  Biso   1.000  H
  C64      1.0000 0.80972  0.95118  0.49875  Biso   1.000  C
  C65      1.0000 0.81585  0.03668  0.42234  Biso   1.000  C
  C66      1.0000 0.81583  0.03663  0.42234  Biso   1.000  C
  C67      1.0000 0.23612  0.23648  0.31508  Biso   1.000  C
  C68      1.0000 0.23617  0.23648  0.31508  Biso   1.000  C
  C69      1.0000 0.22086  0.18418  0.42234  Biso   1.000  C
  C70      1.0000 0.22081  0.18418  0.42234  Biso   1.000  C
  C71      1.0000 0.21225  0.13198  0.52937  Biso   1.000  C
  C72      1.0000 0.21222  0.13193  0.52937  Biso   1.000  C
  C73      1.0000 0.77421  0.89496  0.45466  Biso   1.000  C
  H61      1.0000 0.81983  0.94084  0.54005  Biso   1.000  H
  C74      1.0000 0.77975  0.98117  0.37788  Biso   1.000  C
  C75      1.0000 0.77971  0.98117  0.37788  Biso   1.000  C
  H62      1.0000 0.83072  0.08556  0.41095  Biso   1.000  H
  N19      1.0000 0.22771  0.27556  0.27558  Biso   1.000  N
  N20      1.0000 0.22776  0.27556  0.27558  Biso   1.000  N
  H63      1.0000 0.26594  0.21645  0.30416  Biso   1.000  H
  H64      1.0000 0.25483  0.16926  0.41095  Biso   1.000  H
  N21      1.0000 0.26051  0.11435  0.51618  Biso   1.000  N
  H65      1.0000 0.18952  0.12055  0.56967  Biso   1.000  H
  N22      1.0000 0.26056  0.11435  0.51618  Biso   1.000  N
  C76      1.0000 0.76012  0.91014  0.39564  Biso   1.000  C
  C77      1.0000 0.75291  0.81936  0.47347  Biso   1.000  C
  C78      1.0000 0.75296  0.81936  0.47347  Biso   1.000  C
  C79      1.0000 0.76355  0.99967  0.31508  Biso   1.000  C
  C80      1.0000 0.26593  0.28704  0.21495  Biso   1.000  C
  C81      1.0000 0.27924  0.07979  0.56736  Biso   1.000  C
  C82      1.0000 0.27921  0.07973  0.56736  Biso   1.000  C
  H66      1.0000 0.73656  0.87177  0.36597  Biso   1.000  H
  H67      1.0000 0.73651  0.87177  0.36597  Biso   1.000  H
  N23      1.0000 0.75856  0.80238  0.52975  Biso   1.000  N
  H68      1.0000 0.73452  0.78257  0.44214  Biso   1.000  H
  N24      1.0000 0.75849  0.80233  0.52975  Biso   1.000  N
  H69      1.0000 0.73456  0.78257  0.44214  Biso   1.000  H
  N25      1.0000 0.75853  0.80233  0.52975  Biso   1.000  N
  N26      1.0000 0.72443  0.95216  0.27558  Biso   1.000  N
  H70      1.0000 0.78355  0.04947  0.30416  Biso   1.000  H
  C83      1.0000 0.21232  0.26005  0.16066  Biso   1.000  C
  H71      1.0000 0.29352  0.26086  0.21519  Biso   1.000  H
  H72      1.0000 0.30096  0.33956  0.20928  Biso   1.000  H
  H73      1.0000 0.30091  0.33956  0.20928  Biso   1.000  H
  H74      1.0000 0.29356  0.26086  0.21519  Biso   1.000  H
  C84      1.0000 0.27431  0.01045  0.54118  Biso   1.000  C
  H75      1.0000 0.24505  0.06787  0.60318  Biso   1.000  H
  H76      1.0000 0.32925  0.11315  0.58276  Biso   1.000  H
  H77      1.0000 0.32920  0.11315  0.58276  Biso   1.000  H
  C85      1.0000 0.73612  0.72564  0.54118  Biso   1.000  C
  C86      1.0000 0.71295  0.97888  0.21495  Biso   1.000  C
  C87      1.0000 0.71292  0.97883  0.21495  Biso   1.000  C
  N27      1.0000 0.16843  0.18075  0.16264  Biso   1.000  N
  H78      1.0000 0.18024  0.28138  0.16359  Biso   1.000  H
  H79      1.0000 0.23902  0.27545  0.12007  Biso   1.000  H
  H80      1.0000 0.30203  0.02139  0.50116  Biso   1.000  H
  H81      1.0000 0.30200  0.02133  0.50116  Biso   1.000  H
  H82      1.0000 0.30208  0.02139  0.50116  Biso   1.000  H
  N28      1.0000 0.19764  0.95619  0.52975  Biso   1.000  N
  H83      1.0000 0.29574  0.99107  0.57166  Biso   1.000  H
  N29      1.0000 0.19762  0.95613  0.52975  Biso   1.000  N
  C88      1.0000 0.80051  0.72074  0.56736  Biso   1.000  C
  H84      1.0000 0.71933  0.69799  0.50116  Biso   1.000  H
  H85      1.0000 0.69531  0.70425  0.57166  Biso   1.000  H
  H86      1.0000 0.71930  0.69794  0.50116  Biso   1.000  H
  H87      1.0000 0.71938  0.69799  0.50116  Biso   1.000  H
  C89      1.0000 0.73994  0.95227  0.16066  Biso   1.000  C
  H88      1.0000 0.66045  0.96136  0.20928  Biso   1.000  H
  H89      1.0000 0.66040  0.96136  0.20928  Biso   1.000  H
  H90      1.0000 0.73913  0.03266  0.21519  Biso   1.000  H
  C90      1.0000 0.10262  0.15348  0.17616  Biso   1.000  C
  C91      1.0000 0.10266  0.15348  0.17616  Biso   1.000  C
  C92      1.0000 0.18062  0.93355  0.47347  Biso   1.000  C
  N30      1.0000 0.85385  0.73946  0.51618  Biso   1.000  N
  H91      1.0000 0.82286  0.75497  0.60318  Biso   1.000  H
  H92      1.0000 0.78392  0.67078  0.58276  Biso   1.000  H
  H93      1.0000 0.82281  0.75497  0.60318  Biso   1.000  H
  H94      1.0000 0.78397  0.67078  0.58276  Biso   1.000  H
  N31      1.0000 0.81924  0.98765  0.16264  Biso   1.000  N
  H95      1.0000 0.71862  0.89888  0.16359  Biso   1.000  H
  H96      1.0000 0.72454  0.96359  0.12007  Biso   1.000  H
  H97      1.0000 0.72451  0.96353  0.12007  Biso   1.000  H
  H98      1.0000 0.71867  0.89888  0.16359  Biso   1.000  H
  C93      1.0000 0.04974  0.07478  0.17786  Biso   1.000  C
  H99      1.0000 0.08534  0.18586  0.18608  Biso   1.000  H
  C94      1.0000 0.10504  0.87928  0.45466  Biso   1.000  C
  H100     1.0000 0.21744  0.95194  0.44214  Biso   1.000  H
  C95      1.0000 0.10501  0.87923  0.45466  Biso   1.000  C
  C96      1.0000 0.91970  0.78774  0.52937  Biso   1.000  C
  C97      1.0000 0.91975  0.78774  0.52937  Biso   1.000  C
  C98      1.0000 0.84652  0.94917  0.17616  Biso   1.000  C
  C99      1.0000 0.07425  0.02406  0.17894  Biso   1.000  C
  C100     1.0000 0.97593  0.05018  0.17894  Biso   1.000  C
  C101     1.0000 0.08980  0.84995  0.39564  Biso   1.000  C
  C102     1.0000 0.04881  0.85855  0.49875  Biso   1.000  C
  C103     1.0000 0.08985  0.84995  0.39564  Biso   1.000  C
  C104     1.0000 0.04885  0.85855  0.49875  Biso   1.000  C
  C105     1.0000 0.97776  0.80799  0.48197  Biso   1.000  C
  C106     1.0000 0.97773  0.80793  0.48197  Biso   1.000  C
  H101     1.0000 0.93103  0.81049  0.56967  Biso   1.000  H
  H102     1.0000 0.93100  0.81043  0.56967  Biso   1.000  H
  H103     1.0000 0.93107  0.81049  0.56967  Biso   1.000  H
  C107     1.0000 0.92522  0.97496  0.17786  Biso   1.000  C
  H104     1.0000 0.81413  0.89948  0.18608  Biso   1.000  H
  H105     1.0000 0.12493  0.04077  0.18036  Biso   1.000  H
  C108     1.0000 0.02504  0.95025  0.17786  Biso   1.000  C
  H106     1.0000 0.95921  0.08414  0.18036  Biso   1.000  H
  C109     1.0000 0.01882  0.79857  0.37788  Biso   1.000  C
  C110     1.0000 0.01886  0.79857  0.37788  Biso   1.000  C
  H107     1.0000 0.12822  0.86475  0.36597  Biso   1.000  H
  H108     1.0000 0.05915  0.87896  0.54005  Biso   1.000  H
  H109     1.0000 0.05911  0.87896  0.54005  Biso   1.000  H
  C111     1.0000 0.96333  0.77914  0.42234  Biso   1.000  C
  C112     1.0000 0.94983  0.92576  0.17894  Biso   1.000  C
  C113     1.0000 0.05082  0.89735  0.17616  Biso   1.000  C
  C114     1.0000 0.00032  0.76385  0.31508  Biso   1.000  C
  H110     1.0000 0.91444  0.74518  0.41095  Biso   1.000  H
  H111     1.0000 0.91586  0.87509  0.18036  Biso   1.000  H
  H112     1.0000 0.91584  0.87504  0.18036  Biso   1.000  H
  N32      1.0000 0.01231  0.83155  0.16264  Biso   1.000  N
  H113     1.0000 0.10052  0.91466  0.18608  Biso   1.000  H
  N33      1.0000 0.01235  0.83155  0.16264  Biso   1.000  N
  N34      1.0000 0.04786  0.77228  0.27558  Biso   1.000  N
  N35      1.0000 0.04783  0.77223  0.27558  Biso   1.000  N
  H114     1.0000 0.95056  0.73407  0.30416  Biso   1.000  H
  H115     1.0000 0.95051  0.73407  0.30416  Biso   1.000  H
  C115     1.0000 0.04774  0.78768  0.16066  Biso   1.000  C
  C116     1.0000 0.04771  0.78763  0.16066  Biso   1.000  C
  C117     1.0000 0.02112  0.73407  0.21495  Biso   1.000  C
  C118     1.0000 0.02117  0.73407  0.21495  Biso   1.000  C
  H116     1.0000 0.10114  0.81974  0.16359  Biso   1.000  H
  H117     1.0000 0.03645  0.76096  0.12007  Biso   1.000  H
  H118     1.0000 0.10109  0.81974  0.16359  Biso   1.000  H
  H119     1.0000 0.96735  0.70648  0.21519  Biso   1.000  H
  H120     1.0000 0.96733  0.70643  0.21519  Biso   1.000  H
  H121     1.0000 0.03864  0.69908  0.20928  Biso   1.000  H
  H122     1.0000 0.03861  0.69902  0.20928  Biso   1.000  H
  C119     1.0000 0.98954  0.26386  0.54118  Biso   1.000  C
  N36      1.0000 0.04382  0.24149  0.52975  Biso   1.000  N
  N37      1.0000 0.04379  0.24143  0.52975  Biso   1.000  N
  N38      1.0000 0.04387  0.24149  0.52975  Biso   1.000  N
  N39      1.0000 0.04384  0.24143  0.52975  Biso   1.000  N
  H123     1.0000 0.00896  0.30468  0.57166  Biso   1.000  H
  H124     1.0000 0.97862  0.28067  0.50116  Biso   1.000  H
  C120     1.0000 0.92025  0.19947  0.56736  Biso   1.000  C
  H125     1.0000 0.97867  0.28067  0.50116  Biso   1.000  H
  H126     1.0000 0.00891  0.30468  0.57166  Biso   1.000  H
  C121     1.0000 0.06647  0.24709  0.47347  Biso   1.000  C
  C122     1.0000 0.06639  0.24704  0.47347  Biso   1.000  C
  C123     1.0000 0.06644  0.24704  0.47347  Biso   1.000  C
  H127     1.0000 0.93214  0.17716  0.60318  Biso   1.000  H
  H128     1.0000 0.88683  0.21607  0.58276  Biso   1.000  H
  N40      1.0000 0.88564  0.14619  0.51618  Biso   1.000  N
  N41      1.0000 0.88561  0.14613  0.51618  Biso   1.000  N
  C124     1.0000 0.12075  0.22576  0.45466  Biso   1.000  C
  C125     1.0000 0.12070  0.22576  0.45466  Biso   1.000  C
  H129     1.0000 0.04804  0.26549  0.44214  Biso   1.000  H
  H130     1.0000 0.04802  0.26544  0.44214  Biso   1.000  H
  C126     1.0000 0.86805  0.08028  0.52937  Biso   1.000  C
  C127     1.0000 0.15005  0.23986  0.39564  Biso   1.000  C
  C128     1.0000 0.14142  0.19027  0.49875  Biso   1.000  C
  C129     1.0000 0.14147  0.19027  0.49875  Biso   1.000  C
  C130     1.0000 0.83023  0.02226  0.48197  Biso   1.000  C
  H131     1.0000 0.87941  0.06896  0.56967  Biso   1.000  H
  H132     1.0000 0.87945  0.06896  0.56967  Biso   1.000  H
  C131     1.0000 0.20143  0.22026  0.37788  Biso   1.000  C
  H133     1.0000 0.13523  0.26348  0.36597  Biso   1.000  H
  C132     1.0000 0.19201  0.16975  0.48197  Biso   1.000  C
  C133     1.0000 0.19206  0.16975  0.48197  Biso   1.000  C
  H134     1.0000 0.12104  0.18015  0.54005  Biso   1.000  H
  C134     1.0000 0.80972  0.95118  0.49875  Biso   1.000  C
  C135     1.0000 0.81585  0.03668  0.42234  Biso   1.000  C
  C136     1.0000 0.81583  0.03663  0.42234  Biso   1.000  C
  C137     1.0000 0.23612  0.23648  0.31508  Biso   1.000  C
  C138     1.0000 0.23617  0.23648  0.31508  Biso   1.000  C
  C139     1.0000 0.22086  0.18418  0.42234  Biso   1.000  C
  C140     1.0000 0.22081  0.18418  0.42234  Biso   1.000  C
  C141     1.0000 0.21225  0.13198  0.52937  Biso   1.000  C
  C142     1.0000 0.21222  0.13193  0.52937  Biso   1.000  C
  C143     1.0000 0.77421  0.89496  0.45466  Biso   1.000  C
  H135     1.0000 0.81983  0.94084  0.54005  Biso   1.000  H
  C144     1.0000 0.77975  0.98117  0.37788  Biso   1.000  C
  C145     1.0000 0.77971  0.98117  0.37788  Biso   1.000  C
  H136     1.0000 0.83072  0.08556  0.41095  Biso   1.000  H
  N42      1.0000 0.22771  0.27556  0.27558  Biso   1.000  N
  N43      1.0000 0.22776  0.27556  0.27558  Biso   1.000  N
  H137     1.0000 0.26594  0.21645  0.30416  Biso   1.000  H
  H138     1.0000 0.25483  0.16926  0.41095  Biso   1.000  H
  N44      1.0000 0.26051  0.11435  0.51618  Biso   1.000  N
  H139     1.0000 0.18952  0.12055  0.56967  Biso   1.000  H
  N45      1.0000 0.26056  0.11435  0.51618  Biso   1.000  N
  C146     1.0000 0.76012  0.91014  0.39564  Biso   1.000  C
  C147     1.0000 0.75291  0.81936  0.47347  Biso   1.000  C
  C148     1.0000 0.75296  0.81936  0.47347  Biso   1.000  C
  C149     1.0000 0.76355  0.99967  0.31508  Biso   1.000  C
  C150     1.0000 0.26593  0.28704  0.21495  Biso   1.000  C
  C151     1.0000 0.27924  0.07979  0.56736  Biso   1.000  C
  C152     1.0000 0.27921  0.07973  0.56736  Biso   1.000  C
  H140     1.0000 0.73656  0.87177  0.36597  Biso   1.000  H
  H141     1.0000 0.73651  0.87177  0.36597  Biso   1.000  H
  N46      1.0000 0.75856  0.80238  0.52975  Biso   1.000  N
  H142     1.0000 0.73452  0.78257  0.44214  Biso   1.000  H
  N47      1.0000 0.75849  0.80233  0.52975  Biso   1.000  N
  H143     1.0000 0.73456  0.78257  0.44214  Biso   1.000  H
  N48      1.0000 0.75853  0.80233  0.52975  Biso   1.000  N
  N49      1.0000 0.72443  0.95216  0.27558  Biso   1.000  N
  H144     1.0000 0.78355  0.04947  0.30416  Biso   1.000  H
  C153     1.0000 0.21232  0.26005  0.16066  Biso   1.000  C
  H145     1.0000 0.29352  0.26086  0.21519  Biso   1.000  H
  H146     1.0000 0.30096  0.33956  0.20928  Biso   1.000  H
  H147     1.0000 0.30091  0.33956  0.20928  Biso   1.000  H
  H148     1.0000 0.29356  0.26086  0.21519  Biso   1.000  H
  C154     1.0000 0.27431  0.01045  0.54118  Biso   1.000  C
  H149     1.0000 0.24505  0.06787  0.60318  Biso   1.000  H
  H150     1.0000 0.32925  0.11315  0.58276  Biso   1.000  H
  H151     1.0000 0.32920  0.11315  0.58276  Biso   1.000  H
  C155     1.0000 0.73612  0.72564  0.54118  Biso   1.000  C
  C156     1.0000 0.71295  0.97888  0.21495  Biso   1.000  C
  C157     1.0000 0.71292  0.97883  0.21495  Biso   1.000  C
  N50      1.0000 0.16843  0.18075  0.16264  Biso   1.000  N
  H152     1.0000 0.18024  0.28138  0.16359  Biso   1.000  H
  H153     1.0000 0.23902  0.27545  0.12007  Biso   1.000  H
  H154     1.0000 0.30200  0.02133  0.50116  Biso   1.000  H
  N51      1.0000 0.19764  0.95619  0.52975  Biso   1.000  N
  H155     1.0000 0.29574  0.99107  0.57166  Biso   1.000  H
  N52      1.0000 0.19762  0.95613  0.52975  Biso   1.000  N
  H156     1.0000 0.30203  0.02139  0.50116  Biso   1.000  H
  H157     1.0000 0.30208  0.02139  0.50116  Biso   1.000  H
  C158     1.0000 0.80051  0.72074  0.56736  Biso   1.000  C
  H158     1.0000 0.71933  0.69799  0.50116  Biso   1.000  H
  H159     1.0000 0.69531  0.70425  0.57166  Biso   1.000  H
  H160     1.0000 0.71930  0.69794  0.50116  Biso   1.000  H
  H161     1.0000 0.71938  0.69799  0.50116  Biso   1.000  H
  C159     1.0000 0.73994  0.95227  0.16066  Biso   1.000  C
  H162     1.0000 0.66045  0.96136  0.20928  Biso   1.000  H
  H163     1.0000 0.66040  0.96136  0.20928  Biso   1.000  H
  H164     1.0000 0.73913  0.03266  0.21519  Biso   1.000  H
  C160     1.0000 0.10262  0.15348  0.17616  Biso   1.000  C
  C161     1.0000 0.10266  0.15348  0.17616  Biso   1.000  C
  C162     1.0000 0.18062  0.93355  0.47347  Biso   1.000  C
  N53      1.0000 0.85385  0.73946  0.51618  Biso   1.000  N
  H165     1.0000 0.82286  0.75497  0.60318  Biso   1.000  H
  H166     1.0000 0.78392  0.67078  0.58276  Biso   1.000  H
  H167     1.0000 0.82281  0.75497  0.60318  Biso   1.000  H
  H168     1.0000 0.78397  0.67078  0.58276  Biso   1.000  H
  N54      1.0000 0.81924  0.98765  0.16264  Biso   1.000  N
  H169     1.0000 0.71862  0.89888  0.16359  Biso   1.000  H
  H170     1.0000 0.72454  0.96359  0.12007  Biso   1.000  H
  H171     1.0000 0.72451  0.96353  0.12007  Biso   1.000  H
  H172     1.0000 0.71867  0.89888  0.16359  Biso   1.000  H
  C163     1.0000 0.04974  0.07478  0.17786  Biso   1.000  C
  H173     1.0000 0.08534  0.18586  0.18608  Biso   1.000  H
  C164     1.0000 0.10504  0.87928  0.45466  Biso   1.000  C
  H174     1.0000 0.21744  0.95194  0.44214  Biso   1.000  H
  C165     1.0000 0.10501  0.87923  0.45466  Biso   1.000  C
  C166     1.0000 0.91970  0.78774  0.52937  Biso   1.000  C
  C167     1.0000 0.91975  0.78774  0.52937  Biso   1.000  C
  C168     1.0000 0.84652  0.94917  0.17616  Biso   1.000  C
  C169     1.0000 0.07425  0.02406  0.17894  Biso   1.000  C
  C170     1.0000 0.97593  0.05018  0.17894  Biso   1.000  C
  C171     1.0000 0.08980  0.84995  0.39564  Biso   1.000  C
  C172     1.0000 0.04881  0.85855  0.49875  Biso   1.000  C
  C173     1.0000 0.08985  0.84995  0.39564  Biso   1.000  C
  C174     1.0000 0.04885  0.85855  0.49875  Biso   1.000  C
  C175     1.0000 0.97776  0.80799  0.48197  Biso   1.000  C
  C176     1.0000 0.97773  0.80793  0.48197  Biso   1.000  C
  H175     1.0000 0.93103  0.81049  0.56967  Biso   1.000  H
  H176     1.0000 0.93100  0.81043  0.56967  Biso   1.000  H
  H177     1.0000 0.93107  0.81049  0.56967  Biso   1.000  H
  C177     1.0000 0.92522  0.97496  0.17786  Biso   1.000  C
  H178     1.0000 0.81413  0.89948  0.18608  Biso   1.000  H
  H179     1.0000 0.12493  0.04077  0.18036  Biso   1.000  H
  C178     1.0000 0.02504  0.95025  0.17786  Biso   1.000  C
  H180     1.0000 0.95921  0.08414  0.18036  Biso   1.000  H
  C179     1.0000 0.01882  0.79857  0.37788  Biso   1.000  C
  C180     1.0000 0.01886  0.79857  0.37788  Biso   1.000  C
  H181     1.0000 0.12822  0.86475  0.36597  Biso   1.000  H
  H182     1.0000 0.05915  0.87896  0.54005  Biso   1.000  H
  H183     1.0000 0.05911  0.87896  0.54005  Biso   1.000  H
  C181     1.0000 0.96333  0.77914  0.42234  Biso   1.000  C
  C182     1.0000 0.94983  0.92576  0.17894  Biso   1.000  C
  C183     1.0000 0.05082  0.89735  0.17616  Biso   1.000  C
  C184     1.0000 0.00032  0.76385  0.31508  Biso   1.000  C
  H184     1.0000 0.91444  0.74518  0.41095  Biso   1.000  H
  H185     1.0000 0.91586  0.87509  0.18036  Biso   1.000  H
  H186     1.0000 0.91584  0.87504  0.18036  Biso   1.000  H
  N55      1.0000 0.01231  0.83155  0.16264  Biso   1.000  N
  H187     1.0000 0.10052  0.91466  0.18608  Biso   1.000  H
  N56      1.0000 0.01235  0.83155  0.16264  Biso   1.000  N
  N57      1.0000 0.04786  0.77228  0.27558  Biso   1.000  N
  N58      1.0000 0.04783  0.77223  0.27558  Biso   1.000  N
  H188     1.0000 0.95056  0.73407  0.30416  Biso   1.000  H
  H189     1.0000 0.95051  0.73407  0.30416  Biso   1.000  H
  C185     1.0000 0.04774  0.78768  0.16066  Biso   1.000  C
  C186     1.0000 0.04771  0.78763  0.16066  Biso   1.000  C
  C187     1.0000 0.02112  0.73407  0.21495  Biso   1.000  C
  C188     1.0000 0.02117  0.73407  0.21495  Biso   1.000  C
  H190     1.0000 0.10114  0.81974  0.16359  Biso   1.000  H
  H191     1.0000 0.03645  0.76096  0.12007  Biso   1.000  H
  H192     1.0000 0.10109  0.81974  0.16359  Biso   1.000  H
  H193     1.0000 0.96735  0.70648  0.21519  Biso   1.000  H
  H194     1.0000 0.96733  0.70643  0.21519  Biso   1.000  H
  H195     1.0000 0.03864  0.69908  0.20928  Biso   1.000  H
  H196     1.0000 0.03861  0.69902  0.20928  Biso   1.000  H
  C189     1.0000 0.98954  0.26386  0.54118  Biso   1.000  C
  N59      1.0000 0.04382  0.24149  0.52975  Biso   1.000  N
  N60      1.0000 0.04379  0.24143  0.52975  Biso   1.000  N
  N61      1.0000 0.04387  0.24149  0.52975  Biso   1.000  N
  N62      1.0000 0.04384  0.24143  0.52975  Biso   1.000  N
  H197     1.0000 0.00896  0.30468  0.57166  Biso   1.000  H
  H198     1.0000 0.97862  0.28067  0.50116  Biso   1.000  H
  C190     1.0000 0.92025  0.19947  0.56736  Biso   1.000  C
  H199     1.0000 0.97867  0.28067  0.50116  Biso   1.000  H
  H200     1.0000 0.00891  0.30468  0.57166  Biso   1.000  H
  C191     1.0000 0.06647  0.24709  0.47347  Biso   1.000  C
  C192     1.0000 0.06639  0.24704  0.47347  Biso   1.000  C
  C193     1.0000 0.06644  0.24704  0.47347  Biso   1.000  C
  H201     1.0000 0.93214  0.17716  0.60318  Biso   1.000  H
  H202     1.0000 0.88683  0.21607  0.58276  Biso   1.000  H
  N63      1.0000 0.88564  0.14619  0.51618  Biso   1.000  N
  N64      1.0000 0.88561  0.14613  0.51618  Biso   1.000  N
  C194     1.0000 0.12075  0.22576  0.45466  Biso   1.000  C
  C195     1.0000 0.12070  0.22576  0.45466  Biso   1.000  C
  H203     1.0000 0.04804  0.26549  0.44214  Biso   1.000  H
  H204     1.0000 0.04802  0.26544  0.44214  Biso   1.000  H
  C196     1.0000 0.86805  0.08028  0.52937  Biso   1.000  C
  C197     1.0000 0.15005  0.23986  0.39564  Biso   1.000  C
  C198     1.0000 0.14142  0.19027  0.49875  Biso   1.000  C
  C199     1.0000 0.14147  0.19027  0.49875  Biso   1.000  C
  C200     1.0000 0.83023  0.02226  0.48197  Biso   1.000  C
  H205     1.0000 0.87941  0.06896  0.56967  Biso   1.000  H
  H206     1.0000 0.87945  0.06896  0.56967  Biso   1.000  H
  C201     1.0000 0.20143  0.22026  0.37788  Biso   1.000  C
  H207     1.0000 0.13523  0.26348  0.36597  Biso   1.000  H
  C202     1.0000 0.19201  0.16975  0.48197  Biso   1.000  C
  C203     1.0000 0.19206  0.16975  0.48197  Biso   1.000  C
  H208     1.0000 0.12104  0.18015  0.54005  Biso   1.000  H
  C204     1.0000 0.80972  0.95118  0.49875  Biso   1.000  C
  C205     1.0000 0.81585  0.03668  0.42234  Biso   1.000  C
  C206     1.0000 0.81583  0.03663  0.42234  Biso   1.000  C
  C207     1.0000 0.23612  0.23648  0.31508  Biso   1.000  C
  C208     1.0000 0.23617  0.23648  0.31508  Biso   1.000  C
  C209     1.0000 0.22086  0.18418  0.42234  Biso   1.000  C
  C210     1.0000 0.22081  0.18418  0.42234  Biso   1.000  C
  C211     1.0000 0.21225  0.13198  0.52937  Biso   1.000  C
  C212     1.0000 0.21222  0.13193  0.52937  Biso   1.000  C
  C213     1.0000 0.77421  0.89496  0.45466  Biso   1.000  C
  H209     1.0000 0.81983  0.94084  0.54005  Biso   1.000  H
  C214     1.0000 0.77975  0.98117  0.37788  Biso   1.000  C
  C215     1.0000 0.77971  0.98117  0.37788  Biso   1.000  C
  H210     1.0000 0.83072  0.08556  0.41095  Biso   1.000  H
  N65      1.0000 0.22771  0.27556  0.27558  Biso   1.000  N
  N66      1.0000 0.22776  0.27556  0.27558  Biso   1.000  N
  H211     1.0000 0.26594  0.21645  0.30416  Biso   1.000  H
  H212     1.0000 0.25483  0.16926  0.41095  Biso   1.000  H
  H213     1.0000 0.18952  0.12055  0.56967  Biso   1.000  H
  N67      1.0000 0.26051  0.11435  0.51618  Biso   1.000  N
  N68      1.0000 0.26056  0.11435  0.51618  Biso   1.000  N
  C216     1.0000 0.76012  0.91014  0.39564  Biso   1.000  C
  C217     1.0000 0.75291  0.81936  0.47347  Biso   1.000  C
  C218     1.0000 0.75296  0.81936  0.47347  Biso   1.000  C
  C219     1.0000 0.76355  0.99967  0.31508  Biso   1.000  C
  C220     1.0000 0.26593  0.28704  0.21495  Biso   1.000  C
  C221     1.0000 0.27924  0.07979  0.56736  Biso   1.000  C
  C222     1.0000 0.27921  0.07973  0.56736  Biso   1.000  C
  H214     1.0000 0.73656  0.87177  0.36597  Biso   1.000  H
  H215     1.0000 0.73651  0.87177  0.36597  Biso   1.000  H
  N69      1.0000 0.75856  0.80238  0.52975  Biso   1.000  N
  H216     1.0000 0.73452  0.78257  0.44214  Biso   1.000  H
  N70      1.0000 0.75849  0.80233  0.52975  Biso   1.000  N
  H217     1.0000 0.73456  0.78257  0.44214  Biso   1.000  H
  N71      1.0000 0.75853  0.80233  0.52975  Biso   1.000  N
  N72      1.0000 0.72443  0.95216  0.27558  Biso   1.000  N
  H218     1.0000 0.78355  0.04947  0.30416  Biso   1.000  H
  C223     1.0000 0.21232  0.26005  0.16066  Biso   1.000  C
  H219     1.0000 0.29352  0.26086  0.21519  Biso   1.000  H
  H220     1.0000 0.30096  0.33956  0.20928  Biso   1.000  H
  H221     1.0000 0.30091  0.33956  0.20928  Biso   1.000  H
  H222     1.0000 0.29356  0.26086  0.21519  Biso   1.000  H
  C224     1.0000 0.27431  0.01045  0.54118  Biso   1.000  C
  H223     1.0000 0.24505  0.06787  0.60318  Biso   1.000  H
  H224     1.0000 0.32925  0.11315  0.58276  Biso   1.000  H
  H225     1.0000 0.32920  0.11315  0.58276  Biso   1.000  H
  C225     1.0000 0.73612  0.72564  0.54118  Biso   1.000  C
  C226     1.0000 0.71295  0.97888  0.21495  Biso   1.000  C
  C227     1.0000 0.71292  0.97883  0.21495  Biso   1.000  C
  N73      1.0000 0.16843  0.18075  0.16264  Biso   1.000  N
  H226     1.0000 0.18024  0.28138  0.16359  Biso   1.000  H
  H227     1.0000 0.23902  0.27545  0.12007  Biso   1.000  H
  N74      1.0000 0.19764  0.95619  0.52975  Biso   1.000  N
  H228     1.0000 0.29574  0.99107  0.57166  Biso   1.000  H
  N75      1.0000 0.19762  0.95613  0.52975  Biso   1.000  N
  H229     1.0000 0.30203  0.02139  0.50116  Biso   1.000  H
  H230     1.0000 0.30200  0.02133  0.50116  Biso   1.000  H
  H231     1.0000 0.30208  0.02139  0.50116  Biso   1.000  H
  C228     1.0000 0.80051  0.72074  0.56736  Biso   1.000  C
  H232     1.0000 0.71933  0.69799  0.50116  Biso   1.000  H
  H233     1.0000 0.69531  0.70425  0.57166  Biso   1.000  H
  H234     1.0000 0.71930  0.69794  0.50116  Biso   1.000  H
  H235     1.0000 0.71938  0.69799  0.50116  Biso   1.000  H
  C229     1.0000 0.73994  0.95227  0.16066  Biso   1.000  C
  H236     1.0000 0.66045  0.96136  0.20928  Biso   1.000  H
  H237     1.0000 0.66040  0.96136  0.20928  Biso   1.000  H
  H238     1.0000 0.73913  0.03266  0.21519  Biso   1.000  H
  C230     1.0000 0.10262  0.15348  0.17616  Biso   1.000  C
  C231     1.0000 0.10266  0.15348  0.17616  Biso   1.000  C
  C232     1.0000 0.18062  0.93355  0.47347  Biso   1.000  C
  N76      1.0000 0.85385  0.73946  0.51618  Biso   1.000  N
  H239     1.0000 0.82286  0.75497  0.60318  Biso   1.000  H
  H240     1.0000 0.78392  0.67078  0.58276  Biso   1.000  H
  H241     1.0000 0.82281  0.75497  0.60318  Biso   1.000  H
  H242     1.0000 0.78397  0.67078  0.58276  Biso   1.000  H
  N77      1.0000 0.81924  0.98765  0.16264  Biso   1.000  N
  H243     1.0000 0.71862  0.89888  0.16359  Biso   1.000  H
  H244     1.0000 0.72454  0.96359  0.12007  Biso   1.000  H
  H245     1.0000 0.72451  0.96353  0.12007  Biso   1.000  H
  H246     1.0000 0.71867  0.89888  0.16359  Biso   1.000  H
  C233     1.0000 0.04974  0.07478  0.17786  Biso   1.000  C
  H247     1.0000 0.08534  0.18586  0.18608  Biso   1.000  H
  C234     1.0000 0.10504  0.87928  0.45466  Biso   1.000  C
  H248     1.0000 0.21744  0.95194  0.44214  Biso   1.000  H
  C235     1.0000 0.10501  0.87923  0.45466  Biso   1.000  C
  C236     1.0000 0.91970  0.78774  0.52937  Biso   1.000  C
  C237     1.0000 0.91975  0.78774  0.52937  Biso   1.000  C
  C238     1.0000 0.84652  0.94917  0.17616  Biso   1.000  C
  C239     1.0000 0.07425  0.02406  0.17894  Biso   1.000  C
  C240     1.0000 0.97593  0.05018  0.17894  Biso   1.000  C
  C241     1.0000 0.08980  0.84995  0.39564  Biso   1.000  C
  C242     1.0000 0.04881  0.85855  0.49875  Biso   1.000  C
  C243     1.0000 0.08985  0.84995  0.39564  Biso   1.000  C
  C244     1.0000 0.04885  0.85855  0.49875  Biso   1.000  C
  C245     1.0000 0.97776  0.80799  0.48197  Biso   1.000  C
  C246     1.0000 0.97773  0.80793  0.48197  Biso   1.000  C
  H249     1.0000 0.93103  0.81049  0.56967  Biso   1.000  H
  H250     1.0000 0.93100  0.81043  0.56967  Biso   1.000  H
  H251     1.0000 0.93107  0.81049  0.56967  Biso   1.000  H
  C247     1.0000 0.92522  0.97496  0.17786  Biso   1.000  C
  H252     1.0000 0.81413  0.89948  0.18608  Biso   1.000  H
  H253     1.0000 0.12493  0.04077  0.18036  Biso   1.000  H
  C248     1.0000 0.02504  0.95025  0.17786  Biso   1.000  C
  H254     1.0000 0.95921  0.08414  0.18036  Biso   1.000  H
  C249     1.0000 0.01882  0.79857  0.37788  Biso   1.000  C
  C250     1.0000 0.01886  0.79857  0.37788  Biso   1.000  C
  H255     1.0000 0.12822  0.86475  0.36597  Biso   1.000  H
  H256     1.0000 0.05915  0.87896  0.54005  Biso   1.000  H
  H257     1.0000 0.05911  0.87896  0.54005  Biso   1.000  H
  C251     1.0000 0.96333  0.77914  0.42234  Biso   1.000  C
  C252     1.0000 0.94983  0.92576  0.17894  Biso   1.000  C
  C253     1.0000 0.05082  0.89735  0.17616  Biso   1.000  C
  C254     1.0000 0.00032  0.76385  0.31508  Biso   1.000  C
  H258     1.0000 0.91444  0.74518  0.41095  Biso   1.000  H
  H259     1.0000 0.91586  0.87509  0.18036  Biso   1.000  H
  H260     1.0000 0.91584  0.87504  0.18036  Biso   1.000  H
  N78      1.0000 0.01231  0.83155  0.16264  Biso   1.000  N
  H261     1.0000 0.10052  0.91466  0.18608  Biso   1.000  H
  N79      1.0000 0.01235  0.83155  0.16264  Biso   1.000  N
  N80      1.0000 0.04786  0.77228  0.27558  Biso   1.000  N
  N81      1.0000 0.04783  0.77223  0.27558  Biso   1.000  N
  H262     1.0000 0.95056  0.73407  0.30416  Biso   1.000  H
  H263     1.0000 0.95051  0.73407  0.30416  Biso   1.000  H
  C255     1.0000 0.04774  0.78768  0.16066  Biso   1.000  C
  C256     1.0000 0.04771  0.78763  0.16066  Biso   1.000  C
  C257     1.0000 0.02112  0.73407  0.21495  Biso   1.000  C
  C258     1.0000 0.02117  0.73407  0.21495  Biso   1.000  C
  H264     1.0000 0.10114  0.81974  0.16359  Biso   1.000  H
  H265     1.0000 0.03645  0.76096  0.12007  Biso   1.000  H
  H266     1.0000 0.10109  0.81974  0.16359  Biso   1.000  H
  H267     1.0000 0.96735  0.70648  0.21519  Biso   1.000  H
  H268     1.0000 0.96733  0.70643  0.21519  Biso   1.000  H
  H269     1.0000 0.03864  0.69908  0.20928  Biso   1.000  H
  H270     1.0000 0.03861  0.69902  0.20928  Biso   1.000  H
  C259     1.0000 0.98954  0.26386  0.54118  Biso   1.000  C
  N82      1.0000 0.04382  0.24149  0.52975  Biso   1.000  N
  N83      1.0000 0.04379  0.24143  0.52975  Biso   1.000  N
  N84      1.0000 0.04387  0.24149  0.52975  Biso   1.000  N
  N85      1.0000 0.04384  0.24143  0.52975  Biso   1.000  N
  H271     1.0000 0.97862  0.28067  0.50116  Biso   1.000  H
  C260     1.0000 0.92025  0.19947  0.56736  Biso   1.000  C
  H272     1.0000 0.97867  0.28067  0.50116  Biso   1.000  H
  H273     1.0000 0.00896  0.30468  0.57166  Biso   1.000  H
  H274     1.0000 0.00891  0.30468  0.57166  Biso   1.000  H
  C261     1.0000 0.06647  0.24709  0.47347  Biso   1.000  C
  C262     1.0000 0.06639  0.24704  0.47347  Biso   1.000  C
  C263     1.0000 0.06644  0.24704  0.47347  Biso   1.000  C
  H275     1.0000 0.93214  0.17716  0.60318  Biso   1.000  H
  H276     1.0000 0.88683  0.21607  0.58276  Biso   1.000  H
  N86      1.0000 0.88564  0.14619  0.51618  Biso   1.000  N
  N87      1.0000 0.88561  0.14613  0.51618  Biso   1.000  N
  C264     1.0000 0.12075  0.22576  0.45466  Biso   1.000  C
  C265     1.0000 0.12070  0.22576  0.45466  Biso   1.000  C
  H277     1.0000 0.04804  0.26549  0.44214  Biso   1.000  H
  H278     1.0000 0.04802  0.26544  0.44214  Biso   1.000  H
  C266     1.0000 0.86805  0.08028  0.52937  Biso   1.000  C
  C267     1.0000 0.15005  0.23986  0.39564  Biso   1.000  C
  C268     1.0000 0.14142  0.19027  0.49875  Biso   1.000  C
  C269     1.0000 0.14147  0.19027  0.49875  Biso   1.000  C
  C270     1.0000 0.83023  0.02226  0.48197  Biso   1.000  C
  H279     1.0000 0.87941  0.06896  0.56967  Biso   1.000  H
  H280     1.0000 0.87945  0.06896  0.56967  Biso   1.000  H
  C271     1.0000 0.20143  0.22026  0.37788  Biso   1.000  C
  H281     1.0000 0.13523  0.26348  0.36597  Biso   1.000  H
  C272     1.0000 0.19201  0.16975  0.48197  Biso   1.000  C
  C273     1.0000 0.19206  0.16975  0.48197  Biso   1.000  C
  H282     1.0000 0.12104  0.18015  0.54005  Biso   1.000  H
  C274     1.0000 0.80972  0.95118  0.49875  Biso   1.000  C
  C275     1.0000 0.81585  0.03668  0.42234  Biso   1.000  C
  C276     1.0000 0.81583  0.03663  0.42234  Biso   1.000  C
  C277     1.0000 0.23612  0.23648  0.31508  Biso   1.000  C
  C278     1.0000 0.23617  0.23648  0.31508  Biso   1.000  C
  C279     1.0000 0.22086  0.18418  0.42234  Biso   1.000  C
  C280     1.0000 0.22081  0.18418  0.42234  Biso   1.000  C
  C281     1.0000 0.21225  0.13198  0.52937  Biso   1.000  C
  C282     1.0000 0.21222  0.13193  0.52937  Biso   1.000  C
  C283     1.0000 0.77421  0.89496  0.45466  Biso   1.000  C
  H283     1.0000 0.81983  0.94084  0.54005  Biso   1.000  H
  C284     1.0000 0.77975  0.98117  0.37788  Biso   1.000  C
  C285     1.0000 0.77971  0.98117  0.37788  Biso   1.000  C
  H284     1.0000 0.83072  0.08556  0.41095  Biso   1.000  H
  N88      1.0000 0.22771  0.27556  0.27558  Biso   1.000  N
  N89      1.0000 0.22776  0.27556  0.27558  Biso   1.000  N
  H285     1.0000 0.26594  0.21645  0.30416  Biso   1.000  H
  H286     1.0000 0.25483  0.16926  0.41095  Biso   1.000  H
  H287     1.0000 0.18952  0.12055  0.56967  Biso   1.000  H
  N90      1.0000 0.26051  0.11435  0.51618  Biso   1.000  N
  N91      1.0000 0.26056  0.11435  0.51618  Biso   1.000  N
  C286     1.0000 0.76012  0.91014  0.39564  Biso   1.000  C
  C287     1.0000 0.75291  0.81936  0.47347  Biso   1.000  C
  C288     1.0000 0.75296  0.81936  0.47347  Biso   1.000  C
  C289     1.0000 0.76355  0.99967  0.31508  Biso   1.000  C
  C290     1.0000 0.26593  0.28704  0.21495  Biso   1.000  C
  C291     1.0000 0.27924  0.07979  0.56736  Biso   1.000  C
  C292     1.0000 0.27921  0.07973  0.56736  Biso   1.000  C
  H288     1.0000 0.73656  0.87177  0.36597  Biso   1.000  H
  H289     1.0000 0.73651  0.87177  0.36597  Biso   1.000  H
  N92      1.0000 0.75856  0.80238  0.52975  Biso   1.000  N
  H290     1.0000 0.73452  0.78257  0.44214  Biso   1.000  H
  N93      1.0000 0.75849  0.80233  0.52975  Biso   1.000  N
  H291     1.0000 0.73456  0.78257  0.44214  Biso   1.000  H
  N94      1.0000 0.75853  0.80233  0.52975  Biso   1.000  N
  N95      1.0000 0.72443  0.95216  0.27558  Biso   1.000  N
  H292     1.0000 0.78355  0.04947  0.30416  Biso   1.000  H
  C293     1.0000 0.21232  0.26005  0.16066  Biso   1.000  C
  H293     1.0000 0.29352  0.26086  0.21519  Biso   1.000  H
  H294     1.0000 0.30096  0.33956  0.20928  Biso   1.000  H
  H295     1.0000 0.30091  0.33956  0.20928  Biso   1.000  H
  H296     1.0000 0.29356  0.26086  0.21519  Biso   1.000  H
  C294     1.0000 0.27431  0.01045  0.54118  Biso   1.000  C
  H297     1.0000 0.24505  0.06787  0.60318  Biso   1.000  H
  H298     1.0000 0.32925  0.11315  0.58276  Biso   1.000  H
  H299     1.0000 0.32920  0.11315  0.58276  Biso   1.000  H
  C295     1.0000 0.73612  0.72564  0.54118  Biso   1.000  C
  C296     1.0000 0.71295  0.97888  0.21495  Biso   1.000  C
  C297     1.0000 0.71292  0.97883  0.21495  Biso   1.000  C
  N96      1.0000 0.16843  0.18075  0.16264  Biso   1.000  N
  H300     1.0000 0.18024  0.28138  0.16359  Biso   1.000  H
  H301     1.0000 0.23902  0.27545  0.12007  Biso   1.000  H
  N97      1.0000 0.19764  0.95619  0.52975  Biso   1.000  N
  H302     1.0000 0.29574  0.99107  0.57166  Biso   1.000  H
  N98      1.0000 0.19762  0.95613  0.52975  Biso   1.000  N
  H303     1.0000 0.30203  0.02139  0.50116  Biso   1.000  H
  H304     1.0000 0.30200  0.02133  0.50116  Biso   1.000  H
  H305     1.0000 0.30208  0.02139  0.50116  Biso   1.000  H
  C298     1.0000 0.80051  0.72074  0.56736  Biso   1.000  C
  H306     1.0000 0.71933  0.69799  0.50116  Biso   1.000  H
  H307     1.0000 0.69531  0.70425  0.57166  Biso   1.000  H
  H308     1.0000 0.71930  0.69794  0.50116  Biso   1.000  H
  H309     1.0000 0.71938  0.69799  0.50116  Biso   1.000  H
  C299     1.0000 0.73994  0.95227  0.16066  Biso   1.000  C
  H310     1.0000 0.66045  0.96136  0.20928  Biso   1.000  H
  H311     1.0000 0.66040  0.96136  0.20928  Biso   1.000  H
  H312     1.0000 0.73913  0.03266  0.21519  Biso   1.000  H
  C300     1.0000 0.10262  0.15348  0.17616  Biso   1.000  C
  C301     1.0000 0.10266  0.15348  0.17616  Biso   1.000  C
  C302     1.0000 0.18062  0.93355  0.47347  Biso   1.000  C
  N99      1.0000 0.85385  0.73946  0.51618  Biso   1.000  N
  H313     1.0000 0.82286  0.75497  0.60318  Biso   1.000  H
  H314     1.0000 0.78392  0.67078  0.58276  Biso   1.000  H
  H315     1.0000 0.82281  0.75497  0.60318  Biso   1.000  H
  H316     1.0000 0.78397  0.67078  0.58276  Biso   1.000  H
  N100     1.0000 0.81924  0.98765  0.16264  Biso   1.000  N
  H317     1.0000 0.71862  0.89888  0.16359  Biso   1.000  H
  H318     1.0000 0.72454  0.96359  0.12007  Biso   1.000  H
  H319     1.0000 0.72451  0.96353  0.12007  Biso   1.000  H
  H320     1.0000 0.71867  0.89888  0.16359  Biso   1.000  H
  C303     1.0000 0.04974  0.07478  0.17786  Biso   1.000  C
  H321     1.0000 0.08534  0.18586  0.18608  Biso   1.000  H
  C304     1.0000 0.10504  0.87928  0.45466  Biso   1.000  C
  H322     1.0000 0.21744  0.95194  0.44214  Biso   1.000  H
  C305     1.0000 0.10501  0.87923  0.45466  Biso   1.000  C
  C306     1.0000 0.91970  0.78774  0.52937  Biso   1.000  C
  C307     1.0000 0.91975  0.78774  0.52937  Biso   1.000  C
  C308     1.0000 0.84652  0.94917  0.17616  Biso   1.000  C
  C309     1.0000 0.07425  0.02406  0.17894  Biso   1.000  C
  C310     1.0000 0.97593  0.05018  0.17894  Biso   1.000  C
  C311     1.0000 0.08980  0.84995  0.39564  Biso   1.000  C
  C312     1.0000 0.04881  0.85855  0.49875  Biso   1.000  C
  C313     1.0000 0.08985  0.84995  0.39564  Biso   1.000  C
  C314     1.0000 0.04885  0.85855  0.49875  Biso   1.000  C
  C315     1.0000 0.97776  0.80799  0.48197  Biso   1.000  C
  C316     1.0000 0.97773  0.80793  0.48197  Biso   1.000  C
  H323     1.0000 0.93103  0.81049  0.56967  Biso   1.000  H
  H324     1.0000 0.93100  0.81043  0.56967  Biso   1.000  H
  H325     1.0000 0.93107  0.81049  0.56967  Biso   1.000  H
  C317     1.0000 0.92522  0.97496  0.17786  Biso   1.000  C
  H326     1.0000 0.81413  0.89948  0.18608  Biso   1.000  H
  H327     1.0000 0.12493  0.04077  0.18036  Biso   1.000  H
  C318     1.0000 0.02504  0.95025  0.17786  Biso   1.000  C
  H328     1.0000 0.95921  0.08414  0.18036  Biso   1.000  H
  C319     1.0000 0.01882  0.79857  0.37788  Biso   1.000  C
  C320     1.0000 0.01886  0.79857  0.37788  Biso   1.000  C
  H329     1.0000 0.12822  0.86475  0.36597  Biso   1.000  H
  H330     1.0000 0.05915  0.87896  0.54005  Biso   1.000  H
  H331     1.0000 0.05911  0.87896  0.54005  Biso   1.000  H
  C321     1.0000 0.96333  0.77914  0.42234  Biso   1.000  C
  C322     1.0000 0.94983  0.92576  0.17894  Biso   1.000  C
  C323     1.0000 0.05082  0.89735  0.17616  Biso   1.000  C
  C324     1.0000 0.00032  0.76385  0.31508  Biso   1.000  C
  H332     1.0000 0.91444  0.74518  0.41095  Biso   1.000  H
  H333     1.0000 0.91586  0.87509  0.18036  Biso   1.000  H
  H334     1.0000 0.91584  0.87504  0.18036  Biso   1.000  H
  N101     1.0000 0.01231  0.83155  0.16264  Biso   1.000  N
  H335     1.0000 0.10052  0.91466  0.18608  Biso   1.000  H
  N102     1.0000 0.01235  0.83155  0.16264  Biso   1.000  N
  N103     1.0000 0.04786  0.77228  0.27558  Biso   1.000  N
  N104     1.0000 0.04783  0.77223  0.27558  Biso   1.000  N
  H336     1.0000 0.95056  0.73407  0.30416  Biso   1.000  H
  H337     1.0000 0.95051  0.73407  0.30416  Biso   1.000  H
  C325     1.0000 0.04774  0.78768  0.16066  Biso   1.000  C
  C326     1.0000 0.04771  0.78763  0.16066  Biso   1.000  C
  C327     1.0000 0.02112  0.73407  0.21495  Biso   1.000  C
  C328     1.0000 0.02117  0.73407  0.21495  Biso   1.000  C
  H338     1.0000 0.10114  0.81974  0.16359  Biso   1.000  H
  H339     1.0000 0.03645  0.76096  0.12007  Biso   1.000  H
  H340     1.0000 0.10109  0.81974  0.16359  Biso   1.000  H
  H341     1.0000 0.96735  0.70648  0.21519  Biso   1.000  H
  H342     1.0000 0.96733  0.70643  0.21519  Biso   1.000  H
  H343     1.0000 0.03864  0.69908  0.20928  Biso   1.000  H
  H344     1.0000 0.03861  0.69902  0.20928  Biso   1.000  H
  C329     1.0000 0.37960  0.31219  0.54832  Biso   1.000  C
  C330     1.0000 0.40662  0.28563  0.49398  Biso   1.000  C
  N105     1.0000 0.39111  0.28552  0.60889  Biso   1.000  N
  H345     1.0000 0.40581  0.36601  0.54850  Biso   1.000  H
  H346     1.0000 0.32713  0.29472  0.54260  Biso   1.000  H
  N106     1.0000 0.48592  0.32100  0.49596  Biso   1.000  N
  H347     1.0000 0.38527  0.23218  0.49690  Biso   1.000  H
  H348     1.0000 0.39119  0.29689  0.45339  Biso   1.000  H
  C331     1.0000 0.43020  0.33298  0.64840  Biso   1.000  C
  C332     1.0000 0.51320  0.28253  0.50947  Biso   1.000  C
  H349     1.0000 0.45020  0.38278  0.63748  Biso   1.000  H
  C333     1.0000 0.44643  0.31453  0.71119  Biso   1.000  C
  C334     1.0000 0.59190  0.30832  0.51118  Biso   1.000  C
  H350     1.0000 0.48078  0.23278  0.51940  Biso   1.000  H
  C335     1.0000 0.42680  0.24350  0.72901  Biso   1.000  C
  C336     1.0000 0.48251  0.36999  0.75571  Biso   1.000  C
  C337     1.0000 0.64258  0.38349  0.51231  Biso   1.000  C
  C338     1.0000 0.61650  0.25912  0.51231  Biso   1.000  C
  H351     1.0000 0.40321  0.20508  0.69929  Biso   1.000  H
  C339     1.0000 0.44089  0.22832  0.78798  Biso   1.000  C
  C340     1.0000 0.49691  0.35562  0.81529  Biso   1.000  C
  H352     1.0000 0.49740  0.41892  0.74427  Biso   1.000  H
  H353     1.0000 0.62589  0.41750  0.51368  Biso   1.000  H
  C341     1.0000 0.71639  0.40809  0.51118  Biso   1.000  C
  H354     1.0000 0.58252  0.20840  0.51368  Biso   1.000  H
  C342     1.0000 0.69172  0.28361  0.51118  Biso   1.000  C
  C343     1.0000 0.47638  0.28448  0.83211  Biso   1.000  C
  C344     1.0000 0.41959  0.15272  0.80679  Biso   1.000  C
  C345     1.0000 0.53470  0.41358  0.86268  Biso   1.000  C
  C346     1.0000 0.76932  0.48679  0.50947  Biso   1.000  C
  C347     1.0000 0.74092  0.35742  0.51231  Biso   1.000  C
  C348     1.0000 0.71750  0.23071  0.50947  Biso   1.000  C
  H355     1.0000 0.48651  0.27420  0.87341  Biso   1.000  H
  N107     1.0000 0.42521  0.13568  0.86311  Biso   1.000  N
  H356     1.0000 0.40120  0.11593  0.77550  Biso   1.000  H
  N108     1.0000 0.55229  0.47949  0.84950  Biso   1.000  N
  H357     1.0000 0.54613  0.40232  0.90299  Biso   1.000  H
  N109     1.0000 0.83511  0.51411  0.49596  Biso   1.000  N
  H358     1.0000 0.75202  0.51922  0.51940  Biso   1.000  H
  H359     1.0000 0.79161  0.37412  0.51368  Biso   1.000  H
  N110     1.0000 0.67903  0.16491  0.49596  Biso   1.000  N
  H360     1.0000 0.76720  0.24802  0.51940  Biso   1.000  H
  C349     1.0000 0.40280  0.05900  0.87450  Biso   1.000  C
  C350     1.0000 0.58693  0.53283  0.90068  Biso   1.000  C
  C351     1.0000 0.87900  0.59341  0.49398  Biso   1.000  C
  C352     1.0000 0.71439  0.12099  0.49398  Biso   1.000  C
  H361     1.0000 0.38598  0.03129  0.83448  Biso   1.000  H
  H362     1.0000 0.36199  0.03761  0.90498  Biso   1.000  H
  C353     1.0000 0.46719  0.05410  0.90068  Biso   1.000  C
  C354     1.0000 0.65622  0.59722  0.87450  Biso   1.000  C
  H363     1.0000 0.59882  0.51052  0.93649  Biso   1.000  H
  H364     1.0000 0.55351  0.54943  0.91608  Biso   1.000  H
  H365     1.0000 0.84689  0.61469  0.49690  Biso   1.000  H
  H366     1.0000 0.90570  0.60881  0.45339  Biso   1.000  H
  C355     1.0000 0.93261  0.62040  0.54832  Biso   1.000  C
  H367     1.0000 0.76782  0.15310  0.49690  Biso   1.000  H
  H368     1.0000 0.70313  0.09432  0.45339  Biso   1.000  H
  C356     1.0000 0.68782  0.06738  0.54832  Biso   1.000  C
  N111     1.0000 0.52053  0.07282  0.84950  Biso   1.000  N
  H369     1.0000 0.48951  0.08828  0.93649  Biso   1.000  H
  H370     1.0000 0.45062  0.00408  0.91608  Biso   1.000  H
  N112     1.0000 0.71052  0.57479  0.86311  Biso   1.000  N
  H371     1.0000 0.64527  0.61398  0.83448  Biso   1.000  H
  H372     1.0000 0.67561  0.63798  0.90498  Biso   1.000  H
  N113     1.0000 0.89439  0.60892  0.60889  Biso   1.000  N
  H373     1.0000 0.96020  0.59422  0.54850  Biso   1.000  H
  H374     1.0000 0.96764  0.67292  0.54260  Biso   1.000  H
  N114     1.0000 0.71451  0.10559  0.60889  Biso   1.000  N
  H375     1.0000 0.63400  0.03979  0.54850  Biso   1.000  H
  H376     1.0000 0.70529  0.03238  0.54260  Biso   1.000  H
  C357     1.0000 0.58643  0.12110  0.86268  Biso   1.000  C
  C358     1.0000 0.73312  0.58040  0.80679  Biso   1.000  C
  C359     1.0000 0.90278  0.56979  0.64840  Biso   1.000  C
  C360     1.0000 0.66700  0.09720  0.64840  Biso   1.000  C
  C361     1.0000 0.64441  0.14129  0.81529  Biso   1.000  C
  H377     1.0000 0.59768  0.14379  0.90299  Biso   1.000  H
  C362     1.0000 0.78743  0.55912  0.78798  Biso   1.000  C
  H378     1.0000 0.71470  0.59879  0.77550  Biso   1.000  H
  H379     1.0000 0.93262  0.54981  0.63748  Biso   1.000  H
  C363     1.0000 0.86811  0.55362  0.71119  Biso   1.000  C
  H380     1.0000 0.61721  0.06738  0.63748  Biso   1.000  H
  C364     1.0000 0.68550  0.13193  0.71119  Biso   1.000  C
  C365     1.0000 0.63001  0.11250  0.75571  Biso   1.000  C
  C366     1.0000 0.71549  0.19191  0.83211  Biso   1.000  C
  C367     1.0000 0.81673  0.57321  0.72901  Biso   1.000  C
  C368     1.0000 0.80810  0.52363  0.83211  Biso   1.000  C
  C369     1.0000 0.88751  0.51748  0.75571  Biso   1.000  C
  C370     1.0000 0.75653  0.18331  0.72901  Biso   1.000  C
  H381     1.0000 0.58110  0.07848  0.74427  Biso   1.000  H
  C371     1.0000 0.77169  0.21259  0.78798  Biso   1.000  C
  H382     1.0000 0.72583  0.21232  0.87341  Biso   1.000  H
  H383     1.0000 0.80188  0.59678  0.69929  Biso   1.000  H
  C372     1.0000 0.85869  0.50311  0.81529  Biso   1.000  C
  H384     1.0000 0.78772  0.51351  0.87341  Biso   1.000  H
  H385     1.0000 0.92151  0.50262  0.74427  Biso   1.000  H
  H386     1.0000 0.79490  0.19811  0.69929  Biso   1.000  H
  C373     1.0000 0.84730  0.26690  0.80679  Biso   1.000  C
  C374     1.0000 0.87890  0.46529  0.86268  Biso   1.000  C
  N115     1.0000 0.86430  0.28949  0.86311  Biso   1.000  N
  H387     1.0000 0.88412  0.28530  0.77550  Biso   1.000  H
  N116     1.0000 0.92719  0.44771  0.84950  Biso   1.000  N
  H388     1.0000 0.85620  0.45391  0.90299  Biso   1.000  H
  C375     1.0000 0.94099  0.34381  0.87450  Biso   1.000  C
  C376     1.0000 0.94589  0.41309  0.90068  Biso   1.000  C
  H389     1.0000 0.96868  0.35469  0.83448  Biso   1.000  H
  H390     1.0000 0.96239  0.32438  0.90498  Biso   1.000  H
  H391     1.0000 0.91173  0.40123  0.93649  Biso   1.000  H
  H392     1.0000 0.99593  0.44651  0.91608  Biso   1.000  H
  C377     1.0000 0.13387  0.38746  0.23404  Biso   1.000  C
  N117     1.0000 0.18718  0.40613  0.18282  Biso   1.000  N
  C378     1.0000 0.06948  0.39236  0.20782  Biso   1.000  C
  H393     1.0000 0.15619  0.42164  0.26981  Biso   1.000  H
  H394     1.0000 0.11725  0.33744  0.24944  Biso   1.000  H
  C379     1.0000 0.25306  0.45446  0.19605  Biso   1.000  C
  N118     1.0000 0.09189  0.46904  0.19643  Biso   1.000  N
  H395     1.0000 0.05266  0.36465  0.16784  Biso   1.000  H
  H396     1.0000 0.02864  0.37091  0.23834  Biso   1.000  H
  C380     1.0000 0.31109  0.47465  0.14861  Biso   1.000  C
  H397     1.0000 0.26436  0.47715  0.23631  Biso   1.000  H
  C381     1.0000 0.08624  0.48602  0.14015  Biso   1.000  C
  C382     1.0000 0.38216  0.52526  0.16543  Biso   1.000  C
  C383     1.0000 0.29669  0.44586  0.08902  Biso   1.000  C
  C384     1.0000 0.10755  0.56162  0.12134  Biso   1.000  C
  H398     1.0000 0.06785  0.44923  0.10882  Biso   1.000  H
  C385     1.0000 0.43837  0.54595  0.12134  Biso   1.000  C
  H399     1.0000 0.39248  0.54562  0.20673  Biso   1.000  H
  C386     1.0000 0.35215  0.46523  0.04451  Biso   1.000  C
  H400     1.0000 0.24778  0.41184  0.07764  Biso   1.000  H
  C387     1.0000 0.09348  0.57686  0.06233  Biso   1.000  C
  C388     1.0000 0.14306  0.61784  0.16543  Biso   1.000  C
  C389     1.0000 0.42316  0.51667  0.06233  Biso   1.000  C
  C390     1.0000 0.51398  0.60026  0.14015  Biso   1.000  C
  C391     1.0000 0.33368  0.43056  0.98171  Biso   1.000  C
  C392     1.0000 0.11308  0.64783  0.04451  Biso   1.000  C
  H401     1.0000 0.06989  0.53844  0.03265  Biso   1.000  H
  H402     1.0000 0.15318  0.60756  0.20673  Biso   1.000  H
  C393     1.0000 0.16356  0.68892  0.14861  Biso   1.000  C
  H403     1.0000 0.46155  0.53141  0.03265  Biso   1.000  H
  N119     1.0000 0.53098  0.62285  0.19643  Biso   1.000  N
  H404     1.0000 0.55080  0.61866  0.10882  Biso   1.000  H
  N120     1.0000 0.38119  0.43895  0.94221  Biso   1.000  N
  H405     1.0000 0.28389  0.40074  0.97085  Biso   1.000  H
  C394     1.0000 0.14918  0.70335  0.08902  Biso   1.000  C
  C395     1.0000 0.09688  0.66634  0.98171  Biso   1.000  C
  C396     1.0000 0.20138  0.74694  0.19605  Biso   1.000  C
  C397     1.0000 0.60765  0.67711  0.20782  Biso   1.000  C
  C398     1.0000 0.35445  0.40074  0.88163  Biso   1.000  C
  H406     1.0000 0.16405  0.75222  0.07764  Biso   1.000  H
  N121     1.0000 0.05776  0.61882  0.94221  Biso   1.000  N
  H407     1.0000 0.11688  0.71614  0.97085  Biso   1.000  H
  N122     1.0000 0.21897  0.81285  0.18282  Biso   1.000  N
  H408     1.0000 0.21274  0.73562  0.23631  Biso   1.000  H
  H409     1.0000 0.63536  0.68805  0.16784  Biso   1.000  H
  H410     1.0000 0.62907  0.65774  0.23834  Biso   1.000  H
  C399     1.0000 0.61257  0.74645  0.23404  Biso   1.000  C
  C400     1.0000 0.38107  0.45435  0.82734  Biso   1.000  C
  H411     1.0000 0.30068  0.37314  0.88182  Biso   1.000  H
  H412     1.0000 0.37197  0.36574  0.87592  Biso   1.000  H
  C401     1.0000 0.04628  0.64555  0.88163  Biso   1.000  C
  C402     1.0000 0.25358  0.86613  0.23404  Biso   1.000  C
  N123     1.0000 0.59387  0.78107  0.18282  Biso   1.000  N
  H413     1.0000 0.57838  0.73453  0.26981  Biso   1.000  H
  H414     1.0000 0.66258  0.77981  0.24944  Biso   1.000  H
  N124     1.0000 0.34564  0.49821  0.82932  Biso   1.000  N
  H415     1.0000 0.43450  0.48646  0.83022  Biso   1.000  H
  H416     1.0000 0.36978  0.42762  0.78675  Biso   1.000  H
  H417     1.0000 0.99378  0.62802  0.87592  Biso   1.000  H
  C403     1.0000 0.07328  0.61893  0.82734  Biso   1.000  C
  H418     1.0000 0.07246  0.69932  0.88182  Biso   1.000  H
  C404     1.0000 0.32287  0.93052  0.20782  Biso   1.000  C
  H419     1.0000 0.26547  0.84382  0.26981  Biso   1.000  H
  H420     1.0000 0.22017  0.88273  0.24944  Biso   1.000  H
  C405     1.0000 0.54558  0.79865  0.19605  Biso   1.000  C
  C406     1.0000 0.38415  0.56402  0.84284  Biso   1.000  C
  N125     1.0000 0.15260  0.65436  0.82932  Biso   1.000  N
  H421     1.0000 0.05195  0.56554  0.83022  Biso   1.000  H
  H422     1.0000 0.05787  0.63025  0.78675  Biso   1.000  H
  N126     1.0000 0.37715  0.90815  0.19643  Biso   1.000  N
  H423     1.0000 0.31195  0.94734  0.16784  Biso   1.000  H
  H424     1.0000 0.34229  0.97134  0.23834  Biso   1.000  H
  C407     1.0000 0.52534  0.83642  0.14861  Biso   1.000  C
  H425     1.0000 0.52285  0.78722  0.23631  Biso   1.000  H
  C408     1.0000 0.35837  0.61692  0.84454  Biso   1.000  C
  H426     1.0000 0.43386  0.58132  0.85271  Biso   1.000  H
  C409     1.0000 0.17985  0.61583  0.84284  Biso   1.000  C
  C410     1.0000 0.39980  0.91376  0.14015  Biso   1.000  C
  C411     1.0000 0.47475  0.85694  0.16543  Biso   1.000  C
  C412     1.0000 0.55419  0.85084  0.08902  Biso   1.000  C
  C413     1.0000 0.28316  0.59243  0.84563  Biso   1.000  C
  C414     1.0000 0.40758  0.69072  0.84563  Biso   1.000  C
  C415     1.0000 0.25855  0.64163  0.84454  Biso   1.000  C
  H427     1.0000 0.14746  0.56614  0.85271  Biso   1.000  H
  C416     1.0000 0.45408  0.89242  0.12134  Biso   1.000  C
  H428     1.0000 0.38138  0.93215  0.10882  Biso   1.000  H
  H429     1.0000 0.45440  0.84687  0.20673  Biso   1.000  H
  C417     1.0000 0.53476  0.88692  0.04451  Biso   1.000  C
  H430     1.0000 0.58817  0.83593  0.07764  Biso   1.000  H
  H431     1.0000 0.24920  0.54176  0.84704  Biso   1.000  H
  C418     1.0000 0.38307  0.74144  0.84454  Biso   1.000  C
  H432     1.0000 0.45826  0.70743  0.84704  Biso   1.000  H
  C419     1.0000 0.30926  0.71684  0.84563  Biso   1.000  C
  C420     1.0000 0.48338  0.90652  0.06233  Biso   1.000  C
  C421     1.0000 0.56945  0.90314  0.98171  Biso   1.000  C
  C422     1.0000 0.43595  0.82014  0.84284  Biso   1.000  C
  H433     1.0000 0.29257  0.75086  0.84704  Biso   1.000  H
  H434     1.0000 0.46856  0.93014  0.03265  Biso   1.000  H
  N127     1.0000 0.56104  0.94222  0.94221  Biso   1.000  N
  H435     1.0000 0.59927  0.88312  0.97085  Biso   1.000  H
  N128     1.0000 0.50179  0.84747  0.82932  Biso   1.000  N
  H436     1.0000 0.41868  0.85253  0.85271  Biso   1.000  H
  C423     1.0000 0.59929  0.95376  0.88163  Biso   1.000  C
  C424     1.0000 0.54568  0.92676  0.82734  Biso   1.000  C
  H437     1.0000 0.62685  0.92753  0.88182  Biso   1.000  H
  H438     1.0000 0.63429  0.00623  0.87592  Biso   1.000  H
  H439     1.0000 0.51357  0.94805  0.83022  Biso   1.000  H
  H440     1.0000 0.57238  0.94217  0.78675  Biso   1.000  H
  C425     1.0000 0.04813  0.74776  0.70935  Biso   1.000  C
  N129     1.0000 0.04514  0.76920  0.77404  Biso   1.000  N
  C426     1.0000 0.08515  0.81378  0.66706  Biso   1.000  C
  H441     1.0000 0.07513  0.72087  0.70808  Biso   1.000  H
  N130     1.0000 0.04511  0.76915  0.77404  Biso   1.000  N
  H442     1.0000 0.99804  0.71488  0.69385  Biso   1.000  H
  C427     1.0000 0.04816  0.74781  0.70935  Biso   1.000  C
  C428     1.0000 0.98456  0.75570  0.79516  Biso   1.000  C
  C429     1.0000 0.98454  0.75565  0.79516  Biso   1.000  C
  N131     1.0000 0.04265  0.85160  0.66564  Biso   1.000  N
  H443     1.0000 0.13486  0.84730  0.68308  Biso   1.000  H
  H444     1.0000 0.08944  0.79870  0.62378  Biso   1.000  H
  N132     1.0000 0.04262  0.85155  0.66564  Biso   1.000  N
  H445     1.0000 0.13483  0.84725  0.68308  Biso   1.000  H
  H446     1.0000 0.94323  0.73110  0.76846  Biso   1.000  H
  C430     1.0000 0.97416  0.77600  0.85938  Biso   1.000  C
  H447     1.0000 0.94320  0.73105  0.76846  Biso   1.000  H
  C431     1.0000 0.97414  0.77595  0.85938  Biso   1.000  C
  H448     1.0000 0.94328  0.73110  0.76846  Biso   1.000  H
  H449     1.0000 0.94325  0.73105  0.76846  Biso   1.000  H
  C432     1.0000 0.07433  0.91789  0.67368  Biso   1.000  C
  C433     1.0000 0.07438  0.91789  0.67368  Biso   1.000  C
  C434     1.0000 0.03107  0.81100  0.90167  Biso   1.000  C
  C435     1.0000 0.90423  0.76077  0.87766  Biso   1.000  C
  C436     1.0000 0.03575  0.96007  0.67377  Biso   1.000  C
  H450     1.0000 0.12553  0.94309  0.68005  Biso   1.000  H
  H451     1.0000 0.07854  0.82167  0.88995  Biso   1.000  H
  C437     1.0000 0.01905  0.83081  0.96187  Biso   1.000  C
  C438     1.0000 0.01903  0.83076  0.96187  Biso   1.000  C
  C439     1.0000 0.89185  0.77927  0.93635  Biso   1.000  C
  H452     1.0000 0.86498  0.73731  0.84875  Biso   1.000  H
  H453     1.0000 0.86490  0.73725  0.84875  Biso   1.000  H
  H454     1.0000 0.86495  0.73725  0.84875  Biso   1.000  H
  C440     1.0000 0.95966  0.92470  0.67386  Biso   1.000  C
  C441     1.0000 0.07532  0.03496  0.67386  Biso   1.000  C
  C442     1.0000 0.07536  0.03496  0.67386  Biso   1.000  C
  C443     1.0000 0.94906  0.81459  0.97897  Biso   1.000  C
  C444     1.0000 0.07925  0.86956  0.00695  Biso   1.000  C
  C445     1.0000 0.81705  0.76071  0.95435  Biso   1.000  C
  C446     1.0000 0.81703  0.76066  0.95435  Biso   1.000  C
  H455     1.0000 0.93215  0.87288  0.67405  Biso   1.000  H
  C447     1.0000 0.92435  0.96426  0.67377  Biso   1.000  C
  C448     1.0000 0.03996  0.07567  0.67377  Biso   1.000  C
  H456     1.0000 0.12717  0.05929  0.67405  Biso   1.000  H
  C449     1.0000 0.03991  0.07567  0.67377  Biso   1.000  C
  H457     1.0000 0.12712  0.05929  0.67405  Biso   1.000  H
  H458     1.0000 0.94034  0.82771  0.01956  Biso   1.000  H
  H459     1.0000 0.94032  0.82766  0.01956  Biso   1.000  H
  N133     1.0000 0.14016  0.87299  0.00085  Biso   1.000  N
  H460     1.0000 0.07206  0.89308  0.04215  Biso   1.000  H
  H461     1.0000 0.78193  0.74759  0.92175  Biso   1.000  H
  N134     1.0000 0.79737  0.76131  0.01035  Biso   1.000  N
  N135     1.0000 0.79734  0.76126  0.01035  Biso   1.000  N
  C450     1.0000 0.84354  0.92568  0.67368  Biso   1.000  C
  C451     1.0000 0.96506  0.04041  0.67386  Biso   1.000  C
  C452     1.0000 0.96503  0.04035  0.67386  Biso   1.000  C
  C453     1.0000 0.08216  0.15650  0.67368  Biso   1.000  C
  C454     1.0000 0.19466  0.91261  0.04966  Biso   1.000  C
  C455     1.0000 0.19464  0.91256  0.04966  Biso   1.000  C
  C456     1.0000 0.72123  0.74139  0.02136  Biso   1.000  C
  N136     1.0000 0.80897  0.95741  0.66564  Biso   1.000  N
  H462     1.0000 0.81751  0.87446  0.68005  Biso   1.000  H
  N137     1.0000 0.80890  0.95735  0.66564  Biso   1.000  N
  H463     1.0000 0.81756  0.87446  0.68005  Biso   1.000  H
  N138     1.0000 0.80895  0.95735  0.66564  Biso   1.000  N
  H464     1.0000 0.94076  0.06789  0.67405  Biso   1.000  H
  N139     1.0000 0.14844  0.19111  0.66564  Biso   1.000  N
  H465     1.0000 0.05694  0.18251  0.68005  Biso   1.000  H
  N140     1.0000 0.14841  0.19106  0.66564  Biso   1.000  N
  H466     1.0000 0.05692  0.18246  0.68005  Biso   1.000  H
  N141     1.0000 0.14849  0.19111  0.66564  Biso   1.000  N
  H467     1.0000 0.21164  0.88067  0.06795  Biso   1.000  H
  H468     1.0000 0.17262  0.92687  0.08406  Biso   1.000  H
  C457     1.0000 0.25865  0.97988  0.02136  Biso   1.000  C
  H469     1.0000 0.17267  0.92687  0.08406  Biso   1.000  H
  H470     1.0000 0.69414  0.72708  0.98096  Biso   1.000  H
  C458     1.0000 0.71793  0.80539  0.04966  Biso   1.000  C
  H471     1.0000 0.69815  0.69937  0.05056  Biso   1.000  H
  C459     1.0000 0.71798  0.80539  0.04966  Biso   1.000  C
  C460     1.0000 0.72866  0.91490  0.66706  Biso   1.000  C
  C461     1.0000 0.18622  0.27139  0.66706  Biso   1.000  C
  C462     1.0000 0.18627  0.27139  0.66706  Biso   1.000  C
  H472     1.0000 0.27295  0.96709  0.98096  Biso   1.000  H
  H473     1.0000 0.30062  0.99877  0.05056  Biso   1.000  H
  H474     1.0000 0.30067  0.99877  0.05056  Biso   1.000  H
  N142     1.0000 0.23874  0.03611  0.01035  Biso   1.000  N
  N143     1.0000 0.23871  0.03605  0.01035  Biso   1.000  N
  N144     1.0000 0.23878  0.03611  0.01035  Biso   1.000  N
  N145     1.0000 0.23876  0.03605  0.01035  Biso   1.000  N
  N146     1.0000 0.73282  0.85988  0.00085  Biso   1.000  N
  H475     1.0000 0.66902  0.78836  0.06795  Biso   1.000  H
  H476     1.0000 0.75424  0.82738  0.08406  Biso   1.000  H
  H477     1.0000 0.71244  0.86521  0.68308  Biso   1.000  H
  H478     1.0000 0.70926  0.91060  0.62378  Biso   1.000  H
  C463     1.0000 0.69965  0.95191  0.70935  Biso   1.000  C
  H479     1.0000 0.71241  0.86515  0.68308  Biso   1.000  H
  C464     1.0000 0.69963  0.95186  0.70935  Biso   1.000  C
  H480     1.0000 0.15276  0.28761  0.68308  Biso   1.000  H
  H481     1.0000 0.20133  0.29077  0.62378  Biso   1.000  H
  C465     1.0000 0.25225  0.30040  0.70935  Biso   1.000  C
  H482     1.0000 0.15273  0.28755  0.68308  Biso   1.000  H
  C466     1.0000 0.23937  0.05641  0.95435  Biso   1.000  C
  C467     1.0000 0.23934  0.05635  0.95435  Biso   1.000  C
  C468     1.0000 0.79033  0.92078  0.00695  Biso   1.000  C
  N147     1.0000 0.72406  0.95490  0.77404  Biso   1.000  N
  H483     1.0000 0.64576  0.92491  0.70808  Biso   1.000  H
  N148     1.0000 0.72403  0.95485  0.77404  Biso   1.000  N
  H484     1.0000 0.64573  0.92486  0.70808  Biso   1.000  H
  H485     1.0000 0.71682  0.00198  0.69385  Biso   1.000  H
  H486     1.0000 0.71687  0.00198  0.69385  Biso   1.000  H
  N149     1.0000 0.23086  0.27602  0.77404  Biso   1.000  N
  H487     1.0000 0.28517  0.28320  0.69385  Biso   1.000  H
  H488     1.0000 0.27914  0.35428  0.70808  Biso   1.000  H
  N150     1.0000 0.23084  0.27596  0.77404  Biso   1.000  N
  H489     1.0000 0.28512  0.28320  0.69385  Biso   1.000  H
  C469     1.0000 0.22074  0.11257  0.93635  Biso   1.000  C
  H490     1.0000 0.25243  0.03436  0.92175  Biso   1.000  H
  C470     1.0000 0.81175  0.98097  0.96187  Biso   1.000  C
  H491     1.0000 0.82102  0.92796  0.04215  Biso   1.000  H
  C471     1.0000 0.77113  0.01548  0.79516  Biso   1.000  C
  C472     1.0000 0.24434  0.22888  0.79516  Biso   1.000  C
  C473     1.0000 0.18547  0.13451  0.97897  Biso   1.000  C
  C474     1.0000 0.23926  0.14349  0.87766  Biso   1.000  C
  C475     1.0000 0.18544  0.13445  0.97897  Biso   1.000  C
  C476     1.0000 0.77994  0.96900  0.90167  Biso   1.000  C
  C477     1.0000 0.86551  0.05096  0.97897  Biso   1.000  C
  C478     1.0000 0.86556  0.05096  0.97897  Biso   1.000  C
  H492     1.0000 0.78782  0.05679  0.76846  Biso   1.000  H
  C479     1.0000 0.80182  0.02587  0.85938  Biso   1.000  C
  H493     1.0000 0.78787  0.05679  0.76846  Biso   1.000  H
  H494     1.0000 0.26894  0.21217  0.76846  Biso   1.000  H
  C480     1.0000 0.22405  0.19819  0.85938  Biso   1.000  C
  C481     1.0000 0.16923  0.18828  0.96187  Biso   1.000  C
  C482     1.0000 0.16927  0.18828  0.96187  Biso   1.000  C
  H495     1.0000 0.17234  0.11268  0.01956  Biso   1.000  H
  H496     1.0000 0.26276  0.12771  0.84875  Biso   1.000  H
  H497     1.0000 0.26273  0.12765  0.84875  Biso   1.000  H
  H498     1.0000 0.74312  0.92149  0.88995  Biso   1.000  H
  H499     1.0000 0.74317  0.92149  0.88995  Biso   1.000  H
  C483     1.0000 0.88742  0.10817  0.93635  Biso   1.000  C
  C484     1.0000 0.88746  0.10817  0.93635  Biso   1.000  C
  H500     1.0000 0.88735  0.05967  0.01956  Biso   1.000  H
  C485     1.0000 0.85654  0.09581  0.87766  Biso   1.000  C
  C486     1.0000 0.85651  0.09576  0.87766  Biso   1.000  C
  C487     1.0000 0.18903  0.22007  0.90167  Biso   1.000  C
  C488     1.0000 0.13043  0.20967  0.00695  Biso   1.000  C
  C489     1.0000 0.94364  0.18300  0.95435  Biso   1.000  C
  H501     1.0000 0.87237  0.13511  0.84875  Biso   1.000  H
  H502     1.0000 0.87230  0.13505  0.84875  Biso   1.000  H
  H503     1.0000 0.87234  0.13505  0.84875  Biso   1.000  H
  H504     1.0000 0.17837  0.25691  0.88995  Biso   1.000  H
  H505     1.0000 0.17834  0.25686  0.88995  Biso   1.000  H
  N151     1.0000 0.12705  0.26720  0.00085  Biso   1.000  N
  H506     1.0000 0.10693  0.17897  0.04215  Biso   1.000  H
  H507     1.0000 0.96567  0.21811  0.92175  Biso   1.000  H
  H508     1.0000 0.96560  0.21805  0.92175  Biso   1.000  H
  H509     1.0000 0.96564  0.21805  0.92175  Biso   1.000  H
  N152     1.0000 0.96396  0.20270  0.01035  Biso   1.000  N
  C490     1.0000 0.08746  0.28211  0.04966  Biso   1.000  C
  C491     1.0000 0.08744  0.28206  0.04966  Biso   1.000  C
  C492     1.0000 0.02015  0.27879  0.02136  Biso   1.000  C
  H510     1.0000 0.11935  0.33099  0.06795  Biso   1.000  H
  H511     1.0000 0.07313  0.24581  0.08406  Biso   1.000  H
  H512     1.0000 0.07310  0.24576  0.08406  Biso   1.000  H
  H513     1.0000 0.07318  0.24581  0.08406  Biso   1.000  H
  H514     1.0000 0.07315  0.24576  0.08406  Biso   1.000  H
  H515     1.0000 0.03294  0.30590  0.98096  Biso   1.000  H
  H516     1.0000 0.00124  0.30187  0.05056  Biso   1.000  H
  C493     1.0000 0.04813  0.74776  0.70935  Biso   1.000  C
  C494     1.0000 0.08515  0.81378  0.66706  Biso   1.000  C
  H517     1.0000 0.07513  0.72087  0.70808  Biso   1.000  H
  N153     1.0000 0.04514  0.76920  0.77404  Biso   1.000  N
  N154     1.0000 0.04511  0.76915  0.77404  Biso   1.000  N
  H518     1.0000 0.99804  0.71488  0.69385  Biso   1.000  H
  H519     1.0000 0.08944  0.79870  0.62378  Biso   1.000  H
  N155     1.0000 0.04265  0.85160  0.66564  Biso   1.000  N
  H520     1.0000 0.13486  0.84730  0.68308  Biso   1.000  H
  C495     1.0000 0.04816  0.74781  0.70935  Biso   1.000  C
  N156     1.0000 0.04262  0.85155  0.66564  Biso   1.000  N
  H521     1.0000 0.13483  0.84725  0.68308  Biso   1.000  H
  C496     1.0000 0.98456  0.75570  0.79516  Biso   1.000  C
  C497     1.0000 0.98454  0.75565  0.79516  Biso   1.000  C
  C498     1.0000 0.07433  0.91789  0.67368  Biso   1.000  C
  C499     1.0000 0.07438  0.91789  0.67368  Biso   1.000  C
  H522     1.0000 0.94323  0.73110  0.76846  Biso   1.000  H
  C500     1.0000 0.97416  0.77600  0.85938  Biso   1.000  C
  H523     1.0000 0.94320  0.73105  0.76846  Biso   1.000  H
  C501     1.0000 0.97414  0.77595  0.85938  Biso   1.000  C
  H524     1.0000 0.94328  0.73110  0.76846  Biso   1.000  H
  H525     1.0000 0.94325  0.73105  0.76846  Biso   1.000  H
  C502     1.0000 0.03575  0.96007  0.67377  Biso   1.000  C
  H526     1.0000 0.12553  0.94309  0.68005  Biso   1.000  H
  C503     1.0000 0.03107  0.81100  0.90167  Biso   1.000  C
  C504     1.0000 0.90423  0.76077  0.87766  Biso   1.000  C
  C505     1.0000 0.95966  0.92470  0.67386  Biso   1.000  C
  C506     1.0000 0.07532  0.03496  0.67386  Biso   1.000  C
  C507     1.0000 0.07536  0.03496  0.67386  Biso   1.000  C
  H527     1.0000 0.07854  0.82167  0.88995  Biso   1.000  H
  C508     1.0000 0.01905  0.83081  0.96187  Biso   1.000  C
  C509     1.0000 0.01903  0.83076  0.96187  Biso   1.000  C
  C510     1.0000 0.89185  0.77927  0.93635  Biso   1.000  C
  H528     1.0000 0.86498  0.73731  0.84875  Biso   1.000  H
  H529     1.0000 0.86490  0.73725  0.84875  Biso   1.000  H
  H530     1.0000 0.86495  0.73725  0.84875  Biso   1.000  H
  H531     1.0000 0.93215  0.87288  0.67405  Biso   1.000  H
  C511     1.0000 0.92435  0.96426  0.67377  Biso   1.000  C
  C512     1.0000 0.03996  0.07567  0.67377  Biso   1.000  C
  H532     1.0000 0.12717  0.05929  0.67405  Biso   1.000  H
  C513     1.0000 0.03991  0.07567  0.67377  Biso   1.000  C
  H533     1.0000 0.12712  0.05929  0.67405  Biso   1.000  H
  C514     1.0000 0.94906  0.81459  0.97897  Biso   1.000  C
  C515     1.0000 0.07925  0.86956  0.00695  Biso   1.000  C
  C516     1.0000 0.81705  0.76071  0.95435  Biso   1.000  C
  C517     1.0000 0.81703  0.76066  0.95435  Biso   1.000  C
  C518     1.0000 0.84354  0.92568  0.67368  Biso   1.000  C
  C519     1.0000 0.96506  0.04041  0.67386  Biso   1.000  C
  C520     1.0000 0.96503  0.04035  0.67386  Biso   1.000  C
  C521     1.0000 0.08216  0.15650  0.67368  Biso   1.000  C
  H534     1.0000 0.94034  0.82771  0.01956  Biso   1.000  H
  H535     1.0000 0.94032  0.82766  0.01956  Biso   1.000  H
  N157     1.0000 0.14016  0.87299  0.00085  Biso   1.000  N
  H536     1.0000 0.07206  0.89308  0.04215  Biso   1.000  H
  H537     1.0000 0.78193  0.74759  0.92175  Biso   1.000  H
  N158     1.0000 0.79737  0.76131  0.01035  Biso   1.000  N
  N159     1.0000 0.79734  0.76126  0.01035  Biso   1.000  N
  N160     1.0000 0.80897  0.95741  0.66564  Biso   1.000  N
  H538     1.0000 0.81751  0.87446  0.68005  Biso   1.000  H
  N161     1.0000 0.80890  0.95735  0.66564  Biso   1.000  N
  H539     1.0000 0.81756  0.87446  0.68005  Biso   1.000  H
  N162     1.0000 0.80895  0.95735  0.66564  Biso   1.000  N
  H540     1.0000 0.94076  0.06789  0.67405  Biso   1.000  H
  N163     1.0000 0.14844  0.19111  0.66564  Biso   1.000  N
  H541     1.0000 0.05694  0.18251  0.68005  Biso   1.000  H
  N164     1.0000 0.14841  0.19106  0.66564  Biso   1.000  N
  H542     1.0000 0.05692  0.18246  0.68005  Biso   1.000  H
  N165     1.0000 0.14849  0.19111  0.66564  Biso   1.000  N
  C522     1.0000 0.19466  0.91261  0.04966  Biso   1.000  C
  C523     1.0000 0.19464  0.91256  0.04966  Biso   1.000  C
  C524     1.0000 0.72123  0.74139  0.02136  Biso   1.000  C
  C525     1.0000 0.72866  0.91490  0.66706  Biso   1.000  C
  C526     1.0000 0.18622  0.27139  0.66706  Biso   1.000  C
  C527     1.0000 0.18627  0.27139  0.66706  Biso   1.000  C
  H543     1.0000 0.21164  0.88067  0.06795  Biso   1.000  H
  H544     1.0000 0.17262  0.92687  0.08406  Biso   1.000  H
  C528     1.0000 0.25865  0.97988  0.02136  Biso   1.000  C
  H545     1.0000 0.17267  0.92687  0.08406  Biso   1.000  H
  H546     1.0000 0.69414  0.72708  0.98096  Biso   1.000  H
  C529     1.0000 0.71793  0.80539  0.04966  Biso   1.000  C
  H547     1.0000 0.69815  0.69937  0.05056  Biso   1.000  H
  C530     1.0000 0.71798  0.80539  0.04966  Biso   1.000  C
  H548     1.0000 0.71244  0.86521  0.68308  Biso   1.000  H
  H549     1.0000 0.70926  0.91060  0.62378  Biso   1.000  H
  C531     1.0000 0.69965  0.95191  0.70935  Biso   1.000  C
  H550     1.0000 0.71241  0.86515  0.68308  Biso   1.000  H
  C532     1.0000 0.69963  0.95186  0.70935  Biso   1.000  C
  H551     1.0000 0.15276  0.28761  0.68308  Biso   1.000  H
  H552     1.0000 0.20133  0.29077  0.62378  Biso   1.000  H
  C533     1.0000 0.25225  0.30040  0.70935  Biso   1.000  C
  H553     1.0000 0.15273  0.28755  0.68308  Biso   1.000  H
  H554     1.0000 0.27295  0.96709  0.98096  Biso   1.000  H
  H555     1.0000 0.30062  0.99877  0.05056  Biso   1.000  H
  H556     1.0000 0.30067  0.99877  0.05056  Biso   1.000  H
  N166     1.0000 0.23874  0.03611  0.01035  Biso   1.000  N
  N167     1.0000 0.23871  0.03605  0.01035  Biso   1.000  N
  N168     1.0000 0.23878  0.03611  0.01035  Biso   1.000  N
  N169     1.0000 0.23876  0.03605  0.01035  Biso   1.000  N
  N170     1.0000 0.73282  0.85988  0.00085  Biso   1.000  N
  H557     1.0000 0.66902  0.78836  0.06795  Biso   1.000  H
  H558     1.0000 0.75424  0.82738  0.08406  Biso   1.000  H
  N171     1.0000 0.72406  0.95490  0.77404  Biso   1.000  N
  H559     1.0000 0.64576  0.92491  0.70808  Biso   1.000  H
  N172     1.0000 0.72403  0.95485  0.77404  Biso   1.000  N
  H560     1.0000 0.64573  0.92486  0.70808  Biso   1.000  H
  H561     1.0000 0.71682  0.00198  0.69385  Biso   1.000  H
  H562     1.0000 0.71687  0.00198  0.69385  Biso   1.000  H
  N173     1.0000 0.23086  0.27602  0.77404  Biso   1.000  N
  H563     1.0000 0.28517  0.28320  0.69385  Biso   1.000  H
  H564     1.0000 0.27914  0.35428  0.70808  Biso   1.000  H
  N174     1.0000 0.23084  0.27596  0.77404  Biso   1.000  N
  H565     1.0000 0.28512  0.28320  0.69385  Biso   1.000  H
  C534     1.0000 0.23937  0.05641  0.95435  Biso   1.000  C
  C535     1.0000 0.23934  0.05635  0.95435  Biso   1.000  C
  C536     1.0000 0.79033  0.92078  0.00695  Biso   1.000  C
  C537     1.0000 0.77113  0.01548  0.79516  Biso   1.000  C
  C538     1.0000 0.24434  0.22888  0.79516  Biso   1.000  C
  C539     1.0000 0.22074  0.11257  0.93635  Biso   1.000  C
  H566     1.0000 0.25243  0.03436  0.92175  Biso   1.000  H
  C540     1.0000 0.81175  0.98097  0.96187  Biso   1.000  C
  H567     1.0000 0.82102  0.92796  0.04215  Biso   1.000  H
  H568     1.0000 0.78782  0.05679  0.76846  Biso   1.000  H
  C541     1.0000 0.80182  0.02587  0.85938  Biso   1.000  C
  H569     1.0000 0.78787  0.05679  0.76846  Biso   1.000  H
  H570     1.0000 0.26894  0.21217  0.76846  Biso   1.000  H
  C542     1.0000 0.22405  0.19819  0.85938  Biso   1.000  C
  C543     1.0000 0.18547  0.13451  0.97897  Biso   1.000  C
  C544     1.0000 0.23926  0.14349  0.87766  Biso   1.000  C
  C545     1.0000 0.18544  0.13445  0.97897  Biso   1.000  C
  C546     1.0000 0.77994  0.96900  0.90167  Biso   1.000  C
  C547     1.0000 0.86551  0.05096  0.97897  Biso   1.000  C
  C548     1.0000 0.86556  0.05096  0.97897  Biso   1.000  C
  C549     1.0000 0.85654  0.09581  0.87766  Biso   1.000  C
  C550     1.0000 0.85651  0.09576  0.87766  Biso   1.000  C
  C551     1.0000 0.18903  0.22007  0.90167  Biso   1.000  C
  C552     1.0000 0.16923  0.18828  0.96187  Biso   1.000  C
  C553     1.0000 0.16927  0.18828  0.96187  Biso   1.000  C
  H571     1.0000 0.17234  0.11268  0.01956  Biso   1.000  H
  H572     1.0000 0.26276  0.12771  0.84875  Biso   1.000  H
  H573     1.0000 0.26273  0.12765  0.84875  Biso   1.000  H
  H574     1.0000 0.74312  0.92149  0.88995  Biso   1.000  H
  H575     1.0000 0.74317  0.92149  0.88995  Biso   1.000  H
  C554     1.0000 0.88742  0.10817  0.93635  Biso   1.000  C
  C555     1.0000 0.88746  0.10817  0.93635  Biso   1.000  C
  H576     1.0000 0.88735  0.05967  0.01956  Biso   1.000  H
  H577     1.0000 0.87237  0.13511  0.84875  Biso   1.000  H
  H578     1.0000 0.87230  0.13505  0.84875  Biso   1.000  H
  H579     1.0000 0.87234  0.13505  0.84875  Biso   1.000  H
  H580     1.0000 0.17837  0.25691  0.88995  Biso   1.000  H
  H581     1.0000 0.17834  0.25686  0.88995  Biso   1.000  H
  C556     1.0000 0.13043  0.20967  0.00695  Biso   1.000  C
  C557     1.0000 0.94364  0.18300  0.95435  Biso   1.000  C
  N175     1.0000 0.12705  0.26720  0.00085  Biso   1.000  N
  H582     1.0000 0.10693  0.17897  0.04215  Biso   1.000  H
  H583     1.0000 0.96567  0.21811  0.92175  Biso   1.000  H
  H584     1.0000 0.96560  0.21805  0.92175  Biso   1.000  H
  H585     1.0000 0.96564  0.21805  0.92175  Biso   1.000  H
  N176     1.0000 0.96396  0.20270  0.01035  Biso   1.000  N
  C558     1.0000 0.08746  0.28211  0.04966  Biso   1.000  C
  C559     1.0000 0.08744  0.28206  0.04966  Biso   1.000  C
  C560     1.0000 0.02015  0.27879  0.02136  Biso   1.000  C
  H586     1.0000 0.11935  0.33099  0.06795  Biso   1.000  H
  H587     1.0000 0.07313  0.24581  0.08406  Biso   1.000  H
  H588     1.0000 0.07310  0.24576  0.08406  Biso   1.000  H
  H589     1.0000 0.07318  0.24581  0.08406  Biso   1.000  H
  H590     1.0000 0.07315  0.24576  0.08406  Biso   1.000  H
  H591     1.0000 0.03294  0.30590  0.98096  Biso   1.000  H
  H592     1.0000 0.00124  0.30187  0.05056  Biso   1.000  H
  C561     1.0000 0.04813  0.74776  0.70935  Biso   1.000  C
  C562     1.0000 0.08515  0.81378  0.66706  Biso   1.000  C
  H593     1.0000 0.07513  0.72087  0.70808  Biso   1.000  H
  H594     1.0000 0.99804  0.71488  0.69385  Biso   1.000  H
  N177     1.0000 0.04514  0.76920  0.77404  Biso   1.000  N
  N178     1.0000 0.04511  0.76915  0.77404  Biso   1.000  N
  H595     1.0000 0.08944  0.79870  0.62378  Biso   1.000  H
  N179     1.0000 0.04265  0.85160  0.66564  Biso   1.000  N
  H596     1.0000 0.13486  0.84730  0.68308  Biso   1.000  H
  C563     1.0000 0.04816  0.74781  0.70935  Biso   1.000  C
  N180     1.0000 0.04262  0.85155  0.66564  Biso   1.000  N
  H597     1.0000 0.13483  0.84725  0.68308  Biso   1.000  H
  C564     1.0000 0.98456  0.75570  0.79516  Biso   1.000  C
  C565     1.0000 0.98454  0.75565  0.79516  Biso   1.000  C
  C566     1.0000 0.07433  0.91789  0.67368  Biso   1.000  C
  C567     1.0000 0.07438  0.91789  0.67368  Biso   1.000  C
  H598     1.0000 0.94323  0.73110  0.76846  Biso   1.000  H
  C568     1.0000 0.97416  0.77600  0.85938  Biso   1.000  C
  H599     1.0000 0.94320  0.73105  0.76846  Biso   1.000  H
  C569     1.0000 0.97414  0.77595  0.85938  Biso   1.000  C
  H600     1.0000 0.94328  0.73110  0.76846  Biso   1.000  H
  H601     1.0000 0.94325  0.73105  0.76846  Biso   1.000  H
  C570     1.0000 0.03575  0.96007  0.67377  Biso   1.000  C
  H602     1.0000 0.12553  0.94309  0.68005  Biso   1.000  H
  C571     1.0000 0.03107  0.81100  0.90167  Biso   1.000  C
  C572     1.0000 0.90423  0.76077  0.87766  Biso   1.000  C
  C573     1.0000 0.95966  0.92470  0.67386  Biso   1.000  C
  C574     1.0000 0.07532  0.03496  0.67386  Biso   1.000  C
  C575     1.0000 0.07536  0.03496  0.67386  Biso   1.000  C
  H603     1.0000 0.07854  0.82167  0.88995  Biso   1.000  H
  C576     1.0000 0.01905  0.83081  0.96187  Biso   1.000  C
  C577     1.0000 0.01903  0.83076  0.96187  Biso   1.000  C
  C578     1.0000 0.89185  0.77927  0.93635  Biso   1.000  C
  H604     1.0000 0.86498  0.73731  0.84875  Biso   1.000  H
  H605     1.0000 0.86490  0.73725  0.84875  Biso   1.000  H
  H606     1.0000 0.86495  0.73725  0.84875  Biso   1.000  H
  H607     1.0000 0.93215  0.87288  0.67405  Biso   1.000  H
  C579     1.0000 0.92435  0.96426  0.67377  Biso   1.000  C
  C580     1.0000 0.03996  0.07567  0.67377  Biso   1.000  C
  H608     1.0000 0.12717  0.05929  0.67405  Biso   1.000  H
  C581     1.0000 0.03991  0.07567  0.67377  Biso   1.000  C
  H609     1.0000 0.12712  0.05929  0.67405  Biso   1.000  H
  C582     1.0000 0.94906  0.81459  0.97897  Biso   1.000  C
  C583     1.0000 0.07925  0.86956  0.00695  Biso   1.000  C
  C584     1.0000 0.81705  0.76071  0.95435  Biso   1.000  C
  C585     1.0000 0.81703  0.76066  0.95435  Biso   1.000  C
  C586     1.0000 0.84354  0.92568  0.67368  Biso   1.000  C
  C587     1.0000 0.96506  0.04041  0.67386  Biso   1.000  C
  C588     1.0000 0.96503  0.04035  0.67386  Biso   1.000  C
  C589     1.0000 0.08216  0.15650  0.67368  Biso   1.000  C
  H610     1.0000 0.94034  0.82771  0.01956  Biso   1.000  H
  H611     1.0000 0.94032  0.82766  0.01956  Biso   1.000  H
  N181     1.0000 0.14016  0.87299  0.00085  Biso   1.000  N
  H612     1.0000 0.07206  0.89308  0.04215  Biso   1.000  H
  H613     1.0000 0.78193  0.74759  0.92175  Biso   1.000  H
  N182     1.0000 0.79737  0.76131  0.01035  Biso   1.000  N
  N183     1.0000 0.79734  0.76126  0.01035  Biso   1.000  N
  N184     1.0000 0.80897  0.95741  0.66564  Biso   1.000  N
  H614     1.0000 0.81751  0.87446  0.68005  Biso   1.000  H
  N185     1.0000 0.80890  0.95735  0.66564  Biso   1.000  N
  H615     1.0000 0.81756  0.87446  0.68005  Biso   1.000  H
  N186     1.0000 0.80895  0.95735  0.66564  Biso   1.000  N
  H616     1.0000 0.94076  0.06789  0.67405  Biso   1.000  H
  N187     1.0000 0.14844  0.19111  0.66564  Biso   1.000  N
  H617     1.0000 0.05694  0.18251  0.68005  Biso   1.000  H
  N188     1.0000 0.14841  0.19106  0.66564  Biso   1.000  N
  H618     1.0000 0.05692  0.18246  0.68005  Biso   1.000  H
  N189     1.0000 0.14849  0.19111  0.66564  Biso   1.000  N
  C590     1.0000 0.19466  0.91261  0.04966  Biso   1.000  C
  C591     1.0000 0.19464  0.91256  0.04966  Biso   1.000  C
  C592     1.0000 0.72123  0.74139  0.02136  Biso   1.000  C
  C593     1.0000 0.72866  0.91490  0.66706  Biso   1.000  C
  C594     1.0000 0.18622  0.27139  0.66706  Biso   1.000  C
  C595     1.0000 0.18627  0.27139  0.66706  Biso   1.000  C
  H619     1.0000 0.21164  0.88067  0.06795  Biso   1.000  H
  H620     1.0000 0.17262  0.92687  0.08406  Biso   1.000  H
  C596     1.0000 0.25865  0.97988  0.02136  Biso   1.000  C
  H621     1.0000 0.17267  0.92687  0.08406  Biso   1.000  H
  H622     1.0000 0.69414  0.72708  0.98096  Biso   1.000  H
  C597     1.0000 0.71793  0.80539  0.04966  Biso   1.000  C
  H623     1.0000 0.69815  0.69937  0.05056  Biso   1.000  H
  C598     1.0000 0.71798  0.80539  0.04966  Biso   1.000  C
  H624     1.0000 0.71244  0.86521  0.68308  Biso   1.000  H
  H625     1.0000 0.70926  0.91060  0.62378  Biso   1.000  H
  C599     1.0000 0.69965  0.95191  0.70935  Biso   1.000  C
  H626     1.0000 0.71241  0.86515  0.68308  Biso   1.000  H
  C600     1.0000 0.69963  0.95186  0.70935  Biso   1.000  C
  H627     1.0000 0.15276  0.28761  0.68308  Biso   1.000  H
  H628     1.0000 0.20133  0.29077  0.62378  Biso   1.000  H
  C601     1.0000 0.25225  0.30040  0.70935  Biso   1.000  C
  H629     1.0000 0.15273  0.28755  0.68308  Biso   1.000  H
  H630     1.0000 0.27295  0.96709  0.98096  Biso   1.000  H
  H631     1.0000 0.30062  0.99877  0.05056  Biso   1.000  H
  H632     1.0000 0.30067  0.99877  0.05056  Biso   1.000  H
  N190     1.0000 0.23874  0.03611  0.01035  Biso   1.000  N
  N191     1.0000 0.23871  0.03605  0.01035  Biso   1.000  N
  N192     1.0000 0.23878  0.03611  0.01035  Biso   1.000  N
  N193     1.0000 0.23876  0.03605  0.01035  Biso   1.000  N
  N194     1.0000 0.73282  0.85988  0.00085  Biso   1.000  N
  H633     1.0000 0.66902  0.78836  0.06795  Biso   1.000  H
  H634     1.0000 0.75424  0.82738  0.08406  Biso   1.000  H
  N195     1.0000 0.72406  0.95490  0.77404  Biso   1.000  N
  H635     1.0000 0.64576  0.92491  0.70808  Biso   1.000  H
  N196     1.0000 0.72403  0.95485  0.77404  Biso   1.000  N
  H636     1.0000 0.64573  0.92486  0.70808  Biso   1.000  H
  H637     1.0000 0.71682  0.00198  0.69385  Biso   1.000  H
  H638     1.0000 0.71687  0.00198  0.69385  Biso   1.000  H
  N197     1.0000 0.23086  0.27602  0.77404  Biso   1.000  N
  H639     1.0000 0.28517  0.28320  0.69385  Biso   1.000  H
  H640     1.0000 0.27914  0.35428  0.70808  Biso   1.000  H
  N198     1.0000 0.23084  0.27596  0.77404  Biso   1.000  N
  H641     1.0000 0.28512  0.28320  0.69385  Biso   1.000  H
  C602     1.0000 0.23937  0.05641  0.95435  Biso   1.000  C
  C603     1.0000 0.23934  0.05635  0.95435  Biso   1.000  C
  C604     1.0000 0.79033  0.92078  0.00695  Biso   1.000  C
  C605     1.0000 0.77113  0.01548  0.79516  Biso   1.000  C
  C606     1.0000 0.24434  0.22888  0.79516  Biso   1.000  C
  C607     1.0000 0.22074  0.11257  0.93635  Biso   1.000  C
  H642     1.0000 0.25243  0.03436  0.92175  Biso   1.000  H
  C608     1.0000 0.81175  0.98097  0.96187  Biso   1.000  C
  H643     1.0000 0.82102  0.92796  0.04215  Biso   1.000  H
  H644     1.0000 0.78782  0.05679  0.76846  Biso   1.000  H
  C609     1.0000 0.80182  0.02587  0.85938  Biso   1.000  C
  H645     1.0000 0.78787  0.05679  0.76846  Biso   1.000  H
  H646     1.0000 0.26894  0.21217  0.76846  Biso   1.000  H
  C610     1.0000 0.22405  0.19819  0.85938  Biso   1.000  C
  C611     1.0000 0.23926  0.14349  0.87766  Biso   1.000  C
  C612     1.0000 0.18547  0.13451  0.97897  Biso   1.000  C
  C613     1.0000 0.18544  0.13445  0.97897  Biso   1.000  C
  C614     1.0000 0.77994  0.96900  0.90167  Biso   1.000  C
  C615     1.0000 0.86551  0.05096  0.97897  Biso   1.000  C
  C616     1.0000 0.86556  0.05096  0.97897  Biso   1.000  C
  C617     1.0000 0.85654  0.09581  0.87766  Biso   1.000  C
  C618     1.0000 0.85651  0.09576  0.87766  Biso   1.000  C
  C619     1.0000 0.18903  0.22007  0.90167  Biso   1.000  C
  H647     1.0000 0.26276  0.12771  0.84875  Biso   1.000  H
  H648     1.0000 0.26273  0.12765  0.84875  Biso   1.000  H
  C620     1.0000 0.16923  0.18828  0.96187  Biso   1.000  C
  C621     1.0000 0.16927  0.18828  0.96187  Biso   1.000  C
  H649     1.0000 0.17234  0.11268  0.01956  Biso   1.000  H
  H650     1.0000 0.74312  0.92149  0.88995  Biso   1.000  H
  H651     1.0000 0.74317  0.92149  0.88995  Biso   1.000  H
  C622     1.0000 0.88742  0.10817  0.93635  Biso   1.000  C
  C623     1.0000 0.88746  0.10817  0.93635  Biso   1.000  C
  H652     1.0000 0.88735  0.05967  0.01956  Biso   1.000  H
  H653     1.0000 0.87237  0.13511  0.84875  Biso   1.000  H
  H654     1.0000 0.87230  0.13505  0.84875  Biso   1.000  H
  H655     1.0000 0.87234  0.13505  0.84875  Biso   1.000  H
  H656     1.0000 0.17837  0.25691  0.88995  Biso   1.000  H
  H657     1.0000 0.17834  0.25686  0.88995  Biso   1.000  H
  C624     1.0000 0.13043  0.20967  0.00695  Biso   1.000  C
  C625     1.0000 0.94364  0.18300  0.95435  Biso   1.000  C
  N199     1.0000 0.12705  0.26720  0.00085  Biso   1.000  N
  H658     1.0000 0.10693  0.17897  0.04215  Biso   1.000  H
  H659     1.0000 0.96567  0.21811  0.92175  Biso   1.000  H
  H660     1.0000 0.96560  0.21805  0.92175  Biso   1.000  H
  H661     1.0000 0.96564  0.21805  0.92175  Biso   1.000  H
  N200     1.0000 0.96396  0.20270  0.01035  Biso   1.000  N
  C626     1.0000 0.08746  0.28211  0.04966  Biso   1.000  C
  C627     1.0000 0.08744  0.28206  0.04966  Biso   1.000  C
  C628     1.0000 0.02015  0.27879  0.02136  Biso   1.000  C
  H662     1.0000 0.11935  0.33099  0.06795  Biso   1.000  H
  H663     1.0000 0.07313  0.24581  0.08406  Biso   1.000  H
  H664     1.0000 0.07310  0.24576  0.08406  Biso   1.000  H
  H665     1.0000 0.07318  0.24581  0.08406  Biso   1.000  H
  H666     1.0000 0.07315  0.24576  0.08406  Biso   1.000  H
  H667     1.0000 0.03294  0.30590  0.98096  Biso   1.000  H
  H668     1.0000 0.00124  0.30187  0.05056  Biso   1.000  H
  C629     1.0000 0.04813  0.74776  0.70935  Biso   1.000  C
  C630     1.0000 0.08515  0.81378  0.66706  Biso   1.000  C
  H669     1.0000 0.07513  0.72087  0.70808  Biso   1.000  H
  H670     1.0000 0.99804  0.71488  0.69385  Biso   1.000  H
  N201     1.0000 0.04514  0.76920  0.77404  Biso   1.000  N
  N202     1.0000 0.04511  0.76915  0.77404  Biso   1.000  N
  H671     1.0000 0.08944  0.79870  0.62378  Biso   1.000  H
  N203     1.0000 0.04265  0.85160  0.66564  Biso   1.000  N
  H672     1.0000 0.13486  0.84730  0.68308  Biso   1.000  H
  C631     1.0000 0.04816  0.74781  0.70935  Biso   1.000  C
  N204     1.0000 0.04262  0.85155  0.66564  Biso   1.000  N
  H673     1.0000 0.13483  0.84725  0.68308  Biso   1.000  H
  C632     1.0000 0.98456  0.75570  0.79516  Biso   1.000  C
  C633     1.0000 0.98454  0.75565  0.79516  Biso   1.000  C
  C634     1.0000 0.07433  0.91789  0.67368  Biso   1.000  C
  C635     1.0000 0.07438  0.91789  0.67368  Biso   1.000  C
  H674     1.0000 0.94323  0.73110  0.76846  Biso   1.000  H
  C636     1.0000 0.97416  0.77600  0.85938  Biso   1.000  C
  H675     1.0000 0.94320  0.73105  0.76846  Biso   1.000  H
  C637     1.0000 0.97414  0.77595  0.85938  Biso   1.000  C
  H676     1.0000 0.94328  0.73110  0.76846  Biso   1.000  H
  H677     1.0000 0.94325  0.73105  0.76846  Biso   1.000  H
  C638     1.0000 0.03575  0.96007  0.67377  Biso   1.000  C
  H678     1.0000 0.12553  0.94309  0.68005  Biso   1.000  H
  C639     1.0000 0.03107  0.81100  0.90167  Biso   1.000  C
  C640     1.0000 0.90423  0.76077  0.87766  Biso   1.000  C
  C641     1.0000 0.95966  0.92470  0.67386  Biso   1.000  C
  C642     1.0000 0.07532  0.03496  0.67386  Biso   1.000  C
  C643     1.0000 0.07536  0.03496  0.67386  Biso   1.000  C
  H679     1.0000 0.07854  0.82167  0.88995  Biso   1.000  H
  C644     1.0000 0.01905  0.83081  0.96187  Biso   1.000  C
  C645     1.0000 0.01903  0.83076  0.96187  Biso   1.000  C
  C646     1.0000 0.89185  0.77927  0.93635  Biso   1.000  C
  H680     1.0000 0.86498  0.73731  0.84875  Biso   1.000  H
  H681     1.0000 0.86490  0.73725  0.84875  Biso   1.000  H
  H682     1.0000 0.86495  0.73725  0.84875  Biso   1.000  H
  H683     1.0000 0.93215  0.87288  0.67405  Biso   1.000  H
  C647     1.0000 0.92435  0.96426  0.67377  Biso   1.000  C
  C648     1.0000 0.03996  0.07567  0.67377  Biso   1.000  C
  H684     1.0000 0.12717  0.05929  0.67405  Biso   1.000  H
  C649     1.0000 0.03991  0.07567  0.67377  Biso   1.000  C
  H685     1.0000 0.12712  0.05929  0.67405  Biso   1.000  H
  C650     1.0000 0.94906  0.81459  0.97897  Biso   1.000  C
  C651     1.0000 0.07925  0.86956  0.00695  Biso   1.000  C
  C652     1.0000 0.81705  0.76071  0.95435  Biso   1.000  C
  C653     1.0000 0.81703  0.76066  0.95435  Biso   1.000  C
  C654     1.0000 0.84354  0.92568  0.67368  Biso   1.000  C
  C655     1.0000 0.96506  0.04041  0.67386  Biso   1.000  C
  C656     1.0000 0.96503  0.04035  0.67386  Biso   1.000  C
  C657     1.0000 0.08216  0.15650  0.67368  Biso   1.000  C
  H686     1.0000 0.94034  0.82771  0.01956  Biso   1.000  H
  H687     1.0000 0.94032  0.82766  0.01956  Biso   1.000  H
  N205     1.0000 0.14016  0.87299  0.00085  Biso   1.000  N
  H688     1.0000 0.07206  0.89308  0.04215  Biso   1.000  H
  H689     1.0000 0.78193  0.74759  0.92175  Biso   1.000  H
  N206     1.0000 0.79737  0.76131  0.01035  Biso   1.000  N
  N207     1.0000 0.79734  0.76126  0.01035  Biso   1.000  N
  N208     1.0000 0.80897  0.95741  0.66564  Biso   1.000  N
  H690     1.0000 0.81751  0.87446  0.68005  Biso   1.000  H
  N209     1.0000 0.80890  0.95735  0.66564  Biso   1.000  N
  H691     1.0000 0.81756  0.87446  0.68005  Biso   1.000  H
  N210     1.0000 0.80895  0.95735  0.66564  Biso   1.000  N
  H692     1.0000 0.94076  0.06789  0.67405  Biso   1.000  H
  N211     1.0000 0.14844  0.19111  0.66564  Biso   1.000  N
  H693     1.0000 0.05694  0.18251  0.68005  Biso   1.000  H
  N212     1.0000 0.14841  0.19106  0.66564  Biso   1.000  N
  H694     1.0000 0.05692  0.18246  0.68005  Biso   1.000  H
  N213     1.0000 0.14849  0.19111  0.66564  Biso   1.000  N
  C658     1.0000 0.19466  0.91261  0.04966  Biso   1.000  C
  C659     1.0000 0.19464  0.91256  0.04966  Biso   1.000  C
  C660     1.0000 0.72123  0.74139  0.02136  Biso   1.000  C
  C661     1.0000 0.72866  0.91490  0.66706  Biso   1.000  C
  C662     1.0000 0.18622  0.27139  0.66706  Biso   1.000  C
  C663     1.0000 0.18627  0.27139  0.66706  Biso   1.000  C
  H695     1.0000 0.21164  0.88067  0.06795  Biso   1.000  H
  H696     1.0000 0.17262  0.92687  0.08406  Biso   1.000  H
  C664     1.0000 0.25865  0.97988  0.02136  Biso   1.000  C
  H697     1.0000 0.17267  0.92687  0.08406  Biso   1.000  H
  H698     1.0000 0.69414  0.72708  0.98096  Biso   1.000  H
  C665     1.0000 0.71793  0.80539  0.04966  Biso   1.000  C
  H699     1.0000 0.69815  0.69937  0.05056  Biso   1.000  H
  C666     1.0000 0.71798  0.80539  0.04966  Biso   1.000  C
  H700     1.0000 0.71244  0.86521  0.68308  Biso   1.000  H
  H701     1.0000 0.70926  0.91060  0.62378  Biso   1.000  H
  C667     1.0000 0.69965  0.95191  0.70935  Biso   1.000  C
  H702     1.0000 0.71241  0.86515  0.68308  Biso   1.000  H
  C668     1.0000 0.69963  0.95186  0.70935  Biso   1.000  C
  H703     1.0000 0.15276  0.28761  0.68308  Biso   1.000  H
  H704     1.0000 0.20133  0.29077  0.62378  Biso   1.000  H
  C669     1.0000 0.25225  0.30040  0.70935  Biso   1.000  C
  H705     1.0000 0.15273  0.28755  0.68308  Biso   1.000  H
  H706     1.0000 0.27295  0.96709  0.98096  Biso   1.000  H
  H707     1.0000 0.30062  0.99877  0.05056  Biso   1.000  H
  H708     1.0000 0.30067  0.99877  0.05056  Biso   1.000  H
  N214     1.0000 0.23874  0.03611  0.01035  Biso   1.000  N
  N215     1.0000 0.23871  0.03605  0.01035  Biso   1.000  N
  N216     1.0000 0.23878  0.03611  0.01035  Biso   1.000  N
  N217     1.0000 0.23876  0.03605  0.01035  Biso   1.000  N
  N218     1.0000 0.73282  0.85988  0.00085  Biso   1.000  N
  H709     1.0000 0.66902  0.78836  0.06795  Biso   1.000  H
  H710     1.0000 0.75424  0.82738  0.08406  Biso   1.000  H
  N219     1.0000 0.72406  0.95490  0.77404  Biso   1.000  N
  H711     1.0000 0.64576  0.92491  0.70808  Biso   1.000  H
  N220     1.0000 0.72403  0.95485  0.77404  Biso   1.000  N
  H712     1.0000 0.64573  0.92486  0.70808  Biso   1.000  H
  H713     1.0000 0.71682  0.00198  0.69385  Biso   1.000  H
  H714     1.0000 0.71687  0.00198  0.69385  Biso   1.000  H
  N221     1.0000 0.23086  0.27602  0.77404  Biso   1.000  N
  H715     1.0000 0.28517  0.28320  0.69385  Biso   1.000  H
  H716     1.0000 0.27914  0.35428  0.70808  Biso   1.000  H
  N222     1.0000 0.23084  0.27596  0.77404  Biso   1.000  N
  H717     1.0000 0.28512  0.28320  0.69385  Biso   1.000  H
  C670     1.0000 0.23937  0.05641  0.95435  Biso   1.000  C
  C671     1.0000 0.23934  0.05635  0.95435  Biso   1.000  C
  C672     1.0000 0.79033  0.92078  0.00695  Biso   1.000  C
  C673     1.0000 0.77113  0.01548  0.79516  Biso   1.000  C
  C674     1.0000 0.24434  0.22888  0.79516  Biso   1.000  C
  C675     1.0000 0.22074  0.11257  0.93635  Biso   1.000  C
  H718     1.0000 0.25243  0.03436  0.92175  Biso   1.000  H
  C676     1.0000 0.81175  0.98097  0.96187  Biso   1.000  C
  H719     1.0000 0.82102  0.92796  0.04215  Biso   1.000  H
  H720     1.0000 0.78782  0.05679  0.76846  Biso   1.000  H
  C677     1.0000 0.80182  0.02587  0.85938  Biso   1.000  C
  H721     1.0000 0.78787  0.05679  0.76846  Biso   1.000  H
  H722     1.0000 0.26894  0.21217  0.76846  Biso   1.000  H
  C678     1.0000 0.22405  0.19819  0.85938  Biso   1.000  C
  C679     1.0000 0.23926  0.14349  0.87766  Biso   1.000  C
  C680     1.0000 0.18547  0.13451  0.97897  Biso   1.000  C
  C681     1.0000 0.18544  0.13445  0.97897  Biso   1.000  C
  C682     1.0000 0.77994  0.96900  0.90167  Biso   1.000  C
  C683     1.0000 0.86551  0.05096  0.97897  Biso   1.000  C
  C684     1.0000 0.86556  0.05096  0.97897  Biso   1.000  C
  C685     1.0000 0.85654  0.09581  0.87766  Biso   1.000  C
  C686     1.0000 0.85651  0.09576  0.87766  Biso   1.000  C
  C687     1.0000 0.18903  0.22007  0.90167  Biso   1.000  C
  H723     1.0000 0.26276  0.12771  0.84875  Biso   1.000  H
  H724     1.0000 0.26273  0.12765  0.84875  Biso   1.000  H
  C688     1.0000 0.16923  0.18828  0.96187  Biso   1.000  C
  C689     1.0000 0.16927  0.18828  0.96187  Biso   1.000  C
  H725     1.0000 0.17234  0.11268  0.01956  Biso   1.000  H
  H726     1.0000 0.74312  0.92149  0.88995  Biso   1.000  H
  H727     1.0000 0.74317  0.92149  0.88995  Biso   1.000  H
  C690     1.0000 0.88742  0.10817  0.93635  Biso   1.000  C
  C691     1.0000 0.88746  0.10817  0.93635  Biso   1.000  C
  H728     1.0000 0.88735  0.05967  0.01956  Biso   1.000  H
  H729     1.0000 0.87237  0.13511  0.84875  Biso   1.000  H
  H730     1.0000 0.87230  0.13505  0.84875  Biso   1.000  H
  H731     1.0000 0.87234  0.13505  0.84875  Biso   1.000  H
  H732     1.0000 0.17837  0.25691  0.88995  Biso   1.000  H
  H733     1.0000 0.17834  0.25686  0.88995  Biso   1.000  H
  C692     1.0000 0.13043  0.20967  0.00695  Biso   1.000  C
  C693     1.0000 0.94364  0.18300  0.95435  Biso   1.000  C
  N223     1.0000 0.12705  0.26720  0.00085  Biso   1.000  N
  H734     1.0000 0.10693  0.17897  0.04215  Biso   1.000  H
  H735     1.0000 0.96567  0.21811  0.92175  Biso   1.000  H
  H736     1.0000 0.96560  0.21805  0.92175  Biso   1.000  H
  H737     1.0000 0.96564  0.21805  0.92175  Biso   1.000  H
  N224     1.0000 0.96396  0.20270  0.01035  Biso   1.000  N
  C694     1.0000 0.08746  0.28211  0.04966  Biso   1.000  C
  C695     1.0000 0.08744  0.28206  0.04966  Biso   1.000  C
  C696     1.0000 0.02015  0.27879  0.02136  Biso   1.000  C
  H738     1.0000 0.11935  0.33099  0.06795  Biso   1.000  H
  H739     1.0000 0.07313  0.24581  0.08406  Biso   1.000  H
  H740     1.0000 0.07310  0.24576  0.08406  Biso   1.000  H
  H741     1.0000 0.07318  0.24581  0.08406  Biso   1.000  H
  H742     1.0000 0.07315  0.24576  0.08406  Biso   1.000  H
  H743     1.0000 0.03294  0.30590  0.98096  Biso   1.000  H
  H744     1.0000 0.00124  0.30187  0.05056  Biso   1.000  H
  N225     1.0000 0.63060  0.53599  0.34371  Biso   1.000  N
  C697     1.0000 0.61028  0.51628  0.28772  Biso   1.000  C
  C698     1.0000 0.68681  0.61213  0.35468  Biso   1.000  C
  C699     1.0000 0.55408  0.44150  0.26972  Biso   1.000  C
  H745     1.0000 0.63231  0.55139  0.25512  Biso   1.000  H
  C700     1.0000 0.75411  0.61539  0.38298  Biso   1.000  C
  H746     1.0000 0.66790  0.63521  0.38388  Biso   1.000  H
  H747     1.0000 0.69961  0.63923  0.31427  Biso   1.000  H
  C701     1.0000 0.52318  0.42909  0.21098  Biso   1.000  C
  C702     1.0000 0.53222  0.38430  0.31229  Biso   1.000  C
  N226     1.0000 0.79369  0.60048  0.33422  Biso   1.000  N
  H748     1.0000 0.78602  0.66432  0.40131  Biso   1.000  H
  H749     1.0000 0.73982  0.57909  0.41738  Biso   1.000  H
  C703     1.0000 0.46849  0.35921  0.19269  Biso   1.000  C
  H750     1.0000 0.53901  0.46839  0.18211  Biso   1.000  H
  C704     1.0000 0.47842  0.31431  0.29518  Biso   1.000  C
  H751     1.0000 0.55402  0.39301  0.35288  Biso   1.000  H
  C705     1.0000 0.79710  0.54301  0.34031  Biso   1.000  C
  C706     1.0000 0.44658  0.30228  0.23499  Biso   1.000  C
  C707     1.0000 0.43779  0.34882  0.12848  Biso   1.000  C
  C708     1.0000 0.45700  0.25411  0.34031  Biso   1.000  C
  C709     1.0000 0.83589  0.52162  0.29518  Biso   1.000  C
  H752     1.0000 0.77360  0.51231  0.37551  Biso   1.000  H
  H753     1.0000 0.40979  0.25482  0.22331  Biso   1.000  H
  N227     1.0000 0.39070  0.28819  0.10740  Biso   1.000  N
  H754     1.0000 0.45454  0.39013  0.10178  Biso   1.000  H
  N228     1.0000 0.39949  0.19321  0.33422  Biso   1.000  N
  H755     1.0000 0.48769  0.26130  0.37551  Biso   1.000  H
  C710     1.0000 0.85570  0.55340  0.23499  Biso   1.000  C
  C711     1.0000 0.85211  0.46779  0.31229  Biso   1.000  C
  C712     1.0000 0.36630  0.28519  0.04272  Biso   1.000  C
  C713     1.0000 0.38457  0.13868  0.38298  Biso   1.000  C
  C714     1.0000 0.89071  0.53152  0.19269  Biso   1.000  C
  H756     1.0000 0.84501  0.59019  0.22331  Biso   1.000  H
  H757     1.0000 0.83901  0.44602  0.35288  Biso   1.000  H
  C715     1.0000 0.88741  0.44591  0.26972  Biso   1.000  C
  C716     1.0000 0.39530  0.24818  0.00038  Biso   1.000  C
  H758     1.0000 0.38353  0.33532  0.02722  Biso   1.000  H
  H759     1.0000 0.31240  0.25820  0.04139  Biso   1.000  H
  H760     1.0000 0.33569  0.12170  0.40131  Biso   1.000  H
  H761     1.0000 0.42090  0.16072  0.41738  Biso   1.000  H
  C717     1.0000 0.38790  0.07473  0.35468  Biso   1.000  C
  C718     1.0000 0.91101  0.56222  0.12848  Biso   1.000  C
  C719     1.0000 0.90593  0.47683  0.21098  Biso   1.000  C
  C720     1.0000 0.90601  0.38969  0.28772  Biso   1.000  C
  H762     1.0000 0.37908  0.19849  0.01640  Biso   1.000  H
  N229     1.0000 0.47561  0.29069  0.99901  Biso   1.000  N
  H763     1.0000 0.37590  0.24388  0.95709  Biso   1.000  H
  N230     1.0000 0.46401  0.09459  0.34371  Biso   1.000  N
  H764     1.0000 0.36482  0.03271  0.38388  Biso   1.000  H
  H765     1.0000 0.36081  0.06041  0.31427  Biso   1.000  H
  N231     1.0000 0.89750  0.60930  0.10740  Biso   1.000  N
  H766     1.0000 0.93560  0.54551  0.10178  Biso   1.000  H
  H767     1.0000 0.92940  0.46099  0.18211  Biso   1.000  H
  N232     1.0000 0.90542  0.36939  0.34371  Biso   1.000  N
  H768     1.0000 0.91910  0.36770  0.25512  Biso   1.000  H
  C721     1.0000 0.51021  0.25901  0.00699  Biso   1.000  C
  C722     1.0000 0.48370  0.09399  0.28772  Biso   1.000  C
  C723     1.0000 0.91889  0.63368  0.04272  Biso   1.000  C
  C724     1.0000 0.92532  0.31322  0.35468  Biso   1.000  C
  C725     1.0000 0.59101  0.29760  0.00709  Biso   1.000  C
  H769     1.0000 0.48423  0.20780  0.01342  Biso   1.000  H
  C726     1.0000 0.55852  0.11261  0.26972  Biso   1.000  C
  H770     1.0000 0.44857  0.08088  0.25512  Biso   1.000  H
  C727     1.0000 0.85294  0.60473  0.00038  Biso   1.000  C
  H771     1.0000 0.95181  0.61648  0.02722  Biso   1.000  H
  H772     1.0000 0.94581  0.68762  0.04139  Biso   1.000  H
  C728     1.0000 0.86131  0.24590  0.38298  Biso   1.000  C
  H773     1.0000 0.96729  0.33211  0.38388  Biso   1.000  H
  H774     1.0000 0.93959  0.30038  0.31427  Biso   1.000  H
  C729     1.0000 0.63170  0.37369  0.00718  Biso   1.000  C
  C730     1.0000 0.62630  0.25798  0.00718  Biso   1.000  C
  C731     1.0000 0.61570  0.14788  0.31229  Biso   1.000  C
  C732     1.0000 0.57090  0.09410  0.21098  Biso   1.000  C
  N233     1.0000 0.81508  0.52439  0.99901  Biso   1.000  N
  H775     1.0000 0.81940  0.62089  0.01640  Biso   1.000  H
  H776     1.0000 0.86800  0.62410  0.95709  Biso   1.000  H
  N234     1.0000 0.80683  0.20633  0.33422  Biso   1.000  N
  H777     1.0000 0.87831  0.21400  0.40131  Biso   1.000  H
  H778     1.0000 0.83933  0.26021  0.41738  Biso   1.000  H
  H779     1.0000 0.60743  0.40123  0.00742  Biso   1.000  H
  C733     1.0000 0.70663  0.40901  0.00709  Biso   1.000  C
  H780     1.0000 0.59882  0.20622  0.00742  Biso   1.000  H
  C734     1.0000 0.70242  0.29341  0.00709  Biso   1.000  C
  C735     1.0000 0.68570  0.16409  0.29518  Biso   1.000  C
  H781     1.0000 0.60699  0.16099  0.35288  Biso   1.000  H
  C736     1.0000 0.64081  0.10929  0.19269  Biso   1.000  C
  H782     1.0000 0.53162  0.07059  0.18211  Biso   1.000  H
  C737     1.0000 0.74880  0.48978  0.00699  Biso   1.000  C
  C738     1.0000 0.74592  0.20290  0.34031  Biso   1.000  C
  C739     1.0000 0.74198  0.36830  0.00718  Biso   1.000  C
  C740     1.0000 0.74097  0.25118  0.00699  Biso   1.000  C
  C741     1.0000 0.69771  0.14428  0.23499  Biso   1.000  C
  C742     1.0000 0.65121  0.08899  0.12848  Biso   1.000  C
  H783     1.0000 0.72358  0.51579  0.01342  Biso   1.000  H
  H784     1.0000 0.73872  0.22641  0.37551  Biso   1.000  H
  H785     1.0000 0.79384  0.39263  0.00742  Biso   1.000  H
  H786     1.0000 0.79220  0.27643  0.01342  Biso   1.000  H
  N235     1.0000 0.70929  0.18488  0.99901  Biso   1.000  N
  H787     1.0000 0.74521  0.15501  0.22331  Biso   1.000  H
  N236     1.0000 0.71178  0.10248  0.10740  Biso   1.000  N
  H788     1.0000 0.60992  0.06439  0.10178  Biso   1.000  H
  C743     1.0000 0.75182  0.14711  0.00038  Biso   1.000  C
  C744     1.0000 0.71480  0.08109  0.04272  Biso   1.000  C
  H789     1.0000 0.80150  0.18059  0.01640  Biso   1.000  H
  H790     1.0000 0.75608  0.13198  0.95709  Biso   1.000  H
  H791     1.0000 0.66471  0.04822  0.02722  Biso   1.000  H
  H792     1.0000 0.74180  0.05421  0.04139  Biso   1.000  H
