data_image0
_cell_length_a       16.207
_cell_length_b       16.207
_cell_length_c       23.476
_cell_angle_alpha    90
_cell_angle_beta     90
_cell_angle_gamma    120

_symmetry_space_group_name_H-M    "P 1"
_symmetry_int_tables_number       1

loop_
  _symmetry_equiv_pos_as_xyz
  'x, y, z'

loop_
  _atom_site_label
  _atom_site_occupancy
  _atom_site_fract_x
  _atom_site_fract_y
  _atom_site_fract_z
  _atom_site_thermal_displace_type
  _atom_site_B_iso_or_equiv
  _atom_site_type_symbol
  C1       1.0000 0.80618  0.00207  0.86620  Biso   1.000  C
  C2       1.0000 0.87023  0.98689  0.83426  Biso   1.000  C
  C3       1.0000 0.87023  0.98689  0.83421  Biso   1.000  C
  H1       1.0000 0.80969  0.06227  0.86459  Biso   1.000  H
  H2       1.0000 0.80975  0.06227  0.86459  Biso   1.000  H
  C4       1.0000 0.73744  0.93061  0.90028  Biso   1.000  C
  C5       1.0000 0.94527  0.07182  0.80052  Biso   1.000  C
  C6       1.0000 0.94527  0.07182  0.80056  Biso   1.000  C
  C7       1.0000 0.94533  0.07182  0.80056  Biso   1.000  C
  C8       1.0000 0.94533  0.07182  0.80052  Biso   1.000  C
  C9       1.0000 0.86367  0.89776  0.83524  Biso   1.000  C
  C10      1.0000 0.86361  0.89776  0.83524  Biso   1.000  C
  O1       1.0000 0.67259  0.94122  0.93210  Biso   1.000  O
  C11      1.0000 0.73143  0.84098  0.90254  Biso   1.000  C
  O2       1.0000 0.67259  0.94122  0.93206  Biso   1.000  O
  O3       1.0000 0.67253  0.94122  0.93210  Biso   1.000  O
  O4       1.0000 0.67253  0.94122  0.93206  Biso   1.000  O
  C12      1.0000 0.73137  0.84098  0.90254  Biso   1.000  C
  H3       1.0000 0.96404  0.04802  0.76691  Biso   1.000  H
  H4       1.0000 0.91690  0.10972  0.78651  Biso   1.000  H
  H5       1.0000 0.91696  0.10972  0.78651  Biso   1.000  H
  C13      1.0000 0.03409  0.13630  0.83524  Biso   1.000  C
  C14      1.0000 0.03403  0.13630  0.83524  Biso   1.000  C
  C15      1.0000 0.79460  0.82737  0.86974  Biso   1.000  C
  C16      1.0000 0.92828  0.87347  0.80056  Biso   1.000  C
  C17      1.0000 0.79460  0.82737  0.86970  Biso   1.000  C
  C18      1.0000 0.92828  0.87347  0.80052  Biso   1.000  C
  C19      1.0000 0.79448  0.82737  0.86974  Biso   1.000  C
  C20      1.0000 0.92822  0.87347  0.80056  Biso   1.000  C
  C21      1.0000 0.79448  0.82737  0.86970  Biso   1.000  C
  C22      1.0000 0.92822  0.87347  0.80052  Biso   1.000  C
  C23      1.0000 0.67696  0.03078  0.92848  Biso   1.000  C
  C24      1.0000 0.67702  0.03078  0.92848  Biso   1.000  C
  C25      1.0000 0.65948  0.76581  0.93930  Biso   1.000  C
  C26      1.0000 0.65942  0.76581  0.93930  Biso   1.000  C
  C27      1.0000 0.03283  0.20548  0.86974  Biso   1.000  C
  C28      1.0000 0.11664  0.12974  0.83426  Biso   1.000  C
  C29      1.0000 0.03283  0.20548  0.86970  Biso   1.000  C
  C30      1.0000 0.11664  0.12974  0.83421  Biso   1.000  C
  C31      1.0000 0.11670  0.12974  0.83426  Biso   1.000  C
  C32      1.0000 0.11670  0.12974  0.83421  Biso   1.000  C
  H6       1.0000 0.79042  0.76681  0.87080  Biso   1.000  H
  H7       1.0000 0.95201  0.91600  0.76691  Biso   1.000  H
  H8       1.0000 0.89034  0.80721  0.78651  Biso   1.000  H
  C33      1.0000 0.01298  0.88330  0.83426  Biso   1.000  C
  C34      1.0000 0.01298  0.88330  0.83421  Biso   1.000  C
  C35      1.0000 0.01304  0.88330  0.83426  Biso   1.000  C
  C36      1.0000 0.01304  0.88330  0.83421  Biso   1.000  C
  H9       1.0000 0.62779  0.03042  0.95302  Biso   1.000  H
  H10      1.0000 0.66627  0.04261  0.88899  Biso   1.000  H
  H11      1.0000 0.73988  0.08122  0.94100  Biso   1.000  H
  H12      1.0000 0.62779  0.03042  0.95297  Biso   1.000  H
  H13      1.0000 0.62785  0.03042  0.95302  Biso   1.000  H
  H14      1.0000 0.66633  0.04261  0.88899  Biso   1.000  H
  H15      1.0000 0.73994  0.08122  0.94100  Biso   1.000  H
  H16      1.0000 0.62785  0.03042  0.95297  Biso   1.000  H
  N1       1.0000 0.64583  0.68124  0.94019  Biso   1.000  N
  H17      1.0000 0.62178  0.78099  0.96328  Biso   1.000  H
  H18      1.0000 0.62172  0.78099  0.96328  Biso   1.000  H
  H19      1.0000 0.97640  0.20961  0.87080  Biso   1.000  H
  H20      1.0000 0.97646  0.20961  0.87080  Biso   1.000  H
  C37      1.0000 0.10956  0.26860  0.90254  Biso   1.000  C
  C38      1.0000 0.10962  0.26860  0.90254  Biso   1.000  C
  C39      1.0000 0.19593  0.19379  0.86620  Biso   1.000  C
  C40      1.0000 0.12651  0.05472  0.80056  Biso   1.000  C
  C41      1.0000 0.12651  0.05472  0.80052  Biso   1.000  C
  C42      1.0000 0.12658  0.05472  0.80056  Biso   1.000  C
  C43      1.0000 0.12658  0.05472  0.80052  Biso   1.000  C
  C44      1.0000 0.19587  0.19379  0.86620  Biso   1.000  C
  C45      1.0000 0.10224  0.96594  0.83524  Biso   1.000  C
  C46      1.0000 0.99798  0.80407  0.86620  Biso   1.000  C
  C47      1.0000 0.99792  0.80407  0.86620  Biso   1.000  C
  C48      1.0000 0.57334  0.61548  0.97981  Biso   1.000  C
  C49      1.0000 0.57334  0.61548  0.97977  Biso   1.000  C
  C50      1.0000 0.57321  0.61548  0.97981  Biso   1.000  C
  C51      1.0000 0.57321  0.61548  0.97977  Biso   1.000  C
  C52      1.0000 0.19316  0.26255  0.90028  Biso   1.000  C
  C53      1.0000 0.10632  0.34049  0.93930  Biso   1.000  C
  C54      1.0000 0.19310  0.26255  0.90028  Biso   1.000  C
  C55      1.0000 0.10626  0.34049  0.93930  Biso   1.000  C
  H21      1.0000 0.25261  0.19030  0.86459  Biso   1.000  H
  H22      1.0000 0.25255  0.19030  0.86459  Biso   1.000  H
  H23      1.0000 0.08401  0.03598  0.76691  Biso   1.000  H
  H24      1.0000 0.19277  0.08307  0.78651  Biso   1.000  H
  H25      1.0000 0.19283  0.08307  0.78651  Biso   1.000  H
  H26      1.0000 0.08395  0.03598  0.76691  Biso   1.000  H
  C56      1.0000 0.17257  0.96716  0.86974  Biso   1.000  C
  C57      1.0000 0.17257  0.96716  0.86970  Biso   1.000  C
  C58      1.0000 0.17263  0.96716  0.86974  Biso   1.000  C
  C59      1.0000 0.17263  0.96716  0.86970  Biso   1.000  C
  H27      1.0000 0.93770  0.74743  0.86459  Biso   1.000  H
  H28      1.0000 0.93766  0.74736  0.86459  Biso   1.000  H
  C60      1.0000 0.06934  0.80685  0.90028  Biso   1.000  C
  H29      1.0000 0.52013  0.56361  0.95821  Biso   1.000  H
  H30      1.0000 0.52013  0.56361  0.95817  Biso   1.000  H
  H31      1.0000 0.54761  0.64968  0.00192  Biso   1.000  H
  C61      1.0000 0.61555  0.57330  0.02019  Biso   1.000  C
  H32      1.0000 0.54761  0.64968  0.00187  Biso   1.000  H
  H33      1.0000 0.54755  0.64968  0.00192  Biso   1.000  H
  C62      1.0000 0.61543  0.57330  0.02019  Biso   1.000  C
  H34      1.0000 0.54755  0.64968  0.00187  Biso   1.000  H
  O5       1.0000 0.26868  0.32745  0.93210  Biso   1.000  O
  O6       1.0000 0.26868  0.32745  0.93206  Biso   1.000  O
  O7       1.0000 0.26874  0.32745  0.93210  Biso   1.000  O
  O8       1.0000 0.26874  0.32745  0.93206  Biso   1.000  O
  N2       1.0000 0.03542  0.35417  0.94019  Biso   1.000  N
  H35      1.0000 0.15916  0.37818  0.96328  Biso   1.000  H
  H36      1.0000 0.15923  0.37818  0.96328  Biso   1.000  H
  N3       1.0000 0.03536  0.35417  0.94019  Biso   1.000  N
  C63      1.0000 0.15901  0.89042  0.90254  Biso   1.000  C
  H37      1.0000 0.23318  0.02358  0.87080  Biso   1.000  H
  H38      1.0000 0.23324  0.02358  0.87080  Biso   1.000  H
  O9       1.0000 0.05879  0.73133  0.93210  Biso   1.000  O
  O10      1.0000 0.05879  0.73133  0.93206  Biso   1.000  O
  O11      1.0000 0.05875  0.73126  0.93210  Biso   1.000  O
  O12      1.0000 0.05875  0.73126  0.93206  Biso   1.000  O
  H39      1.0000 0.64977  0.54758  0.99808  Biso   1.000  H
  H40      1.0000 0.64965  0.54758  0.99808  Biso   1.000  H
  N4       1.0000 0.68131  0.64583  0.05981  Biso   1.000  N
  H41      1.0000 0.56364  0.52008  0.04179  Biso   1.000  H
  N5       1.0000 0.68131  0.64583  0.05976  Biso   1.000  N
  N6       1.0000 0.68125  0.64583  0.05981  Biso   1.000  N
  H42      1.0000 0.56358  0.52008  0.04179  Biso   1.000  H
  N7       1.0000 0.68125  0.64583  0.05976  Biso   1.000  N
  C64      1.0000 0.35384  0.32303  0.92848  Biso   1.000  C
  C65      1.0000 0.35378  0.32303  0.92848  Biso   1.000  C
  C66      1.0000 0.04219  0.42670  0.97981  Biso   1.000  C
  C67      1.0000 0.04219  0.42670  0.97977  Biso   1.000  C
  C68      1.0000 0.23413  0.89370  0.93930  Biso   1.000  C
  C69      1.0000 0.23419  0.89370  0.93930  Biso   1.000  C
  C70      1.0000 0.96927  0.64619  0.92848  Biso   1.000  C
  C71      1.0000 0.96920  0.64619  0.92848  Biso   1.000  C
  C72      1.0000 0.76583  0.65951  0.06070  Biso   1.000  C
  C73      1.0000 0.76583  0.65951  0.06066  Biso   1.000  C
  H43      1.0000 0.40261  0.37219  0.95302  Biso   1.000  H
  H44      1.0000 0.37634  0.33372  0.88899  Biso   1.000  H
  H45      1.0000 0.34133  0.26012  0.94100  Biso   1.000  H
  H46      1.0000 0.40261  0.37219  0.95297  Biso   1.000  H
  H47      1.0000 0.37628  0.33372  0.88899  Biso   1.000  H
  H48      1.0000 0.34127  0.26012  0.94100  Biso   1.000  H
  C74      1.0000 0.95779  0.38452  0.02019  Biso   1.000  C
  C75      1.0000 0.95786  0.38452  0.02019  Biso   1.000  C
  H49      1.0000 0.04350  0.47992  0.95821  Biso   1.000  H
  H50      1.0000 0.04350  0.47992  0.95817  Biso   1.000  H
  H51      1.0000 0.10213  0.45242  0.00192  Biso   1.000  H
  H52      1.0000 0.10213  0.45242  0.00187  Biso   1.000  H
  H53      1.0000 0.10207  0.45242  0.00192  Biso   1.000  H
  H54      1.0000 0.10207  0.45242  0.00187  Biso   1.000  H
  N8       1.0000 0.31875  0.96459  0.94019  Biso   1.000  N
  H55      1.0000 0.21896  0.84076  0.96328  Biso   1.000  H
  H56      1.0000 0.21902  0.84076  0.96328  Biso   1.000  H
  H57      1.0000 0.96961  0.59738  0.95302  Biso   1.000  H
  H58      1.0000 0.95745  0.62367  0.88899  Biso   1.000  H
  H59      1.0000 0.91883  0.65873  0.94100  Biso   1.000  H
  H60      1.0000 0.96961  0.59738  0.95297  Biso   1.000  H
  H61      1.0000 0.95739  0.62367  0.88899  Biso   1.000  H
  H62      1.0000 0.91880  0.65866  0.94100  Biso   1.000  H
  C76      1.0000 0.84096  0.73140  0.09746  Biso   1.000  C
  H63      1.0000 0.78105  0.62182  0.03672  Biso   1.000  H
  C77      1.0000 0.84096  0.73140  0.09742  Biso   1.000  C
  H64      1.0000 0.78105  0.62182  0.03668  Biso   1.000  H
  H65      1.0000 0.89793  0.35032  0.99808  Biso   1.000  H
  N9       1.0000 0.96459  0.31876  0.05981  Biso   1.000  N
  H66      1.0000 0.95652  0.43639  0.04179  Biso   1.000  H
  N10      1.0000 0.96459  0.31876  0.05976  Biso   1.000  N
  N11      1.0000 0.96465  0.31876  0.05981  Biso   1.000  N
  N12      1.0000 0.96465  0.31876  0.05976  Biso   1.000  N
  C78      1.0000 0.38448  0.95782  0.97981  Biso   1.000  C
  C79      1.0000 0.38448  0.95782  0.97977  Biso   1.000  C
  C80      1.0000 0.93061  0.73745  0.09972  Biso   1.000  C
  C81      1.0000 0.82742  0.79452  0.13026  Biso   1.000  C
  C82      1.0000 0.93055  0.73745  0.09972  Biso   1.000  C
  C83      1.0000 0.82729  0.79452  0.13026  Biso   1.000  C
  C84      1.0000 0.89367  0.23419  0.06070  Biso   1.000  C
  C85      1.0000 0.89367  0.23419  0.06066  Biso   1.000  C
  C86      1.0000 0.89373  0.23419  0.06070  Biso   1.000  C
  C87      1.0000 0.89373  0.23419  0.06066  Biso   1.000  C
  H67      1.0000 0.43631  0.95647  0.95821  Biso   1.000  H
  H68      1.0000 0.43631  0.95647  0.95817  Biso   1.000  H
  H69      1.0000 0.43643  0.95647  0.95821  Biso   1.000  H
  H70      1.0000 0.43643  0.95647  0.95817  Biso   1.000  H
  H71      1.0000 0.35032  0.89790  0.00192  Biso   1.000  H
  H72      1.0000 0.35032  0.89790  0.00187  Biso   1.000  H
  C88      1.0000 0.42672  0.04218  0.02019  Biso   1.000  C
  C89      1.0000 0.42665  0.04218  0.02019  Biso   1.000  C
  O13      1.0000 0.94129  0.67255  0.06790  Biso   1.000  O
  C90      1.0000 0.00207  0.80621  0.13380  Biso   1.000  C
  H73      1.0000 0.76686  0.79039  0.12920  Biso   1.000  H
  C91      1.0000 0.89779  0.86370  0.16476  Biso   1.000  C
  C92      1.0000 0.89779  0.86370  0.16472  Biso   1.000  C
  H74      1.0000 0.76679  0.79039  0.12920  Biso   1.000  H
  C93      1.0000 0.89040  0.15902  0.09746  Biso   1.000  C
  H75      1.0000 0.84080  0.21901  0.03672  Biso   1.000  H
  C94      1.0000 0.89040  0.15902  0.09742  Biso   1.000  C
  H76      1.0000 0.84080  0.21901  0.03668  Biso   1.000  H
  C95      1.0000 0.89046  0.15902  0.09746  Biso   1.000  C
  C96      1.0000 0.89046  0.15902  0.09742  Biso   1.000  C
  H77      1.0000 0.84086  0.21901  0.03672  Biso   1.000  H
  H78      1.0000 0.84086  0.21901  0.03668  Biso   1.000  H
  H79      1.0000 0.45242  0.10210  0.99808  Biso   1.000  H
  H80      1.0000 0.45236  0.10210  0.99808  Biso   1.000  H
  N13      1.0000 0.35416  0.03541  0.05981  Biso   1.000  N
  H81      1.0000 0.47990  0.04353  0.04179  Biso   1.000  H
  N14      1.0000 0.35416  0.03541  0.05976  Biso   1.000  N
  N15      1.0000 0.35423  0.03541  0.05981  Biso   1.000  N
  H82      1.0000 0.47993  0.04346  0.04179  Biso   1.000  H
  N16      1.0000 0.35423  0.03541  0.05976  Biso   1.000  N
  H83      1.0000 0.47996  0.04353  0.04179  Biso   1.000  H
  H84      1.0000 0.47987  0.04346  0.04179  Biso   1.000  H
  C97      1.0000 0.03075  0.67697  0.07152  Biso   1.000  C
  C98      1.0000 0.98696  0.87026  0.16574  Biso   1.000  C
  H85      1.0000 0.06231  0.80970  0.13541  Biso   1.000  H
  H86      1.0000 0.06231  0.80970  0.13537  Biso   1.000  H
  C99      1.0000 0.87351  0.92818  0.19944  Biso   1.000  C
  C100     1.0000 0.87345  0.92818  0.19944  Biso   1.000  C
  C101     1.0000 0.80683  0.06939  0.09972  Biso   1.000  C
  C102     1.0000 0.96717  0.17263  0.13026  Biso   1.000  C
  C103     1.0000 0.80689  0.06939  0.09972  Biso   1.000  C
  C104     1.0000 0.96723  0.17263  0.13026  Biso   1.000  C
  C105     1.0000 0.34050  0.10630  0.06070  Biso   1.000  C
  C106     1.0000 0.34050  0.10630  0.06066  Biso   1.000  C
  C107     1.0000 0.34056  0.10630  0.06070  Biso   1.000  C
  C108     1.0000 0.34056  0.10630  0.06066  Biso   1.000  C
  H87      1.0000 0.03035  0.62781  0.04698  Biso   1.000  H
  H88      1.0000 0.04262  0.66628  0.11101  Biso   1.000  H
  H89      1.0000 0.08121  0.73988  0.05900  Biso   1.000  H
  H90      1.0000 0.03041  0.62781  0.04698  Biso   1.000  H
  C109     1.0000 0.07180  0.94528  0.19944  Biso   1.000  C
  C110     1.0000 0.88334  0.01311  0.16574  Biso   1.000  C
  C111     1.0000 0.88340  0.01311  0.16574  Biso   1.000  C
  H91      1.0000 0.91608  0.95198  0.23309  Biso   1.000  H
  H92      1.0000 0.80724  0.89028  0.21349  Biso   1.000  H
  H93      1.0000 0.91602  0.95198  0.23309  Biso   1.000  H
  C112     1.0000 0.80417  0.99793  0.13380  Biso   1.000  C
  C113     1.0000 0.80408  0.99786  0.13380  Biso   1.000  C
  C114     1.0000 0.80411  0.99793  0.13380  Biso   1.000  C
  O14      1.0000 0.73131  0.05878  0.06790  Biso   1.000  O
  O15      1.0000 0.73137  0.05878  0.06790  Biso   1.000  O
  C115     1.0000 0.96591  0.10224  0.16476  Biso   1.000  C
  C116     1.0000 0.96591  0.10224  0.16472  Biso   1.000  C
  C117     1.0000 0.96597  0.10224  0.16476  Biso   1.000  C
  C118     1.0000 0.96597  0.10224  0.16472  Biso   1.000  C
  H94      1.0000 0.02361  0.23319  0.12920  Biso   1.000  H
  H95      1.0000 0.02355  0.23319  0.12920  Biso   1.000  H
  C119     1.0000 0.26865  0.10958  0.09746  Biso   1.000  C
  H96      1.0000 0.37819  0.15924  0.03672  Biso   1.000  H
  C120     1.0000 0.26865  0.10958  0.09742  Biso   1.000  C
  H97      1.0000 0.37819  0.15924  0.03668  Biso   1.000  H
  H98      1.0000 0.37822  0.15917  0.03672  Biso   1.000  H
  H99      1.0000 0.37822  0.15917  0.03668  Biso   1.000  H
  H100     1.0000 0.37825  0.15924  0.03672  Biso   1.000  H
  H101     1.0000 0.37825  0.15924  0.03668  Biso   1.000  H
  C121     1.0000 0.26859  0.10958  0.09746  Biso   1.000  C
  H102     1.0000 0.37816  0.15917  0.03672  Biso   1.000  H
  C122     1.0000 0.26859  0.10958  0.09742  Biso   1.000  C
  H103     1.0000 0.37816  0.15917  0.03668  Biso   1.000  H
  C123     1.0000 0.13630  0.03406  0.16476  Biso   1.000  C
  C124     1.0000 0.13630  0.03406  0.16472  Biso   1.000  C
  C125     1.0000 0.13636  0.03406  0.16476  Biso   1.000  C
  C126     1.0000 0.13636  0.03406  0.16472  Biso   1.000  C
  H104     1.0000 0.04797  0.96402  0.23309  Biso   1.000  H
  H105     1.0000 0.10963  0.91693  0.21349  Biso   1.000  H
  H106     1.0000 0.10976  0.91693  0.21349  Biso   1.000  H
  H107     1.0000 0.74742  0.93773  0.13541  Biso   1.000  H
  H108     1.0000 0.74742  0.93773  0.13537  Biso   1.000  H
  H109     1.0000 0.74732  0.93766  0.13541  Biso   1.000  H
  H110     1.0000 0.74732  0.93766  0.13537  Biso   1.000  H
  H111     1.0000 0.74736  0.93773  0.13541  Biso   1.000  H
  H112     1.0000 0.74736  0.93773  0.13537  Biso   1.000  H
  H113     1.0000 0.74738  0.93766  0.13541  Biso   1.000  H
  H114     1.0000 0.74738  0.93766  0.13537  Biso   1.000  H
  C127     1.0000 0.64624  0.96922  0.07152  Biso   1.000  C
  C128     1.0000 0.64620  0.96915  0.07152  Biso   1.000  C
  C129     1.0000 0.05475  0.12653  0.19944  Biso   1.000  C
  C130     1.0000 0.05469  0.12653  0.19944  Biso   1.000  C
  C131     1.0000 0.26255  0.19315  0.09972  Biso   1.000  C
  C132     1.0000 0.20548  0.03284  0.13026  Biso   1.000  C
  C133     1.0000 0.20554  0.03284  0.13026  Biso   1.000  C
  C134     1.0000 0.26249  0.19315  0.09972  Biso   1.000  C
  C135     1.0000 0.12974  0.11670  0.16574  Biso   1.000  C
  C136     1.0000 0.12980  0.11670  0.16574  Biso   1.000  C
  H115     1.0000 0.59736  0.96958  0.04698  Biso   1.000  H
  H116     1.0000 0.62373  0.95739  0.11101  Biso   1.000  H
  H117     1.0000 0.65872  0.91878  0.05900  Biso   1.000  H
  H118     1.0000 0.03602  0.08400  0.23309  Biso   1.000  H
  H119     1.0000 0.08307  0.19279  0.21349  Biso   1.000  H
  H120     1.0000 0.08313  0.19279  0.21349  Biso   1.000  H
  H121     1.0000 0.03595  0.08400  0.23309  Biso   1.000  H
  C137     1.0000 0.19385  0.19593  0.13380  Biso   1.000  C
  C138     1.0000 0.19379  0.19593  0.13380  Biso   1.000  C
  O16      1.0000 0.32746  0.26867  0.06790  Biso   1.000  O
  O17      1.0000 0.32740  0.26867  0.06790  Biso   1.000  O
  H122     1.0000 0.20953  0.97642  0.12920  Biso   1.000  H
  H123     1.0000 0.20966  0.97642  0.12920  Biso   1.000  H
  H124     1.0000 0.19027  0.25257  0.13541  Biso   1.000  H
  H125     1.0000 0.19027  0.25257  0.13537  Biso   1.000  H
  H126     1.0000 0.19033  0.25257  0.13541  Biso   1.000  H
  H127     1.0000 0.19033  0.25257  0.13537  Biso   1.000  H
  C139     1.0000 0.32302  0.35381  0.07152  Biso   1.000  C
  C140     1.0000 0.32295  0.35381  0.07152  Biso   1.000  C
  H128     1.0000 0.37222  0.40262  0.04698  Biso   1.000  H
  H129     1.0000 0.33372  0.37633  0.11101  Biso   1.000  H
  H130     1.0000 0.26010  0.34127  0.05900  Biso   1.000  H
  H131     1.0000 0.37216  0.40262  0.04698  Biso   1.000  H
  H132     1.0000 0.26004  0.34127  0.05900  Biso   1.000  H
  C141     1.0000 0.80618  0.00207  0.86620  Biso   1.000  C
  C142     1.0000 0.87023  0.98689  0.83426  Biso   1.000  C
  C143     1.0000 0.87023  0.98689  0.83421  Biso   1.000  C
  H133     1.0000 0.80969  0.06227  0.86459  Biso   1.000  H
  H134     1.0000 0.80975  0.06227  0.86459  Biso   1.000  H
  C144     1.0000 0.73744  0.93061  0.90028  Biso   1.000  C
  C145     1.0000 0.94527  0.07182  0.80052  Biso   1.000  C
  C146     1.0000 0.94527  0.07182  0.80056  Biso   1.000  C
  C147     1.0000 0.86367  0.89776  0.83524  Biso   1.000  C
  C148     1.0000 0.86361  0.89776  0.83524  Biso   1.000  C
  C149     1.0000 0.94533  0.07182  0.80056  Biso   1.000  C
  C150     1.0000 0.94533  0.07182  0.80052  Biso   1.000  C
  O18      1.0000 0.67259  0.94122  0.93210  Biso   1.000  O
  C151     1.0000 0.73143  0.84098  0.90254  Biso   1.000  C
  O19      1.0000 0.67259  0.94122  0.93206  Biso   1.000  O
  O20      1.0000 0.67253  0.94122  0.93210  Biso   1.000  O
  O21      1.0000 0.67253  0.94122  0.93206  Biso   1.000  O
  C152     1.0000 0.73137  0.84098  0.90254  Biso   1.000  C
  H135     1.0000 0.96404  0.04802  0.76691  Biso   1.000  H
  H136     1.0000 0.91690  0.10972  0.78651  Biso   1.000  H
  H137     1.0000 0.91696  0.10972  0.78651  Biso   1.000  H
  C153     1.0000 0.03409  0.13630  0.83524  Biso   1.000  C
  C154     1.0000 0.03403  0.13630  0.83524  Biso   1.000  C
  C155     1.0000 0.79460  0.82737  0.86974  Biso   1.000  C
  C156     1.0000 0.92828  0.87347  0.80056  Biso   1.000  C
  C157     1.0000 0.79460  0.82737  0.86970  Biso   1.000  C
  C158     1.0000 0.92828  0.87347  0.80052  Biso   1.000  C
  C159     1.0000 0.79448  0.82737  0.86974  Biso   1.000  C
  C160     1.0000 0.92822  0.87347  0.80056  Biso   1.000  C
  C161     1.0000 0.79448  0.82737  0.86970  Biso   1.000  C
  C162     1.0000 0.92822  0.87347  0.80052  Biso   1.000  C
  C163     1.0000 0.67696  0.03078  0.92848  Biso   1.000  C
  C164     1.0000 0.67702  0.03078  0.92848  Biso   1.000  C
  C165     1.0000 0.65948  0.76581  0.93930  Biso   1.000  C
  C166     1.0000 0.65942  0.76581  0.93930  Biso   1.000  C
  C167     1.0000 0.03283  0.20548  0.86974  Biso   1.000  C
  C168     1.0000 0.11664  0.12974  0.83426  Biso   1.000  C
  C169     1.0000 0.03283  0.20548  0.86970  Biso   1.000  C
  C170     1.0000 0.11664  0.12974  0.83421  Biso   1.000  C
  C171     1.0000 0.11670  0.12974  0.83426  Biso   1.000  C
  C172     1.0000 0.11670  0.12974  0.83421  Biso   1.000  C
  H138     1.0000 0.79042  0.76681  0.87080  Biso   1.000  H
  H139     1.0000 0.95201  0.91600  0.76691  Biso   1.000  H
  H140     1.0000 0.89034  0.80721  0.78651  Biso   1.000  H
  C173     1.0000 0.01298  0.88330  0.83426  Biso   1.000  C
  C174     1.0000 0.01298  0.88330  0.83421  Biso   1.000  C
  C175     1.0000 0.01304  0.88330  0.83426  Biso   1.000  C
  C176     1.0000 0.01304  0.88330  0.83421  Biso   1.000  C
  H141     1.0000 0.66627  0.04261  0.88899  Biso   1.000  H
  H142     1.0000 0.73988  0.08122  0.94100  Biso   1.000  H
  H143     1.0000 0.66633  0.04261  0.88899  Biso   1.000  H
  H144     1.0000 0.73994  0.08122  0.94100  Biso   1.000  H
  H145     1.0000 0.62785  0.03042  0.95302  Biso   1.000  H
  H146     1.0000 0.62785  0.03042  0.95297  Biso   1.000  H
  H147     1.0000 0.62779  0.03042  0.95302  Biso   1.000  H
  H148     1.0000 0.62779  0.03042  0.95297  Biso   1.000  H
  N17      1.0000 0.64583  0.68124  0.94019  Biso   1.000  N
  H149     1.0000 0.62178  0.78099  0.96328  Biso   1.000  H
  H150     1.0000 0.62172  0.78099  0.96328  Biso   1.000  H
  H151     1.0000 0.97640  0.20961  0.87080  Biso   1.000  H
  H152     1.0000 0.97646  0.20961  0.87080  Biso   1.000  H
  C177     1.0000 0.10956  0.26860  0.90254  Biso   1.000  C
  C178     1.0000 0.10962  0.26860  0.90254  Biso   1.000  C
  C179     1.0000 0.19593  0.19379  0.86620  Biso   1.000  C
  C180     1.0000 0.12651  0.05472  0.80056  Biso   1.000  C
  C181     1.0000 0.12651  0.05472  0.80052  Biso   1.000  C
  C182     1.0000 0.12658  0.05472  0.80056  Biso   1.000  C
  C183     1.0000 0.12658  0.05472  0.80052  Biso   1.000  C
  C184     1.0000 0.19587  0.19379  0.86620  Biso   1.000  C
  C185     1.0000 0.10224  0.96594  0.83524  Biso   1.000  C
  C186     1.0000 0.99798  0.80407  0.86620  Biso   1.000  C
  C187     1.0000 0.99792  0.80407  0.86620  Biso   1.000  C
  C188     1.0000 0.57334  0.61548  0.97981  Biso   1.000  C
  C189     1.0000 0.57334  0.61548  0.97977  Biso   1.000  C
  C190     1.0000 0.57321  0.61548  0.97981  Biso   1.000  C
  C191     1.0000 0.57321  0.61548  0.97977  Biso   1.000  C
  C192     1.0000 0.19316  0.26255  0.90028  Biso   1.000  C
  C193     1.0000 0.10632  0.34049  0.93930  Biso   1.000  C
  C194     1.0000 0.19310  0.26255  0.90028  Biso   1.000  C
  C195     1.0000 0.10626  0.34049  0.93930  Biso   1.000  C
  H153     1.0000 0.25261  0.19030  0.86459  Biso   1.000  H
  H154     1.0000 0.25255  0.19030  0.86459  Biso   1.000  H
  H155     1.0000 0.08401  0.03598  0.76691  Biso   1.000  H
  H156     1.0000 0.19277  0.08307  0.78651  Biso   1.000  H
  H157     1.0000 0.19283  0.08307  0.78651  Biso   1.000  H
  H158     1.0000 0.08395  0.03598  0.76691  Biso   1.000  H
  C196     1.0000 0.17257  0.96716  0.86974  Biso   1.000  C
  C197     1.0000 0.17257  0.96716  0.86970  Biso   1.000  C
  C198     1.0000 0.17263  0.96716  0.86974  Biso   1.000  C
  C199     1.0000 0.17263  0.96716  0.86970  Biso   1.000  C
  H159     1.0000 0.93770  0.74743  0.86459  Biso   1.000  H
  H160     1.0000 0.93766  0.74736  0.86459  Biso   1.000  H
  C200     1.0000 0.06934  0.80685  0.90028  Biso   1.000  C
  H161     1.0000 0.52013  0.56361  0.95821  Biso   1.000  H
  H162     1.0000 0.52013  0.56361  0.95817  Biso   1.000  H
  H163     1.0000 0.54761  0.64968  0.00192  Biso   1.000  H
  C201     1.0000 0.61555  0.57330  0.02019  Biso   1.000  C
  H164     1.0000 0.54761  0.64968  0.00187  Biso   1.000  H
  H165     1.0000 0.54755  0.64968  0.00192  Biso   1.000  H
  C202     1.0000 0.61543  0.57330  0.02019  Biso   1.000  C
  H166     1.0000 0.54755  0.64968  0.00187  Biso   1.000  H
  O22      1.0000 0.26868  0.32745  0.93210  Biso   1.000  O
  O23      1.0000 0.26868  0.32745  0.93206  Biso   1.000  O
  O24      1.0000 0.26874  0.32745  0.93210  Biso   1.000  O
  O25      1.0000 0.26874  0.32745  0.93206  Biso   1.000  O
  N18      1.0000 0.03542  0.35417  0.94019  Biso   1.000  N
  H167     1.0000 0.15916  0.37818  0.96328  Biso   1.000  H
  H168     1.0000 0.15923  0.37818  0.96328  Biso   1.000  H
  N19      1.0000 0.03536  0.35417  0.94019  Biso   1.000  N
  C203     1.0000 0.15901  0.89042  0.90254  Biso   1.000  C
  H169     1.0000 0.23318  0.02358  0.87080  Biso   1.000  H
  H170     1.0000 0.23324  0.02358  0.87080  Biso   1.000  H
  O26      1.0000 0.05879  0.73133  0.93210  Biso   1.000  O
  O27      1.0000 0.05879  0.73133  0.93206  Biso   1.000  O
  O28      1.0000 0.05875  0.73126  0.93210  Biso   1.000  O
  O29      1.0000 0.05875  0.73126  0.93206  Biso   1.000  O
  H171     1.0000 0.64977  0.54758  0.99808  Biso   1.000  H
  H172     1.0000 0.64965  0.54758  0.99808  Biso   1.000  H
  N20      1.0000 0.68131  0.64583  0.05981  Biso   1.000  N
  H173     1.0000 0.56364  0.52008  0.04179  Biso   1.000  H
  N21      1.0000 0.68131  0.64583  0.05976  Biso   1.000  N
  N22      1.0000 0.68125  0.64583  0.05981  Biso   1.000  N
  H174     1.0000 0.56358  0.52008  0.04179  Biso   1.000  H
  N23      1.0000 0.68125  0.64583  0.05976  Biso   1.000  N
  C204     1.0000 0.35384  0.32303  0.92848  Biso   1.000  C
  C205     1.0000 0.35378  0.32303  0.92848  Biso   1.000  C
  C206     1.0000 0.04219  0.42670  0.97981  Biso   1.000  C
  C207     1.0000 0.04219  0.42670  0.97977  Biso   1.000  C
  C208     1.0000 0.23413  0.89370  0.93930  Biso   1.000  C
  C209     1.0000 0.23419  0.89370  0.93930  Biso   1.000  C
  C210     1.0000 0.96927  0.64619  0.92848  Biso   1.000  C
  C211     1.0000 0.96920  0.64619  0.92848  Biso   1.000  C
  C212     1.0000 0.76583  0.65951  0.06070  Biso   1.000  C
  C213     1.0000 0.76583  0.65951  0.06066  Biso   1.000  C
  H175     1.0000 0.40261  0.37219  0.95302  Biso   1.000  H
  H176     1.0000 0.37634  0.33372  0.88899  Biso   1.000  H
  H177     1.0000 0.34133  0.26012  0.94100  Biso   1.000  H
  H178     1.0000 0.40261  0.37219  0.95297  Biso   1.000  H
  H179     1.0000 0.37628  0.33372  0.88899  Biso   1.000  H
  H180     1.0000 0.34127  0.26012  0.94100  Biso   1.000  H
  C214     1.0000 0.95779  0.38452  0.02019  Biso   1.000  C
  C215     1.0000 0.95786  0.38452  0.02019  Biso   1.000  C
  H181     1.0000 0.04350  0.47992  0.95821  Biso   1.000  H
  H182     1.0000 0.04350  0.47992  0.95817  Biso   1.000  H
  H183     1.0000 0.10213  0.45242  0.00192  Biso   1.000  H
  H184     1.0000 0.10213  0.45242  0.00187  Biso   1.000  H
  H185     1.0000 0.10207  0.45242  0.00192  Biso   1.000  H
  H186     1.0000 0.10207  0.45242  0.00187  Biso   1.000  H
  N24      1.0000 0.31875  0.96459  0.94019  Biso   1.000  N
  H187     1.0000 0.21896  0.84076  0.96328  Biso   1.000  H
  H188     1.0000 0.21902  0.84076  0.96328  Biso   1.000  H
  H189     1.0000 0.96961  0.59738  0.95302  Biso   1.000  H
  H190     1.0000 0.96961  0.59738  0.95297  Biso   1.000  H
  H191     1.0000 0.91883  0.65873  0.94100  Biso   1.000  H
  H192     1.0000 0.95745  0.62367  0.88899  Biso   1.000  H
  H193     1.0000 0.95739  0.62367  0.88899  Biso   1.000  H
  H194     1.0000 0.91880  0.65866  0.94100  Biso   1.000  H
  C216     1.0000 0.84096  0.73140  0.09746  Biso   1.000  C
  C217     1.0000 0.84096  0.73140  0.09742  Biso   1.000  C
  H195     1.0000 0.78105  0.62182  0.03672  Biso   1.000  H
  H196     1.0000 0.78105  0.62182  0.03668  Biso   1.000  H
  H197     1.0000 0.89793  0.35032  0.99808  Biso   1.000  H
  N25      1.0000 0.96459  0.31876  0.05981  Biso   1.000  N
  H198     1.0000 0.95652  0.43639  0.04179  Biso   1.000  H
  N26      1.0000 0.96459  0.31876  0.05976  Biso   1.000  N
  N27      1.0000 0.96465  0.31876  0.05981  Biso   1.000  N
  N28      1.0000 0.96465  0.31876  0.05976  Biso   1.000  N
  C218     1.0000 0.38448  0.95782  0.97981  Biso   1.000  C
  C219     1.0000 0.38448  0.95782  0.97977  Biso   1.000  C
  C220     1.0000 0.93061  0.73745  0.09972  Biso   1.000  C
  C221     1.0000 0.82742  0.79452  0.13026  Biso   1.000  C
  C222     1.0000 0.93055  0.73745  0.09972  Biso   1.000  C
  C223     1.0000 0.82729  0.79452  0.13026  Biso   1.000  C
  C224     1.0000 0.89367  0.23419  0.06070  Biso   1.000  C
  C225     1.0000 0.89367  0.23419  0.06066  Biso   1.000  C
  C226     1.0000 0.89373  0.23419  0.06070  Biso   1.000  C
  C227     1.0000 0.89373  0.23419  0.06066  Biso   1.000  C
  H199     1.0000 0.43631  0.95647  0.95821  Biso   1.000  H
  H200     1.0000 0.43631  0.95647  0.95817  Biso   1.000  H
  H201     1.0000 0.43643  0.95647  0.95821  Biso   1.000  H
  H202     1.0000 0.43643  0.95647  0.95817  Biso   1.000  H
  H203     1.0000 0.35032  0.89790  0.00192  Biso   1.000  H
  H204     1.0000 0.35032  0.89790  0.00187  Biso   1.000  H
  C228     1.0000 0.42672  0.04218  0.02019  Biso   1.000  C
  C229     1.0000 0.42665  0.04218  0.02019  Biso   1.000  C
  O30      1.0000 0.94129  0.67255  0.06790  Biso   1.000  O
  C230     1.0000 0.00207  0.80621  0.13380  Biso   1.000  C
  C231     1.0000 0.89779  0.86370  0.16476  Biso   1.000  C
  C232     1.0000 0.89779  0.86370  0.16472  Biso   1.000  C
  H205     1.0000 0.76686  0.79039  0.12920  Biso   1.000  H
  H206     1.0000 0.76679  0.79039  0.12920  Biso   1.000  H
  C233     1.0000 0.89040  0.15902  0.09746  Biso   1.000  C
  H207     1.0000 0.84080  0.21901  0.03672  Biso   1.000  H
  C234     1.0000 0.89040  0.15902  0.09742  Biso   1.000  C
  H208     1.0000 0.84080  0.21901  0.03668  Biso   1.000  H
  C235     1.0000 0.89046  0.15902  0.09746  Biso   1.000  C
  C236     1.0000 0.89046  0.15902  0.09742  Biso   1.000  C
  H209     1.0000 0.84086  0.21901  0.03672  Biso   1.000  H
  H210     1.0000 0.84086  0.21901  0.03668  Biso   1.000  H
  H211     1.0000 0.45242  0.10210  0.99808  Biso   1.000  H
  H212     1.0000 0.45236  0.10210  0.99808  Biso   1.000  H
  N29      1.0000 0.35416  0.03541  0.05981  Biso   1.000  N
  H213     1.0000 0.47990  0.04353  0.04179  Biso   1.000  H
  N30      1.0000 0.35416  0.03541  0.05976  Biso   1.000  N
  N31      1.0000 0.35423  0.03541  0.05981  Biso   1.000  N
  H214     1.0000 0.47993  0.04346  0.04179  Biso   1.000  H
  N32      1.0000 0.35423  0.03541  0.05976  Biso   1.000  N
  H215     1.0000 0.47996  0.04353  0.04179  Biso   1.000  H
  H216     1.0000 0.47987  0.04346  0.04179  Biso   1.000  H
  C237     1.0000 0.03075  0.67697  0.07152  Biso   1.000  C
  C238     1.0000 0.98696  0.87026  0.16574  Biso   1.000  C
  H217     1.0000 0.06231  0.80970  0.13541  Biso   1.000  H
  H218     1.0000 0.06231  0.80970  0.13537  Biso   1.000  H
  C239     1.0000 0.87351  0.92818  0.19944  Biso   1.000  C
  C240     1.0000 0.87345  0.92818  0.19944  Biso   1.000  C
  C241     1.0000 0.80683  0.06939  0.09972  Biso   1.000  C
  C242     1.0000 0.96717  0.17263  0.13026  Biso   1.000  C
  C243     1.0000 0.80689  0.06939  0.09972  Biso   1.000  C
  C244     1.0000 0.96723  0.17263  0.13026  Biso   1.000  C
  C245     1.0000 0.34050  0.10630  0.06070  Biso   1.000  C
  C246     1.0000 0.34050  0.10630  0.06066  Biso   1.000  C
  C247     1.0000 0.34056  0.10630  0.06070  Biso   1.000  C
  C248     1.0000 0.34056  0.10630  0.06066  Biso   1.000  C
  H219     1.0000 0.03035  0.62781  0.04698  Biso   1.000  H
  H220     1.0000 0.04262  0.66628  0.11101  Biso   1.000  H
  H221     1.0000 0.08121  0.73988  0.05900  Biso   1.000  H
  H222     1.0000 0.03041  0.62781  0.04698  Biso   1.000  H
  C249     1.0000 0.07180  0.94528  0.19944  Biso   1.000  C
  C250     1.0000 0.88334  0.01311  0.16574  Biso   1.000  C
  C251     1.0000 0.88340  0.01311  0.16574  Biso   1.000  C
  H223     1.0000 0.91608  0.95198  0.23309  Biso   1.000  H
  H224     1.0000 0.80724  0.89028  0.21349  Biso   1.000  H
  H225     1.0000 0.91602  0.95198  0.23309  Biso   1.000  H
  C252     1.0000 0.80417  0.99793  0.13380  Biso   1.000  C
  C253     1.0000 0.80408  0.99786  0.13380  Biso   1.000  C
  C254     1.0000 0.80411  0.99793  0.13380  Biso   1.000  C
  O31      1.0000 0.73131  0.05878  0.06790  Biso   1.000  O
  O32      1.0000 0.73137  0.05878  0.06790  Biso   1.000  O
  C255     1.0000 0.96591  0.10224  0.16476  Biso   1.000  C
  C256     1.0000 0.96591  0.10224  0.16472  Biso   1.000  C
  C257     1.0000 0.96597  0.10224  0.16476  Biso   1.000  C
  C258     1.0000 0.96597  0.10224  0.16472  Biso   1.000  C
  H226     1.0000 0.02361  0.23319  0.12920  Biso   1.000  H
  H227     1.0000 0.02355  0.23319  0.12920  Biso   1.000  H
  C259     1.0000 0.26865  0.10958  0.09746  Biso   1.000  C
  H228     1.0000 0.37819  0.15924  0.03672  Biso   1.000  H
  C260     1.0000 0.26865  0.10958  0.09742  Biso   1.000  C
  H229     1.0000 0.37819  0.15924  0.03668  Biso   1.000  H
  H230     1.0000 0.37822  0.15917  0.03672  Biso   1.000  H
  H231     1.0000 0.37822  0.15917  0.03668  Biso   1.000  H
  H232     1.0000 0.37825  0.15924  0.03672  Biso   1.000  H
  H233     1.0000 0.37825  0.15924  0.03668  Biso   1.000  H
  C261     1.0000 0.26859  0.10958  0.09746  Biso   1.000  C
  H234     1.0000 0.37816  0.15917  0.03672  Biso   1.000  H
  C262     1.0000 0.26859  0.10958  0.09742  Biso   1.000  C
  H235     1.0000 0.37816  0.15917  0.03668  Biso   1.000  H
  C263     1.0000 0.13630  0.03406  0.16476  Biso   1.000  C
  C264     1.0000 0.13630  0.03406  0.16472  Biso   1.000  C
  C265     1.0000 0.13636  0.03406  0.16476  Biso   1.000  C
  C266     1.0000 0.13636  0.03406  0.16472  Biso   1.000  C
  H236     1.0000 0.04797  0.96402  0.23309  Biso   1.000  H
  H237     1.0000 0.10963  0.91693  0.21349  Biso   1.000  H
  H238     1.0000 0.10976  0.91693  0.21349  Biso   1.000  H
  H239     1.0000 0.74742  0.93773  0.13541  Biso   1.000  H
  H240     1.0000 0.74742  0.93773  0.13537  Biso   1.000  H
  H241     1.0000 0.74732  0.93766  0.13541  Biso   1.000  H
  H242     1.0000 0.74732  0.93766  0.13537  Biso   1.000  H
  H243     1.0000 0.74736  0.93773  0.13541  Biso   1.000  H
  H244     1.0000 0.74736  0.93773  0.13537  Biso   1.000  H
  H245     1.0000 0.74738  0.93766  0.13541  Biso   1.000  H
  H246     1.0000 0.74738  0.93766  0.13537  Biso   1.000  H
  C267     1.0000 0.64624  0.96922  0.07152  Biso   1.000  C
  C268     1.0000 0.64620  0.96915  0.07152  Biso   1.000  C
  C269     1.0000 0.05475  0.12653  0.19944  Biso   1.000  C
  C270     1.0000 0.05469  0.12653  0.19944  Biso   1.000  C
  C271     1.0000 0.26255  0.19315  0.09972  Biso   1.000  C
  C272     1.0000 0.20548  0.03284  0.13026  Biso   1.000  C
  C273     1.0000 0.20554  0.03284  0.13026  Biso   1.000  C
  C274     1.0000 0.26249  0.19315  0.09972  Biso   1.000  C
  C275     1.0000 0.12974  0.11670  0.16574  Biso   1.000  C
  C276     1.0000 0.12980  0.11670  0.16574  Biso   1.000  C
  H247     1.0000 0.59736  0.96958  0.04698  Biso   1.000  H
  H248     1.0000 0.62373  0.95739  0.11101  Biso   1.000  H
  H249     1.0000 0.65872  0.91878  0.05900  Biso   1.000  H
  H250     1.0000 0.03602  0.08400  0.23309  Biso   1.000  H
  H251     1.0000 0.08307  0.19279  0.21349  Biso   1.000  H
  H252     1.0000 0.08313  0.19279  0.21349  Biso   1.000  H
  H253     1.0000 0.03595  0.08400  0.23309  Biso   1.000  H
  C277     1.0000 0.19385  0.19593  0.13380  Biso   1.000  C
  C278     1.0000 0.19379  0.19593  0.13380  Biso   1.000  C
  O33      1.0000 0.32746  0.26867  0.06790  Biso   1.000  O
  O34      1.0000 0.32740  0.26867  0.06790  Biso   1.000  O
  H254     1.0000 0.20953  0.97642  0.12920  Biso   1.000  H
  H255     1.0000 0.20966  0.97642  0.12920  Biso   1.000  H
  H256     1.0000 0.19027  0.25257  0.13541  Biso   1.000  H
  H257     1.0000 0.19027  0.25257  0.13537  Biso   1.000  H
  H258     1.0000 0.19033  0.25257  0.13541  Biso   1.000  H
  H259     1.0000 0.19033  0.25257  0.13537  Biso   1.000  H
  C279     1.0000 0.32302  0.35381  0.07152  Biso   1.000  C
  C280     1.0000 0.32295  0.35381  0.07152  Biso   1.000  C
  H260     1.0000 0.37222  0.40262  0.04698  Biso   1.000  H
  H261     1.0000 0.33372  0.37633  0.11101  Biso   1.000  H
  H262     1.0000 0.26010  0.34127  0.05900  Biso   1.000  H
  H263     1.0000 0.37216  0.40262  0.04698  Biso   1.000  H
  H264     1.0000 0.26004  0.34127  0.05900  Biso   1.000  H
  C281     1.0000 0.80618  0.00207  0.86620  Biso   1.000  C
  C282     1.0000 0.87023  0.98689  0.83426  Biso   1.000  C
  C283     1.0000 0.87023  0.98689  0.83421  Biso   1.000  C
  H265     1.0000 0.80969  0.06227  0.86459  Biso   1.000  H
  C284     1.0000 0.73744  0.93061  0.90028  Biso   1.000  C
  H266     1.0000 0.80975  0.06227  0.86459  Biso   1.000  H
  C285     1.0000 0.94527  0.07182  0.80052  Biso   1.000  C
  C286     1.0000 0.94527  0.07182  0.80056  Biso   1.000  C
  C287     1.0000 0.86367  0.89776  0.83524  Biso   1.000  C
  C288     1.0000 0.86361  0.89776  0.83524  Biso   1.000  C
  C289     1.0000 0.94533  0.07182  0.80056  Biso   1.000  C
  C290     1.0000 0.94533  0.07182  0.80052  Biso   1.000  C
  O35      1.0000 0.67259  0.94122  0.93210  Biso   1.000  O
  C291     1.0000 0.73143  0.84098  0.90254  Biso   1.000  C
  O36      1.0000 0.67259  0.94122  0.93206  Biso   1.000  O
  O37      1.0000 0.67253  0.94122  0.93210  Biso   1.000  O
  O38      1.0000 0.67253  0.94122  0.93206  Biso   1.000  O
  C292     1.0000 0.73137  0.84098  0.90254  Biso   1.000  C
  H267     1.0000 0.96404  0.04802  0.76691  Biso   1.000  H
  H268     1.0000 0.91696  0.10972  0.78651  Biso   1.000  H
  H269     1.0000 0.91690  0.10972  0.78651  Biso   1.000  H
  C293     1.0000 0.03409  0.13630  0.83524  Biso   1.000  C
  C294     1.0000 0.03403  0.13630  0.83524  Biso   1.000  C
  C295     1.0000 0.79460  0.82737  0.86974  Biso   1.000  C
  C296     1.0000 0.92828  0.87347  0.80056  Biso   1.000  C
  C297     1.0000 0.79460  0.82737  0.86970  Biso   1.000  C
  C298     1.0000 0.92828  0.87347  0.80052  Biso   1.000  C
  C299     1.0000 0.79448  0.82737  0.86974  Biso   1.000  C
  C300     1.0000 0.92822  0.87347  0.80056  Biso   1.000  C
  C301     1.0000 0.79448  0.82737  0.86970  Biso   1.000  C
  C302     1.0000 0.92822  0.87347  0.80052  Biso   1.000  C
  C303     1.0000 0.67702  0.03078  0.92848  Biso   1.000  C
  C304     1.0000 0.67696  0.03078  0.92848  Biso   1.000  C
  C305     1.0000 0.65948  0.76581  0.93930  Biso   1.000  C
  C306     1.0000 0.65942  0.76581  0.93930  Biso   1.000  C
  C307     1.0000 0.03283  0.20548  0.86974  Biso   1.000  C
  C308     1.0000 0.11664  0.12974  0.83426  Biso   1.000  C
  C309     1.0000 0.03283  0.20548  0.86970  Biso   1.000  C
  C310     1.0000 0.11664  0.12974  0.83421  Biso   1.000  C
  C311     1.0000 0.11670  0.12974  0.83426  Biso   1.000  C
  C312     1.0000 0.11670  0.12974  0.83421  Biso   1.000  C
  H270     1.0000 0.79042  0.76681  0.87080  Biso   1.000  H
  H271     1.0000 0.95201  0.91600  0.76691  Biso   1.000  H
  H272     1.0000 0.89034  0.80721  0.78651  Biso   1.000  H
  C313     1.0000 0.01298  0.88330  0.83426  Biso   1.000  C
  C314     1.0000 0.01298  0.88330  0.83421  Biso   1.000  C
  C315     1.0000 0.01304  0.88330  0.83426  Biso   1.000  C
  C316     1.0000 0.01304  0.88330  0.83421  Biso   1.000  C
  H273     1.0000 0.66633  0.04261  0.88899  Biso   1.000  H
  H274     1.0000 0.73994  0.08122  0.94100  Biso   1.000  H
  H275     1.0000 0.62785  0.03042  0.95302  Biso   1.000  H
  H276     1.0000 0.62785  0.03042  0.95297  Biso   1.000  H
  H277     1.0000 0.62779  0.03042  0.95302  Biso   1.000  H
  H278     1.0000 0.66627  0.04261  0.88899  Biso   1.000  H
  H279     1.0000 0.73988  0.08122  0.94100  Biso   1.000  H
  H280     1.0000 0.62779  0.03042  0.95297  Biso   1.000  H
  N33      1.0000 0.64583  0.68124  0.94019  Biso   1.000  N
  H281     1.0000 0.62178  0.78099  0.96328  Biso   1.000  H
  H282     1.0000 0.62172  0.78099  0.96328  Biso   1.000  H
  H283     1.0000 0.97640  0.20961  0.87080  Biso   1.000  H
  H284     1.0000 0.97646  0.20961  0.87080  Biso   1.000  H
  C317     1.0000 0.10956  0.26860  0.90254  Biso   1.000  C
  C318     1.0000 0.10962  0.26860  0.90254  Biso   1.000  C
  C319     1.0000 0.19593  0.19379  0.86620  Biso   1.000  C
  C320     1.0000 0.12651  0.05472  0.80056  Biso   1.000  C
  C321     1.0000 0.12651  0.05472  0.80052  Biso   1.000  C
  C322     1.0000 0.12658  0.05472  0.80056  Biso   1.000  C
  C323     1.0000 0.12658  0.05472  0.80052  Biso   1.000  C
  C324     1.0000 0.19587  0.19379  0.86620  Biso   1.000  C
  C325     1.0000 0.10224  0.96594  0.83524  Biso   1.000  C
  C326     1.0000 0.99798  0.80407  0.86620  Biso   1.000  C
  C327     1.0000 0.99792  0.80407  0.86620  Biso   1.000  C
  C328     1.0000 0.57334  0.61548  0.97981  Biso   1.000  C
  C329     1.0000 0.57334  0.61548  0.97977  Biso   1.000  C
  C330     1.0000 0.57321  0.61548  0.97981  Biso   1.000  C
  C331     1.0000 0.57321  0.61548  0.97977  Biso   1.000  C
  C332     1.0000 0.19316  0.26255  0.90028  Biso   1.000  C
  C333     1.0000 0.10632  0.34049  0.93930  Biso   1.000  C
  C334     1.0000 0.19310  0.26255  0.90028  Biso   1.000  C
  C335     1.0000 0.10626  0.34049  0.93930  Biso   1.000  C
  H285     1.0000 0.25261  0.19030  0.86459  Biso   1.000  H
  H286     1.0000 0.25255  0.19030  0.86459  Biso   1.000  H
  H287     1.0000 0.08401  0.03598  0.76691  Biso   1.000  H
  H288     1.0000 0.19277  0.08307  0.78651  Biso   1.000  H
  H289     1.0000 0.19283  0.08307  0.78651  Biso   1.000  H
  H290     1.0000 0.08395  0.03598  0.76691  Biso   1.000  H
  C336     1.0000 0.17257  0.96716  0.86974  Biso   1.000  C
  C337     1.0000 0.17257  0.96716  0.86970  Biso   1.000  C
  C338     1.0000 0.17263  0.96716  0.86974  Biso   1.000  C
  C339     1.0000 0.17263  0.96716  0.86970  Biso   1.000  C
  H291     1.0000 0.93770  0.74743  0.86459  Biso   1.000  H
  H292     1.0000 0.93766  0.74736  0.86459  Biso   1.000  H
  C340     1.0000 0.06934  0.80685  0.90028  Biso   1.000  C
  H293     1.0000 0.52013  0.56361  0.95821  Biso   1.000  H
  H294     1.0000 0.52013  0.56361  0.95817  Biso   1.000  H
  H295     1.0000 0.54761  0.64968  0.00192  Biso   1.000  H
  C341     1.0000 0.61555  0.57330  0.02019  Biso   1.000  C
  H296     1.0000 0.54761  0.64968  0.00187  Biso   1.000  H
  H297     1.0000 0.54755  0.64968  0.00192  Biso   1.000  H
  C342     1.0000 0.61543  0.57330  0.02019  Biso   1.000  C
  H298     1.0000 0.54755  0.64968  0.00187  Biso   1.000  H
  O39      1.0000 0.26868  0.32745  0.93210  Biso   1.000  O
  O40      1.0000 0.26868  0.32745  0.93206  Biso   1.000  O
  O41      1.0000 0.26874  0.32745  0.93210  Biso   1.000  O
  O42      1.0000 0.26874  0.32745  0.93206  Biso   1.000  O
  N34      1.0000 0.03542  0.35417  0.94019  Biso   1.000  N
  H299     1.0000 0.15916  0.37818  0.96328  Biso   1.000  H
  H300     1.0000 0.15923  0.37818  0.96328  Biso   1.000  H
  N35      1.0000 0.03536  0.35417  0.94019  Biso   1.000  N
  C343     1.0000 0.15901  0.89042  0.90254  Biso   1.000  C
  H301     1.0000 0.23318  0.02358  0.87080  Biso   1.000  H
  H302     1.0000 0.23324  0.02358  0.87080  Biso   1.000  H
  O43      1.0000 0.05879  0.73133  0.93210  Biso   1.000  O
  O44      1.0000 0.05879  0.73133  0.93206  Biso   1.000  O
  O45      1.0000 0.05875  0.73126  0.93210  Biso   1.000  O
  O46      1.0000 0.05875  0.73126  0.93206  Biso   1.000  O
  H303     1.0000 0.64977  0.54758  0.99808  Biso   1.000  H
  H304     1.0000 0.64965  0.54758  0.99808  Biso   1.000  H
  N36      1.0000 0.68131  0.64583  0.05981  Biso   1.000  N
  H305     1.0000 0.56364  0.52008  0.04179  Biso   1.000  H
  N37      1.0000 0.68131  0.64583  0.05976  Biso   1.000  N
  N38      1.0000 0.68125  0.64583  0.05981  Biso   1.000  N
  H306     1.0000 0.56358  0.52008  0.04179  Biso   1.000  H
  N39      1.0000 0.68125  0.64583  0.05976  Biso   1.000  N
  C344     1.0000 0.35384  0.32303  0.92848  Biso   1.000  C
  C345     1.0000 0.35378  0.32303  0.92848  Biso   1.000  C
  C346     1.0000 0.04219  0.42670  0.97981  Biso   1.000  C
  C347     1.0000 0.04219  0.42670  0.97977  Biso   1.000  C
  C348     1.0000 0.23413  0.89370  0.93930  Biso   1.000  C
  C349     1.0000 0.23419  0.89370  0.93930  Biso   1.000  C
  C350     1.0000 0.96927  0.64619  0.92848  Biso   1.000  C
  C351     1.0000 0.96920  0.64619  0.92848  Biso   1.000  C
  C352     1.0000 0.76583  0.65951  0.06070  Biso   1.000  C
  C353     1.0000 0.76583  0.65951  0.06066  Biso   1.000  C
  H307     1.0000 0.40261  0.37219  0.95302  Biso   1.000  H
  H308     1.0000 0.37634  0.33372  0.88899  Biso   1.000  H
  H309     1.0000 0.34133  0.26012  0.94100  Biso   1.000  H
  H310     1.0000 0.40261  0.37219  0.95297  Biso   1.000  H
  H311     1.0000 0.37628  0.33372  0.88899  Biso   1.000  H
  H312     1.0000 0.34127  0.26012  0.94100  Biso   1.000  H
  C354     1.0000 0.95779  0.38452  0.02019  Biso   1.000  C
  C355     1.0000 0.95786  0.38452  0.02019  Biso   1.000  C
  H313     1.0000 0.04350  0.47992  0.95821  Biso   1.000  H
  H314     1.0000 0.04350  0.47992  0.95817  Biso   1.000  H
  H315     1.0000 0.10213  0.45242  0.00192  Biso   1.000  H
  H316     1.0000 0.10213  0.45242  0.00187  Biso   1.000  H
  H317     1.0000 0.10207  0.45242  0.00192  Biso   1.000  H
  H318     1.0000 0.10207  0.45242  0.00187  Biso   1.000  H
  N40      1.0000 0.31875  0.96459  0.94019  Biso   1.000  N
  H319     1.0000 0.21896  0.84076  0.96328  Biso   1.000  H
  H320     1.0000 0.21902  0.84076  0.96328  Biso   1.000  H
  H321     1.0000 0.96961  0.59738  0.95302  Biso   1.000  H
  H322     1.0000 0.91883  0.65873  0.94100  Biso   1.000  H
  H323     1.0000 0.96961  0.59738  0.95297  Biso   1.000  H
  H324     1.0000 0.95745  0.62367  0.88899  Biso   1.000  H
  H325     1.0000 0.95739  0.62367  0.88899  Biso   1.000  H
  H326     1.0000 0.91880  0.65866  0.94100  Biso   1.000  H
  C356     1.0000 0.84096  0.73140  0.09746  Biso   1.000  C
  C357     1.0000 0.84096  0.73140  0.09742  Biso   1.000  C
  H327     1.0000 0.78105  0.62182  0.03672  Biso   1.000  H
  H328     1.0000 0.78105  0.62182  0.03668  Biso   1.000  H
  H329     1.0000 0.89793  0.35032  0.99808  Biso   1.000  H
  N41      1.0000 0.96459  0.31876  0.05981  Biso   1.000  N
  H330     1.0000 0.95652  0.43639  0.04179  Biso   1.000  H
  N42      1.0000 0.96459  0.31876  0.05976  Biso   1.000  N
  N43      1.0000 0.96465  0.31876  0.05981  Biso   1.000  N
  N44      1.0000 0.96465  0.31876  0.05976  Biso   1.000  N
  C358     1.0000 0.38448  0.95782  0.97981  Biso   1.000  C
  C359     1.0000 0.38448  0.95782  0.97977  Biso   1.000  C
  C360     1.0000 0.93061  0.73745  0.09972  Biso   1.000  C
  C361     1.0000 0.82742  0.79452  0.13026  Biso   1.000  C
  C362     1.0000 0.93055  0.73745  0.09972  Biso   1.000  C
  C363     1.0000 0.82729  0.79452  0.13026  Biso   1.000  C
  C364     1.0000 0.89367  0.23419  0.06070  Biso   1.000  C
  C365     1.0000 0.89367  0.23419  0.06066  Biso   1.000  C
  C366     1.0000 0.89373  0.23419  0.06070  Biso   1.000  C
  C367     1.0000 0.89373  0.23419  0.06066  Biso   1.000  C
  H331     1.0000 0.43631  0.95647  0.95821  Biso   1.000  H
  H332     1.0000 0.43631  0.95647  0.95817  Biso   1.000  H
  H333     1.0000 0.43643  0.95647  0.95821  Biso   1.000  H
  H334     1.0000 0.43643  0.95647  0.95817  Biso   1.000  H
  H335     1.0000 0.35032  0.89790  0.00192  Biso   1.000  H
  H336     1.0000 0.35032  0.89790  0.00187  Biso   1.000  H
  C368     1.0000 0.42672  0.04218  0.02019  Biso   1.000  C
  C369     1.0000 0.42665  0.04218  0.02019  Biso   1.000  C
  O47      1.0000 0.94129  0.67255  0.06790  Biso   1.000  O
  C370     1.0000 0.00207  0.80621  0.13380  Biso   1.000  C
  C371     1.0000 0.89779  0.86370  0.16476  Biso   1.000  C
  C372     1.0000 0.89779  0.86370  0.16472  Biso   1.000  C
  H337     1.0000 0.76686  0.79039  0.12920  Biso   1.000  H
  H338     1.0000 0.76679  0.79039  0.12920  Biso   1.000  H
  C373     1.0000 0.89040  0.15902  0.09746  Biso   1.000  C
  H339     1.0000 0.84080  0.21901  0.03672  Biso   1.000  H
  C374     1.0000 0.89040  0.15902  0.09742  Biso   1.000  C
  H340     1.0000 0.84080  0.21901  0.03668  Biso   1.000  H
  C375     1.0000 0.89046  0.15902  0.09746  Biso   1.000  C
  C376     1.0000 0.89046  0.15902  0.09742  Biso   1.000  C
  H341     1.0000 0.84086  0.21901  0.03672  Biso   1.000  H
  H342     1.0000 0.84086  0.21901  0.03668  Biso   1.000  H
  H343     1.0000 0.45242  0.10210  0.99808  Biso   1.000  H
  H344     1.0000 0.45236  0.10210  0.99808  Biso   1.000  H
  N45      1.0000 0.35416  0.03541  0.05981  Biso   1.000  N
  H345     1.0000 0.47990  0.04353  0.04179  Biso   1.000  H
  N46      1.0000 0.35416  0.03541  0.05976  Biso   1.000  N
  N47      1.0000 0.35423  0.03541  0.05981  Biso   1.000  N
  H346     1.0000 0.47993  0.04346  0.04179  Biso   1.000  H
  N48      1.0000 0.35423  0.03541  0.05976  Biso   1.000  N
  H347     1.0000 0.47996  0.04353  0.04179  Biso   1.000  H
  H348     1.0000 0.47987  0.04346  0.04179  Biso   1.000  H
  C377     1.0000 0.03075  0.67697  0.07152  Biso   1.000  C
  C378     1.0000 0.98696  0.87026  0.16574  Biso   1.000  C
  H349     1.0000 0.06231  0.80970  0.13541  Biso   1.000  H
  H350     1.0000 0.06231  0.80970  0.13537  Biso   1.000  H
  C379     1.0000 0.87351  0.92818  0.19944  Biso   1.000  C
  C380     1.0000 0.87345  0.92818  0.19944  Biso   1.000  C
  C381     1.0000 0.80683  0.06939  0.09972  Biso   1.000  C
  C382     1.0000 0.96717  0.17263  0.13026  Biso   1.000  C
  C383     1.0000 0.80689  0.06939  0.09972  Biso   1.000  C
  C384     1.0000 0.96723  0.17263  0.13026  Biso   1.000  C
  C385     1.0000 0.34050  0.10630  0.06070  Biso   1.000  C
  C386     1.0000 0.34050  0.10630  0.06066  Biso   1.000  C
  C387     1.0000 0.34056  0.10630  0.06070  Biso   1.000  C
  C388     1.0000 0.34056  0.10630  0.06066  Biso   1.000  C
  H351     1.0000 0.03035  0.62781  0.04698  Biso   1.000  H
  H352     1.0000 0.04262  0.66628  0.11101  Biso   1.000  H
  H353     1.0000 0.08121  0.73988  0.05900  Biso   1.000  H
  H354     1.0000 0.03041  0.62781  0.04698  Biso   1.000  H
  C389     1.0000 0.07180  0.94528  0.19944  Biso   1.000  C
  C390     1.0000 0.88334  0.01311  0.16574  Biso   1.000  C
  C391     1.0000 0.88340  0.01311  0.16574  Biso   1.000  C
  H355     1.0000 0.91608  0.95198  0.23309  Biso   1.000  H
  H356     1.0000 0.80724  0.89028  0.21349  Biso   1.000  H
  H357     1.0000 0.91602  0.95198  0.23309  Biso   1.000  H
  C392     1.0000 0.80417  0.99793  0.13380  Biso   1.000  C
  C393     1.0000 0.80408  0.99786  0.13380  Biso   1.000  C
  C394     1.0000 0.80411  0.99793  0.13380  Biso   1.000  C
  O48      1.0000 0.73131  0.05878  0.06790  Biso   1.000  O
  O49      1.0000 0.73137  0.05878  0.06790  Biso   1.000  O
  C395     1.0000 0.96591  0.10224  0.16476  Biso   1.000  C
  C396     1.0000 0.96591  0.10224  0.16472  Biso   1.000  C
  C397     1.0000 0.96597  0.10224  0.16476  Biso   1.000  C
  C398     1.0000 0.96597  0.10224  0.16472  Biso   1.000  C
  H358     1.0000 0.02361  0.23319  0.12920  Biso   1.000  H
  H359     1.0000 0.02355  0.23319  0.12920  Biso   1.000  H
  C399     1.0000 0.26865  0.10958  0.09746  Biso   1.000  C
  H360     1.0000 0.37819  0.15924  0.03672  Biso   1.000  H
  C400     1.0000 0.26865  0.10958  0.09742  Biso   1.000  C
  H361     1.0000 0.37819  0.15924  0.03668  Biso   1.000  H
  H362     1.0000 0.37822  0.15917  0.03672  Biso   1.000  H
  H363     1.0000 0.37822  0.15917  0.03668  Biso   1.000  H
  H364     1.0000 0.37825  0.15924  0.03672  Biso   1.000  H
  H365     1.0000 0.37825  0.15924  0.03668  Biso   1.000  H
  C401     1.0000 0.26859  0.10958  0.09746  Biso   1.000  C
  H366     1.0000 0.37816  0.15917  0.03672  Biso   1.000  H
  C402     1.0000 0.26859  0.10958  0.09742  Biso   1.000  C
  H367     1.0000 0.37816  0.15917  0.03668  Biso   1.000  H
  C403     1.0000 0.13630  0.03406  0.16476  Biso   1.000  C
  C404     1.0000 0.13630  0.03406  0.16472  Biso   1.000  C
  C405     1.0000 0.13636  0.03406  0.16476  Biso   1.000  C
  C406     1.0000 0.13636  0.03406  0.16472  Biso   1.000  C
  H368     1.0000 0.04797  0.96402  0.23309  Biso   1.000  H
  H369     1.0000 0.10963  0.91693  0.21349  Biso   1.000  H
  H370     1.0000 0.10976  0.91693  0.21349  Biso   1.000  H
  H371     1.0000 0.74742  0.93773  0.13541  Biso   1.000  H
  H372     1.0000 0.74742  0.93773  0.13537  Biso   1.000  H
  H373     1.0000 0.74732  0.93766  0.13541  Biso   1.000  H
  H374     1.0000 0.74732  0.93766  0.13537  Biso   1.000  H
  H375     1.0000 0.74736  0.93773  0.13541  Biso   1.000  H
  H376     1.0000 0.74736  0.93773  0.13537  Biso   1.000  H
  H377     1.0000 0.74738  0.93766  0.13541  Biso   1.000  H
  H378     1.0000 0.74738  0.93766  0.13537  Biso   1.000  H
  C407     1.0000 0.64624  0.96922  0.07152  Biso   1.000  C
  C408     1.0000 0.64620  0.96915  0.07152  Biso   1.000  C
  C409     1.0000 0.05475  0.12653  0.19944  Biso   1.000  C
  C410     1.0000 0.05469  0.12653  0.19944  Biso   1.000  C
  C411     1.0000 0.26255  0.19315  0.09972  Biso   1.000  C
  C412     1.0000 0.20548  0.03284  0.13026  Biso   1.000  C
  C413     1.0000 0.20554  0.03284  0.13026  Biso   1.000  C
  C414     1.0000 0.26249  0.19315  0.09972  Biso   1.000  C
  C415     1.0000 0.12974  0.11670  0.16574  Biso   1.000  C
  C416     1.0000 0.12980  0.11670  0.16574  Biso   1.000  C
  H379     1.0000 0.59736  0.96958  0.04698  Biso   1.000  H
  H380     1.0000 0.62373  0.95739  0.11101  Biso   1.000  H
  H381     1.0000 0.65872  0.91878  0.05900  Biso   1.000  H
  H382     1.0000 0.03602  0.08400  0.23309  Biso   1.000  H
  H383     1.0000 0.08307  0.19279  0.21349  Biso   1.000  H
  H384     1.0000 0.08313  0.19279  0.21349  Biso   1.000  H
  H385     1.0000 0.03595  0.08400  0.23309  Biso   1.000  H
  C417     1.0000 0.19385  0.19593  0.13380  Biso   1.000  C
  C418     1.0000 0.19379  0.19593  0.13380  Biso   1.000  C
  O50      1.0000 0.32746  0.26867  0.06790  Biso   1.000  O
  O51      1.0000 0.32740  0.26867  0.06790  Biso   1.000  O
  H386     1.0000 0.20953  0.97642  0.12920  Biso   1.000  H
  H387     1.0000 0.20966  0.97642  0.12920  Biso   1.000  H
  H388     1.0000 0.19027  0.25257  0.13541  Biso   1.000  H
  H389     1.0000 0.19027  0.25257  0.13537  Biso   1.000  H
  H390     1.0000 0.19033  0.25257  0.13541  Biso   1.000  H
  H391     1.0000 0.19033  0.25257  0.13537  Biso   1.000  H
  C419     1.0000 0.32302  0.35381  0.07152  Biso   1.000  C
  C420     1.0000 0.32295  0.35381  0.07152  Biso   1.000  C
  H392     1.0000 0.37222  0.40262  0.04698  Biso   1.000  H
  H393     1.0000 0.33372  0.37633  0.11101  Biso   1.000  H
  H394     1.0000 0.26010  0.34127  0.05900  Biso   1.000  H
  H395     1.0000 0.37216  0.40262  0.04698  Biso   1.000  H
  H396     1.0000 0.26004  0.34127  0.05900  Biso   1.000  H
  C421     1.0000 0.80618  0.00207  0.86620  Biso   1.000  C
  C422     1.0000 0.87023  0.98689  0.83426  Biso   1.000  C
  C423     1.0000 0.87023  0.98689  0.83421  Biso   1.000  C
  C424     1.0000 0.73744  0.93061  0.90028  Biso   1.000  C
  H397     1.0000 0.80969  0.06227  0.86459  Biso   1.000  H
  H398     1.0000 0.80975  0.06227  0.86459  Biso   1.000  H
  C425     1.0000 0.86367  0.89776  0.83524  Biso   1.000  C
  C426     1.0000 0.86361  0.89776  0.83524  Biso   1.000  C
  C427     1.0000 0.94527  0.07182  0.80056  Biso   1.000  C
  C428     1.0000 0.94527  0.07182  0.80052  Biso   1.000  C
  C429     1.0000 0.94533  0.07182  0.80056  Biso   1.000  C
  C430     1.0000 0.94533  0.07182  0.80052  Biso   1.000  C
  O52      1.0000 0.67259  0.94122  0.93210  Biso   1.000  O
  O53      1.0000 0.67259  0.94122  0.93206  Biso   1.000  O
  O54      1.0000 0.67253  0.94122  0.93210  Biso   1.000  O
  O55      1.0000 0.67253  0.94122  0.93206  Biso   1.000  O
  C431     1.0000 0.73143  0.84098  0.90254  Biso   1.000  C
  C432     1.0000 0.73137  0.84098  0.90254  Biso   1.000  C
  C433     1.0000 0.79460  0.82737  0.86974  Biso   1.000  C
  C434     1.0000 0.79460  0.82737  0.86970  Biso   1.000  C
  C435     1.0000 0.79448  0.82737  0.86974  Biso   1.000  C
  C436     1.0000 0.79448  0.82737  0.86970  Biso   1.000  C
  C437     1.0000 0.92828  0.87347  0.80056  Biso   1.000  C
  C438     1.0000 0.92828  0.87347  0.80052  Biso   1.000  C
  C439     1.0000 0.92822  0.87347  0.80056  Biso   1.000  C
  C440     1.0000 0.92822  0.87347  0.80052  Biso   1.000  C
  H399     1.0000 0.96404  0.04802  0.76691  Biso   1.000  H
  H400     1.0000 0.91696  0.10972  0.78651  Biso   1.000  H
  H401     1.0000 0.91690  0.10972  0.78651  Biso   1.000  H
  C441     1.0000 0.03409  0.13630  0.83524  Biso   1.000  C
  C442     1.0000 0.03403  0.13630  0.83524  Biso   1.000  C
  C443     1.0000 0.67702  0.03078  0.92848  Biso   1.000  C
  C444     1.0000 0.67696  0.03078  0.92848  Biso   1.000  C
  C445     1.0000 0.65948  0.76581  0.93930  Biso   1.000  C
  C446     1.0000 0.65942  0.76581  0.93930  Biso   1.000  C
  H402     1.0000 0.79042  0.76681  0.87080  Biso   1.000  H
  H403     1.0000 0.95201  0.91600  0.76691  Biso   1.000  H
  H404     1.0000 0.89034  0.80721  0.78651  Biso   1.000  H
  C447     1.0000 0.01298  0.88330  0.83426  Biso   1.000  C
  C448     1.0000 0.01298  0.88330  0.83421  Biso   1.000  C
  C449     1.0000 0.01304  0.88330  0.83426  Biso   1.000  C
  C450     1.0000 0.01304  0.88330  0.83421  Biso   1.000  C
  C451     1.0000 0.03283  0.20548  0.86974  Biso   1.000  C
  C452     1.0000 0.11664  0.12974  0.83426  Biso   1.000  C
  C453     1.0000 0.03283  0.20548  0.86970  Biso   1.000  C
  C454     1.0000 0.11664  0.12974  0.83421  Biso   1.000  C
  C455     1.0000 0.11670  0.12974  0.83426  Biso   1.000  C
  C456     1.0000 0.11670  0.12974  0.83421  Biso   1.000  C
  H405     1.0000 0.66633  0.04261  0.88899  Biso   1.000  H
  H406     1.0000 0.73994  0.08122  0.94100  Biso   1.000  H
  H407     1.0000 0.62779  0.03042  0.95302  Biso   1.000  H
  H408     1.0000 0.66627  0.04261  0.88899  Biso   1.000  H
  H409     1.0000 0.73988  0.08122  0.94100  Biso   1.000  H
  H410     1.0000 0.62779  0.03042  0.95297  Biso   1.000  H
  H411     1.0000 0.62785  0.03042  0.95302  Biso   1.000  H
  H412     1.0000 0.62785  0.03042  0.95297  Biso   1.000  H
  N49      1.0000 0.64583  0.68124  0.94019  Biso   1.000  N
  H413     1.0000 0.62178  0.78099  0.96328  Biso   1.000  H
  H414     1.0000 0.62172  0.78099  0.96328  Biso   1.000  H
  C457     1.0000 0.10224  0.96594  0.83524  Biso   1.000  C
  C458     1.0000 0.99798  0.80407  0.86620  Biso   1.000  C
  C459     1.0000 0.99792  0.80407  0.86620  Biso   1.000  C
  H415     1.0000 0.97640  0.20961  0.87080  Biso   1.000  H
  H416     1.0000 0.97646  0.20961  0.87080  Biso   1.000  H
  C460     1.0000 0.10956  0.26860  0.90254  Biso   1.000  C
  C461     1.0000 0.10962  0.26860  0.90254  Biso   1.000  C
  C462     1.0000 0.19593  0.19379  0.86620  Biso   1.000  C
  C463     1.0000 0.12651  0.05472  0.80056  Biso   1.000  C
  C464     1.0000 0.12651  0.05472  0.80052  Biso   1.000  C
  C465     1.0000 0.12658  0.05472  0.80056  Biso   1.000  C
  C466     1.0000 0.12658  0.05472  0.80052  Biso   1.000  C
  C467     1.0000 0.19587  0.19379  0.86620  Biso   1.000  C
  C468     1.0000 0.57334  0.61548  0.97981  Biso   1.000  C
  C469     1.0000 0.57334  0.61548  0.97977  Biso   1.000  C
  C470     1.0000 0.57321  0.61548  0.97981  Biso   1.000  C
  C471     1.0000 0.57321  0.61548  0.97977  Biso   1.000  C
  C472     1.0000 0.17257  0.96716  0.86974  Biso   1.000  C
  C473     1.0000 0.17257  0.96716  0.86970  Biso   1.000  C
  C474     1.0000 0.17263  0.96716  0.86974  Biso   1.000  C
  C475     1.0000 0.17263  0.96716  0.86970  Biso   1.000  C
  H417     1.0000 0.93770  0.74743  0.86459  Biso   1.000  H
  H418     1.0000 0.93766  0.74736  0.86459  Biso   1.000  H
  C476     1.0000 0.06934  0.80685  0.90028  Biso   1.000  C
  C477     1.0000 0.19316  0.26255  0.90028  Biso   1.000  C
  C478     1.0000 0.10632  0.34049  0.93930  Biso   1.000  C
  C479     1.0000 0.19310  0.26255  0.90028  Biso   1.000  C
  C480     1.0000 0.10626  0.34049  0.93930  Biso   1.000  C
  H419     1.0000 0.25261  0.19030  0.86459  Biso   1.000  H
  H420     1.0000 0.25255  0.19030  0.86459  Biso   1.000  H
  H421     1.0000 0.08401  0.03598  0.76691  Biso   1.000  H
  H422     1.0000 0.19277  0.08307  0.78651  Biso   1.000  H
  H423     1.0000 0.19283  0.08307  0.78651  Biso   1.000  H
  H424     1.0000 0.08395  0.03598  0.76691  Biso   1.000  H
  H425     1.0000 0.52013  0.56361  0.95821  Biso   1.000  H
  H426     1.0000 0.52013  0.56361  0.95817  Biso   1.000  H
  H427     1.0000 0.54761  0.64968  0.00192  Biso   1.000  H
  C481     1.0000 0.61555  0.57330  0.02019  Biso   1.000  C
  H428     1.0000 0.54761  0.64968  0.00187  Biso   1.000  H
  H429     1.0000 0.54755  0.64968  0.00192  Biso   1.000  H
  C482     1.0000 0.61543  0.57330  0.02019  Biso   1.000  C
  H430     1.0000 0.54755  0.64968  0.00187  Biso   1.000  H
  C483     1.0000 0.15901  0.89042  0.90254  Biso   1.000  C
  H431     1.0000 0.23318  0.02358  0.87080  Biso   1.000  H
  H432     1.0000 0.23324  0.02358  0.87080  Biso   1.000  H
  O56      1.0000 0.05879  0.73133  0.93210  Biso   1.000  O
  O57      1.0000 0.05879  0.73133  0.93206  Biso   1.000  O
  O58      1.0000 0.05875  0.73126  0.93210  Biso   1.000  O
  O59      1.0000 0.05875  0.73126  0.93206  Biso   1.000  O
  O60      1.0000 0.26868  0.32745  0.93210  Biso   1.000  O
  O61      1.0000 0.26868  0.32745  0.93206  Biso   1.000  O
  O62      1.0000 0.26874  0.32745  0.93210  Biso   1.000  O
  O63      1.0000 0.26874  0.32745  0.93206  Biso   1.000  O
  N50      1.0000 0.03542  0.35417  0.94019  Biso   1.000  N
  H433     1.0000 0.15916  0.37818  0.96328  Biso   1.000  H
  H434     1.0000 0.15923  0.37818  0.96328  Biso   1.000  H
  N51      1.0000 0.03536  0.35417  0.94019  Biso   1.000  N
  H435     1.0000 0.64977  0.54758  0.99808  Biso   1.000  H
  H436     1.0000 0.64965  0.54758  0.99808  Biso   1.000  H
  N52      1.0000 0.68131  0.64583  0.05981  Biso   1.000  N
  H437     1.0000 0.56364  0.52008  0.04179  Biso   1.000  H
  N53      1.0000 0.68131  0.64583  0.05976  Biso   1.000  N
  N54      1.0000 0.68125  0.64583  0.05981  Biso   1.000  N
  H438     1.0000 0.56358  0.52008  0.04179  Biso   1.000  H
  N55      1.0000 0.68125  0.64583  0.05976  Biso   1.000  N
  C484     1.0000 0.23413  0.89370  0.93930  Biso   1.000  C
  C485     1.0000 0.23419  0.89370  0.93930  Biso   1.000  C
  C486     1.0000 0.96927  0.64619  0.92848  Biso   1.000  C
  C487     1.0000 0.96920  0.64619  0.92848  Biso   1.000  C
  C488     1.0000 0.35384  0.32303  0.92848  Biso   1.000  C
  C489     1.0000 0.35378  0.32303  0.92848  Biso   1.000  C
  C490     1.0000 0.04219  0.42670  0.97981  Biso   1.000  C
  C491     1.0000 0.04219  0.42670  0.97977  Biso   1.000  C
  C492     1.0000 0.76583  0.65951  0.06070  Biso   1.000  C
  C493     1.0000 0.76583  0.65951  0.06066  Biso   1.000  C
  N56      1.0000 0.31875  0.96459  0.94019  Biso   1.000  N
  H439     1.0000 0.21896  0.84076  0.96328  Biso   1.000  H
  H440     1.0000 0.21902  0.84076  0.96328  Biso   1.000  H
  H441     1.0000 0.96961  0.59738  0.95302  Biso   1.000  H
  H442     1.0000 0.96961  0.59738  0.95297  Biso   1.000  H
  H443     1.0000 0.91883  0.65873  0.94100  Biso   1.000  H
  H444     1.0000 0.95745  0.62367  0.88899  Biso   1.000  H
  H445     1.0000 0.95739  0.62367  0.88899  Biso   1.000  H
  H446     1.0000 0.91880  0.65866  0.94100  Biso   1.000  H
  H447     1.0000 0.40261  0.37219  0.95302  Biso   1.000  H
  H448     1.0000 0.37634  0.33372  0.88899  Biso   1.000  H
  H449     1.0000 0.34133  0.26012  0.94100  Biso   1.000  H
  H450     1.0000 0.40261  0.37219  0.95297  Biso   1.000  H
  H451     1.0000 0.37628  0.33372  0.88899  Biso   1.000  H
  H452     1.0000 0.34127  0.26012  0.94100  Biso   1.000  H
  C494     1.0000 0.95779  0.38452  0.02019  Biso   1.000  C
  C495     1.0000 0.95786  0.38452  0.02019  Biso   1.000  C
  H453     1.0000 0.04350  0.47992  0.95821  Biso   1.000  H
  H454     1.0000 0.04350  0.47992  0.95817  Biso   1.000  H
  H455     1.0000 0.10213  0.45242  0.00192  Biso   1.000  H
  H456     1.0000 0.10213  0.45242  0.00187  Biso   1.000  H
  H457     1.0000 0.10207  0.45242  0.00192  Biso   1.000  H
  H458     1.0000 0.10207  0.45242  0.00187  Biso   1.000  H
  C496     1.0000 0.84096  0.73140  0.09746  Biso   1.000  C
  C497     1.0000 0.84096  0.73140  0.09742  Biso   1.000  C
  H459     1.0000 0.78105  0.62182  0.03672  Biso   1.000  H
  H460     1.0000 0.78105  0.62182  0.03668  Biso   1.000  H
  C498     1.0000 0.38448  0.95782  0.97981  Biso   1.000  C
  C499     1.0000 0.38448  0.95782  0.97977  Biso   1.000  C
  H461     1.0000 0.89793  0.35032  0.99808  Biso   1.000  H
  N57      1.0000 0.96459  0.31876  0.05981  Biso   1.000  N
  H462     1.0000 0.95652  0.43639  0.04179  Biso   1.000  H
  N58      1.0000 0.96459  0.31876  0.05976  Biso   1.000  N
  N59      1.0000 0.96465  0.31876  0.05981  Biso   1.000  N
  N60      1.0000 0.96465  0.31876  0.05976  Biso   1.000  N
  C500     1.0000 0.93061  0.73745  0.09972  Biso   1.000  C
  C501     1.0000 0.82742  0.79452  0.13026  Biso   1.000  C
  C502     1.0000 0.93055  0.73745  0.09972  Biso   1.000  C
  C503     1.0000 0.82729  0.79452  0.13026  Biso   1.000  C
  H463     1.0000 0.43631  0.95647  0.95821  Biso   1.000  H
  H464     1.0000 0.43631  0.95647  0.95817  Biso   1.000  H
  H465     1.0000 0.43643  0.95647  0.95821  Biso   1.000  H
  H466     1.0000 0.43643  0.95647  0.95817  Biso   1.000  H
  H467     1.0000 0.35032  0.89790  0.00192  Biso   1.000  H
  H468     1.0000 0.35032  0.89790  0.00187  Biso   1.000  H
  C504     1.0000 0.42672  0.04218  0.02019  Biso   1.000  C
  C505     1.0000 0.42665  0.04218  0.02019  Biso   1.000  C
  C506     1.0000 0.89367  0.23419  0.06070  Biso   1.000  C
  C507     1.0000 0.89367  0.23419  0.06066  Biso   1.000  C
  C508     1.0000 0.89373  0.23419  0.06070  Biso   1.000  C
  C509     1.0000 0.89373  0.23419  0.06066  Biso   1.000  C
  O64      1.0000 0.94129  0.67255  0.06790  Biso   1.000  O
  C510     1.0000 0.00207  0.80621  0.13380  Biso   1.000  C
  C511     1.0000 0.89779  0.86370  0.16476  Biso   1.000  C
  C512     1.0000 0.89779  0.86370  0.16472  Biso   1.000  C
  H469     1.0000 0.76686  0.79039  0.12920  Biso   1.000  H
  H470     1.0000 0.76679  0.79039  0.12920  Biso   1.000  H
  H471     1.0000 0.45242  0.10210  0.99808  Biso   1.000  H
  H472     1.0000 0.45236  0.10210  0.99808  Biso   1.000  H
  N61      1.0000 0.35416  0.03541  0.05981  Biso   1.000  N
  H473     1.0000 0.47990  0.04353  0.04179  Biso   1.000  H
  N62      1.0000 0.35416  0.03541  0.05976  Biso   1.000  N
  N63      1.0000 0.35423  0.03541  0.05981  Biso   1.000  N
  H474     1.0000 0.47993  0.04346  0.04179  Biso   1.000  H
  N64      1.0000 0.35423  0.03541  0.05976  Biso   1.000  N
  H475     1.0000 0.47996  0.04353  0.04179  Biso   1.000  H
  H476     1.0000 0.47987  0.04346  0.04179  Biso   1.000  H
  C513     1.0000 0.89040  0.15902  0.09746  Biso   1.000  C
  H477     1.0000 0.84080  0.21901  0.03672  Biso   1.000  H
  C514     1.0000 0.89040  0.15902  0.09742  Biso   1.000  C
  H478     1.0000 0.84080  0.21901  0.03668  Biso   1.000  H
  C515     1.0000 0.89046  0.15902  0.09746  Biso   1.000  C
  C516     1.0000 0.89046  0.15902  0.09742  Biso   1.000  C
  H479     1.0000 0.84086  0.21901  0.03672  Biso   1.000  H
  H480     1.0000 0.84086  0.21901  0.03668  Biso   1.000  H
  C517     1.0000 0.03075  0.67697  0.07152  Biso   1.000  C
  C518     1.0000 0.98696  0.87026  0.16574  Biso   1.000  C
  H481     1.0000 0.06231  0.80970  0.13541  Biso   1.000  H
  H482     1.0000 0.06231  0.80970  0.13537  Biso   1.000  H
  C519     1.0000 0.87351  0.92818  0.19944  Biso   1.000  C
  C520     1.0000 0.87345  0.92818  0.19944  Biso   1.000  C
  C521     1.0000 0.34050  0.10630  0.06070  Biso   1.000  C
  C522     1.0000 0.34050  0.10630  0.06066  Biso   1.000  C
  C523     1.0000 0.34056  0.10630  0.06070  Biso   1.000  C
  C524     1.0000 0.34056  0.10630  0.06066  Biso   1.000  C
  C525     1.0000 0.80683  0.06939  0.09972  Biso   1.000  C
  C526     1.0000 0.96717  0.17263  0.13026  Biso   1.000  C
  C527     1.0000 0.80689  0.06939  0.09972  Biso   1.000  C
  C528     1.0000 0.96723  0.17263  0.13026  Biso   1.000  C
  H483     1.0000 0.03035  0.62781  0.04698  Biso   1.000  H
  H484     1.0000 0.04262  0.66628  0.11101  Biso   1.000  H
  H485     1.0000 0.08121  0.73988  0.05900  Biso   1.000  H
  H486     1.0000 0.03041  0.62781  0.04698  Biso   1.000  H
  C529     1.0000 0.07180  0.94528  0.19944  Biso   1.000  C
  H487     1.0000 0.91608  0.95198  0.23309  Biso   1.000  H
  H488     1.0000 0.80724  0.89028  0.21349  Biso   1.000  H
  H489     1.0000 0.91602  0.95198  0.23309  Biso   1.000  H
  C530     1.0000 0.88334  0.01311  0.16574  Biso   1.000  C
  C531     1.0000 0.88340  0.01311  0.16574  Biso   1.000  C
  C532     1.0000 0.26865  0.10958  0.09746  Biso   1.000  C
  H490     1.0000 0.37819  0.15924  0.03672  Biso   1.000  H
  C533     1.0000 0.26865  0.10958  0.09742  Biso   1.000  C
  H491     1.0000 0.37819  0.15924  0.03668  Biso   1.000  H
  H492     1.0000 0.37822  0.15917  0.03672  Biso   1.000  H
  H493     1.0000 0.37822  0.15917  0.03668  Biso   1.000  H
  H494     1.0000 0.37825  0.15924  0.03672  Biso   1.000  H
  H495     1.0000 0.37825  0.15924  0.03668  Biso   1.000  H
  C534     1.0000 0.26859  0.10958  0.09746  Biso   1.000  C
  H496     1.0000 0.37816  0.15917  0.03672  Biso   1.000  H
  C535     1.0000 0.26859  0.10958  0.09742  Biso   1.000  C
  H497     1.0000 0.37816  0.15917  0.03668  Biso   1.000  H
  C536     1.0000 0.80417  0.99793  0.13380  Biso   1.000  C
  C537     1.0000 0.80408  0.99786  0.13380  Biso   1.000  C
  C538     1.0000 0.80411  0.99793  0.13380  Biso   1.000  C
  O65      1.0000 0.73131  0.05878  0.06790  Biso   1.000  O
  O66      1.0000 0.73137  0.05878  0.06790  Biso   1.000  O
  C539     1.0000 0.96591  0.10224  0.16476  Biso   1.000  C
  C540     1.0000 0.96591  0.10224  0.16472  Biso   1.000  C
  C541     1.0000 0.96597  0.10224  0.16476  Biso   1.000  C
  C542     1.0000 0.96597  0.10224  0.16472  Biso   1.000  C
  H498     1.0000 0.02361  0.23319  0.12920  Biso   1.000  H
  H499     1.0000 0.02355  0.23319  0.12920  Biso   1.000  H
  H500     1.0000 0.04797  0.96402  0.23309  Biso   1.000  H
  H501     1.0000 0.10963  0.91693  0.21349  Biso   1.000  H
  H502     1.0000 0.10976  0.91693  0.21349  Biso   1.000  H
  C543     1.0000 0.13630  0.03406  0.16476  Biso   1.000  C
  C544     1.0000 0.13630  0.03406  0.16472  Biso   1.000  C
  C545     1.0000 0.13636  0.03406  0.16476  Biso   1.000  C
  C546     1.0000 0.13636  0.03406  0.16472  Biso   1.000  C
  C547     1.0000 0.20548  0.03284  0.13026  Biso   1.000  C
  C548     1.0000 0.20554  0.03284  0.13026  Biso   1.000  C
  C549     1.0000 0.26255  0.19315  0.09972  Biso   1.000  C
  C550     1.0000 0.26249  0.19315  0.09972  Biso   1.000  C
  H503     1.0000 0.74742  0.93773  0.13541  Biso   1.000  H
  H504     1.0000 0.74742  0.93773  0.13537  Biso   1.000  H
  H505     1.0000 0.74732  0.93766  0.13541  Biso   1.000  H
  H506     1.0000 0.74732  0.93766  0.13537  Biso   1.000  H
  H507     1.0000 0.74736  0.93773  0.13541  Biso   1.000  H
  H508     1.0000 0.74736  0.93773  0.13537  Biso   1.000  H
  H509     1.0000 0.74738  0.93766  0.13541  Biso   1.000  H
  H510     1.0000 0.74738  0.93766  0.13537  Biso   1.000  H
  C551     1.0000 0.64624  0.96922  0.07152  Biso   1.000  C
  C552     1.0000 0.64620  0.96915  0.07152  Biso   1.000  C
  C553     1.0000 0.05475  0.12653  0.19944  Biso   1.000  C
  C554     1.0000 0.05469  0.12653  0.19944  Biso   1.000  C
  C555     1.0000 0.12974  0.11670  0.16574  Biso   1.000  C
  C556     1.0000 0.12980  0.11670  0.16574  Biso   1.000  C
  H511     1.0000 0.20953  0.97642  0.12920  Biso   1.000  H
  H512     1.0000 0.20966  0.97642  0.12920  Biso   1.000  H
  C557     1.0000 0.19385  0.19593  0.13380  Biso   1.000  C
  C558     1.0000 0.19379  0.19593  0.13380  Biso   1.000  C
  O67      1.0000 0.32746  0.26867  0.06790  Biso   1.000  O
  O68      1.0000 0.32740  0.26867  0.06790  Biso   1.000  O
  H513     1.0000 0.59736  0.96958  0.04698  Biso   1.000  H
  H514     1.0000 0.62373  0.95739  0.11101  Biso   1.000  H
  H515     1.0000 0.65872  0.91878  0.05900  Biso   1.000  H
  H516     1.0000 0.03602  0.08400  0.23309  Biso   1.000  H
  H517     1.0000 0.08307  0.19279  0.21349  Biso   1.000  H
  H518     1.0000 0.08313  0.19279  0.21349  Biso   1.000  H
  H519     1.0000 0.03595  0.08400  0.23309  Biso   1.000  H
  H520     1.0000 0.19027  0.25257  0.13541  Biso   1.000  H
  H521     1.0000 0.19027  0.25257  0.13537  Biso   1.000  H
  H522     1.0000 0.19033  0.25257  0.13541  Biso   1.000  H
  H523     1.0000 0.19033  0.25257  0.13537  Biso   1.000  H
  C559     1.0000 0.32302  0.35381  0.07152  Biso   1.000  C
  C560     1.0000 0.32295  0.35381  0.07152  Biso   1.000  C
  H524     1.0000 0.37222  0.40262  0.04698  Biso   1.000  H
  H525     1.0000 0.33372  0.37633  0.11101  Biso   1.000  H
  H526     1.0000 0.26010  0.34127  0.05900  Biso   1.000  H
  H527     1.0000 0.37216  0.40262  0.04698  Biso   1.000  H
  H528     1.0000 0.26004  0.34127  0.05900  Biso   1.000  H
  C561     1.0000 0.80618  0.00207  0.86620  Biso   1.000  C
  C562     1.0000 0.87023  0.98689  0.83426  Biso   1.000  C
  C563     1.0000 0.87023  0.98689  0.83421  Biso   1.000  C
  C564     1.0000 0.73744  0.93061  0.90028  Biso   1.000  C
  H529     1.0000 0.80969  0.06227  0.86459  Biso   1.000  H
  H530     1.0000 0.80975  0.06227  0.86459  Biso   1.000  H
  C565     1.0000 0.86367  0.89776  0.83524  Biso   1.000  C
  C566     1.0000 0.86361  0.89776  0.83524  Biso   1.000  C
  C567     1.0000 0.94527  0.07182  0.80056  Biso   1.000  C
  C568     1.0000 0.94527  0.07182  0.80052  Biso   1.000  C
  C569     1.0000 0.94533  0.07182  0.80056  Biso   1.000  C
  C570     1.0000 0.94533  0.07182  0.80052  Biso   1.000  C
  O69      1.0000 0.67259  0.94122  0.93210  Biso   1.000  O
  O70      1.0000 0.67259  0.94122  0.93206  Biso   1.000  O
  O71      1.0000 0.67253  0.94122  0.93210  Biso   1.000  O
  O72      1.0000 0.67253  0.94122  0.93206  Biso   1.000  O
  C571     1.0000 0.73143  0.84098  0.90254  Biso   1.000  C
  C572     1.0000 0.73137  0.84098  0.90254  Biso   1.000  C
  C573     1.0000 0.79460  0.82737  0.86974  Biso   1.000  C
  C574     1.0000 0.79460  0.82737  0.86970  Biso   1.000  C
  C575     1.0000 0.79448  0.82737  0.86974  Biso   1.000  C
  C576     1.0000 0.79448  0.82737  0.86970  Biso   1.000  C
  C577     1.0000 0.92828  0.87347  0.80056  Biso   1.000  C
  C578     1.0000 0.92828  0.87347  0.80052  Biso   1.000  C
  C579     1.0000 0.92822  0.87347  0.80056  Biso   1.000  C
  C580     1.0000 0.92822  0.87347  0.80052  Biso   1.000  C
  H531     1.0000 0.96404  0.04802  0.76691  Biso   1.000  H
  H532     1.0000 0.91696  0.10972  0.78651  Biso   1.000  H
  H533     1.0000 0.91690  0.10972  0.78651  Biso   1.000  H
  C581     1.0000 0.03409  0.13630  0.83524  Biso   1.000  C
  C582     1.0000 0.03403  0.13630  0.83524  Biso   1.000  C
  C583     1.0000 0.67702  0.03078  0.92848  Biso   1.000  C
  C584     1.0000 0.67696  0.03078  0.92848  Biso   1.000  C
  C585     1.0000 0.65948  0.76581  0.93930  Biso   1.000  C
  C586     1.0000 0.65942  0.76581  0.93930  Biso   1.000  C
  H534     1.0000 0.79042  0.76681  0.87080  Biso   1.000  H
  H535     1.0000 0.95201  0.91600  0.76691  Biso   1.000  H
  H536     1.0000 0.89034  0.80721  0.78651  Biso   1.000  H
  C587     1.0000 0.01298  0.88330  0.83426  Biso   1.000  C
  C588     1.0000 0.01298  0.88330  0.83421  Biso   1.000  C
  C589     1.0000 0.01304  0.88330  0.83426  Biso   1.000  C
  C590     1.0000 0.01304  0.88330  0.83421  Biso   1.000  C
  C591     1.0000 0.03283  0.20548  0.86974  Biso   1.000  C
  C592     1.0000 0.11664  0.12974  0.83426  Biso   1.000  C
  C593     1.0000 0.03283  0.20548  0.86970  Biso   1.000  C
  C594     1.0000 0.11664  0.12974  0.83421  Biso   1.000  C
  C595     1.0000 0.11670  0.12974  0.83426  Biso   1.000  C
  C596     1.0000 0.11670  0.12974  0.83421  Biso   1.000  C
  H537     1.0000 0.66633  0.04261  0.88899  Biso   1.000  H
  H538     1.0000 0.73994  0.08122  0.94100  Biso   1.000  H
  H539     1.0000 0.62779  0.03042  0.95302  Biso   1.000  H
  H540     1.0000 0.66627  0.04261  0.88899  Biso   1.000  H
  H541     1.0000 0.73988  0.08122  0.94100  Biso   1.000  H
  H542     1.0000 0.62779  0.03042  0.95297  Biso   1.000  H
  H543     1.0000 0.62785  0.03042  0.95302  Biso   1.000  H
  H544     1.0000 0.62785  0.03042  0.95297  Biso   1.000  H
  N65      1.0000 0.64583  0.68124  0.94019  Biso   1.000  N
  H545     1.0000 0.62178  0.78099  0.96328  Biso   1.000  H
  H546     1.0000 0.62172  0.78099  0.96328  Biso   1.000  H
  C597     1.0000 0.10224  0.96594  0.83524  Biso   1.000  C
  C598     1.0000 0.99798  0.80407  0.86620  Biso   1.000  C
  C599     1.0000 0.99792  0.80407  0.86620  Biso   1.000  C
  H547     1.0000 0.97640  0.20961  0.87080  Biso   1.000  H
  H548     1.0000 0.97646  0.20961  0.87080  Biso   1.000  H
  C600     1.0000 0.10956  0.26860  0.90254  Biso   1.000  C
  C601     1.0000 0.10962  0.26860  0.90254  Biso   1.000  C
  C602     1.0000 0.19593  0.19379  0.86620  Biso   1.000  C
  C603     1.0000 0.12651  0.05472  0.80056  Biso   1.000  C
  C604     1.0000 0.12651  0.05472  0.80052  Biso   1.000  C
  C605     1.0000 0.12658  0.05472  0.80056  Biso   1.000  C
  C606     1.0000 0.12658  0.05472  0.80052  Biso   1.000  C
  C607     1.0000 0.19587  0.19379  0.86620  Biso   1.000  C
  C608     1.0000 0.57334  0.61548  0.97981  Biso   1.000  C
  C609     1.0000 0.57334  0.61548  0.97977  Biso   1.000  C
  C610     1.0000 0.57321  0.61548  0.97981  Biso   1.000  C
  C611     1.0000 0.57321  0.61548  0.97977  Biso   1.000  C
  C612     1.0000 0.17257  0.96716  0.86974  Biso   1.000  C
  C613     1.0000 0.17257  0.96716  0.86970  Biso   1.000  C
  C614     1.0000 0.17263  0.96716  0.86974  Biso   1.000  C
  C615     1.0000 0.17263  0.96716  0.86970  Biso   1.000  C
  H549     1.0000 0.93770  0.74743  0.86459  Biso   1.000  H
  H550     1.0000 0.93766  0.74736  0.86459  Biso   1.000  H
  C616     1.0000 0.06934  0.80685  0.90028  Biso   1.000  C
  C617     1.0000 0.19316  0.26255  0.90028  Biso   1.000  C
  C618     1.0000 0.10632  0.34049  0.93930  Biso   1.000  C
  C619     1.0000 0.19310  0.26255  0.90028  Biso   1.000  C
  C620     1.0000 0.10626  0.34049  0.93930  Biso   1.000  C
  H551     1.0000 0.25261  0.19030  0.86459  Biso   1.000  H
  H552     1.0000 0.25255  0.19030  0.86459  Biso   1.000  H
  H553     1.0000 0.08401  0.03598  0.76691  Biso   1.000  H
  H554     1.0000 0.19277  0.08307  0.78651  Biso   1.000  H
  H555     1.0000 0.19283  0.08307  0.78651  Biso   1.000  H
  H556     1.0000 0.08395  0.03598  0.76691  Biso   1.000  H
  H557     1.0000 0.52013  0.56361  0.95821  Biso   1.000  H
  H558     1.0000 0.52013  0.56361  0.95817  Biso   1.000  H
  H559     1.0000 0.54761  0.64968  0.00192  Biso   1.000  H
  C621     1.0000 0.61555  0.57330  0.02019  Biso   1.000  C
  H560     1.0000 0.54761  0.64968  0.00187  Biso   1.000  H
  H561     1.0000 0.54755  0.64968  0.00192  Biso   1.000  H
  C622     1.0000 0.61543  0.57330  0.02019  Biso   1.000  C
  H562     1.0000 0.54755  0.64968  0.00187  Biso   1.000  H
  C623     1.0000 0.15901  0.89042  0.90254  Biso   1.000  C
  H563     1.0000 0.23318  0.02358  0.87080  Biso   1.000  H
  H564     1.0000 0.23324  0.02358  0.87080  Biso   1.000  H
  O73      1.0000 0.05879  0.73133  0.93210  Biso   1.000  O
  O74      1.0000 0.05879  0.73133  0.93206  Biso   1.000  O
  O75      1.0000 0.05875  0.73126  0.93210  Biso   1.000  O
  O76      1.0000 0.05875  0.73126  0.93206  Biso   1.000  O
  O77      1.0000 0.26868  0.32745  0.93210  Biso   1.000  O
  O78      1.0000 0.26868  0.32745  0.93206  Biso   1.000  O
  O79      1.0000 0.26874  0.32745  0.93210  Biso   1.000  O
  O80      1.0000 0.26874  0.32745  0.93206  Biso   1.000  O
  N66      1.0000 0.03542  0.35417  0.94019  Biso   1.000  N
  H565     1.0000 0.15916  0.37818  0.96328  Biso   1.000  H
  H566     1.0000 0.15923  0.37818  0.96328  Biso   1.000  H
  N67      1.0000 0.03536  0.35417  0.94019  Biso   1.000  N
  H567     1.0000 0.64977  0.54758  0.99808  Biso   1.000  H
  H568     1.0000 0.64965  0.54758  0.99808  Biso   1.000  H
  N68      1.0000 0.68131  0.64583  0.05981  Biso   1.000  N
  H569     1.0000 0.56364  0.52008  0.04179  Biso   1.000  H
  N69      1.0000 0.68131  0.64583  0.05976  Biso   1.000  N
  N70      1.0000 0.68125  0.64583  0.05981  Biso   1.000  N
  H570     1.0000 0.56358  0.52008  0.04179  Biso   1.000  H
  N71      1.0000 0.68125  0.64583  0.05976  Biso   1.000  N
  C624     1.0000 0.23413  0.89370  0.93930  Biso   1.000  C
  C625     1.0000 0.23419  0.89370  0.93930  Biso   1.000  C
  C626     1.0000 0.96927  0.64619  0.92848  Biso   1.000  C
  C627     1.0000 0.96920  0.64619  0.92848  Biso   1.000  C
  C628     1.0000 0.35384  0.32303  0.92848  Biso   1.000  C
  C629     1.0000 0.35378  0.32303  0.92848  Biso   1.000  C
  C630     1.0000 0.04219  0.42670  0.97981  Biso   1.000  C
  C631     1.0000 0.04219  0.42670  0.97977  Biso   1.000  C
  C632     1.0000 0.76583  0.65951  0.06070  Biso   1.000  C
  C633     1.0000 0.76583  0.65951  0.06066  Biso   1.000  C
  N72      1.0000 0.31875  0.96459  0.94019  Biso   1.000  N
  H571     1.0000 0.21896  0.84076  0.96328  Biso   1.000  H
  H572     1.0000 0.21902  0.84076  0.96328  Biso   1.000  H
  H573     1.0000 0.96961  0.59738  0.95302  Biso   1.000  H
  H574     1.0000 0.91883  0.65873  0.94100  Biso   1.000  H
  H575     1.0000 0.96961  0.59738  0.95297  Biso   1.000  H
  H576     1.0000 0.95745  0.62367  0.88899  Biso   1.000  H
  H577     1.0000 0.95739  0.62367  0.88899  Biso   1.000  H
  H578     1.0000 0.91880  0.65866  0.94100  Biso   1.000  H
  H579     1.0000 0.40261  0.37219  0.95302  Biso   1.000  H
  H580     1.0000 0.37634  0.33372  0.88899  Biso   1.000  H
  H581     1.0000 0.34133  0.26012  0.94100  Biso   1.000  H
  H582     1.0000 0.40261  0.37219  0.95297  Biso   1.000  H
  H583     1.0000 0.37628  0.33372  0.88899  Biso   1.000  H
  H584     1.0000 0.34127  0.26012  0.94100  Biso   1.000  H
  C634     1.0000 0.95779  0.38452  0.02019  Biso   1.000  C
  C635     1.0000 0.95786  0.38452  0.02019  Biso   1.000  C
  H585     1.0000 0.04350  0.47992  0.95821  Biso   1.000  H
  H586     1.0000 0.04350  0.47992  0.95817  Biso   1.000  H
  H587     1.0000 0.10213  0.45242  0.00192  Biso   1.000  H
  H588     1.0000 0.10213  0.45242  0.00187  Biso   1.000  H
  H589     1.0000 0.10207  0.45242  0.00192  Biso   1.000  H
  H590     1.0000 0.10207  0.45242  0.00187  Biso   1.000  H
  C636     1.0000 0.84096  0.73140  0.09746  Biso   1.000  C
  C637     1.0000 0.84096  0.73140  0.09742  Biso   1.000  C
  H591     1.0000 0.78105  0.62182  0.03672  Biso   1.000  H
  H592     1.0000 0.78105  0.62182  0.03668  Biso   1.000  H
  C638     1.0000 0.38448  0.95782  0.97981  Biso   1.000  C
  C639     1.0000 0.38448  0.95782  0.97977  Biso   1.000  C
  H593     1.0000 0.89793  0.35032  0.99808  Biso   1.000  H
  N73      1.0000 0.96459  0.31876  0.05981  Biso   1.000  N
  H594     1.0000 0.95652  0.43639  0.04179  Biso   1.000  H
  N74      1.0000 0.96459  0.31876  0.05976  Biso   1.000  N
  N75      1.0000 0.96465  0.31876  0.05981  Biso   1.000  N
  N76      1.0000 0.96465  0.31876  0.05976  Biso   1.000  N
  C640     1.0000 0.93061  0.73745  0.09972  Biso   1.000  C
  C641     1.0000 0.82742  0.79452  0.13026  Biso   1.000  C
  C642     1.0000 0.93055  0.73745  0.09972  Biso   1.000  C
  C643     1.0000 0.82729  0.79452  0.13026  Biso   1.000  C
  H595     1.0000 0.43631  0.95647  0.95821  Biso   1.000  H
  H596     1.0000 0.43631  0.95647  0.95817  Biso   1.000  H
  H597     1.0000 0.43643  0.95647  0.95821  Biso   1.000  H
  H598     1.0000 0.43643  0.95647  0.95817  Biso   1.000  H
  H599     1.0000 0.35032  0.89790  0.00192  Biso   1.000  H
  H600     1.0000 0.35032  0.89790  0.00187  Biso   1.000  H
  C644     1.0000 0.42672  0.04218  0.02019  Biso   1.000  C
  C645     1.0000 0.42665  0.04218  0.02019  Biso   1.000  C
  C646     1.0000 0.89367  0.23419  0.06070  Biso   1.000  C
  C647     1.0000 0.89367  0.23419  0.06066  Biso   1.000  C
  C648     1.0000 0.89373  0.23419  0.06070  Biso   1.000  C
  C649     1.0000 0.89373  0.23419  0.06066  Biso   1.000  C
  O81      1.0000 0.94129  0.67255  0.06790  Biso   1.000  O
  C650     1.0000 0.00207  0.80621  0.13380  Biso   1.000  C
  C651     1.0000 0.89779  0.86370  0.16476  Biso   1.000  C
  C652     1.0000 0.89779  0.86370  0.16472  Biso   1.000  C
  H601     1.0000 0.76686  0.79039  0.12920  Biso   1.000  H
  H602     1.0000 0.76679  0.79039  0.12920  Biso   1.000  H
  H603     1.0000 0.45242  0.10210  0.99808  Biso   1.000  H
  H604     1.0000 0.45236  0.10210  0.99808  Biso   1.000  H
  N77      1.0000 0.35416  0.03541  0.05981  Biso   1.000  N
  H605     1.0000 0.47990  0.04353  0.04179  Biso   1.000  H
  N78      1.0000 0.35416  0.03541  0.05976  Biso   1.000  N
  N79      1.0000 0.35423  0.03541  0.05981  Biso   1.000  N
  H606     1.0000 0.47993  0.04346  0.04179  Biso   1.000  H
  N80      1.0000 0.35423  0.03541  0.05976  Biso   1.000  N
  H607     1.0000 0.47996  0.04353  0.04179  Biso   1.000  H
  H608     1.0000 0.47987  0.04346  0.04179  Biso   1.000  H
  C653     1.0000 0.89040  0.15902  0.09746  Biso   1.000  C
  H609     1.0000 0.84080  0.21901  0.03672  Biso   1.000  H
  C654     1.0000 0.89040  0.15902  0.09742  Biso   1.000  C
  H610     1.0000 0.84080  0.21901  0.03668  Biso   1.000  H
  C655     1.0000 0.89046  0.15902  0.09746  Biso   1.000  C
  C656     1.0000 0.89046  0.15902  0.09742  Biso   1.000  C
  H611     1.0000 0.84086  0.21901  0.03672  Biso   1.000  H
  H612     1.0000 0.84086  0.21901  0.03668  Biso   1.000  H
  C657     1.0000 0.03075  0.67697  0.07152  Biso   1.000  C
  C658     1.0000 0.98696  0.87026  0.16574  Biso   1.000  C
  H613     1.0000 0.06231  0.80970  0.13541  Biso   1.000  H
  H614     1.0000 0.06231  0.80970  0.13537  Biso   1.000  H
  C659     1.0000 0.87351  0.92818  0.19944  Biso   1.000  C
  C660     1.0000 0.87345  0.92818  0.19944  Biso   1.000  C
  C661     1.0000 0.34050  0.10630  0.06070  Biso   1.000  C
  C662     1.0000 0.34050  0.10630  0.06066  Biso   1.000  C
  C663     1.0000 0.34056  0.10630  0.06070  Biso   1.000  C
  C664     1.0000 0.34056  0.10630  0.06066  Biso   1.000  C
  C665     1.0000 0.80683  0.06939  0.09972  Biso   1.000  C
  C666     1.0000 0.96717  0.17263  0.13026  Biso   1.000  C
  C667     1.0000 0.80689  0.06939  0.09972  Biso   1.000  C
  C668     1.0000 0.96723  0.17263  0.13026  Biso   1.000  C
  H615     1.0000 0.03035  0.62781  0.04698  Biso   1.000  H
  H616     1.0000 0.04262  0.66628  0.11101  Biso   1.000  H
  H617     1.0000 0.08121  0.73988  0.05900  Biso   1.000  H
  H618     1.0000 0.03041  0.62781  0.04698  Biso   1.000  H
  C669     1.0000 0.07180  0.94528  0.19944  Biso   1.000  C
  H619     1.0000 0.91608  0.95198  0.23309  Biso   1.000  H
  H620     1.0000 0.80724  0.89028  0.21349  Biso   1.000  H
  H621     1.0000 0.91602  0.95198  0.23309  Biso   1.000  H
  C670     1.0000 0.88334  0.01311  0.16574  Biso   1.000  C
  C671     1.0000 0.88340  0.01311  0.16574  Biso   1.000  C
  C672     1.0000 0.26865  0.10958  0.09746  Biso   1.000  C
  H622     1.0000 0.37819  0.15924  0.03672  Biso   1.000  H
  C673     1.0000 0.26865  0.10958  0.09742  Biso   1.000  C
  H623     1.0000 0.37819  0.15924  0.03668  Biso   1.000  H
  H624     1.0000 0.37822  0.15917  0.03672  Biso   1.000  H
  H625     1.0000 0.37822  0.15917  0.03668  Biso   1.000  H
  H626     1.0000 0.37825  0.15924  0.03672  Biso   1.000  H
  H627     1.0000 0.37825  0.15924  0.03668  Biso   1.000  H
  C674     1.0000 0.26859  0.10958  0.09746  Biso   1.000  C
  H628     1.0000 0.37816  0.15917  0.03672  Biso   1.000  H
  C675     1.0000 0.26859  0.10958  0.09742  Biso   1.000  C
  H629     1.0000 0.37816  0.15917  0.03668  Biso   1.000  H
  C676     1.0000 0.80417  0.99793  0.13380  Biso   1.000  C
  C677     1.0000 0.80408  0.99786  0.13380  Biso   1.000  C
  C678     1.0000 0.80411  0.99793  0.13380  Biso   1.000  C
  O82      1.0000 0.73131  0.05878  0.06790  Biso   1.000  O
  O83      1.0000 0.73137  0.05878  0.06790  Biso   1.000  O
  C679     1.0000 0.96591  0.10224  0.16476  Biso   1.000  C
  C680     1.0000 0.96591  0.10224  0.16472  Biso   1.000  C
  C681     1.0000 0.96597  0.10224  0.16476  Biso   1.000  C
  C682     1.0000 0.96597  0.10224  0.16472  Biso   1.000  C
  H630     1.0000 0.02361  0.23319  0.12920  Biso   1.000  H
  H631     1.0000 0.02355  0.23319  0.12920  Biso   1.000  H
  H632     1.0000 0.04797  0.96402  0.23309  Biso   1.000  H
  H633     1.0000 0.10963  0.91693  0.21349  Biso   1.000  H
  H634     1.0000 0.10976  0.91693  0.21349  Biso   1.000  H
  C683     1.0000 0.13630  0.03406  0.16476  Biso   1.000  C
  C684     1.0000 0.13630  0.03406  0.16472  Biso   1.000  C
  C685     1.0000 0.13636  0.03406  0.16476  Biso   1.000  C
  C686     1.0000 0.13636  0.03406  0.16472  Biso   1.000  C
  C687     1.0000 0.20548  0.03284  0.13026  Biso   1.000  C
  C688     1.0000 0.20554  0.03284  0.13026  Biso   1.000  C
  C689     1.0000 0.26255  0.19315  0.09972  Biso   1.000  C
  C690     1.0000 0.26249  0.19315  0.09972  Biso   1.000  C
  H635     1.0000 0.74742  0.93773  0.13541  Biso   1.000  H
  H636     1.0000 0.74742  0.93773  0.13537  Biso   1.000  H
  H637     1.0000 0.74732  0.93766  0.13541  Biso   1.000  H
  H638     1.0000 0.74732  0.93766  0.13537  Biso   1.000  H
  H639     1.0000 0.74736  0.93773  0.13541  Biso   1.000  H
  H640     1.0000 0.74736  0.93773  0.13537  Biso   1.000  H
  H641     1.0000 0.74738  0.93766  0.13541  Biso   1.000  H
  H642     1.0000 0.74738  0.93766  0.13537  Biso   1.000  H
  C691     1.0000 0.64624  0.96922  0.07152  Biso   1.000  C
  C692     1.0000 0.64620  0.96915  0.07152  Biso   1.000  C
  C693     1.0000 0.05475  0.12653  0.19944  Biso   1.000  C
  C694     1.0000 0.05469  0.12653  0.19944  Biso   1.000  C
  C695     1.0000 0.12974  0.11670  0.16574  Biso   1.000  C
  C696     1.0000 0.12980  0.11670  0.16574  Biso   1.000  C
  H643     1.0000 0.20953  0.97642  0.12920  Biso   1.000  H
  H644     1.0000 0.20966  0.97642  0.12920  Biso   1.000  H
  C697     1.0000 0.19385  0.19593  0.13380  Biso   1.000  C
  C698     1.0000 0.19379  0.19593  0.13380  Biso   1.000  C
  O84      1.0000 0.32746  0.26867  0.06790  Biso   1.000  O
  O85      1.0000 0.32740  0.26867  0.06790  Biso   1.000  O
  H645     1.0000 0.59736  0.96958  0.04698  Biso   1.000  H
  H646     1.0000 0.62373  0.95739  0.11101  Biso   1.000  H
  H647     1.0000 0.65872  0.91878  0.05900  Biso   1.000  H
  H648     1.0000 0.03602  0.08400  0.23309  Biso   1.000  H
  H649     1.0000 0.08307  0.19279  0.21349  Biso   1.000  H
  H650     1.0000 0.08313  0.19279  0.21349  Biso   1.000  H
  H651     1.0000 0.03595  0.08400  0.23309  Biso   1.000  H
  H652     1.0000 0.19027  0.25257  0.13541  Biso   1.000  H
  H653     1.0000 0.19027  0.25257  0.13537  Biso   1.000  H
  H654     1.0000 0.19033  0.25257  0.13541  Biso   1.000  H
  H655     1.0000 0.19033  0.25257  0.13537  Biso   1.000  H
  C699     1.0000 0.32302  0.35381  0.07152  Biso   1.000  C
  C700     1.0000 0.32295  0.35381  0.07152  Biso   1.000  C
  H656     1.0000 0.37222  0.40262  0.04698  Biso   1.000  H
  H657     1.0000 0.33372  0.37633  0.11101  Biso   1.000  H
  H658     1.0000 0.26010  0.34127  0.05900  Biso   1.000  H
  H659     1.0000 0.37216  0.40262  0.04698  Biso   1.000  H
  H660     1.0000 0.26004  0.34127  0.05900  Biso   1.000  H
  C701     1.0000 0.80618  0.00207  0.86620  Biso   1.000  C
  C702     1.0000 0.87023  0.98689  0.83426  Biso   1.000  C
  C703     1.0000 0.87023  0.98689  0.83421  Biso   1.000  C
  C704     1.0000 0.73744  0.93061  0.90028  Biso   1.000  C
  H661     1.0000 0.80969  0.06227  0.86459  Biso   1.000  H
  H662     1.0000 0.80975  0.06227  0.86459  Biso   1.000  H
  C705     1.0000 0.86367  0.89776  0.83524  Biso   1.000  C
  C706     1.0000 0.86361  0.89776  0.83524  Biso   1.000  C
  C707     1.0000 0.94527  0.07182  0.80056  Biso   1.000  C
  C708     1.0000 0.94527  0.07182  0.80052  Biso   1.000  C
  C709     1.0000 0.94533  0.07182  0.80056  Biso   1.000  C
  C710     1.0000 0.94533  0.07182  0.80052  Biso   1.000  C
  O86      1.0000 0.67259  0.94122  0.93210  Biso   1.000  O
  O87      1.0000 0.67259  0.94122  0.93206  Biso   1.000  O
  O88      1.0000 0.67253  0.94122  0.93210  Biso   1.000  O
  O89      1.0000 0.67253  0.94122  0.93206  Biso   1.000  O
  C711     1.0000 0.73143  0.84098  0.90254  Biso   1.000  C
  C712     1.0000 0.73137  0.84098  0.90254  Biso   1.000  C
  C713     1.0000 0.79460  0.82737  0.86974  Biso   1.000  C
  C714     1.0000 0.79460  0.82737  0.86970  Biso   1.000  C
  C715     1.0000 0.79448  0.82737  0.86974  Biso   1.000  C
  C716     1.0000 0.79448  0.82737  0.86970  Biso   1.000  C
  C717     1.0000 0.92828  0.87347  0.80056  Biso   1.000  C
  C718     1.0000 0.92828  0.87347  0.80052  Biso   1.000  C
  C719     1.0000 0.92822  0.87347  0.80056  Biso   1.000  C
  C720     1.0000 0.92822  0.87347  0.80052  Biso   1.000  C
  H663     1.0000 0.96404  0.04802  0.76691  Biso   1.000  H
  H664     1.0000 0.91696  0.10972  0.78651  Biso   1.000  H
  H665     1.0000 0.91690  0.10972  0.78651  Biso   1.000  H
  C721     1.0000 0.03409  0.13630  0.83524  Biso   1.000  C
  C722     1.0000 0.03403  0.13630  0.83524  Biso   1.000  C
  C723     1.0000 0.67702  0.03078  0.92848  Biso   1.000  C
  C724     1.0000 0.67696  0.03078  0.92848  Biso   1.000  C
  C725     1.0000 0.65948  0.76581  0.93930  Biso   1.000  C
  C726     1.0000 0.65942  0.76581  0.93930  Biso   1.000  C
  H666     1.0000 0.79042  0.76681  0.87080  Biso   1.000  H
  H667     1.0000 0.95201  0.91600  0.76691  Biso   1.000  H
  H668     1.0000 0.89034  0.80721  0.78651  Biso   1.000  H
  C727     1.0000 0.01298  0.88330  0.83426  Biso   1.000  C
  C728     1.0000 0.01298  0.88330  0.83421  Biso   1.000  C
  C729     1.0000 0.01304  0.88330  0.83426  Biso   1.000  C
  C730     1.0000 0.01304  0.88330  0.83421  Biso   1.000  C
  C731     1.0000 0.03283  0.20548  0.86974  Biso   1.000  C
  C732     1.0000 0.11664  0.12974  0.83426  Biso   1.000  C
  C733     1.0000 0.03283  0.20548  0.86970  Biso   1.000  C
  C734     1.0000 0.11664  0.12974  0.83421  Biso   1.000  C
  C735     1.0000 0.11670  0.12974  0.83426  Biso   1.000  C
  C736     1.0000 0.11670  0.12974  0.83421  Biso   1.000  C
  H669     1.0000 0.66633  0.04261  0.88899  Biso   1.000  H
  H670     1.0000 0.73994  0.08122  0.94100  Biso   1.000  H
  H671     1.0000 0.62779  0.03042  0.95302  Biso   1.000  H
  H672     1.0000 0.66627  0.04261  0.88899  Biso   1.000  H
  H673     1.0000 0.73988  0.08122  0.94100  Biso   1.000  H
  H674     1.0000 0.62779  0.03042  0.95297  Biso   1.000  H
  H675     1.0000 0.62785  0.03042  0.95302  Biso   1.000  H
  H676     1.0000 0.62785  0.03042  0.95297  Biso   1.000  H
  N81      1.0000 0.64583  0.68124  0.94019  Biso   1.000  N
  H677     1.0000 0.62178  0.78099  0.96328  Biso   1.000  H
  H678     1.0000 0.62172  0.78099  0.96328  Biso   1.000  H
  C737     1.0000 0.10224  0.96594  0.83524  Biso   1.000  C
  C738     1.0000 0.99798  0.80407  0.86620  Biso   1.000  C
  C739     1.0000 0.99792  0.80407  0.86620  Biso   1.000  C
  H679     1.0000 0.97640  0.20961  0.87080  Biso   1.000  H
  H680     1.0000 0.97646  0.20961  0.87080  Biso   1.000  H
  C740     1.0000 0.10956  0.26860  0.90254  Biso   1.000  C
  C741     1.0000 0.10962  0.26860  0.90254  Biso   1.000  C
  C742     1.0000 0.19593  0.19379  0.86620  Biso   1.000  C
  C743     1.0000 0.12651  0.05472  0.80056  Biso   1.000  C
  C744     1.0000 0.12651  0.05472  0.80052  Biso   1.000  C
  C745     1.0000 0.12658  0.05472  0.80056  Biso   1.000  C
  C746     1.0000 0.12658  0.05472  0.80052  Biso   1.000  C
  C747     1.0000 0.19587  0.19379  0.86620  Biso   1.000  C
  C748     1.0000 0.57334  0.61548  0.97981  Biso   1.000  C
  C749     1.0000 0.57334  0.61548  0.97977  Biso   1.000  C
  C750     1.0000 0.57321  0.61548  0.97981  Biso   1.000  C
  C751     1.0000 0.57321  0.61548  0.97977  Biso   1.000  C
  C752     1.0000 0.17257  0.96716  0.86974  Biso   1.000  C
  C753     1.0000 0.17257  0.96716  0.86970  Biso   1.000  C
  C754     1.0000 0.17263  0.96716  0.86974  Biso   1.000  C
  C755     1.0000 0.17263  0.96716  0.86970  Biso   1.000  C
  H681     1.0000 0.93770  0.74743  0.86459  Biso   1.000  H
  H682     1.0000 0.93766  0.74736  0.86459  Biso   1.000  H
  C756     1.0000 0.06934  0.80685  0.90028  Biso   1.000  C
  C757     1.0000 0.19316  0.26255  0.90028  Biso   1.000  C
  C758     1.0000 0.10632  0.34049  0.93930  Biso   1.000  C
  C759     1.0000 0.19310  0.26255  0.90028  Biso   1.000  C
  C760     1.0000 0.10626  0.34049  0.93930  Biso   1.000  C
  H683     1.0000 0.25261  0.19030  0.86459  Biso   1.000  H
  H684     1.0000 0.25255  0.19030  0.86459  Biso   1.000  H
  H685     1.0000 0.08401  0.03598  0.76691  Biso   1.000  H
  H686     1.0000 0.19277  0.08307  0.78651  Biso   1.000  H
  H687     1.0000 0.19283  0.08307  0.78651  Biso   1.000  H
  H688     1.0000 0.08395  0.03598  0.76691  Biso   1.000  H
  H689     1.0000 0.52013  0.56361  0.95821  Biso   1.000  H
  H690     1.0000 0.52013  0.56361  0.95817  Biso   1.000  H
  H691     1.0000 0.54761  0.64968  0.00192  Biso   1.000  H
  C761     1.0000 0.61555  0.57330  0.02019  Biso   1.000  C
  H692     1.0000 0.54761  0.64968  0.00187  Biso   1.000  H
  H693     1.0000 0.54755  0.64968  0.00192  Biso   1.000  H
  C762     1.0000 0.61543  0.57330  0.02019  Biso   1.000  C
  H694     1.0000 0.54755  0.64968  0.00187  Biso   1.000  H
  C763     1.0000 0.15901  0.89042  0.90254  Biso   1.000  C
  H695     1.0000 0.23318  0.02358  0.87080  Biso   1.000  H
  H696     1.0000 0.23324  0.02358  0.87080  Biso   1.000  H
  O90      1.0000 0.05879  0.73133  0.93210  Biso   1.000  O
  O91      1.0000 0.05879  0.73133  0.93206  Biso   1.000  O
  O92      1.0000 0.05875  0.73126  0.93210  Biso   1.000  O
  O93      1.0000 0.05875  0.73126  0.93206  Biso   1.000  O
  O94      1.0000 0.26868  0.32745  0.93210  Biso   1.000  O
  O95      1.0000 0.26868  0.32745  0.93206  Biso   1.000  O
  O96      1.0000 0.26874  0.32745  0.93210  Biso   1.000  O
  O97      1.0000 0.26874  0.32745  0.93206  Biso   1.000  O
  N82      1.0000 0.03542  0.35417  0.94019  Biso   1.000  N
  H697     1.0000 0.15916  0.37818  0.96328  Biso   1.000  H
  H698     1.0000 0.15923  0.37818  0.96328  Biso   1.000  H
  N83      1.0000 0.03536  0.35417  0.94019  Biso   1.000  N
  H699     1.0000 0.64977  0.54758  0.99808  Biso   1.000  H
  H700     1.0000 0.64965  0.54758  0.99808  Biso   1.000  H
  N84      1.0000 0.68131  0.64583  0.05981  Biso   1.000  N
  H701     1.0000 0.56364  0.52008  0.04179  Biso   1.000  H
  N85      1.0000 0.68131  0.64583  0.05976  Biso   1.000  N
  N86      1.0000 0.68125  0.64583  0.05981  Biso   1.000  N
  H702     1.0000 0.56358  0.52008  0.04179  Biso   1.000  H
  N87      1.0000 0.68125  0.64583  0.05976  Biso   1.000  N
  C764     1.0000 0.23413  0.89370  0.93930  Biso   1.000  C
  C765     1.0000 0.23419  0.89370  0.93930  Biso   1.000  C
  C766     1.0000 0.96927  0.64619  0.92848  Biso   1.000  C
  C767     1.0000 0.96920  0.64619  0.92848  Biso   1.000  C
  C768     1.0000 0.35384  0.32303  0.92848  Biso   1.000  C
  C769     1.0000 0.35378  0.32303  0.92848  Biso   1.000  C
  C770     1.0000 0.04219  0.42670  0.97981  Biso   1.000  C
  C771     1.0000 0.04219  0.42670  0.97977  Biso   1.000  C
  C772     1.0000 0.76583  0.65951  0.06070  Biso   1.000  C
  C773     1.0000 0.76583  0.65951  0.06066  Biso   1.000  C
  N88      1.0000 0.31875  0.96459  0.94019  Biso   1.000  N
  H703     1.0000 0.21896  0.84076  0.96328  Biso   1.000  H
  H704     1.0000 0.21902  0.84076  0.96328  Biso   1.000  H
  H705     1.0000 0.96961  0.59738  0.95302  Biso   1.000  H
  H706     1.0000 0.96961  0.59738  0.95297  Biso   1.000  H
  H707     1.0000 0.91883  0.65873  0.94100  Biso   1.000  H
  H708     1.0000 0.95745  0.62367  0.88899  Biso   1.000  H
  H709     1.0000 0.95739  0.62367  0.88899  Biso   1.000  H
  H710     1.0000 0.91880  0.65866  0.94100  Biso   1.000  H
  H711     1.0000 0.40261  0.37219  0.95302  Biso   1.000  H
  H712     1.0000 0.37634  0.33372  0.88899  Biso   1.000  H
  H713     1.0000 0.34133  0.26012  0.94100  Biso   1.000  H
  H714     1.0000 0.40261  0.37219  0.95297  Biso   1.000  H
  H715     1.0000 0.37628  0.33372  0.88899  Biso   1.000  H
  H716     1.0000 0.34127  0.26012  0.94100  Biso   1.000  H
  C774     1.0000 0.95779  0.38452  0.02019  Biso   1.000  C
  C775     1.0000 0.95786  0.38452  0.02019  Biso   1.000  C
  H717     1.0000 0.04350  0.47992  0.95821  Biso   1.000  H
  H718     1.0000 0.04350  0.47992  0.95817  Biso   1.000  H
  H719     1.0000 0.10213  0.45242  0.00192  Biso   1.000  H
  H720     1.0000 0.10213  0.45242  0.00187  Biso   1.000  H
  H721     1.0000 0.10207  0.45242  0.00192  Biso   1.000  H
  H722     1.0000 0.10207  0.45242  0.00187  Biso   1.000  H
  C776     1.0000 0.84096  0.73140  0.09746  Biso   1.000  C
  C777     1.0000 0.84096  0.73140  0.09742  Biso   1.000  C
  H723     1.0000 0.78105  0.62182  0.03672  Biso   1.000  H
  H724     1.0000 0.78105  0.62182  0.03668  Biso   1.000  H
  C778     1.0000 0.38448  0.95782  0.97981  Biso   1.000  C
  C779     1.0000 0.38448  0.95782  0.97977  Biso   1.000  C
  H725     1.0000 0.89793  0.35032  0.99808  Biso   1.000  H
  N89      1.0000 0.96459  0.31876  0.05981  Biso   1.000  N
  H726     1.0000 0.95652  0.43639  0.04179  Biso   1.000  H
  N90      1.0000 0.96459  0.31876  0.05976  Biso   1.000  N
  N91      1.0000 0.96465  0.31876  0.05981  Biso   1.000  N
  N92      1.0000 0.96465  0.31876  0.05976  Biso   1.000  N
  C780     1.0000 0.93061  0.73745  0.09972  Biso   1.000  C
  C781     1.0000 0.82742  0.79452  0.13026  Biso   1.000  C
  C782     1.0000 0.93055  0.73745  0.09972  Biso   1.000  C
  C783     1.0000 0.82729  0.79452  0.13026  Biso   1.000  C
  H727     1.0000 0.43631  0.95647  0.95821  Biso   1.000  H
  H728     1.0000 0.43631  0.95647  0.95817  Biso   1.000  H
  H729     1.0000 0.43643  0.95647  0.95821  Biso   1.000  H
  H730     1.0000 0.43643  0.95647  0.95817  Biso   1.000  H
  H731     1.0000 0.35032  0.89790  0.00192  Biso   1.000  H
  H732     1.0000 0.35032  0.89790  0.00187  Biso   1.000  H
  C784     1.0000 0.42672  0.04218  0.02019  Biso   1.000  C
  C785     1.0000 0.42665  0.04218  0.02019  Biso   1.000  C
  C786     1.0000 0.89367  0.23419  0.06070  Biso   1.000  C
  C787     1.0000 0.89367  0.23419  0.06066  Biso   1.000  C
  C788     1.0000 0.89373  0.23419  0.06070  Biso   1.000  C
  C789     1.0000 0.89373  0.23419  0.06066  Biso   1.000  C
  O98      1.0000 0.94129  0.67255  0.06790  Biso   1.000  O
  C790     1.0000 0.00207  0.80621  0.13380  Biso   1.000  C
  C791     1.0000 0.89779  0.86370  0.16476  Biso   1.000  C
  C792     1.0000 0.89779  0.86370  0.16472  Biso   1.000  C
  H733     1.0000 0.76686  0.79039  0.12920  Biso   1.000  H
  H734     1.0000 0.76679  0.79039  0.12920  Biso   1.000  H
  H735     1.0000 0.45242  0.10210  0.99808  Biso   1.000  H
  H736     1.0000 0.45236  0.10210  0.99808  Biso   1.000  H
  N93      1.0000 0.35416  0.03541  0.05981  Biso   1.000  N
  H737     1.0000 0.47990  0.04353  0.04179  Biso   1.000  H
  N94      1.0000 0.35416  0.03541  0.05976  Biso   1.000  N
  N95      1.0000 0.35423  0.03541  0.05981  Biso   1.000  N
  H738     1.0000 0.47993  0.04346  0.04179  Biso   1.000  H
  N96      1.0000 0.35423  0.03541  0.05976  Biso   1.000  N
  H739     1.0000 0.47996  0.04353  0.04179  Biso   1.000  H
  H740     1.0000 0.47987  0.04346  0.04179  Biso   1.000  H
  C793     1.0000 0.89040  0.15902  0.09746  Biso   1.000  C
  H741     1.0000 0.84080  0.21901  0.03672  Biso   1.000  H
  C794     1.0000 0.89040  0.15902  0.09742  Biso   1.000  C
  H742     1.0000 0.84080  0.21901  0.03668  Biso   1.000  H
  C795     1.0000 0.89046  0.15902  0.09746  Biso   1.000  C
  C796     1.0000 0.89046  0.15902  0.09742  Biso   1.000  C
  H743     1.0000 0.84086  0.21901  0.03672  Biso   1.000  H
  H744     1.0000 0.84086  0.21901  0.03668  Biso   1.000  H
  C797     1.0000 0.03075  0.67697  0.07152  Biso   1.000  C
  C798     1.0000 0.98696  0.87026  0.16574  Biso   1.000  C
  H745     1.0000 0.06231  0.80970  0.13541  Biso   1.000  H
  H746     1.0000 0.06231  0.80970  0.13537  Biso   1.000  H
  C799     1.0000 0.87351  0.92818  0.19944  Biso   1.000  C
  C800     1.0000 0.87345  0.92818  0.19944  Biso   1.000  C
  C801     1.0000 0.34050  0.10630  0.06070  Biso   1.000  C
  C802     1.0000 0.34050  0.10630  0.06066  Biso   1.000  C
  C803     1.0000 0.34056  0.10630  0.06070  Biso   1.000  C
  C804     1.0000 0.34056  0.10630  0.06066  Biso   1.000  C
  C805     1.0000 0.80683  0.06939  0.09972  Biso   1.000  C
  C806     1.0000 0.96717  0.17263  0.13026  Biso   1.000  C
  C807     1.0000 0.80689  0.06939  0.09972  Biso   1.000  C
  C808     1.0000 0.96723  0.17263  0.13026  Biso   1.000  C
  H747     1.0000 0.03035  0.62781  0.04698  Biso   1.000  H
  H748     1.0000 0.04262  0.66628  0.11101  Biso   1.000  H
  H749     1.0000 0.08121  0.73988  0.05900  Biso   1.000  H
  H750     1.0000 0.03041  0.62781  0.04698  Biso   1.000  H
  C809     1.0000 0.07180  0.94528  0.19944  Biso   1.000  C
  H751     1.0000 0.91608  0.95198  0.23309  Biso   1.000  H
  H752     1.0000 0.80724  0.89028  0.21349  Biso   1.000  H
  H753     1.0000 0.91602  0.95198  0.23309  Biso   1.000  H
  C810     1.0000 0.88334  0.01311  0.16574  Biso   1.000  C
  C811     1.0000 0.88340  0.01311  0.16574  Biso   1.000  C
  C812     1.0000 0.26865  0.10958  0.09746  Biso   1.000  C
  H754     1.0000 0.37819  0.15924  0.03672  Biso   1.000  H
  C813     1.0000 0.26865  0.10958  0.09742  Biso   1.000  C
  H755     1.0000 0.37819  0.15924  0.03668  Biso   1.000  H
  H756     1.0000 0.37822  0.15917  0.03672  Biso   1.000  H
  H757     1.0000 0.37822  0.15917  0.03668  Biso   1.000  H
  H758     1.0000 0.37825  0.15924  0.03672  Biso   1.000  H
  H759     1.0000 0.37825  0.15924  0.03668  Biso   1.000  H
  C814     1.0000 0.26859  0.10958  0.09746  Biso   1.000  C
  H760     1.0000 0.37816  0.15917  0.03672  Biso   1.000  H
  C815     1.0000 0.26859  0.10958  0.09742  Biso   1.000  C
  H761     1.0000 0.37816  0.15917  0.03668  Biso   1.000  H
  C816     1.0000 0.80417  0.99793  0.13380  Biso   1.000  C
  C817     1.0000 0.80408  0.99786  0.13380  Biso   1.000  C
  C818     1.0000 0.80411  0.99793  0.13380  Biso   1.000  C
  O99      1.0000 0.73131  0.05878  0.06790  Biso   1.000  O
  O100     1.0000 0.73137  0.05878  0.06790  Biso   1.000  O
  C819     1.0000 0.96591  0.10224  0.16476  Biso   1.000  C
  C820     1.0000 0.96591  0.10224  0.16472  Biso   1.000  C
  C821     1.0000 0.96597  0.10224  0.16476  Biso   1.000  C
  C822     1.0000 0.96597  0.10224  0.16472  Biso   1.000  C
  H762     1.0000 0.02361  0.23319  0.12920  Biso   1.000  H
  H763     1.0000 0.02355  0.23319  0.12920  Biso   1.000  H
  H764     1.0000 0.04797  0.96402  0.23309  Biso   1.000  H
  H765     1.0000 0.10963  0.91693  0.21349  Biso   1.000  H
  H766     1.0000 0.10976  0.91693  0.21349  Biso   1.000  H
  C823     1.0000 0.13630  0.03406  0.16476  Biso   1.000  C
  C824     1.0000 0.13630  0.03406  0.16472  Biso   1.000  C
  C825     1.0000 0.13636  0.03406  0.16476  Biso   1.000  C
  C826     1.0000 0.13636  0.03406  0.16472  Biso   1.000  C
  C827     1.0000 0.20548  0.03284  0.13026  Biso   1.000  C
  C828     1.0000 0.20554  0.03284  0.13026  Biso   1.000  C
  C829     1.0000 0.26255  0.19315  0.09972  Biso   1.000  C
  C830     1.0000 0.26249  0.19315  0.09972  Biso   1.000  C
  H767     1.0000 0.74742  0.93773  0.13541  Biso   1.000  H
  H768     1.0000 0.74742  0.93773  0.13537  Biso   1.000  H
  H769     1.0000 0.74732  0.93766  0.13541  Biso   1.000  H
  H770     1.0000 0.74732  0.93766  0.13537  Biso   1.000  H
  H771     1.0000 0.74736  0.93773  0.13541  Biso   1.000  H
  H772     1.0000 0.74736  0.93773  0.13537  Biso   1.000  H
  H773     1.0000 0.74738  0.93766  0.13541  Biso   1.000  H
  H774     1.0000 0.74738  0.93766  0.13537  Biso   1.000  H
  C831     1.0000 0.64624  0.96922  0.07152  Biso   1.000  C
  C832     1.0000 0.64620  0.96915  0.07152  Biso   1.000  C
  C833     1.0000 0.05475  0.12653  0.19944  Biso   1.000  C
  C834     1.0000 0.05469  0.12653  0.19944  Biso   1.000  C
  C835     1.0000 0.12974  0.11670  0.16574  Biso   1.000  C
  C836     1.0000 0.12980  0.11670  0.16574  Biso   1.000  C
  H775     1.0000 0.20953  0.97642  0.12920  Biso   1.000  H
  H776     1.0000 0.20966  0.97642  0.12920  Biso   1.000  H
  C837     1.0000 0.19385  0.19593  0.13380  Biso   1.000  C
  C838     1.0000 0.19379  0.19593  0.13380  Biso   1.000  C
  O101     1.0000 0.32746  0.26867  0.06790  Biso   1.000  O
  O102     1.0000 0.32740  0.26867  0.06790  Biso   1.000  O
  H777     1.0000 0.59736  0.96958  0.04698  Biso   1.000  H
  H778     1.0000 0.62373  0.95739  0.11101  Biso   1.000  H
  H779     1.0000 0.65872  0.91878  0.05900  Biso   1.000  H
  H780     1.0000 0.03602  0.08400  0.23309  Biso   1.000  H
  H781     1.0000 0.08307  0.19279  0.21349  Biso   1.000  H
  H782     1.0000 0.08313  0.19279  0.21349  Biso   1.000  H
  H783     1.0000 0.03595  0.08400  0.23309  Biso   1.000  H
  H784     1.0000 0.19027  0.25257  0.13541  Biso   1.000  H
  H785     1.0000 0.19027  0.25257  0.13537  Biso   1.000  H
  H786     1.0000 0.19033  0.25257  0.13541  Biso   1.000  H
  H787     1.0000 0.19033  0.25257  0.13537  Biso   1.000  H
  C839     1.0000 0.32302  0.35381  0.07152  Biso   1.000  C
  C840     1.0000 0.32295  0.35381  0.07152  Biso   1.000  C
  H788     1.0000 0.37222  0.40262  0.04698  Biso   1.000  H
  H789     1.0000 0.33372  0.37633  0.11101  Biso   1.000  H
  H790     1.0000 0.26010  0.34127  0.05900  Biso   1.000  H
  H791     1.0000 0.37216  0.40262  0.04698  Biso   1.000  H
  H792     1.0000 0.26004  0.34127  0.05900  Biso   1.000  H
  C841     1.0000 0.80618  0.00207  0.86620  Biso   1.000  C
  C842     1.0000 0.87023  0.98689  0.83426  Biso   1.000  C
  C843     1.0000 0.87023  0.98689  0.83421  Biso   1.000  C
  C844     1.0000 0.73744  0.93061  0.90028  Biso   1.000  C
  H793     1.0000 0.80969  0.06227  0.86459  Biso   1.000  H
  H794     1.0000 0.80975  0.06227  0.86459  Biso   1.000  H
  C845     1.0000 0.86367  0.89776  0.83524  Biso   1.000  C
  C846     1.0000 0.86361  0.89776  0.83524  Biso   1.000  C
  C847     1.0000 0.94527  0.07182  0.80056  Biso   1.000  C
  C848     1.0000 0.94527  0.07182  0.80052  Biso   1.000  C
  C849     1.0000 0.94533  0.07182  0.80056  Biso   1.000  C
  C850     1.0000 0.94533  0.07182  0.80052  Biso   1.000  C
  O103     1.0000 0.67259  0.94122  0.93210  Biso   1.000  O
  C851     1.0000 0.73143  0.84098  0.90254  Biso   1.000  C
  O104     1.0000 0.67259  0.94122  0.93206  Biso   1.000  O
  O105     1.0000 0.67253  0.94122  0.93210  Biso   1.000  O
  O106     1.0000 0.67253  0.94122  0.93206  Biso   1.000  O
  C852     1.0000 0.73137  0.84098  0.90254  Biso   1.000  C
  C853     1.0000 0.79460  0.82737  0.86974  Biso   1.000  C
  C854     1.0000 0.79460  0.82737  0.86970  Biso   1.000  C
  C855     1.0000 0.79448  0.82737  0.86974  Biso   1.000  C
  C856     1.0000 0.79448  0.82737  0.86970  Biso   1.000  C
  C857     1.0000 0.92828  0.87347  0.80056  Biso   1.000  C
  C858     1.0000 0.92828  0.87347  0.80052  Biso   1.000  C
  C859     1.0000 0.92822  0.87347  0.80056  Biso   1.000  C
  C860     1.0000 0.92822  0.87347  0.80052  Biso   1.000  C
  H795     1.0000 0.96404  0.04802  0.76691  Biso   1.000  H
  H796     1.0000 0.91690  0.10972  0.78651  Biso   1.000  H
  H797     1.0000 0.91696  0.10972  0.78651  Biso   1.000  H
  C861     1.0000 0.03409  0.13630  0.83524  Biso   1.000  C
  C862     1.0000 0.03403  0.13630  0.83524  Biso   1.000  C
  C863     1.0000 0.67696  0.03078  0.92848  Biso   1.000  C
  C864     1.0000 0.67702  0.03078  0.92848  Biso   1.000  C
  C865     1.0000 0.65948  0.76581  0.93930  Biso   1.000  C
  C866     1.0000 0.65942  0.76581  0.93930  Biso   1.000  C
  H798     1.0000 0.79042  0.76681  0.87080  Biso   1.000  H
  H799     1.0000 0.95201  0.91600  0.76691  Biso   1.000  H
  H800     1.0000 0.89034  0.80721  0.78651  Biso   1.000  H
  C867     1.0000 0.01298  0.88330  0.83426  Biso   1.000  C
  C868     1.0000 0.01298  0.88330  0.83421  Biso   1.000  C
  C869     1.0000 0.01304  0.88330  0.83426  Biso   1.000  C
  C870     1.0000 0.01304  0.88330  0.83421  Biso   1.000  C
  C871     1.0000 0.03283  0.20548  0.86974  Biso   1.000  C
  C872     1.0000 0.11664  0.12974  0.83426  Biso   1.000  C
  C873     1.0000 0.03283  0.20548  0.86970  Biso   1.000  C
  C874     1.0000 0.11664  0.12974  0.83421  Biso   1.000  C
  C875     1.0000 0.11670  0.12974  0.83426  Biso   1.000  C
  C876     1.0000 0.11670  0.12974  0.83421  Biso   1.000  C
  H801     1.0000 0.62779  0.03042  0.95302  Biso   1.000  H
  H802     1.0000 0.66627  0.04261  0.88899  Biso   1.000  H
  H803     1.0000 0.73988  0.08122  0.94100  Biso   1.000  H
  H804     1.0000 0.62779  0.03042  0.95297  Biso   1.000  H
  H805     1.0000 0.62785  0.03042  0.95302  Biso   1.000  H
  H806     1.0000 0.66633  0.04261  0.88899  Biso   1.000  H
  H807     1.0000 0.73994  0.08122  0.94100  Biso   1.000  H
  H808     1.0000 0.62785  0.03042  0.95297  Biso   1.000  H
  N97      1.0000 0.64583  0.68124  0.94019  Biso   1.000  N
  H809     1.0000 0.62178  0.78099  0.96328  Biso   1.000  H
  H810     1.0000 0.62172  0.78099  0.96328  Biso   1.000  H
  C877     1.0000 0.10224  0.96594  0.83524  Biso   1.000  C
  C878     1.0000 0.99798  0.80407  0.86620  Biso   1.000  C
  C879     1.0000 0.99792  0.80407  0.86620  Biso   1.000  C
  H811     1.0000 0.97640  0.20961  0.87080  Biso   1.000  H
  H812     1.0000 0.97646  0.20961  0.87080  Biso   1.000  H
  C880     1.0000 0.10956  0.26860  0.90254  Biso   1.000  C
  C881     1.0000 0.10962  0.26860  0.90254  Biso   1.000  C
  C882     1.0000 0.19593  0.19379  0.86620  Biso   1.000  C
  C883     1.0000 0.12651  0.05472  0.80056  Biso   1.000  C
  C884     1.0000 0.12651  0.05472  0.80052  Biso   1.000  C
  C885     1.0000 0.12658  0.05472  0.80056  Biso   1.000  C
  C886     1.0000 0.12658  0.05472  0.80052  Biso   1.000  C
  C887     1.0000 0.19587  0.19379  0.86620  Biso   1.000  C
  C888     1.0000 0.57334  0.61548  0.97981  Biso   1.000  C
  C889     1.0000 0.57334  0.61548  0.97977  Biso   1.000  C
  C890     1.0000 0.57321  0.61548  0.97981  Biso   1.000  C
  C891     1.0000 0.57321  0.61548  0.97977  Biso   1.000  C
  C892     1.0000 0.17257  0.96716  0.86974  Biso   1.000  C
  C893     1.0000 0.17257  0.96716  0.86970  Biso   1.000  C
  C894     1.0000 0.17263  0.96716  0.86974  Biso   1.000  C
  C895     1.0000 0.17263  0.96716  0.86970  Biso   1.000  C
  H813     1.0000 0.93770  0.74743  0.86459  Biso   1.000  H
  H814     1.0000 0.93766  0.74736  0.86459  Biso   1.000  H
  C896     1.0000 0.06934  0.80685  0.90028  Biso   1.000  C
  C897     1.0000 0.19316  0.26255  0.90028  Biso   1.000  C
  C898     1.0000 0.10632  0.34049  0.93930  Biso   1.000  C
  C899     1.0000 0.19310  0.26255  0.90028  Biso   1.000  C
  C900     1.0000 0.10626  0.34049  0.93930  Biso   1.000  C
  H815     1.0000 0.25261  0.19030  0.86459  Biso   1.000  H
  H816     1.0000 0.25255  0.19030  0.86459  Biso   1.000  H
  H817     1.0000 0.08401  0.03598  0.76691  Biso   1.000  H
  H818     1.0000 0.19277  0.08307  0.78651  Biso   1.000  H
  H819     1.0000 0.19283  0.08307  0.78651  Biso   1.000  H
  H820     1.0000 0.08395  0.03598  0.76691  Biso   1.000  H
  H821     1.0000 0.52013  0.56361  0.95821  Biso   1.000  H
  H822     1.0000 0.52013  0.56361  0.95817  Biso   1.000  H
  H823     1.0000 0.54761  0.64968  0.00192  Biso   1.000  H
  C901     1.0000 0.61555  0.57330  0.02019  Biso   1.000  C
  H824     1.0000 0.54761  0.64968  0.00187  Biso   1.000  H
  H825     1.0000 0.54755  0.64968  0.00192  Biso   1.000  H
  C902     1.0000 0.61543  0.57330  0.02019  Biso   1.000  C
  H826     1.0000 0.54755  0.64968  0.00187  Biso   1.000  H
  C903     1.0000 0.15901  0.89042  0.90254  Biso   1.000  C
  H827     1.0000 0.23318  0.02358  0.87080  Biso   1.000  H
  H828     1.0000 0.23324  0.02358  0.87080  Biso   1.000  H
  O107     1.0000 0.05879  0.73133  0.93210  Biso   1.000  O
  O108     1.0000 0.05879  0.73133  0.93206  Biso   1.000  O
  O109     1.0000 0.05875  0.73126  0.93210  Biso   1.000  O
  O110     1.0000 0.05875  0.73126  0.93206  Biso   1.000  O
  O111     1.0000 0.26868  0.32745  0.93210  Biso   1.000  O
  O112     1.0000 0.26868  0.32745  0.93206  Biso   1.000  O
  O113     1.0000 0.26874  0.32745  0.93210  Biso   1.000  O
  O114     1.0000 0.26874  0.32745  0.93206  Biso   1.000  O
  N98      1.0000 0.03542  0.35417  0.94019  Biso   1.000  N
  H829     1.0000 0.15916  0.37818  0.96328  Biso   1.000  H
  H830     1.0000 0.15923  0.37818  0.96328  Biso   1.000  H
  N99      1.0000 0.03536  0.35417  0.94019  Biso   1.000  N
  H831     1.0000 0.64977  0.54758  0.99808  Biso   1.000  H
  H832     1.0000 0.64965  0.54758  0.99808  Biso   1.000  H
  N100     1.0000 0.68131  0.64583  0.05981  Biso   1.000  N
  H833     1.0000 0.56364  0.52008  0.04179  Biso   1.000  H
  N101     1.0000 0.68131  0.64583  0.05976  Biso   1.000  N
  N102     1.0000 0.68125  0.64583  0.05981  Biso   1.000  N
  H834     1.0000 0.56358  0.52008  0.04179  Biso   1.000  H
  N103     1.0000 0.68125  0.64583  0.05976  Biso   1.000  N
  C904     1.0000 0.23413  0.89370  0.93930  Biso   1.000  C
  C905     1.0000 0.23419  0.89370  0.93930  Biso   1.000  C
  C906     1.0000 0.96927  0.64619  0.92848  Biso   1.000  C
  C907     1.0000 0.96920  0.64619  0.92848  Biso   1.000  C
  C908     1.0000 0.35384  0.32303  0.92848  Biso   1.000  C
  C909     1.0000 0.35378  0.32303  0.92848  Biso   1.000  C
  C910     1.0000 0.04219  0.42670  0.97981  Biso   1.000  C
  C911     1.0000 0.04219  0.42670  0.97977  Biso   1.000  C
  C912     1.0000 0.76583  0.65951  0.06070  Biso   1.000  C
  C913     1.0000 0.76583  0.65951  0.06066  Biso   1.000  C
  N104     1.0000 0.31875  0.96459  0.94019  Biso   1.000  N
  H835     1.0000 0.21896  0.84076  0.96328  Biso   1.000  H
  H836     1.0000 0.21902  0.84076  0.96328  Biso   1.000  H
  H837     1.0000 0.96961  0.59738  0.95302  Biso   1.000  H
  H838     1.0000 0.91883  0.65873  0.94100  Biso   1.000  H
  H839     1.0000 0.96961  0.59738  0.95297  Biso   1.000  H
  H840     1.0000 0.95745  0.62367  0.88899  Biso   1.000  H
  H841     1.0000 0.95739  0.62367  0.88899  Biso   1.000  H
  H842     1.0000 0.91880  0.65866  0.94100  Biso   1.000  H
  H843     1.0000 0.40261  0.37219  0.95302  Biso   1.000  H
  H844     1.0000 0.37634  0.33372  0.88899  Biso   1.000  H
  H845     1.0000 0.34133  0.26012  0.94100  Biso   1.000  H
  H846     1.0000 0.40261  0.37219  0.95297  Biso   1.000  H
  H847     1.0000 0.37628  0.33372  0.88899  Biso   1.000  H
  H848     1.0000 0.34127  0.26012  0.94100  Biso   1.000  H
  C914     1.0000 0.95779  0.38452  0.02019  Biso   1.000  C
  C915     1.0000 0.95786  0.38452  0.02019  Biso   1.000  C
  H849     1.0000 0.04350  0.47992  0.95821  Biso   1.000  H
  H850     1.0000 0.04350  0.47992  0.95817  Biso   1.000  H
  H851     1.0000 0.10213  0.45242  0.00192  Biso   1.000  H
  H852     1.0000 0.10213  0.45242  0.00187  Biso   1.000  H
  H853     1.0000 0.10207  0.45242  0.00192  Biso   1.000  H
  H854     1.0000 0.10207  0.45242  0.00187  Biso   1.000  H
  C916     1.0000 0.84096  0.73140  0.09746  Biso   1.000  C
  C917     1.0000 0.84096  0.73140  0.09742  Biso   1.000  C
  H855     1.0000 0.78105  0.62182  0.03672  Biso   1.000  H
  H856     1.0000 0.78105  0.62182  0.03668  Biso   1.000  H
  C918     1.0000 0.38448  0.95782  0.97981  Biso   1.000  C
  C919     1.0000 0.38448  0.95782  0.97977  Biso   1.000  C
  H857     1.0000 0.89793  0.35032  0.99808  Biso   1.000  H
  N105     1.0000 0.96459  0.31876  0.05981  Biso   1.000  N
  H858     1.0000 0.95652  0.43639  0.04179  Biso   1.000  H
  N106     1.0000 0.96459  0.31876  0.05976  Biso   1.000  N
  N107     1.0000 0.96465  0.31876  0.05981  Biso   1.000  N
  N108     1.0000 0.96465  0.31876  0.05976  Biso   1.000  N
  C920     1.0000 0.93061  0.73745  0.09972  Biso   1.000  C
  C921     1.0000 0.82742  0.79452  0.13026  Biso   1.000  C
  C922     1.0000 0.93055  0.73745  0.09972  Biso   1.000  C
  C923     1.0000 0.82729  0.79452  0.13026  Biso   1.000  C
  H859     1.0000 0.43631  0.95647  0.95821  Biso   1.000  H
  H860     1.0000 0.43631  0.95647  0.95817  Biso   1.000  H
  H861     1.0000 0.43643  0.95647  0.95821  Biso   1.000  H
  H862     1.0000 0.43643  0.95647  0.95817  Biso   1.000  H
  H863     1.0000 0.35032  0.89790  0.00192  Biso   1.000  H
  H864     1.0000 0.35032  0.89790  0.00187  Biso   1.000  H
  C924     1.0000 0.42672  0.04218  0.02019  Biso   1.000  C
  C925     1.0000 0.42665  0.04218  0.02019  Biso   1.000  C
  C926     1.0000 0.89367  0.23419  0.06070  Biso   1.000  C
  C927     1.0000 0.89367  0.23419  0.06066  Biso   1.000  C
  C928     1.0000 0.89373  0.23419  0.06070  Biso   1.000  C
  C929     1.0000 0.89373  0.23419  0.06066  Biso   1.000  C
  O115     1.0000 0.94129  0.67255  0.06790  Biso   1.000  O
  C930     1.0000 0.00207  0.80621  0.13380  Biso   1.000  C
  C931     1.0000 0.89779  0.86370  0.16476  Biso   1.000  C
  C932     1.0000 0.89779  0.86370  0.16472  Biso   1.000  C
  H865     1.0000 0.76686  0.79039  0.12920  Biso   1.000  H
  H866     1.0000 0.76679  0.79039  0.12920  Biso   1.000  H
  H867     1.0000 0.45242  0.10210  0.99808  Biso   1.000  H
  H868     1.0000 0.45236  0.10210  0.99808  Biso   1.000  H
  N109     1.0000 0.35416  0.03541  0.05981  Biso   1.000  N
  H869     1.0000 0.47990  0.04353  0.04179  Biso   1.000  H
  N110     1.0000 0.35416  0.03541  0.05976  Biso   1.000  N
  N111     1.0000 0.35423  0.03541  0.05981  Biso   1.000  N
  H870     1.0000 0.47993  0.04346  0.04179  Biso   1.000  H
  N112     1.0000 0.35423  0.03541  0.05976  Biso   1.000  N
  H871     1.0000 0.47996  0.04353  0.04179  Biso   1.000  H
  H872     1.0000 0.47987  0.04346  0.04179  Biso   1.000  H
  C933     1.0000 0.89040  0.15902  0.09746  Biso   1.000  C
  H873     1.0000 0.84080  0.21901  0.03672  Biso   1.000  H
  C934     1.0000 0.89040  0.15902  0.09742  Biso   1.000  C
  H874     1.0000 0.84080  0.21901  0.03668  Biso   1.000  H
  C935     1.0000 0.89046  0.15902  0.09746  Biso   1.000  C
  C936     1.0000 0.89046  0.15902  0.09742  Biso   1.000  C
  H875     1.0000 0.84086  0.21901  0.03672  Biso   1.000  H
  H876     1.0000 0.84086  0.21901  0.03668  Biso   1.000  H
  C937     1.0000 0.03075  0.67697  0.07152  Biso   1.000  C
  C938     1.0000 0.98696  0.87026  0.16574  Biso   1.000  C
  H877     1.0000 0.06231  0.80970  0.13541  Biso   1.000  H
  H878     1.0000 0.06231  0.80970  0.13537  Biso   1.000  H
  C939     1.0000 0.87351  0.92818  0.19944  Biso   1.000  C
  C940     1.0000 0.87345  0.92818  0.19944  Biso   1.000  C
  C941     1.0000 0.34050  0.10630  0.06070  Biso   1.000  C
  C942     1.0000 0.34050  0.10630  0.06066  Biso   1.000  C
  C943     1.0000 0.34056  0.10630  0.06070  Biso   1.000  C
  C944     1.0000 0.34056  0.10630  0.06066  Biso   1.000  C
  C945     1.0000 0.80683  0.06939  0.09972  Biso   1.000  C
  C946     1.0000 0.96717  0.17263  0.13026  Biso   1.000  C
  C947     1.0000 0.80689  0.06939  0.09972  Biso   1.000  C
  C948     1.0000 0.96723  0.17263  0.13026  Biso   1.000  C
  H879     1.0000 0.03035  0.62781  0.04698  Biso   1.000  H
  H880     1.0000 0.04262  0.66628  0.11101  Biso   1.000  H
  H881     1.0000 0.08121  0.73988  0.05900  Biso   1.000  H
  H882     1.0000 0.03041  0.62781  0.04698  Biso   1.000  H
  C949     1.0000 0.07180  0.94528  0.19944  Biso   1.000  C
  H883     1.0000 0.91608  0.95198  0.23309  Biso   1.000  H
  H884     1.0000 0.80724  0.89028  0.21349  Biso   1.000  H
  H885     1.0000 0.91602  0.95198  0.23309  Biso   1.000  H
  C950     1.0000 0.88334  0.01311  0.16574  Biso   1.000  C
  C951     1.0000 0.88340  0.01311  0.16574  Biso   1.000  C
  C952     1.0000 0.26865  0.10958  0.09746  Biso   1.000  C
  H886     1.0000 0.37819  0.15924  0.03672  Biso   1.000  H
  C953     1.0000 0.26865  0.10958  0.09742  Biso   1.000  C
  H887     1.0000 0.37819  0.15924  0.03668  Biso   1.000  H
  H888     1.0000 0.37822  0.15917  0.03672  Biso   1.000  H
  H889     1.0000 0.37822  0.15917  0.03668  Biso   1.000  H
  H890     1.0000 0.37825  0.15924  0.03672  Biso   1.000  H
  H891     1.0000 0.37825  0.15924  0.03668  Biso   1.000  H
  C954     1.0000 0.26859  0.10958  0.09746  Biso   1.000  C
  H892     1.0000 0.37816  0.15917  0.03672  Biso   1.000  H
  C955     1.0000 0.26859  0.10958  0.09742  Biso   1.000  C
  H893     1.0000 0.37816  0.15917  0.03668  Biso   1.000  H
  C956     1.0000 0.80417  0.99793  0.13380  Biso   1.000  C
  C957     1.0000 0.80408  0.99786  0.13380  Biso   1.000  C
  C958     1.0000 0.80411  0.99793  0.13380  Biso   1.000  C
  O116     1.0000 0.73131  0.05878  0.06790  Biso   1.000  O
  O117     1.0000 0.73137  0.05878  0.06790  Biso   1.000  O
  C959     1.0000 0.96591  0.10224  0.16476  Biso   1.000  C
  C960     1.0000 0.96591  0.10224  0.16472  Biso   1.000  C
  C961     1.0000 0.96597  0.10224  0.16476  Biso   1.000  C
  C962     1.0000 0.96597  0.10224  0.16472  Biso   1.000  C
  H894     1.0000 0.02361  0.23319  0.12920  Biso   1.000  H
  H895     1.0000 0.02355  0.23319  0.12920  Biso   1.000  H
  H896     1.0000 0.04797  0.96402  0.23309  Biso   1.000  H
  H897     1.0000 0.10963  0.91693  0.21349  Biso   1.000  H
  H898     1.0000 0.10976  0.91693  0.21349  Biso   1.000  H
  C963     1.0000 0.13630  0.03406  0.16476  Biso   1.000  C
  C964     1.0000 0.13630  0.03406  0.16472  Biso   1.000  C
  C965     1.0000 0.13636  0.03406  0.16476  Biso   1.000  C
  C966     1.0000 0.13636  0.03406  0.16472  Biso   1.000  C
  C967     1.0000 0.20548  0.03284  0.13026  Biso   1.000  C
  C968     1.0000 0.20554  0.03284  0.13026  Biso   1.000  C
  C969     1.0000 0.26255  0.19315  0.09972  Biso   1.000  C
  C970     1.0000 0.26249  0.19315  0.09972  Biso   1.000  C
  H899     1.0000 0.74742  0.93773  0.13541  Biso   1.000  H
  H900     1.0000 0.74742  0.93773  0.13537  Biso   1.000  H
  H901     1.0000 0.74732  0.93766  0.13541  Biso   1.000  H
  H902     1.0000 0.74732  0.93766  0.13537  Biso   1.000  H
  H903     1.0000 0.74736  0.93773  0.13541  Biso   1.000  H
  H904     1.0000 0.74736  0.93773  0.13537  Biso   1.000  H
  H905     1.0000 0.74738  0.93766  0.13541  Biso   1.000  H
  H906     1.0000 0.74738  0.93766  0.13537  Biso   1.000  H
  C971     1.0000 0.64624  0.96922  0.07152  Biso   1.000  C
  C972     1.0000 0.64620  0.96915  0.07152  Biso   1.000  C
  C973     1.0000 0.05475  0.12653  0.19944  Biso   1.000  C
  C974     1.0000 0.05469  0.12653  0.19944  Biso   1.000  C
  C975     1.0000 0.12974  0.11670  0.16574  Biso   1.000  C
  C976     1.0000 0.12980  0.11670  0.16574  Biso   1.000  C
  H907     1.0000 0.20953  0.97642  0.12920  Biso   1.000  H
  H908     1.0000 0.20966  0.97642  0.12920  Biso   1.000  H
  C977     1.0000 0.19385  0.19593  0.13380  Biso   1.000  C
  C978     1.0000 0.19379  0.19593  0.13380  Biso   1.000  C
  O118     1.0000 0.32746  0.26867  0.06790  Biso   1.000  O
  O119     1.0000 0.32740  0.26867  0.06790  Biso   1.000  O
  H909     1.0000 0.59736  0.96958  0.04698  Biso   1.000  H
  H910     1.0000 0.62373  0.95739  0.11101  Biso   1.000  H
  H911     1.0000 0.65872  0.91878  0.05900  Biso   1.000  H
  H912     1.0000 0.03602  0.08400  0.23309  Biso   1.000  H
  H913     1.0000 0.08307  0.19279  0.21349  Biso   1.000  H
  H914     1.0000 0.08313  0.19279  0.21349  Biso   1.000  H
  H915     1.0000 0.03595  0.08400  0.23309  Biso   1.000  H
  H916     1.0000 0.19027  0.25257  0.13541  Biso   1.000  H
  H917     1.0000 0.19027  0.25257  0.13537  Biso   1.000  H
  H918     1.0000 0.19033  0.25257  0.13541  Biso   1.000  H
  H919     1.0000 0.19033  0.25257  0.13537  Biso   1.000  H
  C979     1.0000 0.32302  0.35381  0.07152  Biso   1.000  C
  C980     1.0000 0.32295  0.35381  0.07152  Biso   1.000  C
  H920     1.0000 0.37222  0.40262  0.04698  Biso   1.000  H
  H921     1.0000 0.33372  0.37633  0.11101  Biso   1.000  H
  H922     1.0000 0.26010  0.34127  0.05900  Biso   1.000  H
  H923     1.0000 0.37216  0.40262  0.04698  Biso   1.000  H
  H924     1.0000 0.26004  0.34127  0.05900  Biso   1.000  H
  C981     1.0000 0.80618  0.00207  0.86620  Biso   1.000  C
  C982     1.0000 0.87023  0.98689  0.83426  Biso   1.000  C
  C983     1.0000 0.87023  0.98689  0.83421  Biso   1.000  C
  C984     1.0000 0.73744  0.93061  0.90028  Biso   1.000  C
  H925     1.0000 0.80969  0.06227  0.86459  Biso   1.000  H
  H926     1.0000 0.80975  0.06227  0.86459  Biso   1.000  H
  C985     1.0000 0.86367  0.89776  0.83524  Biso   1.000  C
  C986     1.0000 0.86361  0.89776  0.83524  Biso   1.000  C
  C987     1.0000 0.94527  0.07182  0.80056  Biso   1.000  C
  C988     1.0000 0.94527  0.07182  0.80052  Biso   1.000  C
  C989     1.0000 0.94533  0.07182  0.80056  Biso   1.000  C
  C990     1.0000 0.94533  0.07182  0.80052  Biso   1.000  C
  O120     1.0000 0.67259  0.94122  0.93210  Biso   1.000  O
  C991     1.0000 0.73143  0.84098  0.90254  Biso   1.000  C
  O121     1.0000 0.67259  0.94122  0.93206  Biso   1.000  O
  O122     1.0000 0.67253  0.94122  0.93210  Biso   1.000  O
  O123     1.0000 0.67253  0.94122  0.93206  Biso   1.000  O
  C992     1.0000 0.73137  0.84098  0.90254  Biso   1.000  C
  C993     1.0000 0.79460  0.82737  0.86974  Biso   1.000  C
  C994     1.0000 0.79460  0.82737  0.86970  Biso   1.000  C
  C995     1.0000 0.79448  0.82737  0.86974  Biso   1.000  C
  C996     1.0000 0.79448  0.82737  0.86970  Biso   1.000  C
  C997     1.0000 0.92828  0.87347  0.80056  Biso   1.000  C
  C998     1.0000 0.92828  0.87347  0.80052  Biso   1.000  C
  C999     1.0000 0.92822  0.87347  0.80056  Biso   1.000  C
  C1000    1.0000 0.92822  0.87347  0.80052  Biso   1.000  C
  H927     1.0000 0.96404  0.04802  0.76691  Biso   1.000  H
  H928     1.0000 0.91690  0.10972  0.78651  Biso   1.000  H
  H929     1.0000 0.91696  0.10972  0.78651  Biso   1.000  H
  C1001    1.0000 0.03409  0.13630  0.83524  Biso   1.000  C
  C1002    1.0000 0.03403  0.13630  0.83524  Biso   1.000  C
  C1003    1.0000 0.67696  0.03078  0.92848  Biso   1.000  C
  C1004    1.0000 0.67702  0.03078  0.92848  Biso   1.000  C
  C1005    1.0000 0.65948  0.76581  0.93930  Biso   1.000  C
  C1006    1.0000 0.65942  0.76581  0.93930  Biso   1.000  C
  H930     1.0000 0.79042  0.76681  0.87080  Biso   1.000  H
  H931     1.0000 0.95201  0.91600  0.76691  Biso   1.000  H
  H932     1.0000 0.89034  0.80721  0.78651  Biso   1.000  H
  C1007    1.0000 0.01298  0.88330  0.83426  Biso   1.000  C
  C1008    1.0000 0.01298  0.88330  0.83421  Biso   1.000  C
  C1009    1.0000 0.01304  0.88330  0.83426  Biso   1.000  C
  C1010    1.0000 0.01304  0.88330  0.83421  Biso   1.000  C
  C1011    1.0000 0.03283  0.20548  0.86974  Biso   1.000  C
  C1012    1.0000 0.11664  0.12974  0.83426  Biso   1.000  C
  C1013    1.0000 0.03283  0.20548  0.86970  Biso   1.000  C
  C1014    1.0000 0.11664  0.12974  0.83421  Biso   1.000  C
  C1015    1.0000 0.11670  0.12974  0.83426  Biso   1.000  C
  C1016    1.0000 0.11670  0.12974  0.83421  Biso   1.000  C
  H933     1.0000 0.62779  0.03042  0.95302  Biso   1.000  H
  H934     1.0000 0.66627  0.04261  0.88899  Biso   1.000  H
  H935     1.0000 0.73988  0.08122  0.94100  Biso   1.000  H
  H936     1.0000 0.62779  0.03042  0.95297  Biso   1.000  H
  H937     1.0000 0.62785  0.03042  0.95302  Biso   1.000  H
  H938     1.0000 0.66633  0.04261  0.88899  Biso   1.000  H
  H939     1.0000 0.73994  0.08122  0.94100  Biso   1.000  H
  H940     1.0000 0.62785  0.03042  0.95297  Biso   1.000  H
  N113     1.0000 0.64583  0.68124  0.94019  Biso   1.000  N
  H941     1.0000 0.62178  0.78099  0.96328  Biso   1.000  H
  H942     1.0000 0.62172  0.78099  0.96328  Biso   1.000  H
  C1017    1.0000 0.10224  0.96594  0.83524  Biso   1.000  C
  C1018    1.0000 0.99798  0.80407  0.86620  Biso   1.000  C
  C1019    1.0000 0.99792  0.80407  0.86620  Biso   1.000  C
  H943     1.0000 0.97640  0.20961  0.87080  Biso   1.000  H
  H944     1.0000 0.97646  0.20961  0.87080  Biso   1.000  H
  C1020    1.0000 0.10956  0.26860  0.90254  Biso   1.000  C
  C1021    1.0000 0.10962  0.26860  0.90254  Biso   1.000  C
  C1022    1.0000 0.19593  0.19379  0.86620  Biso   1.000  C
  C1023    1.0000 0.12651  0.05472  0.80056  Biso   1.000  C
  C1024    1.0000 0.12651  0.05472  0.80052  Biso   1.000  C
  C1025    1.0000 0.12658  0.05472  0.80056  Biso   1.000  C
  C1026    1.0000 0.12658  0.05472  0.80052  Biso   1.000  C
  C1027    1.0000 0.19587  0.19379  0.86620  Biso   1.000  C
  C1028    1.0000 0.57334  0.61548  0.97981  Biso   1.000  C
  C1029    1.0000 0.57334  0.61548  0.97977  Biso   1.000  C
  C1030    1.0000 0.57321  0.61548  0.97981  Biso   1.000  C
  C1031    1.0000 0.57321  0.61548  0.97977  Biso   1.000  C
  C1032    1.0000 0.17257  0.96716  0.86974  Biso   1.000  C
  C1033    1.0000 0.17257  0.96716  0.86970  Biso   1.000  C
  C1034    1.0000 0.17263  0.96716  0.86974  Biso   1.000  C
  C1035    1.0000 0.17263  0.96716  0.86970  Biso   1.000  C
  H945     1.0000 0.93770  0.74743  0.86459  Biso   1.000  H
  H946     1.0000 0.93766  0.74736  0.86459  Biso   1.000  H
  C1036    1.0000 0.06934  0.80685  0.90028  Biso   1.000  C
  C1037    1.0000 0.19316  0.26255  0.90028  Biso   1.000  C
  C1038    1.0000 0.10632  0.34049  0.93930  Biso   1.000  C
  C1039    1.0000 0.19310  0.26255  0.90028  Biso   1.000  C
  C1040    1.0000 0.10626  0.34049  0.93930  Biso   1.000  C
  H947     1.0000 0.25261  0.19030  0.86459  Biso   1.000  H
  H948     1.0000 0.25255  0.19030  0.86459  Biso   1.000  H
  H949     1.0000 0.08401  0.03598  0.76691  Biso   1.000  H
  H950     1.0000 0.19277  0.08307  0.78651  Biso   1.000  H
  H951     1.0000 0.19283  0.08307  0.78651  Biso   1.000  H
  H952     1.0000 0.08395  0.03598  0.76691  Biso   1.000  H
  H953     1.0000 0.52013  0.56361  0.95821  Biso   1.000  H
  H954     1.0000 0.52013  0.56361  0.95817  Biso   1.000  H
  H955     1.0000 0.54761  0.64968  0.00192  Biso   1.000  H
  C1041    1.0000 0.61555  0.57330  0.02019  Biso   1.000  C
  H956     1.0000 0.54761  0.64968  0.00187  Biso   1.000  H
  H957     1.0000 0.54755  0.64968  0.00192  Biso   1.000  H
  C1042    1.0000 0.61543  0.57330  0.02019  Biso   1.000  C
  H958     1.0000 0.54755  0.64968  0.00187  Biso   1.000  H
  C1043    1.0000 0.15901  0.89042  0.90254  Biso   1.000  C
  H959     1.0000 0.23318  0.02358  0.87080  Biso   1.000  H
  H960     1.0000 0.23324  0.02358  0.87080  Biso   1.000  H
  O124     1.0000 0.05879  0.73133  0.93210  Biso   1.000  O
  O125     1.0000 0.05879  0.73133  0.93206  Biso   1.000  O
  O126     1.0000 0.05875  0.73126  0.93210  Biso   1.000  O
  O127     1.0000 0.05875  0.73126  0.93206  Biso   1.000  O
  O128     1.0000 0.26868  0.32745  0.93210  Biso   1.000  O
  O129     1.0000 0.26868  0.32745  0.93206  Biso   1.000  O
  O130     1.0000 0.26874  0.32745  0.93210  Biso   1.000  O
  O131     1.0000 0.26874  0.32745  0.93206  Biso   1.000  O
  N114     1.0000 0.03542  0.35417  0.94019  Biso   1.000  N
  H961     1.0000 0.15916  0.37818  0.96328  Biso   1.000  H
  H962     1.0000 0.15923  0.37818  0.96328  Biso   1.000  H
  N115     1.0000 0.03536  0.35417  0.94019  Biso   1.000  N
  H963     1.0000 0.64977  0.54758  0.99808  Biso   1.000  H
  H964     1.0000 0.64965  0.54758  0.99808  Biso   1.000  H
  N116     1.0000 0.68131  0.64583  0.05981  Biso   1.000  N
  H965     1.0000 0.56364  0.52008  0.04179  Biso   1.000  H
  N117     1.0000 0.68131  0.64583  0.05976  Biso   1.000  N
  N118     1.0000 0.68125  0.64583  0.05981  Biso   1.000  N
  H966     1.0000 0.56358  0.52008  0.04179  Biso   1.000  H
  N119     1.0000 0.68125  0.64583  0.05976  Biso   1.000  N
  C1044    1.0000 0.23413  0.89370  0.93930  Biso   1.000  C
  C1045    1.0000 0.23419  0.89370  0.93930  Biso   1.000  C
  C1046    1.0000 0.96927  0.64619  0.92848  Biso   1.000  C
  C1047    1.0000 0.96920  0.64619  0.92848  Biso   1.000  C
  C1048    1.0000 0.35384  0.32303  0.92848  Biso   1.000  C
  C1049    1.0000 0.35378  0.32303  0.92848  Biso   1.000  C
  C1050    1.0000 0.04219  0.42670  0.97981  Biso   1.000  C
  C1051    1.0000 0.04219  0.42670  0.97977  Biso   1.000  C
  C1052    1.0000 0.76583  0.65951  0.06070  Biso   1.000  C
  C1053    1.0000 0.76583  0.65951  0.06066  Biso   1.000  C
  N120     1.0000 0.31875  0.96459  0.94019  Biso   1.000  N
  H967     1.0000 0.21896  0.84076  0.96328  Biso   1.000  H
  H968     1.0000 0.21902  0.84076  0.96328  Biso   1.000  H
  H969     1.0000 0.96961  0.59738  0.95302  Biso   1.000  H
  H970     1.0000 0.96961  0.59738  0.95297  Biso   1.000  H
  H971     1.0000 0.91883  0.65873  0.94100  Biso   1.000  H
  H972     1.0000 0.95745  0.62367  0.88899  Biso   1.000  H
  H973     1.0000 0.95739  0.62367  0.88899  Biso   1.000  H
  H974     1.0000 0.91880  0.65866  0.94100  Biso   1.000  H
  H975     1.0000 0.40261  0.37219  0.95302  Biso   1.000  H
  H976     1.0000 0.37634  0.33372  0.88899  Biso   1.000  H
  H977     1.0000 0.34133  0.26012  0.94100  Biso   1.000  H
  H978     1.0000 0.40261  0.37219  0.95297  Biso   1.000  H
  H979     1.0000 0.37628  0.33372  0.88899  Biso   1.000  H
  H980     1.0000 0.34127  0.26012  0.94100  Biso   1.000  H
  C1054    1.0000 0.95779  0.38452  0.02019  Biso   1.000  C
  C1055    1.0000 0.95786  0.38452  0.02019  Biso   1.000  C
  H981     1.0000 0.04350  0.47992  0.95821  Biso   1.000  H
  H982     1.0000 0.04350  0.47992  0.95817  Biso   1.000  H
  H983     1.0000 0.10213  0.45242  0.00192  Biso   1.000  H
  H984     1.0000 0.10213  0.45242  0.00187  Biso   1.000  H
  H985     1.0000 0.10207  0.45242  0.00192  Biso   1.000  H
  H986     1.0000 0.10207  0.45242  0.00187  Biso   1.000  H
  C1056    1.0000 0.84096  0.73140  0.09746  Biso   1.000  C
  C1057    1.0000 0.84096  0.73140  0.09742  Biso   1.000  C
  H987     1.0000 0.78105  0.62182  0.03672  Biso   1.000  H
  H988     1.0000 0.78105  0.62182  0.03668  Biso   1.000  H
  C1058    1.0000 0.38448  0.95782  0.97981  Biso   1.000  C
  C1059    1.0000 0.38448  0.95782  0.97977  Biso   1.000  C
  H989     1.0000 0.89793  0.35032  0.99808  Biso   1.000  H
  N121     1.0000 0.96459  0.31876  0.05981  Biso   1.000  N
  H990     1.0000 0.95652  0.43639  0.04179  Biso   1.000  H
  N122     1.0000 0.96459  0.31876  0.05976  Biso   1.000  N
  N123     1.0000 0.96465  0.31876  0.05981  Biso   1.000  N
  N124     1.0000 0.96465  0.31876  0.05976  Biso   1.000  N
  C1060    1.0000 0.93061  0.73745  0.09972  Biso   1.000  C
  C1061    1.0000 0.82742  0.79452  0.13026  Biso   1.000  C
  C1062    1.0000 0.93055  0.73745  0.09972  Biso   1.000  C
  C1063    1.0000 0.82729  0.79452  0.13026  Biso   1.000  C
  H991     1.0000 0.43631  0.95647  0.95821  Biso   1.000  H
  H992     1.0000 0.43631  0.95647  0.95817  Biso   1.000  H
  H993     1.0000 0.43643  0.95647  0.95821  Biso   1.000  H
  H994     1.0000 0.43643  0.95647  0.95817  Biso   1.000  H
  H995     1.0000 0.35032  0.89790  0.00192  Biso   1.000  H
  H996     1.0000 0.35032  0.89790  0.00187  Biso   1.000  H
  C1064    1.0000 0.42672  0.04218  0.02019  Biso   1.000  C
  C1065    1.0000 0.42665  0.04218  0.02019  Biso   1.000  C
  C1066    1.0000 0.89367  0.23419  0.06070  Biso   1.000  C
  C1067    1.0000 0.89367  0.23419  0.06066  Biso   1.000  C
  C1068    1.0000 0.89373  0.23419  0.06070  Biso   1.000  C
  C1069    1.0000 0.89373  0.23419  0.06066  Biso   1.000  C
  O132     1.0000 0.94129  0.67255  0.06790  Biso   1.000  O
  C1070    1.0000 0.00207  0.80621  0.13380  Biso   1.000  C
  C1071    1.0000 0.89779  0.86370  0.16476  Biso   1.000  C
  C1072    1.0000 0.89779  0.86370  0.16472  Biso   1.000  C
  H997     1.0000 0.76686  0.79039  0.12920  Biso   1.000  H
  H998     1.0000 0.76679  0.79039  0.12920  Biso   1.000  H
  H999     1.0000 0.45242  0.10210  0.99808  Biso   1.000  H
  H1000    1.0000 0.45236  0.10210  0.99808  Biso   1.000  H
  N125     1.0000 0.35416  0.03541  0.05981  Biso   1.000  N
  H1001    1.0000 0.47990  0.04353  0.04179  Biso   1.000  H
  N126     1.0000 0.35416  0.03541  0.05976  Biso   1.000  N
  N127     1.0000 0.35423  0.03541  0.05981  Biso   1.000  N
  H1002    1.0000 0.47993  0.04346  0.04179  Biso   1.000  H
  N128     1.0000 0.35423  0.03541  0.05976  Biso   1.000  N
  H1003    1.0000 0.47996  0.04353  0.04179  Biso   1.000  H
  H1004    1.0000 0.47987  0.04346  0.04179  Biso   1.000  H
  C1073    1.0000 0.89040  0.15902  0.09746  Biso   1.000  C
  H1005    1.0000 0.84080  0.21901  0.03672  Biso   1.000  H
  C1074    1.0000 0.89040  0.15902  0.09742  Biso   1.000  C
  H1006    1.0000 0.84080  0.21901  0.03668  Biso   1.000  H
  C1075    1.0000 0.89046  0.15902  0.09746  Biso   1.000  C
  C1076    1.0000 0.89046  0.15902  0.09742  Biso   1.000  C
  H1007    1.0000 0.84086  0.21901  0.03672  Biso   1.000  H
  H1008    1.0000 0.84086  0.21901  0.03668  Biso   1.000  H
  C1077    1.0000 0.03075  0.67697  0.07152  Biso   1.000  C
  C1078    1.0000 0.98696  0.87026  0.16574  Biso   1.000  C
  H1009    1.0000 0.06231  0.80970  0.13541  Biso   1.000  H
  H1010    1.0000 0.06231  0.80970  0.13537  Biso   1.000  H
  C1079    1.0000 0.87351  0.92818  0.19944  Biso   1.000  C
  C1080    1.0000 0.87345  0.92818  0.19944  Biso   1.000  C
  C1081    1.0000 0.34050  0.10630  0.06070  Biso   1.000  C
  C1082    1.0000 0.34050  0.10630  0.06066  Biso   1.000  C
  C1083    1.0000 0.34056  0.10630  0.06070  Biso   1.000  C
  C1084    1.0000 0.34056  0.10630  0.06066  Biso   1.000  C
  C1085    1.0000 0.80683  0.06939  0.09972  Biso   1.000  C
  C1086    1.0000 0.96717  0.17263  0.13026  Biso   1.000  C
  C1087    1.0000 0.80689  0.06939  0.09972  Biso   1.000  C
  C1088    1.0000 0.96723  0.17263  0.13026  Biso   1.000  C
  H1011    1.0000 0.03035  0.62781  0.04698  Biso   1.000  H
  H1012    1.0000 0.04262  0.66628  0.11101  Biso   1.000  H
  H1013    1.0000 0.08121  0.73988  0.05900  Biso   1.000  H
  H1014    1.0000 0.03041  0.62781  0.04698  Biso   1.000  H
  C1089    1.0000 0.07180  0.94528  0.19944  Biso   1.000  C
  H1015    1.0000 0.91608  0.95198  0.23309  Biso   1.000  H
  H1016    1.0000 0.80724  0.89028  0.21349  Biso   1.000  H
  H1017    1.0000 0.91602  0.95198  0.23309  Biso   1.000  H
  C1090    1.0000 0.88334  0.01311  0.16574  Biso   1.000  C
  C1091    1.0000 0.88340  0.01311  0.16574  Biso   1.000  C
  C1092    1.0000 0.26865  0.10958  0.09746  Biso   1.000  C
  H1018    1.0000 0.37819  0.15924  0.03672  Biso   1.000  H
  C1093    1.0000 0.26865  0.10958  0.09742  Biso   1.000  C
  H1019    1.0000 0.37819  0.15924  0.03668  Biso   1.000  H
  H1020    1.0000 0.37822  0.15917  0.03672  Biso   1.000  H
  H1021    1.0000 0.37822  0.15917  0.03668  Biso   1.000  H
  H1022    1.0000 0.37825  0.15924  0.03672  Biso   1.000  H
  H1023    1.0000 0.37825  0.15924  0.03668  Biso   1.000  H
  C1094    1.0000 0.26859  0.10958  0.09746  Biso   1.000  C
  H1024    1.0000 0.37816  0.15917  0.03672  Biso   1.000  H
  C1095    1.0000 0.26859  0.10958  0.09742  Biso   1.000  C
  H1025    1.0000 0.37816  0.15917  0.03668  Biso   1.000  H
  C1096    1.0000 0.80417  0.99793  0.13380  Biso   1.000  C
  C1097    1.0000 0.80408  0.99786  0.13380  Biso   1.000  C
  C1098    1.0000 0.80411  0.99793  0.13380  Biso   1.000  C
  O133     1.0000 0.73131  0.05878  0.06790  Biso   1.000  O
  O134     1.0000 0.73137  0.05878  0.06790  Biso   1.000  O
  C1099    1.0000 0.96591  0.10224  0.16476  Biso   1.000  C
  C1100    1.0000 0.96591  0.10224  0.16472  Biso   1.000  C
  C1101    1.0000 0.96597  0.10224  0.16476  Biso   1.000  C
  C1102    1.0000 0.96597  0.10224  0.16472  Biso   1.000  C
  H1026    1.0000 0.02361  0.23319  0.12920  Biso   1.000  H
  H1027    1.0000 0.02355  0.23319  0.12920  Biso   1.000  H
  H1028    1.0000 0.04797  0.96402  0.23309  Biso   1.000  H
  H1029    1.0000 0.10963  0.91693  0.21349  Biso   1.000  H
  H1030    1.0000 0.10976  0.91693  0.21349  Biso   1.000  H
  C1103    1.0000 0.13630  0.03406  0.16476  Biso   1.000  C
  C1104    1.0000 0.13630  0.03406  0.16472  Biso   1.000  C
  C1105    1.0000 0.13636  0.03406  0.16476  Biso   1.000  C
  C1106    1.0000 0.13636  0.03406  0.16472  Biso   1.000  C
  C1107    1.0000 0.20548  0.03284  0.13026  Biso   1.000  C
  C1108    1.0000 0.20554  0.03284  0.13026  Biso   1.000  C
  C1109    1.0000 0.26255  0.19315  0.09972  Biso   1.000  C
  C1110    1.0000 0.26249  0.19315  0.09972  Biso   1.000  C
  H1031    1.0000 0.74742  0.93773  0.13541  Biso   1.000  H
  H1032    1.0000 0.74742  0.93773  0.13537  Biso   1.000  H
  H1033    1.0000 0.74732  0.93766  0.13541  Biso   1.000  H
  H1034    1.0000 0.74732  0.93766  0.13537  Biso   1.000  H
  H1035    1.0000 0.74736  0.93773  0.13541  Biso   1.000  H
  H1036    1.0000 0.74736  0.93773  0.13537  Biso   1.000  H
  H1037    1.0000 0.74738  0.93766  0.13541  Biso   1.000  H
  H1038    1.0000 0.74738  0.93766  0.13537  Biso   1.000  H
  C1111    1.0000 0.64624  0.96922  0.07152  Biso   1.000  C
  C1112    1.0000 0.64620  0.96915  0.07152  Biso   1.000  C
  C1113    1.0000 0.05475  0.12653  0.19944  Biso   1.000  C
  C1114    1.0000 0.05469  0.12653  0.19944  Biso   1.000  C
  C1115    1.0000 0.12974  0.11670  0.16574  Biso   1.000  C
  C1116    1.0000 0.12980  0.11670  0.16574  Biso   1.000  C
  H1039    1.0000 0.20953  0.97642  0.12920  Biso   1.000  H
  H1040    1.0000 0.20966  0.97642  0.12920  Biso   1.000  H
  C1117    1.0000 0.19385  0.19593  0.13380  Biso   1.000  C
  C1118    1.0000 0.19379  0.19593  0.13380  Biso   1.000  C
  O135     1.0000 0.32746  0.26867  0.06790  Biso   1.000  O
  O136     1.0000 0.32740  0.26867  0.06790  Biso   1.000  O
  H1041    1.0000 0.59736  0.96958  0.04698  Biso   1.000  H
  H1042    1.0000 0.62373  0.95739  0.11101  Biso   1.000  H
  H1043    1.0000 0.65872  0.91878  0.05900  Biso   1.000  H
  H1044    1.0000 0.03602  0.08400  0.23309  Biso   1.000  H
  H1045    1.0000 0.08307  0.19279  0.21349  Biso   1.000  H
  H1046    1.0000 0.08313  0.19279  0.21349  Biso   1.000  H
  H1047    1.0000 0.03595  0.08400  0.23309  Biso   1.000  H
  H1048    1.0000 0.19027  0.25257  0.13541  Biso   1.000  H
  H1049    1.0000 0.19027  0.25257  0.13537  Biso   1.000  H
  H1050    1.0000 0.19033  0.25257  0.13541  Biso   1.000  H
  H1051    1.0000 0.19033  0.25257  0.13537  Biso   1.000  H
  C1119    1.0000 0.32302  0.35381  0.07152  Biso   1.000  C
  C1120    1.0000 0.32295  0.35381  0.07152  Biso   1.000  C
  H1052    1.0000 0.37222  0.40262  0.04698  Biso   1.000  H
  H1053    1.0000 0.33372  0.37633  0.11101  Biso   1.000  H
  H1054    1.0000 0.26010  0.34127  0.05900  Biso   1.000  H
  H1055    1.0000 0.37216  0.40262  0.04698  Biso   1.000  H
  H1056    1.0000 0.26004  0.34127  0.05900  Biso   1.000  H
  C1121    1.0000 0.73847  0.27858  0.53276  Biso   1.000  C
  C1122    1.0000 0.65357  0.20355  0.49911  Biso   1.000  C
  C1123    1.0000 0.80301  0.36742  0.49808  Biso   1.000  C
  H1057    1.0000 0.71465  0.29731  0.56641  Biso   1.000  H
  H1058    1.0000 0.77637  0.25022  0.54681  Biso   1.000  H
  C1124    1.0000 0.66875  0.13950  0.46712  Biso   1.000  C
  C1125    1.0000 0.56441  0.19700  0.49808  Biso   1.000  C
  C1126    1.0000 0.87215  0.36614  0.46362  Biso   1.000  C
  C1127    1.0000 0.79642  0.45000  0.49911  Biso   1.000  C
  C1128    1.0000 0.59727  0.07082  0.43304  Biso   1.000  C
  H1059    1.0000 0.72896  0.14306  0.46873  Biso   1.000  H
  C1129    1.0000 0.49407  0.12789  0.46362  Biso   1.000  C
  C1130    1.0000 0.54016  0.26155  0.53276  Biso   1.000  C
  C1131    1.0000 0.93530  0.44294  0.43078  Biso   1.000  C
  H1060    1.0000 0.87627  0.30971  0.46251  Biso   1.000  H
  C1132    1.0000 0.72140  0.45990  0.53276  Biso   1.000  C
  C1133    1.0000 0.86047  0.52922  0.46712  Biso   1.000  C
  C1134    1.0000 0.50763  0.06469  0.43078  Biso   1.000  C
  O137     1.0000 0.60794  0.00591  0.40122  Biso   1.000  O
  H1061    1.0000 0.43351  0.12376  0.46251  Biso   1.000  H
  C1135    1.0000 0.55001  0.34640  0.49911  Biso   1.000  C
  H1062    1.0000 0.58267  0.28534  0.56641  Biso   1.000  H
  H1063    1.0000 0.47389  0.22364  0.54681  Biso   1.000  H
  C1136    1.0000 0.00721  0.43967  0.39402  Biso   1.000  C
  C1137    1.0000 0.92917  0.52644  0.43304  Biso   1.000  C
  C1138    1.0000 0.63262  0.43560  0.49808  Biso   1.000  C
  H1064    1.0000 0.70267  0.41737  0.56641  Biso   1.000  H
  H1065    1.0000 0.74978  0.52616  0.54681  Biso   1.000  H
  H1066    1.0000 0.85698  0.58594  0.46873  Biso   1.000  H
  C1139    1.0000 0.43239  0.99280  0.39402  Biso   1.000  C
  C1140    1.0000 0.69746  0.01033  0.40484  Biso   1.000  C
  C1141    1.0000 0.47073  0.33123  0.46712  Biso   1.000  C
  N129     1.0000 0.02088  0.36877  0.39312  Biso   1.000  N
  H1067    1.0000 0.04487  0.49253  0.37004  Biso   1.000  H
  O138     1.0000 0.99411  0.60204  0.40122  Biso   1.000  O
  C1142    1.0000 0.63388  0.50600  0.46362  Biso   1.000  C
  N130     1.0000 0.34784  0.97920  0.39312  Biso   1.000  N
  H1068    1.0000 0.44766  0.95511  0.37004  Biso   1.000  H
  H1069    1.0000 0.74786  0.07324  0.39232  Biso   1.000  H
  H1070    1.0000 0.69709  0.96110  0.38035  Biso   1.000  H
  H1071    1.0000 0.70927  0.99964  0.44433  Biso   1.000  H
  C1143    1.0000 0.47355  0.40276  0.43304  Biso   1.000  C
  H1072    1.0000 0.41410  0.27102  0.46873  Biso   1.000  H
  C1144    1.0000 0.09337  0.37554  0.35351  Biso   1.000  C
  C1145    1.0000 0.98967  0.68718  0.40484  Biso   1.000  C
  C1146    1.0000 0.55711  0.49239  0.43078  Biso   1.000  C
  H1073    1.0000 0.69026  0.56656  0.46251  Biso   1.000  H
  C1147    1.0000 0.28217  0.90660  0.35351  Biso   1.000  C
  O139     1.0000 0.39799  0.39207  0.40122  Biso   1.000  O
  C1148    1.0000 0.05115  0.29112  0.31313  Biso   1.000  C
  H1074    1.0000 0.14658  0.37683  0.37515  Biso   1.000  H
  H1075    1.0000 0.11907  0.43546  0.33144  Biso   1.000  H
  H1076    1.0000 0.92676  0.67464  0.39232  Biso   1.000  H
  H1077    1.0000 0.03887  0.73598  0.38035  Biso   1.000  H
  H1078    1.0000 0.00040  0.70962  0.44433  Biso   1.000  H
  C1149    1.0000 0.56039  0.56755  0.39402  Biso   1.000  C
  C1150    1.0000 0.23992  0.94884  0.31313  Biso   1.000  C
  H1079    1.0000 0.23029  0.85344  0.37515  Biso   1.000  H
  H1080    1.0000 0.31630  0.88095  0.33144  Biso   1.000  H
  C1151    1.0000 0.31285  0.30251  0.40484  Biso   1.000  C
  N131     1.0000 0.98547  0.29796  0.27356  Biso   1.000  N
  H1081    1.0000 0.10308  0.28983  0.29153  Biso   1.000  H
  H1082    1.0000 0.01697  0.23127  0.33524  Biso   1.000  H
  N132     1.0000 0.63130  0.65212  0.39312  Biso   1.000  N
  H1083    1.0000 0.50751  0.55238  0.37004  Biso   1.000  H
  N133     1.0000 0.31251  0.01453  0.27356  Biso   1.000  N
  H1084    1.0000 0.18668  0.89691  0.29153  Biso   1.000  H
  H1085    1.0000 0.21426  0.98304  0.33524  Biso   1.000  H
  H1086    1.0000 0.26408  0.30294  0.38035  Biso   1.000  H
  H1087    1.0000 0.29038  0.29076  0.44433  Biso   1.000  H
  H1088    1.0000 0.32537  0.25214  0.39232  Biso   1.000  H
  C1152    1.0000 0.90087  0.22699  0.27262  Biso   1.000  C
  C1153    1.0000 0.62451  0.71789  0.35351  Biso   1.000  C
  C1154    1.0000 0.32616  0.09910  0.27262  Biso   1.000  C
  C1155    1.0000 0.82572  0.22379  0.23590  Biso   1.000  C
  H1089    1.0000 0.88567  0.17413  0.29664  Biso   1.000  H
  C1156    1.0000 0.70890  0.76006  0.31313  Biso   1.000  C
  H1090    1.0000 0.62317  0.76975  0.37515  Biso   1.000  H
  H1091    1.0000 0.56455  0.68362  0.33144  Biso   1.000  H
  C1157    1.0000 0.39805  0.17427  0.23590  Biso   1.000  C
  H1092    1.0000 0.28850  0.11435  0.29664  Biso   1.000  H
  C1158    1.0000 0.83934  0.30052  0.20306  Biso   1.000  C
  C1159    1.0000 0.73605  0.14021  0.23360  Biso   1.000  C
  N134     1.0000 0.70207  0.68753  0.27356  Biso   1.000  N
  H1093    1.0000 0.71018  0.81321  0.29153  Biso   1.000  H
  H1094    1.0000 0.76878  0.78578  0.33524  Biso   1.000  H
  C1160    1.0000 0.40415  0.26397  0.23360  Biso   1.000  C
  C1161    1.0000 0.46122  0.16066  0.20306  Biso   1.000  C
  C1162    1.0000 0.76892  0.29924  0.16860  Biso   1.000  C
  H1095    1.0000 0.89989  0.35695  0.20412  Biso   1.000  H
  C1163    1.0000 0.66457  0.13744  0.19952  Biso   1.000  C
  O140     1.0000 0.72541  0.06462  0.26542  Biso   1.000  O
  C1164    1.0000 0.77297  0.67385  0.27262  Biso   1.000  C
  O141     1.0000 0.33924  0.27459  0.26542  Biso   1.000  O
  C1165    1.0000 0.47283  0.33543  0.19952  Biso   1.000  C
  H1096    1.0000 0.45704  0.10010  0.20412  Biso   1.000  H
  C1166    1.0000 0.53038  0.23113  0.16860  Biso   1.000  C
  C1167    1.0000 0.67975  0.21666  0.16758  Biso   1.000  C
  C1168    1.0000 0.79323  0.38808  0.13388  Biso   1.000  C
  H1097    1.0000 0.60438  0.08072  0.19795  Biso   1.000  H
  C1169    1.0000 0.63579  0.97955  0.26180  Biso   1.000  C
  C1170    1.0000 0.77627  0.60197  0.23590  Biso   1.000  C
  H1098    1.0000 0.82588  0.71154  0.29664  Biso   1.000  H
  C1171    1.0000 0.34367  0.36414  0.26180  Biso   1.000  C
  C1172    1.0000 0.53694  0.32026  0.16758  Biso   1.000  C
  H1099    1.0000 0.47640  0.39563  0.19795  Biso   1.000  H
  C1173    1.0000 0.59487  0.20683  0.13388  Biso   1.000  C
  C1174    1.0000 0.78335  0.46311  0.16758  Biso   1.000  C
  H1100    1.0000 0.75066  0.36934  0.10023  Biso   1.000  H
  H1101    1.0000 0.85948  0.41644  0.11982  Biso   1.000  H
  H1102    1.0000 0.63626  0.93075  0.28633  Biso   1.000  H
  H1103    1.0000 0.62410  0.95704  0.22231  Biso   1.000  H
  H1104    1.0000 0.58545  0.99202  0.27432  Biso   1.000  H
  C1175    1.0000 0.69954  0.53884  0.20306  Biso   1.000  C
  C1176    1.0000 0.85978  0.59584  0.23360  Biso   1.000  C
  H1105    1.0000 0.29446  0.36372  0.28633  Biso   1.000  H
  H1106    1.0000 0.33298  0.37597  0.22231  Biso   1.000  H
  H1107    1.0000 0.40655  0.41452  0.27432  Biso   1.000  H
  C1177    1.0000 0.61195  0.40511  0.13388  Biso   1.000  C
  H1108    1.0000 0.61867  0.24936  0.10023  Biso   1.000  H
  H1109    1.0000 0.55699  0.14057  0.11982  Biso   1.000  H
  C1178    1.0000 0.70074  0.46966  0.16860  Biso   1.000  C
  C1179    1.0000 0.86258  0.52716  0.19952  Biso   1.000  C
  H1110    1.0000 0.64312  0.54297  0.20412  Biso   1.000  H
  O142     1.0000 0.93539  0.66082  0.26542  Biso   1.000  O
  H1111    1.0000 0.63065  0.38131  0.10023  Biso   1.000  H
  H1112    1.0000 0.58357  0.44301  0.11982  Biso   1.000  H
  H1113    1.0000 0.91926  0.52367  0.19795  Biso   1.000  H
  C1180    1.0000 0.02046  0.65633  0.26180  Biso   1.000  C
  H1114    1.0000 0.06932  0.70556  0.28633  Biso   1.000  H
  H1115    1.0000 0.04295  0.66701  0.22231  Biso   1.000  H
  H1116    1.0000 0.00794  0.59342  0.27432  Biso   1.000  H
  C1181    1.0000 0.36417  0.34370  0.73816  Biso   1.000  C
  O143     1.0000 0.27456  0.33921  0.73458  Biso   1.000  O
  H1117    1.0000 0.36374  0.29446  0.71367  Biso   1.000  H
  H1118    1.0000 0.37595  0.33294  0.77765  Biso   1.000  H
  H1119    1.0000 0.41457  0.40661  0.72568  Biso   1.000  H
  C1182    1.0000 0.26394  0.40411  0.76636  Biso   1.000  C
  C1183    1.0000 0.17429  0.39806  0.76410  Biso   1.000  C
  C1184    1.0000 0.33546  0.47287  0.80048  Biso   1.000  C
  C1185    1.0000 0.09916  0.32617  0.72734  Biso   1.000  C
  C1186    1.0000 0.16068  0.46118  0.79694  Biso   1.000  C
  C1187    1.0000 0.32023  0.53692  0.83242  Biso   1.000  C
  H1120    1.0000 0.39564  0.47636  0.80205  Biso   1.000  H
  N135     1.0000 0.01458  0.31249  0.72644  Biso   1.000  N
  H1121    1.0000 0.11431  0.28848  0.70336  Biso   1.000  H
  H1122    1.0000 0.10012  0.45705  0.79588  Biso   1.000  H
  C1188    1.0000 0.23112  0.53036  0.83140  Biso   1.000  C
  C1189    1.0000 0.40513  0.61194  0.86612  Biso   1.000  C
  C1190    1.0000 0.94882  0.23996  0.68687  Biso   1.000  C
  C1191    1.0000 0.20682  0.59491  0.86612  Biso   1.000  C
  C1192    1.0000 0.46966  0.70079  0.83140  Biso   1.000  C
  H1123    1.0000 0.38136  0.63068  0.89977  Biso   1.000  H
  H1124    1.0000 0.44302  0.58358  0.88018  Biso   1.000  H
  C1193    1.0000 0.90660  0.28214  0.64645  Biso   1.000  C
  H1125    1.0000 0.89691  0.18674  0.70847  Biso   1.000  H
  H1126    1.0000 0.98304  0.21424  0.66476  Biso   1.000  H
  C1194    1.0000 0.21667  0.67977  0.83242  Biso   1.000  C
  H1127    1.0000 0.24938  0.61871  0.89977  Biso   1.000  H
  H1128    1.0000 0.14054  0.55701  0.88018  Biso   1.000  H
  C1195    1.0000 0.53881  0.69950  0.79694  Biso   1.000  C
  C1196    1.0000 0.46307  0.78336  0.83242  Biso   1.000  C
  N136     1.0000 0.97916  0.34790  0.60688  Biso   1.000  N
  H1129    1.0000 0.85346  0.23027  0.62485  Biso   1.000  H
  H1130    1.0000 0.88098  0.31641  0.66856  Biso   1.000  H
  C1197    1.0000 0.29924  0.76890  0.83140  Biso   1.000  C
  C1198    1.0000 0.13744  0.66459  0.80048  Biso   1.000  C
  C1199    1.0000 0.60198  0.77624  0.76410  Biso   1.000  C
  H1131    1.0000 0.54292  0.64308  0.79588  Biso   1.000  H
  C1200    1.0000 0.52718  0.86259  0.80048  Biso   1.000  C
  C1201    1.0000 0.38808  0.79319  0.86612  Biso   1.000  C
  C1202    1.0000 0.99281  0.43247  0.60598  Biso   1.000  C
  C1203    1.0000 0.30053  0.83936  0.79694  Biso   1.000  C
  C1204    1.0000 0.14016  0.73605  0.76636  Biso   1.000  C
  H1132    1.0000 0.08075  0.60439  0.80205  Biso   1.000  H
  C1205    1.0000 0.67382  0.77296  0.72734  Biso   1.000  C
  C1206    1.0000 0.59588  0.85981  0.76636  Biso   1.000  C
  H1133    1.0000 0.52363  0.91930  0.80205  Biso   1.000  H
  H1134    1.0000 0.36934  0.75066  0.89977  Biso   1.000  H
  H1135    1.0000 0.41640  0.85945  0.88018  Biso   1.000  H
  C1207    1.0000 0.06470  0.50764  0.56922  Biso   1.000  C
  H1136    1.0000 0.95511  0.44765  0.62996  Biso   1.000  H
  C1208    1.0000 0.22376  0.82575  0.76410  Biso   1.000  C
  H1137    1.0000 0.35694  0.89985  0.79588  Biso   1.000  H
  O144     1.0000 0.06464  0.72544  0.73458  Biso   1.000  O
  N137     1.0000 0.68749  0.70207  0.72644  Biso   1.000  N
  H1138    1.0000 0.71152  0.82590  0.70336  Biso   1.000  H
  O145     1.0000 0.66083  0.93540  0.73458  Biso   1.000  O
  C1209    1.0000 0.12787  0.49403  0.53638  Biso   1.000  C
  C1210    1.0000 0.07077  0.59726  0.56692  Biso   1.000  C
  C1211    1.0000 0.22704  0.90092  0.72734  Biso   1.000  C
  C1212    1.0000 0.97951  0.63588  0.73816  Biso   1.000  C
  C1213    1.0000 0.76008  0.70891  0.68687  Biso   1.000  C
  C1214    1.0000 0.65641  0.02047  0.73816  Biso   1.000  C
  C1215    1.0000 0.19700  0.56442  0.50192  Biso   1.000  C
  H1139    1.0000 0.12375  0.43347  0.53744  Biso   1.000  H
  C1216    1.0000 0.13954  0.66880  0.53284  Biso   1.000  C
  O146     1.0000 0.00589  0.60795  0.59874  Biso   1.000  O
  N138     1.0000 0.29795  0.98549  0.72644  Biso   1.000  N
  H1140    1.0000 0.17412  0.88567  0.70336  Biso   1.000  H
  H1141    1.0000 0.93073  0.63631  0.71367  Biso   1.000  H
  H1142    1.0000 0.95699  0.62405  0.77765  Biso   1.000  H
  H1143    1.0000 0.99202  0.58551  0.72568  Biso   1.000  H
  C1217    1.0000 0.71787  0.62448  0.64645  Biso   1.000  C
  H1144    1.0000 0.81323  0.71019  0.70847  Biso   1.000  H
  H1145    1.0000 0.78575  0.76876  0.66476  Biso   1.000  H
  H1146    1.0000 0.70561  0.06928  0.71367  Biso   1.000  H
  H1147    1.0000 0.66711  0.04299  0.77765  Biso   1.000  H
  H1148    1.0000 0.59347  0.00800  0.72568  Biso   1.000  H
  C1218    1.0000 0.26155  0.54012  0.46720  Biso   1.000  C
  C1219    1.0000 0.20359  0.65362  0.50089  Biso   1.000  C
  H1149    1.0000 0.14305  0.72900  0.53127  Biso   1.000  H
  C1220    1.0000 0.01032  0.69751  0.59512  Biso   1.000  C
  C1221    1.0000 0.29112  0.05118  0.68687  Biso   1.000  C
  N139     1.0000 0.65208  0.63125  0.60688  Biso   1.000  N
  H1150    1.0000 0.76973  0.62320  0.62485  Biso   1.000  H
  H1151    1.0000 0.68365  0.56456  0.66856  Biso   1.000  H
  H1152    1.0000 0.28534  0.58266  0.43355  Biso   1.000  H
  H1153    1.0000 0.22360  0.47386  0.45314  Biso   1.000  H
  C1222    1.0000 0.34640  0.55003  0.50089  Biso   1.000  C
  C1223    1.0000 0.27860  0.73848  0.46720  Biso   1.000  C
  H1154    1.0000 0.07321  0.74788  0.60764  Biso   1.000  H
  H1155    1.0000 0.96112  0.69708  0.61965  Biso   1.000  H
  H1156    1.0000 0.99960  0.70926  0.55567  Biso   1.000  H
  C1224    1.0000 0.37562  0.09343  0.64645  Biso   1.000  C
  H1157    1.0000 0.28994  0.10312  0.70847  Biso   1.000  H
  H1158    1.0000 0.23133  0.01698  0.66476  Biso   1.000  H
  C1225    1.0000 0.56752  0.56036  0.60598  Biso   1.000  C
  C1226    1.0000 0.43557  0.63260  0.50192  Biso   1.000  C
  C1227    1.0000 0.33128  0.47080  0.53284  Biso   1.000  C
  C1228    1.0000 0.36745  0.80303  0.50192  Biso   1.000  C
  H1159    1.0000 0.29737  0.71468  0.43355  Biso   1.000  H
  H1160    1.0000 0.25022  0.77638  0.45314  Biso   1.000  H
  N140     1.0000 0.36875  0.02083  0.60688  Biso   1.000  N
  H1161    1.0000 0.37689  0.14658  0.62485  Biso   1.000  H
  H1162    1.0000 0.43552  0.11908  0.66856  Biso   1.000  H
  C1229    1.0000 0.49240  0.55708  0.56922  Biso   1.000  C
  H1163    1.0000 0.55232  0.50749  0.62996  Biso   1.000  H
  C1230    1.0000 0.50600  0.63388  0.53638  Biso   1.000  C
  C1231    1.0000 0.45984  0.72138  0.46720  Biso   1.000  C
  C1232    1.0000 0.40277  0.47358  0.56692  Biso   1.000  C
  H1164    1.0000 0.27103  0.41409  0.53127  Biso   1.000  H
  C1233    1.0000 0.44997  0.79640  0.50089  Biso   1.000  C
  C1234    1.0000 0.36616  0.87213  0.53638  Biso   1.000  C
  C1235    1.0000 0.43969  0.00722  0.60598  Biso   1.000  C
  H1165    1.0000 0.56654  0.69031  0.53744  Biso   1.000  H
  H1166    1.0000 0.41738  0.70271  0.43355  Biso   1.000  H
  H1167    1.0000 0.52613  0.74980  0.45314  Biso   1.000  H
  O147     1.0000 0.39212  0.39799  0.59874  Biso   1.000  O
  C1236    1.0000 0.52929  0.86052  0.53284  Biso   1.000  C
  C1237    1.0000 0.44292  0.93533  0.56922  Biso   1.000  C
  H1168    1.0000 0.30973  0.87627  0.53744  Biso   1.000  H
  H1169    1.0000 0.49259  0.04491  0.62996  Biso   1.000  H
  C1238    1.0000 0.30253  0.31285  0.59512  Biso   1.000  C
  C1239    1.0000 0.52649  0.92920  0.56692  Biso   1.000  C
  H1170    1.0000 0.58594  0.85696  0.53127  Biso   1.000  H
  H1171    1.0000 0.30293  0.26404  0.61965  Biso   1.000  H
  H1172    1.0000 0.29076  0.29040  0.55567  Biso   1.000  H
  H1173    1.0000 0.25216  0.32539  0.60764  Biso   1.000  H
  O148     1.0000 0.60201  0.99411  0.59874  Biso   1.000  O
  C1240    1.0000 0.68717  0.98969  0.59512  Biso   1.000  C
  H1174    1.0000 0.67466  0.92678  0.60764  Biso   1.000  H
  H1175    1.0000 0.73600  0.03885  0.61965  Biso   1.000  H
  H1176    1.0000 0.70973  0.00038  0.55567  Biso   1.000  H
