data_image0
_cell_length_a       12.401
_cell_length_b       12.726
_cell_length_c       34.039
_cell_angle_alpha    83.66
_cell_angle_beta     83.95
_cell_angle_gamma    82.86

_symmetry_space_group_name_H-M    "P 1"
_symmetry_int_tables_number       1

loop_
  _symmetry_equiv_pos_as_xyz
  'x, y, z'

loop_
  _atom_site_label
  _atom_site_occupancy
  _atom_site_fract_x
  _atom_site_fract_y
  _atom_site_fract_z
  _atom_site_thermal_displace_type
  _atom_site_B_iso_or_equiv
  _atom_site_type_symbol
  O1       1.0000 0.67064  0.85336  0.88905  Biso   1.000  O
  C1       1.0000 0.74565  0.85448  0.90998  Biso   1.000  C
  C2       1.0000 0.74572  0.85447  0.91001  Biso   1.000  C
  C3       1.0000 0.74573  0.85448  0.90998  Biso   1.000  C
  C4       1.0000 0.74564  0.85447  0.91001  Biso   1.000  C
  N1       1.0000 0.77641  0.77451  0.93925  Biso   1.000  N
  N2       1.0000 0.81503  0.93098  0.90846  Biso   1.000  N
  N3       1.0000 0.77648  0.77450  0.93928  Biso   1.000  N
  N4       1.0000 0.81511  0.93098  0.90846  Biso   1.000  N
  O2       1.0000 0.67072  0.85336  0.88905  Biso   1.000  O
  N5       1.0000 0.77649  0.77451  0.93925  Biso   1.000  N
  O3       1.0000 0.67071  0.85344  0.88905  Biso   1.000  O
  C5       1.0000 0.87141  0.79558  0.95780  Biso   1.000  C
  C6       1.0000 0.72752  0.67492  0.94450  Biso   1.000  C
  C7       1.0000 0.87148  0.79557  0.95783  Biso   1.000  C
  C8       1.0000 0.72761  0.67484  0.94450  Biso   1.000  C
  C9       1.0000 0.87149  0.79558  0.95780  Biso   1.000  C
  C10      1.0000 0.72760  0.67492  0.94450  Biso   1.000  C
  C11      1.0000 0.89783  0.90298  0.93649  Biso   1.000  C
  C12      1.0000 0.89790  0.90297  0.93652  Biso   1.000  C
  C13      1.0000 0.89791  0.90298  0.93649  Biso   1.000  C
  C14      1.0000 0.80619  0.01936  0.87999  Biso   1.000  C
  C15      1.0000 0.96377  0.69797  0.95587  Biso   1.000  C
  N6       1.0000 0.84442  0.81600  0.99919  Biso   1.000  N
  C16      1.0000 0.96376  0.69796  0.95590  Biso   1.000  C
  N7       1.0000 0.84450  0.81600  0.99919  Biso   1.000  N
  H1       1.0000 0.69115  0.66868  0.92078  Biso   1.000  H
  H2       1.0000 0.78556  0.61548  0.94679  Biso   1.000  H
  N8       1.0000 0.64842  0.66612  0.97930  Biso   1.000  N
  H3       1.0000 0.69122  0.66867  0.92081  Biso   1.000  H
  N9       1.0000 0.64849  0.66611  0.97933  Biso   1.000  N
  H4       1.0000 0.69123  0.66868  0.92078  Biso   1.000  H
  H5       1.0000 0.78564  0.61548  0.94679  Biso   1.000  H
  N10      1.0000 0.64850  0.66612  0.97930  Biso   1.000  N
  H6       1.0000 0.69114  0.66867  0.92081  Biso   1.000  H
  N11      1.0000 0.88131  0.97307  0.96852  Biso   1.000  N
  N12      1.0000 0.88139  0.97307  0.96852  Biso   1.000  N
  C17      1.0000 0.01311  0.90238  0.91511  Biso   1.000  C
  C18      1.0000 0.01303  0.90238  0.91511  Biso   1.000  C
  H7       1.0000 0.76572  0.00251  0.85868  Biso   1.000  H
  H8       1.0000 0.87962  0.03220  0.86830  Biso   1.000  H
  N13      1.0000 0.75216  0.11731  0.89534  Biso   1.000  N
  H9       1.0000 0.76571  0.00250  0.85871  Biso   1.000  H
  N14      1.0000 0.75207  0.11730  0.89537  Biso   1.000  N
  N15      1.0000 0.75208  0.11731  0.89534  Biso   1.000  N
  H10      1.0000 0.76563  0.00250  0.85871  Biso   1.000  H
  H11      1.0000 0.87954  0.03220  0.86830  Biso   1.000  H
  H12      1.0000 0.98249  0.68343  0.92850  Biso   1.000  H
  H13      1.0000 0.93743  0.63579  0.97119  Biso   1.000  H
  H14      1.0000 0.98258  0.68335  0.92850  Biso   1.000  H
  H15      1.0000 0.93751  0.63579  0.97119  Biso   1.000  H
  H16      1.0000 0.98257  0.68343  0.92850  Biso   1.000  H
  H17      1.0000 0.02803  0.71496  0.96680  Biso   1.000  H
  H18      1.0000 0.02795  0.71496  0.96680  Biso   1.000  H
  H19      1.0000 0.02802  0.71504  0.96680  Biso   1.000  H
  C19      1.0000 0.84955  0.91949  0.00465  Biso   1.000  C
  C20      1.0000 0.82856  0.73433  0.03371  Biso   1.000  C
  C21      1.0000 0.84947  0.91949  0.00465  Biso   1.000  C
  C22      1.0000 0.82848  0.73424  0.03374  Biso   1.000  C
  C23      1.0000 0.82848  0.73433  0.03371  Biso   1.000  C
  C24      1.0000 0.82847  0.73432  0.03374  Biso   1.000  C
  C25      1.0000 0.53872  0.67219  0.97701  Biso   1.000  C
  C26      1.0000 0.53879  0.67218  0.97704  Biso   1.000  C
  C27      1.0000 0.53880  0.67219  0.97701  Biso   1.000  C
  C28      1.0000 0.67673  0.62881  0.01887  Biso   1.000  C
  C29      1.0000 0.67672  0.62880  0.01890  Biso   1.000  C
  C30      1.0000 0.67664  0.62880  0.01890  Biso   1.000  C
  C31      1.0000 0.91139  0.07838  0.96558  Biso   1.000  C
  H20      1.0000 0.06663  0.88376  0.93429  Biso   1.000  H
  H21      1.0000 0.02224  0.97253  0.90169  Biso   1.000  H
  H22      1.0000 0.02363  0.85047  0.89579  Biso   1.000  H
  H23      1.0000 0.06655  0.88376  0.93429  Biso   1.000  H
  H24      1.0000 0.02217  0.97245  0.90169  Biso   1.000  H
  H25      1.0000 0.02355  0.85047  0.89579  Biso   1.000  H
  H26      1.0000 0.02216  0.97253  0.90169  Biso   1.000  H
  C32      1.0000 0.80911  0.19500  0.91149  Biso   1.000  C
  C33      1.0000 0.64763  0.15937  0.88691  Biso   1.000  C
  C34      1.0000 0.64762  0.15936  0.88694  Biso   1.000  C
  C35      1.0000 0.64754  0.15936  0.88694  Biso   1.000  C
  O4       1.0000 0.83493  0.95829  0.03642  Biso   1.000  O
  O5       1.0000 0.83485  0.95829  0.03642  Biso   1.000  O
  H27      1.0000 0.87761  0.66943  0.02908  Biso   1.000  H
  H28      1.0000 0.84749  0.76101  0.05770  Biso   1.000  H
  N16      1.0000 0.71657  0.70860  0.03998  Biso   1.000  N
  H29      1.0000 0.87761  0.66934  0.02911  Biso   1.000  H
  N17      1.0000 0.71649  0.70860  0.03998  Biso   1.000  N
  H30      1.0000 0.87752  0.66942  0.02911  Biso   1.000  H
  O6       1.0000 0.49223  0.69247  0.94703  Biso   1.000  O
  O7       1.0000 0.49231  0.69247  0.94703  Biso   1.000  O
  N18      1.0000 0.48924  0.64616  0.01344  Biso   1.000  N
  N19      1.0000 0.48924  0.64615  0.01347  Biso   1.000  N
  N20      1.0000 0.48923  0.64624  0.01344  Biso   1.000  N
  N21      1.0000 0.48916  0.64615  0.01347  Biso   1.000  N
  C36      1.0000 0.56496  0.61232  0.04259  Biso   1.000  C
  O8       1.0000 0.75424  0.53269  0.01908  Biso   1.000  O
  C37      1.0000 0.56487  0.61231  0.04262  Biso   1.000  C
  O9       1.0000 0.75416  0.53269  0.01908  Biso   1.000  O
  C38      1.0000 0.56488  0.61232  0.04259  Biso   1.000  C
  H31      1.0000 0.97618  0.08261  0.94658  Biso   1.000  H
  H32      1.0000 0.93180  0.09157  0.99150  Biso   1.000  H
  N22      1.0000 0.82814  0.16200  0.95335  Biso   1.000  N
  H33      1.0000 0.97617  0.08261  0.94661  Biso   1.000  H
  N23      1.0000 0.82806  0.16200  0.95335  Biso   1.000  N
  C39      1.0000 0.71405  0.29209  0.91630  Biso   1.000  C
  C40      1.0000 0.91004  0.22330  0.88712  Biso   1.000  C
  C41      1.0000 0.71397  0.29209  0.91630  Biso   1.000  C
  C42      1.0000 0.90995  0.22330  0.88715  Biso   1.000  C
  N24      1.0000 0.62390  0.25678  0.89950  Biso   1.000  N
  O10      1.0000 0.58500  0.11458  0.87061  Biso   1.000  O
  O11      1.0000 0.58499  0.11457  0.87064  Biso   1.000  O
  C43      1.0000 0.65120  0.73147  0.07326  Biso   1.000  C
  C44      1.0000 0.37626  0.62386  0.02080  Biso   1.000  C
  C45      1.0000 0.37617  0.62385  0.02083  Biso   1.000  C
  C46      1.0000 0.37625  0.62394  0.02080  Biso   1.000  C
  H34      1.0000 0.56141  0.53668  0.05280  Biso   1.000  H
  N25      1.0000 0.55944  0.67763  0.07412  Biso   1.000  N
  N26      1.0000 0.55937  0.67755  0.07412  Biso   1.000  N
  C47      1.0000 0.76440  0.22141  0.97995  Biso   1.000  C
  C48      1.0000 0.76440  0.22140  0.97998  Biso   1.000  C
  C49      1.0000 0.74444  0.40371  0.89638  Biso   1.000  C
  N27      1.0000 0.69383  0.29499  0.95926  Biso   1.000  N
  C50      1.0000 0.74435  0.40371  0.89641  Biso   1.000  C
  N28      1.0000 0.69375  0.29499  0.95926  Biso   1.000  N
  H35      1.0000 0.89367  0.24505  0.85998  Biso   1.000  H
  H36      1.0000 0.96490  0.16196  0.88759  Biso   1.000  H
  H37      1.0000 0.93719  0.28128  0.89789  Biso   1.000  H
  H38      1.0000 0.89358  0.24504  0.86001  Biso   1.000  H
  H39      1.0000 0.89358  0.24513  0.85998  Biso   1.000  H
  C51      1.0000 0.52115  0.32496  0.89291  Biso   1.000  C
  C52      1.0000 0.52107  0.32496  0.89291  Biso   1.000  C
  O12      1.0000 0.66993  0.78422  0.09870  Biso   1.000  O
  O13      1.0000 0.66986  0.78414  0.09870  Biso   1.000  O
  O14      1.0000 0.66985  0.78422  0.09870  Biso   1.000  O
  H40      1.0000 0.34824  0.61728  0.99539  Biso   1.000  H
  H41      1.0000 0.34832  0.61728  0.99539  Biso   1.000  H
  H42      1.0000 0.37343  0.55560  0.03698  Biso   1.000  H
  N29      1.0000 0.30628  0.70500  0.04072  Biso   1.000  N
  H43      1.0000 0.37342  0.55559  0.03701  Biso   1.000  H
  N30      1.0000 0.30620  0.70500  0.04072  Biso   1.000  N
  H44      1.0000 0.37334  0.55559  0.03701  Biso   1.000  H
  C53      1.0000 0.47896  0.67502  0.10707  Biso   1.000  C
  C54      1.0000 0.47888  0.67502  0.10707  Biso   1.000  C
  O15      1.0000 0.77365  0.21385  0.01572  Biso   1.000  O
  O16      1.0000 0.77364  0.21393  0.01572  Biso   1.000  O
  H45      1.0000 0.80632  0.42248  0.90808  Biso   1.000  H
  H46      1.0000 0.68254  0.45716  0.90060  Biso   1.000  H
  H47      1.0000 0.76294  0.39995  0.86809  Biso   1.000  H
  H48      1.0000 0.80631  0.42247  0.90811  Biso   1.000  H
  H49      1.0000 0.68246  0.45716  0.90060  Biso   1.000  H
  H50      1.0000 0.76286  0.39995  0.86809  Biso   1.000  H
  H51      1.0000 0.76293  0.40003  0.86809  Biso   1.000  H
  H52      1.0000 0.80623  0.42247  0.90811  Biso   1.000  H
  C55      1.0000 0.62385  0.37612  0.97918  Biso   1.000  C
  C56      1.0000 0.62378  0.37604  0.97918  Biso   1.000  C
  C57      1.0000 0.62377  0.37612  0.97918  Biso   1.000  C
  H53      1.0000 0.53745  0.39860  0.88608  Biso   1.000  H
  H54      1.0000 0.49073  0.30296  0.87008  Biso   1.000  H
  N31      1.0000 0.44067  0.32235  0.92586  Biso   1.000  N
  H55      1.0000 0.53736  0.39859  0.88611  Biso   1.000  H
  H56      1.0000 0.49072  0.30296  0.87011  Biso   1.000  H
  N32      1.0000 0.44059  0.32235  0.92586  Biso   1.000  N
  N33      1.0000 0.44058  0.32243  0.92586  Biso   1.000  N
  H57      1.0000 0.49064  0.30296  0.87011  Biso   1.000  H
  C58      1.0000 0.23563  0.77857  0.02003  Biso   1.000  C
  C59      1.0000 0.28606  0.70789  0.08368  Biso   1.000  C
  C60      1.0000 0.28598  0.70788  0.08371  Biso   1.000  C
  H58      1.0000 0.46267  0.60138  0.11390  Biso   1.000  H
  H59      1.0000 0.50930  0.69702  0.12990  Biso   1.000  H
  N34      1.0000 0.37613  0.74320  0.10048  Biso   1.000  N
  H60      1.0000 0.46259  0.60138  0.11390  Biso   1.000  H
  N35      1.0000 0.37612  0.74320  0.10051  Biso   1.000  N
  H61      1.0000 0.62660  0.44438  0.96300  Biso   1.000  H
  N36      1.0000 0.51087  0.35382  0.98654  Biso   1.000  N
  N37      1.0000 0.51080  0.35374  0.98654  Biso   1.000  N
  N38      1.0000 0.51079  0.35382  0.98654  Biso   1.000  N
  H62      1.0000 0.65163  0.38270  0.00459  Biso   1.000  H
  H63      1.0000 0.65171  0.38270  0.00459  Biso   1.000  H
  C61      1.0000 0.43515  0.38766  0.95739  Biso   1.000  C
  C62      1.0000 0.34883  0.26851  0.92672  Biso   1.000  C
  C63      1.0000 0.43507  0.38766  0.95739  Biso   1.000  C
  C64      1.0000 0.34875  0.26851  0.92672  Biso   1.000  C
  O17      1.0000 0.22623  0.78613  0.98426  Biso   1.000  O
  O18      1.0000 0.22632  0.78605  0.98426  Biso   1.000  O
  O19      1.0000 0.22631  0.78613  0.98426  Biso   1.000  O
  N39      1.0000 0.17197  0.83798  0.04663  Biso   1.000  N
  N40      1.0000 0.17189  0.83798  0.04663  Biso   1.000  N
  C65      1.0000 0.19093  0.80498  0.08849  Biso   1.000  C
  C66      1.0000 0.25567  0.59627  0.10360  Biso   1.000  C
  C67      1.0000 0.25559  0.59627  0.10360  Biso   1.000  C
  C68      1.0000 0.35240  0.84061  0.11307  Biso   1.000  C
  C69      1.0000 0.46115  0.32779  0.02297  Biso   1.000  C
  H64      1.0000 0.43862  0.46330  0.94718  Biso   1.000  H
  C70      1.0000 0.32331  0.37117  0.98111  Biso   1.000  C
  H65      1.0000 0.43861  0.46329  0.94721  Biso   1.000  H
  N41      1.0000 0.28355  0.29138  0.96000  Biso   1.000  N
  O20      1.0000 0.33018  0.21576  0.90128  Biso   1.000  O
  O21      1.0000 0.33010  0.21576  0.90128  Biso   1.000  O
  N42      1.0000 0.28346  0.29138  0.96000  Biso   1.000  N
  C71      1.0000 0.08864  0.92160  0.03440  Biso   1.000  C
  C72      1.0000 0.08863  0.92159  0.03443  Biso   1.000  C
  C73      1.0000 0.08855  0.92159  0.03443  Biso   1.000  C
  C74      1.0000 0.09007  0.77668  0.11286  Biso   1.000  C
  N43      1.0000 0.24795  0.88267  0.10464  Biso   1.000  N
  C75      1.0000 0.08999  0.77668  0.11286  Biso   1.000  C
  N44      1.0000 0.24787  0.88267  0.10464  Biso   1.000  N
  H66      1.0000 0.19371  0.57750  0.09190  Biso   1.000  H
  H67      1.0000 0.31758  0.54282  0.09938  Biso   1.000  H
  H68      1.0000 0.23717  0.60003  0.13189  Biso   1.000  H
  H69      1.0000 0.31749  0.54281  0.09941  Biso   1.000  H
  H70      1.0000 0.23710  0.59995  0.13189  Biso   1.000  H
  H71      1.0000 0.31750  0.54282  0.09938  Biso   1.000  H
  H72      1.0000 0.23709  0.60003  0.13189  Biso   1.000  H
  O22      1.0000 0.41503  0.88540  0.12937  Biso   1.000  O
  O23      1.0000 0.41495  0.88540  0.12937  Biso   1.000  O
  N45      1.0000 0.35145  0.33386  0.02068  Biso   1.000  N
  O24      1.0000 0.50764  0.30751  0.05295  Biso   1.000  O
  O25      1.0000 0.24587  0.46729  0.98090  Biso   1.000  O
  O26      1.0000 0.24578  0.46728  0.98093  Biso   1.000  O
  O27      1.0000 0.24579  0.46729  0.98090  Biso   1.000  O
  C76      1.0000 0.17156  0.26565  0.96626  Biso   1.000  C
  C77      1.0000 0.17155  0.26573  0.96626  Biso   1.000  C
  C78      1.0000 0.17148  0.26565  0.96626  Biso   1.000  C
  H73      1.0000 0.02385  0.91737  0.05340  Biso   1.000  H
  H74      1.0000 0.06823  0.90842  0.00848  Biso   1.000  H
  H75      1.0000 0.06822  0.90841  0.00851  Biso   1.000  H
  H76      1.0000 0.02377  0.91737  0.05340  Biso   1.000  H
  N46      1.0000 0.11856  0.02691  0.03146  Biso   1.000  N
  N47      1.0000 0.11855  0.02690  0.03149  Biso   1.000  N
  N48      1.0000 0.11863  0.02690  0.03149  Biso   1.000  N
  H77      1.0000 0.10645  0.75493  0.14000  Biso   1.000  H
  H78      1.0000 0.03513  0.83802  0.11239  Biso   1.000  H
  H79      1.0000 0.06285  0.71871  0.10208  Biso   1.000  H
  H80      1.0000 0.10646  0.75485  0.14000  Biso   1.000  H
  H81      1.0000 0.06284  0.71870  0.10211  Biso   1.000  H
  H82      1.0000 0.10638  0.75485  0.14000  Biso   1.000  H
  H83      1.0000 0.06276  0.71870  0.10211  Biso   1.000  H
  C79      1.0000 0.19384  0.98062  0.11999  Biso   1.000  C
  C80      1.0000 0.19376  0.98062  0.11999  Biso   1.000  C
  C81      1.0000 0.27235  0.32506  0.05548  Biso   1.000  C
  C82      1.0000 0.27235  0.32505  0.05551  Biso   1.000  C
  C83      1.0000 0.27243  0.32505  0.05551  Biso   1.000  C
  H84      1.0000 0.12243  0.33055  0.97090  Biso   1.000  H
  H85      1.0000 0.15255  0.23897  0.94228  Biso   1.000  H
  H86      1.0000 0.15254  0.23896  0.94231  Biso   1.000  H
  H87      1.0000 0.15246  0.23896  0.94231  Biso   1.000  H
  N49      1.0000 0.15545  0.18398  0.00079  Biso   1.000  N
  N50      1.0000 0.15554  0.18398  0.00079  Biso   1.000  N
  C84      1.0000 0.15056  0.08050  0.99533  Biso   1.000  C
  C85      1.0000 0.15048  0.08050  0.99533  Biso   1.000  C
  C86      1.0000 0.10204  0.09700  0.06349  Biso   1.000  C
  C87      1.0000 0.10212  0.09700  0.06349  Biso   1.000  C
  H88      1.0000 0.23431  0.99747  0.14130  Biso   1.000  H
  H89      1.0000 0.12049  0.96778  0.13168  Biso   1.000  H
  H90      1.0000 0.12040  0.96777  0.13171  Biso   1.000  H
  H91      1.0000 0.12041  0.96778  0.13168  Biso   1.000  H
  N51      1.0000 0.18484  0.06900  0.09152  Biso   1.000  N
  N52      1.0000 0.18483  0.06899  0.09155  Biso   1.000  N
  N53      1.0000 0.18491  0.06899  0.09155  Biso   1.000  N
  H92      1.0000 0.30872  0.33130  0.07920  Biso   1.000  H
  H93      1.0000 0.21439  0.38450  0.05319  Biso   1.000  H
  N54      1.0000 0.22346  0.22547  0.06073  Biso   1.000  N
  H94      1.0000 0.21431  0.38450  0.05319  Biso   1.000  H
  H95      1.0000 0.30880  0.33130  0.07920  Biso   1.000  H
  C88      1.0000 0.12846  0.20440  0.04218  Biso   1.000  C
  O28      1.0000 0.16518  0.04170  0.96356  Biso   1.000  O
  O29      1.0000 0.16509  0.04169  0.96359  Biso   1.000  O
  O30      1.0000 0.16510  0.04170  0.96356  Biso   1.000  O
  C89      1.0000 0.98684  0.09761  0.08487  Biso   1.000  C
  C90      1.0000 0.98683  0.09760  0.08490  Biso   1.000  C
  C91      1.0000 0.25422  0.14551  0.09000  Biso   1.000  C
  C92      1.0000 0.25430  0.14551  0.09000  Biso   1.000  C
  C93      1.0000 0.03618  0.30201  0.04411  Biso   1.000  C
  C94      1.0000 0.03610  0.30201  0.04411  Biso   1.000  C
  H96      1.0000 0.93340  0.11622  0.06569  Biso   1.000  H
  H97      1.0000 0.97779  0.02746  0.09828  Biso   1.000  H
  H98      1.0000 0.97640  0.14951  0.10419  Biso   1.000  H
  H99      1.0000 0.93333  0.11614  0.06569  Biso   1.000  H
  H100     1.0000 0.97771  0.02745  0.09831  Biso   1.000  H
  H101     1.0000 0.97632  0.14951  0.10419  Biso   1.000  H
  H102     1.0000 0.93332  0.11622  0.06569  Biso   1.000  H
  H103     1.0000 0.97778  0.02753  0.09828  Biso   1.000  H
  O31      1.0000 0.32923  0.14662  0.11093  Biso   1.000  O
  O32      1.0000 0.32923  0.14654  0.11096  Biso   1.000  O
  O33      1.0000 0.32930  0.14662  0.11096  Biso   1.000  O
  H104     1.0000 0.97200  0.28502  0.03318  Biso   1.000  H
  H105     1.0000 0.97192  0.28493  0.03321  Biso   1.000  H
  H106     1.0000 0.97192  0.28502  0.03318  Biso   1.000  H
  H107     1.0000 0.97191  0.28501  0.03321  Biso   1.000  H
  H108     1.0000 0.01738  0.31655  0.07148  Biso   1.000  H
  H109     1.0000 0.06244  0.36419  0.02879  Biso   1.000  H
  H110     1.0000 0.01737  0.31654  0.07151  Biso   1.000  H
  H111     1.0000 0.01737  0.31663  0.07148  Biso   1.000  H
  H112     1.0000 0.06252  0.36419  0.02879  Biso   1.000  H
  O34      1.0000 0.67064  0.85336  0.88905  Biso   1.000  O
  C95      1.0000 0.74565  0.85448  0.90998  Biso   1.000  C
  C96      1.0000 0.74572  0.85447  0.91001  Biso   1.000  C
  C97      1.0000 0.74573  0.85448  0.90998  Biso   1.000  C
  C98      1.0000 0.74564  0.85447  0.91001  Biso   1.000  C
  N55      1.0000 0.81511  0.93098  0.90846  Biso   1.000  N
  N56      1.0000 0.77648  0.77450  0.93928  Biso   1.000  N
  N57      1.0000 0.81503  0.93098  0.90846  Biso   1.000  N
  N58      1.0000 0.77641  0.77451  0.93925  Biso   1.000  N
  O35      1.0000 0.67072  0.85336  0.88905  Biso   1.000  O
  N59      1.0000 0.77649  0.77451  0.93925  Biso   1.000  N
  O36      1.0000 0.67071  0.85344  0.88905  Biso   1.000  O
  C99      1.0000 0.89790  0.90297  0.93652  Biso   1.000  C
  C100     1.0000 0.89783  0.90298  0.93649  Biso   1.000  C
  C101     1.0000 0.89791  0.90298  0.93649  Biso   1.000  C
  C102     1.0000 0.80619  0.01936  0.87999  Biso   1.000  C
  C103     1.0000 0.87148  0.79557  0.95783  Biso   1.000  C
  C104     1.0000 0.72760  0.67492  0.94450  Biso   1.000  C
  C105     1.0000 0.87141  0.79558  0.95780  Biso   1.000  C
  C106     1.0000 0.72752  0.67492  0.94450  Biso   1.000  C
  C107     1.0000 0.72761  0.67484  0.94450  Biso   1.000  C
  C108     1.0000 0.87149  0.79558  0.95780  Biso   1.000  C
  N60      1.0000 0.88139  0.97307  0.96852  Biso   1.000  N
  N61      1.0000 0.88131  0.97307  0.96852  Biso   1.000  N
  C109     1.0000 0.01311  0.90238  0.91511  Biso   1.000  C
  C110     1.0000 0.01303  0.90238  0.91511  Biso   1.000  C
  H113     1.0000 0.76572  0.00251  0.85868  Biso   1.000  H
  H114     1.0000 0.87962  0.03220  0.86830  Biso   1.000  H
  N62      1.0000 0.75216  0.11731  0.89534  Biso   1.000  N
  H115     1.0000 0.76571  0.00250  0.85871  Biso   1.000  H
  N63      1.0000 0.75207  0.11730  0.89537  Biso   1.000  N
  N64      1.0000 0.75208  0.11731  0.89534  Biso   1.000  N
  H116     1.0000 0.76563  0.00250  0.85871  Biso   1.000  H
  H117     1.0000 0.87954  0.03220  0.86830  Biso   1.000  H
  C111     1.0000 0.96377  0.69797  0.95587  Biso   1.000  C
  N65      1.0000 0.84450  0.81600  0.99919  Biso   1.000  N
  C112     1.0000 0.96376  0.69796  0.95590  Biso   1.000  C
  N66      1.0000 0.84442  0.81600  0.99919  Biso   1.000  N
  H118     1.0000 0.78556  0.61548  0.94679  Biso   1.000  H
  N67      1.0000 0.64849  0.66611  0.97933  Biso   1.000  N
  H119     1.0000 0.69115  0.66868  0.92078  Biso   1.000  H
  N68      1.0000 0.64842  0.66612  0.97930  Biso   1.000  N
  H120     1.0000 0.69122  0.66867  0.92081  Biso   1.000  H
  H121     1.0000 0.69123  0.66868  0.92078  Biso   1.000  H
  H122     1.0000 0.78564  0.61548  0.94679  Biso   1.000  H
  N69      1.0000 0.64850  0.66612  0.97930  Biso   1.000  N
  H123     1.0000 0.69114  0.66867  0.92081  Biso   1.000  H
  C113     1.0000 0.84955  0.91949  0.00465  Biso   1.000  C
  C114     1.0000 0.84947  0.91949  0.00465  Biso   1.000  C
  C115     1.0000 0.91139  0.07838  0.96558  Biso   1.000  C
  H124     1.0000 0.06663  0.88376  0.93429  Biso   1.000  H
  H125     1.0000 0.02224  0.97253  0.90169  Biso   1.000  H
  H126     1.0000 0.02363  0.85047  0.89579  Biso   1.000  H
  H127     1.0000 0.06655  0.88376  0.93429  Biso   1.000  H
  H128     1.0000 0.02217  0.97245  0.90169  Biso   1.000  H
  H129     1.0000 0.02355  0.85047  0.89579  Biso   1.000  H
  H130     1.0000 0.02216  0.97253  0.90169  Biso   1.000  H
  C116     1.0000 0.80911  0.19500  0.91149  Biso   1.000  C
  C117     1.0000 0.64763  0.15937  0.88691  Biso   1.000  C
  C118     1.0000 0.64762  0.15936  0.88694  Biso   1.000  C
  C119     1.0000 0.64754  0.15936  0.88694  Biso   1.000  C
  H131     1.0000 0.93751  0.63579  0.97119  Biso   1.000  H
  H132     1.0000 0.98258  0.68335  0.92850  Biso   1.000  H
  H133     1.0000 0.93743  0.63579  0.97119  Biso   1.000  H
  H134     1.0000 0.98249  0.68343  0.92850  Biso   1.000  H
  H135     1.0000 0.98257  0.68343  0.92850  Biso   1.000  H
  H136     1.0000 0.02803  0.71496  0.96680  Biso   1.000  H
  H137     1.0000 0.02795  0.71496  0.96680  Biso   1.000  H
  H138     1.0000 0.02802  0.71504  0.96680  Biso   1.000  H
  C120     1.0000 0.82856  0.73433  0.03371  Biso   1.000  C
  C121     1.0000 0.82848  0.73424  0.03374  Biso   1.000  C
  C122     1.0000 0.82848  0.73433  0.03371  Biso   1.000  C
  C123     1.0000 0.82847  0.73432  0.03374  Biso   1.000  C
  C124     1.0000 0.53879  0.67218  0.97704  Biso   1.000  C
  C125     1.0000 0.53872  0.67219  0.97701  Biso   1.000  C
  C126     1.0000 0.53880  0.67219  0.97701  Biso   1.000  C
  C127     1.0000 0.67673  0.62881  0.01887  Biso   1.000  C
  C128     1.0000 0.67672  0.62880  0.01890  Biso   1.000  C
  C129     1.0000 0.67664  0.62880  0.01890  Biso   1.000  C
  O37      1.0000 0.83493  0.95829  0.03642  Biso   1.000  O
  O38      1.0000 0.83485  0.95829  0.03642  Biso   1.000  O
  H139     1.0000 0.97618  0.08261  0.94658  Biso   1.000  H
  H140     1.0000 0.93180  0.09157  0.99150  Biso   1.000  H
  N70      1.0000 0.82814  0.16200  0.95335  Biso   1.000  N
  H141     1.0000 0.97617  0.08261  0.94661  Biso   1.000  H
  N71      1.0000 0.82806  0.16200  0.95335  Biso   1.000  N
  C130     1.0000 0.71405  0.29209  0.91630  Biso   1.000  C
  C131     1.0000 0.91004  0.22330  0.88712  Biso   1.000  C
  C132     1.0000 0.71397  0.29209  0.91630  Biso   1.000  C
  C133     1.0000 0.90995  0.22330  0.88715  Biso   1.000  C
  N72      1.0000 0.62390  0.25678  0.89950  Biso   1.000  N
  O39      1.0000 0.58500  0.11458  0.87061  Biso   1.000  O
  O40      1.0000 0.58499  0.11457  0.87064  Biso   1.000  O
  H142     1.0000 0.87761  0.66943  0.02908  Biso   1.000  H
  H143     1.0000 0.84749  0.76101  0.05770  Biso   1.000  H
  N73      1.0000 0.71657  0.70860  0.03998  Biso   1.000  N
  H144     1.0000 0.87761  0.66934  0.02911  Biso   1.000  H
  N74      1.0000 0.71649  0.70860  0.03998  Biso   1.000  N
  H145     1.0000 0.87752  0.66942  0.02911  Biso   1.000  H
  O41      1.0000 0.49231  0.69247  0.94703  Biso   1.000  O
  O42      1.0000 0.49223  0.69247  0.94703  Biso   1.000  O
  N75      1.0000 0.48924  0.64616  0.01344  Biso   1.000  N
  N76      1.0000 0.48924  0.64615  0.01347  Biso   1.000  N
  N77      1.0000 0.48923  0.64624  0.01344  Biso   1.000  N
  N78      1.0000 0.48916  0.64615  0.01347  Biso   1.000  N
  C134     1.0000 0.56496  0.61232  0.04259  Biso   1.000  C
  O43      1.0000 0.75424  0.53269  0.01908  Biso   1.000  O
  C135     1.0000 0.56487  0.61231  0.04262  Biso   1.000  C
  O44      1.0000 0.75416  0.53269  0.01908  Biso   1.000  O
  C136     1.0000 0.56488  0.61232  0.04259  Biso   1.000  C
  C137     1.0000 0.76440  0.22141  0.97995  Biso   1.000  C
  C138     1.0000 0.76440  0.22140  0.97998  Biso   1.000  C
  C139     1.0000 0.74444  0.40371  0.89638  Biso   1.000  C
  N79      1.0000 0.69383  0.29499  0.95926  Biso   1.000  N
  C140     1.0000 0.74435  0.40371  0.89641  Biso   1.000  C
  N80      1.0000 0.69375  0.29499  0.95926  Biso   1.000  N
  H146     1.0000 0.89367  0.24505  0.85998  Biso   1.000  H
  H147     1.0000 0.96490  0.16196  0.88759  Biso   1.000  H
  H148     1.0000 0.93719  0.28128  0.89789  Biso   1.000  H
  H149     1.0000 0.89358  0.24504  0.86001  Biso   1.000  H
  H150     1.0000 0.89358  0.24513  0.85998  Biso   1.000  H
  C141     1.0000 0.52115  0.32496  0.89291  Biso   1.000  C
  C142     1.0000 0.52107  0.32496  0.89291  Biso   1.000  C
  C143     1.0000 0.65120  0.73147  0.07326  Biso   1.000  C
  C144     1.0000 0.37626  0.62386  0.02080  Biso   1.000  C
  C145     1.0000 0.37617  0.62385  0.02083  Biso   1.000  C
  C146     1.0000 0.37625  0.62394  0.02080  Biso   1.000  C
  H151     1.0000 0.56141  0.53668  0.05280  Biso   1.000  H
  N81      1.0000 0.55944  0.67763  0.07412  Biso   1.000  N
  N82      1.0000 0.55937  0.67755  0.07412  Biso   1.000  N
  O45      1.0000 0.77365  0.21385  0.01572  Biso   1.000  O
  O46      1.0000 0.77364  0.21393  0.01572  Biso   1.000  O
  H152     1.0000 0.80632  0.42248  0.90808  Biso   1.000  H
  H153     1.0000 0.68254  0.45716  0.90060  Biso   1.000  H
  H154     1.0000 0.76294  0.39995  0.86809  Biso   1.000  H
  H155     1.0000 0.80631  0.42247  0.90811  Biso   1.000  H
  H156     1.0000 0.68246  0.45716  0.90060  Biso   1.000  H
  H157     1.0000 0.76286  0.39995  0.86809  Biso   1.000  H
  H158     1.0000 0.76293  0.40003  0.86809  Biso   1.000  H
  H159     1.0000 0.80623  0.42247  0.90811  Biso   1.000  H
  C147     1.0000 0.62385  0.37612  0.97918  Biso   1.000  C
  C148     1.0000 0.62378  0.37604  0.97918  Biso   1.000  C
  C149     1.0000 0.62377  0.37612  0.97918  Biso   1.000  C
  H160     1.0000 0.53745  0.39860  0.88608  Biso   1.000  H
  H161     1.0000 0.49073  0.30296  0.87008  Biso   1.000  H
  N83      1.0000 0.44067  0.32235  0.92586  Biso   1.000  N
  H162     1.0000 0.53736  0.39859  0.88611  Biso   1.000  H
  H163     1.0000 0.49072  0.30296  0.87011  Biso   1.000  H
  N84      1.0000 0.44059  0.32235  0.92586  Biso   1.000  N
  N85      1.0000 0.44058  0.32243  0.92586  Biso   1.000  N
  H164     1.0000 0.49064  0.30296  0.87011  Biso   1.000  H
  O47      1.0000 0.66993  0.78422  0.09870  Biso   1.000  O
  O48      1.0000 0.66986  0.78414  0.09870  Biso   1.000  O
  O49      1.0000 0.66985  0.78422  0.09870  Biso   1.000  O
  H165     1.0000 0.34832  0.61728  0.99539  Biso   1.000  H
  H166     1.0000 0.34824  0.61728  0.99539  Biso   1.000  H
  H167     1.0000 0.37343  0.55560  0.03698  Biso   1.000  H
  N86      1.0000 0.30628  0.70500  0.04072  Biso   1.000  N
  H168     1.0000 0.37342  0.55559  0.03701  Biso   1.000  H
  N87      1.0000 0.30620  0.70500  0.04072  Biso   1.000  N
  H169     1.0000 0.37334  0.55559  0.03701  Biso   1.000  H
  C150     1.0000 0.47896  0.67502  0.10707  Biso   1.000  C
  C151     1.0000 0.47888  0.67502  0.10707  Biso   1.000  C
  H170     1.0000 0.62660  0.44438  0.96300  Biso   1.000  H
  N88      1.0000 0.51087  0.35382  0.98654  Biso   1.000  N
  N89      1.0000 0.51080  0.35374  0.98654  Biso   1.000  N
  N90      1.0000 0.51079  0.35382  0.98654  Biso   1.000  N
  H171     1.0000 0.65163  0.38270  0.00459  Biso   1.000  H
  H172     1.0000 0.65171  0.38270  0.00459  Biso   1.000  H
  C152     1.0000 0.43515  0.38766  0.95739  Biso   1.000  C
  C153     1.0000 0.34883  0.26851  0.92672  Biso   1.000  C
  C154     1.0000 0.43507  0.38766  0.95739  Biso   1.000  C
  C155     1.0000 0.34875  0.26851  0.92672  Biso   1.000  C
  C156     1.0000 0.23563  0.77857  0.02003  Biso   1.000  C
  C157     1.0000 0.28606  0.70789  0.08368  Biso   1.000  C
  C158     1.0000 0.28598  0.70788  0.08371  Biso   1.000  C
  H173     1.0000 0.46267  0.60138  0.11390  Biso   1.000  H
  H174     1.0000 0.50930  0.69702  0.12990  Biso   1.000  H
  N91      1.0000 0.37613  0.74320  0.10048  Biso   1.000  N
  H175     1.0000 0.46259  0.60138  0.11390  Biso   1.000  H
  N92      1.0000 0.37612  0.74320  0.10051  Biso   1.000  N
  C159     1.0000 0.46115  0.32779  0.02297  Biso   1.000  C
  H176     1.0000 0.43862  0.46330  0.94718  Biso   1.000  H
  C160     1.0000 0.32331  0.37117  0.98111  Biso   1.000  C
  H177     1.0000 0.43861  0.46329  0.94721  Biso   1.000  H
  N93      1.0000 0.28355  0.29138  0.96000  Biso   1.000  N
  O50      1.0000 0.33018  0.21576  0.90128  Biso   1.000  O
  O51      1.0000 0.33010  0.21576  0.90128  Biso   1.000  O
  N94      1.0000 0.28346  0.29138  0.96000  Biso   1.000  N
  O52      1.0000 0.22632  0.78605  0.98426  Biso   1.000  O
  O53      1.0000 0.22623  0.78613  0.98426  Biso   1.000  O
  O54      1.0000 0.22631  0.78613  0.98426  Biso   1.000  O
  N95      1.0000 0.17197  0.83798  0.04663  Biso   1.000  N
  N96      1.0000 0.17189  0.83798  0.04663  Biso   1.000  N
  C161     1.0000 0.19093  0.80498  0.08849  Biso   1.000  C
  C162     1.0000 0.25567  0.59627  0.10360  Biso   1.000  C
  C163     1.0000 0.25559  0.59627  0.10360  Biso   1.000  C
  C164     1.0000 0.35240  0.84061  0.11307  Biso   1.000  C
  N97      1.0000 0.35145  0.33386  0.02068  Biso   1.000  N
  O55      1.0000 0.50764  0.30751  0.05295  Biso   1.000  O
  O56      1.0000 0.24587  0.46729  0.98090  Biso   1.000  O
  O57      1.0000 0.24578  0.46728  0.98093  Biso   1.000  O
  O58      1.0000 0.24579  0.46729  0.98090  Biso   1.000  O
  C165     1.0000 0.17156  0.26565  0.96626  Biso   1.000  C
  C166     1.0000 0.17155  0.26573  0.96626  Biso   1.000  C
  C167     1.0000 0.17148  0.26565  0.96626  Biso   1.000  C
  C168     1.0000 0.08864  0.92160  0.03440  Biso   1.000  C
  C169     1.0000 0.08863  0.92159  0.03443  Biso   1.000  C
  C170     1.0000 0.08855  0.92159  0.03443  Biso   1.000  C
  C171     1.0000 0.09007  0.77668  0.11286  Biso   1.000  C
  N98      1.0000 0.24795  0.88267  0.10464  Biso   1.000  N
  C172     1.0000 0.08999  0.77668  0.11286  Biso   1.000  C
  N99      1.0000 0.24787  0.88267  0.10464  Biso   1.000  N
  H178     1.0000 0.19371  0.57750  0.09190  Biso   1.000  H
  H179     1.0000 0.31758  0.54282  0.09938  Biso   1.000  H
  H180     1.0000 0.23717  0.60003  0.13189  Biso   1.000  H
  H181     1.0000 0.31749  0.54281  0.09941  Biso   1.000  H
  H182     1.0000 0.23710  0.59995  0.13189  Biso   1.000  H
  H183     1.0000 0.31750  0.54282  0.09938  Biso   1.000  H
  H184     1.0000 0.23709  0.60003  0.13189  Biso   1.000  H
  O59      1.0000 0.41503  0.88540  0.12937  Biso   1.000  O
  O60      1.0000 0.41495  0.88540  0.12937  Biso   1.000  O
  C173     1.0000 0.27235  0.32506  0.05548  Biso   1.000  C
  C174     1.0000 0.27235  0.32505  0.05551  Biso   1.000  C
  C175     1.0000 0.27243  0.32505  0.05551  Biso   1.000  C
  H185     1.0000 0.12243  0.33055  0.97090  Biso   1.000  H
  H186     1.0000 0.15255  0.23897  0.94228  Biso   1.000  H
  H187     1.0000 0.15254  0.23896  0.94231  Biso   1.000  H
  H188     1.0000 0.15246  0.23896  0.94231  Biso   1.000  H
  N100     1.0000 0.15545  0.18398  0.00079  Biso   1.000  N
  N101     1.0000 0.15554  0.18398  0.00079  Biso   1.000  N
  H189     1.0000 0.02385  0.91737  0.05340  Biso   1.000  H
  H190     1.0000 0.06823  0.90842  0.00848  Biso   1.000  H
  H191     1.0000 0.06822  0.90841  0.00851  Biso   1.000  H
  H192     1.0000 0.02377  0.91737  0.05340  Biso   1.000  H
  N102     1.0000 0.11856  0.02691  0.03146  Biso   1.000  N
  N103     1.0000 0.11855  0.02690  0.03149  Biso   1.000  N
  N104     1.0000 0.11863  0.02690  0.03149  Biso   1.000  N
  H193     1.0000 0.10645  0.75493  0.14000  Biso   1.000  H
  H194     1.0000 0.03513  0.83802  0.11239  Biso   1.000  H
  H195     1.0000 0.06285  0.71871  0.10208  Biso   1.000  H
  H196     1.0000 0.10646  0.75485  0.14000  Biso   1.000  H
  H197     1.0000 0.06284  0.71870  0.10211  Biso   1.000  H
  H198     1.0000 0.10638  0.75485  0.14000  Biso   1.000  H
  H199     1.0000 0.06276  0.71870  0.10211  Biso   1.000  H
  C176     1.0000 0.19384  0.98062  0.11999  Biso   1.000  C
  C177     1.0000 0.19376  0.98062  0.11999  Biso   1.000  C
  H200     1.0000 0.30872  0.33130  0.07920  Biso   1.000  H
  H201     1.0000 0.21439  0.38450  0.05319  Biso   1.000  H
  N105     1.0000 0.22346  0.22547  0.06073  Biso   1.000  N
  H202     1.0000 0.21431  0.38450  0.05319  Biso   1.000  H
  H203     1.0000 0.30880  0.33130  0.07920  Biso   1.000  H
  C178     1.0000 0.15056  0.08050  0.99533  Biso   1.000  C
  C179     1.0000 0.15048  0.08050  0.99533  Biso   1.000  C
  C180     1.0000 0.12846  0.20440  0.04218  Biso   1.000  C
  C181     1.0000 0.10204  0.09700  0.06349  Biso   1.000  C
  C182     1.0000 0.10212  0.09700  0.06349  Biso   1.000  C
  H204     1.0000 0.23431  0.99747  0.14130  Biso   1.000  H
  H205     1.0000 0.12049  0.96778  0.13168  Biso   1.000  H
  H206     1.0000 0.12040  0.96777  0.13171  Biso   1.000  H
  H207     1.0000 0.12041  0.96778  0.13168  Biso   1.000  H
  N106     1.0000 0.18484  0.06900  0.09152  Biso   1.000  N
  N107     1.0000 0.18483  0.06899  0.09155  Biso   1.000  N
  N108     1.0000 0.18491  0.06899  0.09155  Biso   1.000  N
  C183     1.0000 0.25422  0.14551  0.09000  Biso   1.000  C
  C184     1.0000 0.25430  0.14551  0.09000  Biso   1.000  C
  O61      1.0000 0.16518  0.04170  0.96356  Biso   1.000  O
  O62      1.0000 0.16509  0.04169  0.96359  Biso   1.000  O
  O63      1.0000 0.16510  0.04170  0.96356  Biso   1.000  O
  C185     1.0000 0.03618  0.30201  0.04411  Biso   1.000  C
  C186     1.0000 0.03610  0.30201  0.04411  Biso   1.000  C
  C187     1.0000 0.98684  0.09761  0.08487  Biso   1.000  C
  C188     1.0000 0.98683  0.09760  0.08490  Biso   1.000  C
  O64      1.0000 0.32923  0.14662  0.11093  Biso   1.000  O
  O65      1.0000 0.32923  0.14654  0.11096  Biso   1.000  O
  O66      1.0000 0.32930  0.14662  0.11096  Biso   1.000  O
  H208     1.0000 0.97200  0.28502  0.03318  Biso   1.000  H
  H209     1.0000 0.97192  0.28493  0.03321  Biso   1.000  H
  H210     1.0000 0.97192  0.28502  0.03318  Biso   1.000  H
  H211     1.0000 0.97191  0.28501  0.03321  Biso   1.000  H
  H212     1.0000 0.01738  0.31655  0.07148  Biso   1.000  H
  H213     1.0000 0.06244  0.36419  0.02879  Biso   1.000  H
  H214     1.0000 0.01737  0.31654  0.07151  Biso   1.000  H
  H215     1.0000 0.01737  0.31663  0.07148  Biso   1.000  H
  H216     1.0000 0.06252  0.36419  0.02879  Biso   1.000  H
  H217     1.0000 0.93340  0.11622  0.06569  Biso   1.000  H
  H218     1.0000 0.97779  0.02746  0.09828  Biso   1.000  H
  H219     1.0000 0.97640  0.14951  0.10419  Biso   1.000  H
  H220     1.0000 0.93333  0.11614  0.06569  Biso   1.000  H
  H221     1.0000 0.97771  0.02745  0.09831  Biso   1.000  H
  H222     1.0000 0.97632  0.14951  0.10419  Biso   1.000  H
  H223     1.0000 0.93332  0.11622  0.06569  Biso   1.000  H
  H224     1.0000 0.97778  0.02753  0.09828  Biso   1.000  H
  O67      1.0000 0.67064  0.85336  0.88905  Biso   1.000  O
  C189     1.0000 0.74565  0.85448  0.90998  Biso   1.000  C
  C190     1.0000 0.74572  0.85447  0.91001  Biso   1.000  C
  C191     1.0000 0.74573  0.85448  0.90998  Biso   1.000  C
  C192     1.0000 0.74564  0.85447  0.91001  Biso   1.000  C
  N109     1.0000 0.77641  0.77451  0.93925  Biso   1.000  N
  N110     1.0000 0.77648  0.77450  0.93928  Biso   1.000  N
  N111     1.0000 0.77649  0.77451  0.93925  Biso   1.000  N
  N112     1.0000 0.81503  0.93098  0.90846  Biso   1.000  N
  N113     1.0000 0.81511  0.93098  0.90846  Biso   1.000  N
  O68      1.0000 0.67072  0.85336  0.88905  Biso   1.000  O
  O69      1.0000 0.67071  0.85344  0.88905  Biso   1.000  O
  C193     1.0000 0.72752  0.67492  0.94450  Biso   1.000  C
  C194     1.0000 0.72761  0.67484  0.94450  Biso   1.000  C
  C195     1.0000 0.72760  0.67492  0.94450  Biso   1.000  C
  C196     1.0000 0.87141  0.79558  0.95780  Biso   1.000  C
  C197     1.0000 0.87148  0.79557  0.95783  Biso   1.000  C
  C198     1.0000 0.87149  0.79558  0.95780  Biso   1.000  C
  C199     1.0000 0.89783  0.90298  0.93649  Biso   1.000  C
  C200     1.0000 0.89790  0.90297  0.93652  Biso   1.000  C
  C201     1.0000 0.89791  0.90298  0.93649  Biso   1.000  C
  C202     1.0000 0.80619  0.01936  0.87999  Biso   1.000  C
  N114     1.0000 0.64842  0.66612  0.97930  Biso   1.000  N
  N115     1.0000 0.64849  0.66611  0.97933  Biso   1.000  N
  N116     1.0000 0.64850  0.66612  0.97930  Biso   1.000  N
  H225     1.0000 0.78556  0.61548  0.94679  Biso   1.000  H
  H226     1.0000 0.69115  0.66868  0.92078  Biso   1.000  H
  H227     1.0000 0.69122  0.66867  0.92081  Biso   1.000  H
  H228     1.0000 0.69123  0.66868  0.92078  Biso   1.000  H
  H229     1.0000 0.78564  0.61548  0.94679  Biso   1.000  H
  H230     1.0000 0.69114  0.66867  0.92081  Biso   1.000  H
  N117     1.0000 0.84450  0.81600  0.99919  Biso   1.000  N
  C203     1.0000 0.96377  0.69797  0.95587  Biso   1.000  C
  N118     1.0000 0.84442  0.81600  0.99919  Biso   1.000  N
  C204     1.0000 0.96376  0.69796  0.95590  Biso   1.000  C
  N119     1.0000 0.88139  0.97307  0.96852  Biso   1.000  N
  N120     1.0000 0.88131  0.97307  0.96852  Biso   1.000  N
  C205     1.0000 0.01311  0.90238  0.91511  Biso   1.000  C
  C206     1.0000 0.01303  0.90238  0.91511  Biso   1.000  C
  H231     1.0000 0.76572  0.00251  0.85868  Biso   1.000  H
  H232     1.0000 0.87962  0.03220  0.86830  Biso   1.000  H
  N121     1.0000 0.75216  0.11731  0.89534  Biso   1.000  N
  H233     1.0000 0.76571  0.00250  0.85871  Biso   1.000  H
  N122     1.0000 0.75207  0.11730  0.89537  Biso   1.000  N
  N123     1.0000 0.75208  0.11731  0.89534  Biso   1.000  N
  H234     1.0000 0.76563  0.00250  0.85871  Biso   1.000  H
  H235     1.0000 0.87954  0.03220  0.86830  Biso   1.000  H
  C207     1.0000 0.53872  0.67219  0.97701  Biso   1.000  C
  C208     1.0000 0.53879  0.67218  0.97704  Biso   1.000  C
  C209     1.0000 0.53880  0.67219  0.97701  Biso   1.000  C
  C210     1.0000 0.67673  0.62881  0.01887  Biso   1.000  C
  C211     1.0000 0.67672  0.62880  0.01890  Biso   1.000  C
  C212     1.0000 0.67664  0.62880  0.01890  Biso   1.000  C
  C213     1.0000 0.82856  0.73433  0.03371  Biso   1.000  C
  C214     1.0000 0.82848  0.73424  0.03374  Biso   1.000  C
  C215     1.0000 0.82848  0.73433  0.03371  Biso   1.000  C
  C216     1.0000 0.82847  0.73432  0.03374  Biso   1.000  C
  C217     1.0000 0.84955  0.91949  0.00465  Biso   1.000  C
  C218     1.0000 0.84947  0.91949  0.00465  Biso   1.000  C
  H236     1.0000 0.98249  0.68343  0.92850  Biso   1.000  H
  H237     1.0000 0.93743  0.63579  0.97119  Biso   1.000  H
  H238     1.0000 0.98258  0.68335  0.92850  Biso   1.000  H
  H239     1.0000 0.93751  0.63579  0.97119  Biso   1.000  H
  H240     1.0000 0.98257  0.68343  0.92850  Biso   1.000  H
  H241     1.0000 0.02803  0.71496  0.96680  Biso   1.000  H
  H242     1.0000 0.02795  0.71496  0.96680  Biso   1.000  H
  H243     1.0000 0.02802  0.71504  0.96680  Biso   1.000  H
  C219     1.0000 0.91139  0.07838  0.96558  Biso   1.000  C
  H244     1.0000 0.06663  0.88376  0.93429  Biso   1.000  H
  H245     1.0000 0.02224  0.97253  0.90169  Biso   1.000  H
  H246     1.0000 0.02363  0.85047  0.89579  Biso   1.000  H
  H247     1.0000 0.06655  0.88376  0.93429  Biso   1.000  H
  H248     1.0000 0.02217  0.97245  0.90169  Biso   1.000  H
  H249     1.0000 0.02355  0.85047  0.89579  Biso   1.000  H
  H250     1.0000 0.02216  0.97253  0.90169  Biso   1.000  H
  C220     1.0000 0.80911  0.19500  0.91149  Biso   1.000  C
  C221     1.0000 0.64763  0.15937  0.88691  Biso   1.000  C
  C222     1.0000 0.64762  0.15936  0.88694  Biso   1.000  C
  C223     1.0000 0.64754  0.15936  0.88694  Biso   1.000  C
  O70      1.0000 0.49231  0.69247  0.94703  Biso   1.000  O
  O71      1.0000 0.49223  0.69247  0.94703  Biso   1.000  O
  N124     1.0000 0.48924  0.64616  0.01344  Biso   1.000  N
  N125     1.0000 0.48924  0.64615  0.01347  Biso   1.000  N
  N126     1.0000 0.48923  0.64624  0.01344  Biso   1.000  N
  N127     1.0000 0.48916  0.64615  0.01347  Biso   1.000  N
  C224     1.0000 0.56496  0.61232  0.04259  Biso   1.000  C
  C225     1.0000 0.56487  0.61231  0.04262  Biso   1.000  C
  C226     1.0000 0.56488  0.61232  0.04259  Biso   1.000  C
  N128     1.0000 0.71657  0.70860  0.03998  Biso   1.000  N
  O72      1.0000 0.75424  0.53269  0.01908  Biso   1.000  O
  N129     1.0000 0.71649  0.70860  0.03998  Biso   1.000  N
  O73      1.0000 0.75416  0.53269  0.01908  Biso   1.000  O
  H251     1.0000 0.87761  0.66943  0.02908  Biso   1.000  H
  H252     1.0000 0.84749  0.76101  0.05770  Biso   1.000  H
  H253     1.0000 0.87761  0.66934  0.02911  Biso   1.000  H
  H254     1.0000 0.87752  0.66942  0.02911  Biso   1.000  H
  O74      1.0000 0.83493  0.95829  0.03642  Biso   1.000  O
  O75      1.0000 0.83485  0.95829  0.03642  Biso   1.000  O
  H255     1.0000 0.97618  0.08261  0.94658  Biso   1.000  H
  H256     1.0000 0.93180  0.09157  0.99150  Biso   1.000  H
  N130     1.0000 0.82814  0.16200  0.95335  Biso   1.000  N
  H257     1.0000 0.97617  0.08261  0.94661  Biso   1.000  H
  N131     1.0000 0.82806  0.16200  0.95335  Biso   1.000  N
  C227     1.0000 0.71405  0.29209  0.91630  Biso   1.000  C
  C228     1.0000 0.91004  0.22330  0.88712  Biso   1.000  C
  C229     1.0000 0.71397  0.29209  0.91630  Biso   1.000  C
  C230     1.0000 0.90995  0.22330  0.88715  Biso   1.000  C
  N132     1.0000 0.62390  0.25678  0.89950  Biso   1.000  N
  O76      1.0000 0.58500  0.11458  0.87061  Biso   1.000  O
  O77      1.0000 0.58499  0.11457  0.87064  Biso   1.000  O
  C231     1.0000 0.37626  0.62386  0.02080  Biso   1.000  C
  C232     1.0000 0.37617  0.62385  0.02083  Biso   1.000  C
  C233     1.0000 0.37625  0.62394  0.02080  Biso   1.000  C
  H258     1.0000 0.56141  0.53668  0.05280  Biso   1.000  H
  N133     1.0000 0.55944  0.67763  0.07412  Biso   1.000  N
  N134     1.0000 0.55937  0.67755  0.07412  Biso   1.000  N
  C234     1.0000 0.65120  0.73147  0.07326  Biso   1.000  C
  C235     1.0000 0.76440  0.22141  0.97995  Biso   1.000  C
  C236     1.0000 0.76440  0.22140  0.97998  Biso   1.000  C
  N135     1.0000 0.69383  0.29499  0.95926  Biso   1.000  N
  N136     1.0000 0.69375  0.29499  0.95926  Biso   1.000  N
  C237     1.0000 0.74444  0.40371  0.89638  Biso   1.000  C
  C238     1.0000 0.74435  0.40371  0.89641  Biso   1.000  C
  H259     1.0000 0.89367  0.24505  0.85998  Biso   1.000  H
  H260     1.0000 0.96490  0.16196  0.88759  Biso   1.000  H
  H261     1.0000 0.93719  0.28128  0.89789  Biso   1.000  H
  H262     1.0000 0.89358  0.24504  0.86001  Biso   1.000  H
  H263     1.0000 0.89358  0.24513  0.85998  Biso   1.000  H
  C239     1.0000 0.52115  0.32496  0.89291  Biso   1.000  C
  C240     1.0000 0.52107  0.32496  0.89291  Biso   1.000  C
  H264     1.0000 0.34832  0.61728  0.99539  Biso   1.000  H
  H265     1.0000 0.34824  0.61728  0.99539  Biso   1.000  H
  H266     1.0000 0.37343  0.55560  0.03698  Biso   1.000  H
  N137     1.0000 0.30628  0.70500  0.04072  Biso   1.000  N
  H267     1.0000 0.37342  0.55559  0.03701  Biso   1.000  H
  N138     1.0000 0.30620  0.70500  0.04072  Biso   1.000  N
  H268     1.0000 0.37334  0.55559  0.03701  Biso   1.000  H
  C241     1.0000 0.47896  0.67502  0.10707  Biso   1.000  C
  C242     1.0000 0.47888  0.67502  0.10707  Biso   1.000  C
  O78      1.0000 0.66993  0.78422  0.09870  Biso   1.000  O
  O79      1.0000 0.66986  0.78414  0.09870  Biso   1.000  O
  O80      1.0000 0.66985  0.78422  0.09870  Biso   1.000  O
  O81      1.0000 0.77365  0.21385  0.01572  Biso   1.000  O
  O82      1.0000 0.77364  0.21393  0.01572  Biso   1.000  O
  C243     1.0000 0.62385  0.37612  0.97918  Biso   1.000  C
  C244     1.0000 0.62378  0.37604  0.97918  Biso   1.000  C
  C245     1.0000 0.62377  0.37612  0.97918  Biso   1.000  C
  H269     1.0000 0.80632  0.42248  0.90808  Biso   1.000  H
  H270     1.0000 0.68254  0.45716  0.90060  Biso   1.000  H
  H271     1.0000 0.76294  0.39995  0.86809  Biso   1.000  H
  H272     1.0000 0.80631  0.42247  0.90811  Biso   1.000  H
  H273     1.0000 0.68246  0.45716  0.90060  Biso   1.000  H
  H274     1.0000 0.76286  0.39995  0.86809  Biso   1.000  H
  H275     1.0000 0.76293  0.40003  0.86809  Biso   1.000  H
  H276     1.0000 0.80623  0.42247  0.90811  Biso   1.000  H
  H277     1.0000 0.53745  0.39860  0.88608  Biso   1.000  H
  H278     1.0000 0.49073  0.30296  0.87008  Biso   1.000  H
  N139     1.0000 0.44067  0.32235  0.92586  Biso   1.000  N
  H279     1.0000 0.53736  0.39859  0.88611  Biso   1.000  H
  H280     1.0000 0.49072  0.30296  0.87011  Biso   1.000  H
  N140     1.0000 0.44059  0.32235  0.92586  Biso   1.000  N
  N141     1.0000 0.44058  0.32243  0.92586  Biso   1.000  N
  H281     1.0000 0.49064  0.30296  0.87011  Biso   1.000  H
  C246     1.0000 0.23563  0.77857  0.02003  Biso   1.000  C
  C247     1.0000 0.28606  0.70789  0.08368  Biso   1.000  C
  C248     1.0000 0.28598  0.70788  0.08371  Biso   1.000  C
  N142     1.0000 0.37613  0.74320  0.10048  Biso   1.000  N
  N143     1.0000 0.37612  0.74320  0.10051  Biso   1.000  N
  H282     1.0000 0.46267  0.60138  0.11390  Biso   1.000  H
  H283     1.0000 0.50930  0.69702  0.12990  Biso   1.000  H
  H284     1.0000 0.46259  0.60138  0.11390  Biso   1.000  H
  H285     1.0000 0.62660  0.44438  0.96300  Biso   1.000  H
  N144     1.0000 0.51087  0.35382  0.98654  Biso   1.000  N
  N145     1.0000 0.51080  0.35374  0.98654  Biso   1.000  N
  N146     1.0000 0.51079  0.35382  0.98654  Biso   1.000  N
  H286     1.0000 0.65163  0.38270  0.00459  Biso   1.000  H
  H287     1.0000 0.65171  0.38270  0.00459  Biso   1.000  H
  C249     1.0000 0.43515  0.38766  0.95739  Biso   1.000  C
  C250     1.0000 0.34883  0.26851  0.92672  Biso   1.000  C
  C251     1.0000 0.43507  0.38766  0.95739  Biso   1.000  C
  C252     1.0000 0.34875  0.26851  0.92672  Biso   1.000  C
  O83      1.0000 0.22623  0.78613  0.98426  Biso   1.000  O
  O84      1.0000 0.22632  0.78605  0.98426  Biso   1.000  O
  O85      1.0000 0.22631  0.78613  0.98426  Biso   1.000  O
  N147     1.0000 0.17197  0.83798  0.04663  Biso   1.000  N
  N148     1.0000 0.17189  0.83798  0.04663  Biso   1.000  N
  C253     1.0000 0.19093  0.80498  0.08849  Biso   1.000  C
  C254     1.0000 0.25567  0.59627  0.10360  Biso   1.000  C
  C255     1.0000 0.25559  0.59627  0.10360  Biso   1.000  C
  C256     1.0000 0.35240  0.84061  0.11307  Biso   1.000  C
  C257     1.0000 0.46115  0.32779  0.02297  Biso   1.000  C
  C258     1.0000 0.32331  0.37117  0.98111  Biso   1.000  C
  H288     1.0000 0.43862  0.46330  0.94718  Biso   1.000  H
  H289     1.0000 0.43861  0.46329  0.94721  Biso   1.000  H
  N149     1.0000 0.28355  0.29138  0.96000  Biso   1.000  N
  N150     1.0000 0.28346  0.29138  0.96000  Biso   1.000  N
  O86      1.0000 0.33018  0.21576  0.90128  Biso   1.000  O
  O87      1.0000 0.33010  0.21576  0.90128  Biso   1.000  O
  C259     1.0000 0.08864  0.92160  0.03440  Biso   1.000  C
  C260     1.0000 0.08863  0.92159  0.03443  Biso   1.000  C
  C261     1.0000 0.08855  0.92159  0.03443  Biso   1.000  C
  C262     1.0000 0.09007  0.77668  0.11286  Biso   1.000  C
  N151     1.0000 0.24795  0.88267  0.10464  Biso   1.000  N
  C263     1.0000 0.08999  0.77668  0.11286  Biso   1.000  C
  N152     1.0000 0.24787  0.88267  0.10464  Biso   1.000  N
  H290     1.0000 0.19371  0.57750  0.09190  Biso   1.000  H
  H291     1.0000 0.31758  0.54282  0.09938  Biso   1.000  H
  H292     1.0000 0.23717  0.60003  0.13189  Biso   1.000  H
  H293     1.0000 0.31749  0.54281  0.09941  Biso   1.000  H
  H294     1.0000 0.23710  0.59995  0.13189  Biso   1.000  H
  H295     1.0000 0.31750  0.54282  0.09938  Biso   1.000  H
  H296     1.0000 0.23709  0.60003  0.13189  Biso   1.000  H
  O88      1.0000 0.41503  0.88540  0.12937  Biso   1.000  O
  O89      1.0000 0.41495  0.88540  0.12937  Biso   1.000  O
  N153     1.0000 0.35145  0.33386  0.02068  Biso   1.000  N
  O90      1.0000 0.50764  0.30751  0.05295  Biso   1.000  O
  O91      1.0000 0.24587  0.46729  0.98090  Biso   1.000  O
  O92      1.0000 0.24578  0.46728  0.98093  Biso   1.000  O
  O93      1.0000 0.24579  0.46729  0.98090  Biso   1.000  O
  C264     1.0000 0.17156  0.26565  0.96626  Biso   1.000  C
  C265     1.0000 0.17155  0.26573  0.96626  Biso   1.000  C
  C266     1.0000 0.17148  0.26565  0.96626  Biso   1.000  C
  H297     1.0000 0.02385  0.91737  0.05340  Biso   1.000  H
  H298     1.0000 0.06823  0.90842  0.00848  Biso   1.000  H
  H299     1.0000 0.06822  0.90841  0.00851  Biso   1.000  H
  H300     1.0000 0.02377  0.91737  0.05340  Biso   1.000  H
  N154     1.0000 0.11856  0.02691  0.03146  Biso   1.000  N
  N155     1.0000 0.11855  0.02690  0.03149  Biso   1.000  N
  N156     1.0000 0.11863  0.02690  0.03149  Biso   1.000  N
  H301     1.0000 0.10645  0.75493  0.14000  Biso   1.000  H
  H302     1.0000 0.03513  0.83802  0.11239  Biso   1.000  H
  H303     1.0000 0.06285  0.71871  0.10208  Biso   1.000  H
  H304     1.0000 0.10646  0.75485  0.14000  Biso   1.000  H
  H305     1.0000 0.06284  0.71870  0.10211  Biso   1.000  H
  H306     1.0000 0.10638  0.75485  0.14000  Biso   1.000  H
  H307     1.0000 0.06276  0.71870  0.10211  Biso   1.000  H
  C267     1.0000 0.19384  0.98062  0.11999  Biso   1.000  C
  C268     1.0000 0.19376  0.98062  0.11999  Biso   1.000  C
  C269     1.0000 0.27235  0.32506  0.05548  Biso   1.000  C
  C270     1.0000 0.27235  0.32505  0.05551  Biso   1.000  C
  C271     1.0000 0.27243  0.32505  0.05551  Biso   1.000  C
  N157     1.0000 0.15545  0.18398  0.00079  Biso   1.000  N
  N158     1.0000 0.15554  0.18398  0.00079  Biso   1.000  N
  H308     1.0000 0.12243  0.33055  0.97090  Biso   1.000  H
  H309     1.0000 0.15255  0.23897  0.94228  Biso   1.000  H
  H310     1.0000 0.15254  0.23896  0.94231  Biso   1.000  H
  H311     1.0000 0.15246  0.23896  0.94231  Biso   1.000  H
  C272     1.0000 0.15056  0.08050  0.99533  Biso   1.000  C
  C273     1.0000 0.15048  0.08050  0.99533  Biso   1.000  C
  C274     1.0000 0.10204  0.09700  0.06349  Biso   1.000  C
  C275     1.0000 0.10212  0.09700  0.06349  Biso   1.000  C
  H312     1.0000 0.23431  0.99747  0.14130  Biso   1.000  H
  H313     1.0000 0.12049  0.96778  0.13168  Biso   1.000  H
  H314     1.0000 0.12040  0.96777  0.13171  Biso   1.000  H
  H315     1.0000 0.12041  0.96778  0.13168  Biso   1.000  H
  N159     1.0000 0.18484  0.06900  0.09152  Biso   1.000  N
  N160     1.0000 0.18483  0.06899  0.09155  Biso   1.000  N
  N161     1.0000 0.18491  0.06899  0.09155  Biso   1.000  N
  N162     1.0000 0.22346  0.22547  0.06073  Biso   1.000  N
  H316     1.0000 0.30872  0.33130  0.07920  Biso   1.000  H
  H317     1.0000 0.21439  0.38450  0.05319  Biso   1.000  H
  H318     1.0000 0.21431  0.38450  0.05319  Biso   1.000  H
  H319     1.0000 0.30880  0.33130  0.07920  Biso   1.000  H
  C276     1.0000 0.12846  0.20440  0.04218  Biso   1.000  C
  O94      1.0000 0.16518  0.04170  0.96356  Biso   1.000  O
  O95      1.0000 0.16509  0.04169  0.96359  Biso   1.000  O
  O96      1.0000 0.16510  0.04170  0.96356  Biso   1.000  O
  C277     1.0000 0.98684  0.09761  0.08487  Biso   1.000  C
  C278     1.0000 0.98683  0.09760  0.08490  Biso   1.000  C
  C279     1.0000 0.25422  0.14551  0.09000  Biso   1.000  C
  C280     1.0000 0.25430  0.14551  0.09000  Biso   1.000  C
  C281     1.0000 0.03618  0.30201  0.04411  Biso   1.000  C
  C282     1.0000 0.03610  0.30201  0.04411  Biso   1.000  C
  H320     1.0000 0.93340  0.11622  0.06569  Biso   1.000  H
  H321     1.0000 0.97779  0.02746  0.09828  Biso   1.000  H
  H322     1.0000 0.97640  0.14951  0.10419  Biso   1.000  H
  H323     1.0000 0.93333  0.11614  0.06569  Biso   1.000  H
  H324     1.0000 0.97771  0.02745  0.09831  Biso   1.000  H
  H325     1.0000 0.97632  0.14951  0.10419  Biso   1.000  H
  H326     1.0000 0.93332  0.11622  0.06569  Biso   1.000  H
  H327     1.0000 0.97778  0.02753  0.09828  Biso   1.000  H
  O97      1.0000 0.32923  0.14662  0.11093  Biso   1.000  O
  O98      1.0000 0.32923  0.14654  0.11096  Biso   1.000  O
  O99      1.0000 0.32930  0.14662  0.11096  Biso   1.000  O
  H328     1.0000 0.97200  0.28502  0.03318  Biso   1.000  H
  H329     1.0000 0.97192  0.28493  0.03321  Biso   1.000  H
  H330     1.0000 0.97192  0.28502  0.03318  Biso   1.000  H
  H331     1.0000 0.97191  0.28501  0.03321  Biso   1.000  H
  H332     1.0000 0.01738  0.31655  0.07148  Biso   1.000  H
  H333     1.0000 0.06244  0.36419  0.02879  Biso   1.000  H
  H334     1.0000 0.01737  0.31654  0.07151  Biso   1.000  H
  H335     1.0000 0.01737  0.31663  0.07148  Biso   1.000  H
  H336     1.0000 0.06252  0.36419  0.02879  Biso   1.000  H
  O100     1.0000 0.53107  0.62501  0.75890  Biso   1.000  O
  C283     1.0000 0.62118  0.59711  0.74459  Biso   1.000  C
  N163     1.0000 0.68364  0.65131  0.71692  Biso   1.000  N
  N164     1.0000 0.68110  0.49941  0.75560  Biso   1.000  N
  C284     1.0000 0.64203  0.75799  0.70163  Biso   1.000  C
  C285     1.0000 0.79448  0.59767  0.70834  Biso   1.000  C
  C286     1.0000 0.79270  0.49229  0.73729  Biso   1.000  C
  C287     1.0000 0.64450  0.43439  0.79034  Biso   1.000  C
  N165     1.0000 0.59277  0.76321  0.66420  Biso   1.000  N
  H337     1.0000 0.58747  0.78798  0.72149  Biso   1.000  H
  H338     1.0000 0.70215  0.80240  0.69780  Biso   1.000  H
  N166     1.0000 0.80998  0.55741  0.66862  Biso   1.000  N
  C288     1.0000 0.88347  0.66779  0.71211  Biso   1.000  C
  N167     1.0000 0.81460  0.40907  0.70968  Biso   1.000  N
  C289     1.0000 0.87736  0.47747  0.76697  Biso   1.000  C
  N168     1.0000 0.61157  0.33392  0.78096  Biso   1.000  N
  H339     1.0000 0.70323  0.41879  0.80800  Biso   1.000  H
  H340     1.0000 0.58237  0.47386  0.80459  Biso   1.000  H
  C290     1.0000 0.48154  0.76598  0.66333  Biso   1.000  C
  C291     1.0000 0.65047  0.76537  0.62489  Biso   1.000  C
  C292     1.0000 0.81836  0.62190  0.63047  Biso   1.000  C
  C293     1.0000 0.82460  0.44849  0.67111  Biso   1.000  C
  H341     1.0000 0.87274  0.69452  0.73800  Biso   1.000  H
  H342     1.0000 0.95446  0.62637  0.70911  Biso   1.000  H
  H343     1.0000 0.87978  0.72728  0.69169  Biso   1.000  H
  C294     1.0000 0.84053  0.29676  0.72143  Biso   1.000  C
  H344     1.0000 0.86356  0.53461  0.78419  Biso   1.000  H
  H345     1.0000 0.87328  0.40970  0.78280  Biso   1.000  H
  H346     1.0000 0.94948  0.47882  0.75290  Biso   1.000  H
  C295     1.0000 0.50801  0.31028  0.78951  Biso   1.000  C
  C296     1.0000 0.69011  0.23952  0.77437  Biso   1.000  C
  N169     1.0000 0.45971  0.76616  0.62611  Biso   1.000  N
  O101     1.0000 0.41520  0.76931  0.69385  Biso   1.000  O
  C297     1.0000 0.55456  0.77538  0.59663  Biso   1.000  C
  N170     1.0000 0.71170  0.66398  0.61628  Biso   1.000  N
  C298     1.0000 0.72767  0.85818  0.61622  Biso   1.000  C
  H347     1.0000 0.85923  0.68160  0.63291  Biso   1.000  H
  H348     1.0000 0.85984  0.57858  0.61070  Biso   1.000  H
  O102     1.0000 0.84920  0.39570  0.64255  Biso   1.000  O
  N171     1.0000 0.74547  0.24158  0.73482  Biso   1.000  N
  H349     1.0000 0.88056  0.26306  0.69881  Biso   1.000  H
  H350     1.0000 0.88879  0.28841  0.74281  Biso   1.000  H
  N172     1.0000 0.50525  0.20361  0.78529  Biso   1.000  N
  O103     1.0000 0.42906  0.36686  0.80135  Biso   1.000  O
  C299     1.0000 0.61411  0.15069  0.77546  Biso   1.000  C
  O104     1.0000 0.76068  0.22806  0.80364  Biso   1.000  O
  C300     1.0000 0.34705  0.78619  0.61592  Biso   1.000  C
  N173     1.0000 0.58437  0.68205  0.57430  Biso   1.000  N
  C301     1.0000 0.53737  0.87867  0.56869  Biso   1.000  C
  C302     1.0000 0.67350  0.61862  0.58659  Biso   1.000  C
  H351     1.0000 0.68567  0.92550  0.62159  Biso   1.000  H
  H352     1.0000 0.78696  0.84348  0.63320  Biso   1.000  H
  H353     1.0000 0.75726  0.86200  0.58861  Biso   1.000  H
  C303     1.0000 0.71327  0.16673  0.71273  Biso   1.000  C
  C304     1.0000 0.41206  0.14711  0.79951  Biso   1.000  C
  N174     1.0000 0.63026  0.11866  0.73518  Biso   1.000  N
  O105     1.0000 0.63710  0.05600  0.79963  Biso   1.000  O
  N175     1.0000 0.30487  0.69368  0.60432  Biso   1.000  N
  H354     1.0000 0.34239  0.84312  0.59410  Biso   1.000  H
  H355     1.0000 0.30058  0.81158  0.63881  Biso   1.000  H
  C305     1.0000 0.52995  0.65312  0.54325  Biso   1.000  C
  H356     1.0000 0.51834  0.93869  0.58431  Biso   1.000  H
  H357     1.0000 0.60408  0.88836  0.55180  Biso   1.000  H
  H358     1.0000 0.47880  0.87411  0.55239  Biso   1.000  H
  O106     1.0000 0.71806  0.54029  0.57163  Biso   1.000  O
  O107     1.0000 0.75458  0.14584  0.68061  Biso   1.000  O
  N176     1.0000 0.35167  0.12449  0.76822  Biso   1.000  N
  H359     1.0000 0.36321  0.18981  0.81771  Biso   1.000  H
  H360     1.0000 0.43741  0.08003  0.81450  Biso   1.000  H
  C306     1.0000 0.58920  0.02677  0.72390  Biso   1.000  C
  C307     1.0000 0.32475  0.65719  0.56590  Biso   1.000  C
  C308     1.0000 0.22196  0.64592  0.62738  Biso   1.000  C
  N177     1.0000 0.42898  0.60217  0.55655  Biso   1.000  N
  H361     1.0000 0.51107  0.71708  0.52541  Biso   1.000  H
  H362     1.0000 0.58055  0.60402  0.52799  Biso   1.000  H
  C309     1.0000 0.26208  0.18971  0.75730  Biso   1.000  C
  C310     1.0000 0.38168  0.03328  0.74509  Biso   1.000  C
  N178     1.0000 0.47529  0.04599  0.71529  Biso   1.000  N
  H363     1.0000 0.63389  0.00300  0.70030  Biso   1.000  H
  H364     1.0000 0.59669  0.96921  0.74539  Biso   1.000  H
  C311     1.0000 0.24511  0.57105  0.56670  Biso   1.000  C
  O108     1.0000 0.29726  0.74798  0.54090  Biso   1.000  O
  N179     1.0000 0.19027  0.57022  0.60639  Biso   1.000  N
  O109     1.0000 0.17892  0.66923  0.66025  Biso   1.000  O
  C312     1.0000 0.42517  0.49646  0.55138  Biso   1.000  C
  N180     1.0000 0.22456  0.15123  0.72583  Biso   1.000  N
  O110     1.0000 0.21995  0.26852  0.77312  Biso   1.000  O
  C313     1.0000 0.28234  0.04571  0.71757  Biso   1.000  C
  C314     1.0000 0.39255  0.92891  0.77083  Biso   1.000  C
  C315     1.0000 0.44892  0.04821  0.67726  Biso   1.000  C
  N181     1.0000 0.31798  0.47517  0.55976  Biso   1.000  N
  O111     1.0000 0.16941  0.59452  0.53844  Biso   1.000  O
  C316     1.0000 0.09552  0.51645  0.61895  Biso   1.000  C
  O112     1.0000 0.50218  0.43017  0.54242  Biso   1.000  O
  C317     1.0000 0.12083  0.19580  0.71271  Biso   1.000  C
  N182     1.0000 0.33831  0.04762  0.67770  Biso   1.000  N
  C318     1.0000 0.20951  0.96011  0.72470  Biso   1.000  C
  H365     1.0000 0.41099  0.87101  0.75409  Biso   1.000  H
  H366     1.0000 0.44981  0.92867  0.78820  Biso   1.000  H
  H367     1.0000 0.32412  0.91989  0.78669  Biso   1.000  H
  O113     1.0000 0.51555  0.04322  0.64760  Biso   1.000  O
  C319     1.0000 0.28228  0.37828  0.54969  Biso   1.000  C
  N183     1.0000 0.12050  0.40337  0.63151  Biso   1.000  N
  H368     1.0000 0.05392  0.55109  0.64101  Biso   1.000  H
  H369     1.0000 0.04901  0.52431  0.59701  Biso   1.000  H
  N184     1.0000 0.12864  0.25748  0.67441  Biso   1.000  N
  H370     1.0000 0.07662  0.13780  0.71131  Biso   1.000  H
  H371     1.0000 0.08286  0.24143  0.73239  Biso   1.000  H
  C320     1.0000 0.28648  0.05279  0.64107  Biso   1.000  C
  H372     1.0000 0.17301  0.96029  0.75130  Biso   1.000  H
  H373     1.0000 0.15551  0.97221  0.70561  Biso   1.000  H
  H374     1.0000 0.25237  0.89183  0.72179  Biso   1.000  H
  H375     1.0000 0.22170  0.39671  0.53301  Biso   1.000  H
  H376     1.0000 0.34238  0.33930  0.53419  Biso   1.000  H
  N185     1.0000 0.24698  0.30939  0.58502  Biso   1.000  N
  C321     1.0000 0.13621  0.32109  0.60515  Biso   1.000  C
  C322     1.0000 0.11203  0.36731  0.67085  Biso   1.000  C
  C323     1.0000 0.13901  0.21591  0.63513  Biso   1.000  C
  N186     1.0000 0.24683  0.15956  0.62513  Biso   1.000  N
  H377     1.0000 0.33906  0.02048  0.62100  Biso   1.000  H
  H378     1.0000 0.22500  0.01012  0.64579  Biso   1.000  H
  C324     1.0000 0.30471  0.21337  0.59532  Biso   1.000  C
  C325     1.0000 0.05173  0.33060  0.57549  Biso   1.000  C
  O114     1.0000 0.09258  0.42070  0.69866  Biso   1.000  O
  C326     1.0000 0.04992  0.14689  0.63261  Biso   1.000  C
  O115     1.0000 0.39377  0.17862  0.57849  Biso   1.000  O
  H379     1.0000 0.06800  0.27271  0.55869  Biso   1.000  H
  H380     1.0000 0.05308  0.39802  0.55919  Biso   1.000  H
  H381     1.0000 0.97978  0.32718  0.58959  Biso   1.000  H
  H382     1.0000 0.05236  0.12747  0.60571  Biso   1.000  H
  H383     1.0000 0.06039  0.08300  0.65081  Biso   1.000  H
  H384     1.0000 0.97944  0.18588  0.63970  Biso   1.000  H
  C327     1.0000 0.71769  0.62170  0.45033  Biso   1.000  C
  N187     1.0000 0.68200  0.52482  0.44023  Biso   1.000  N
  H385     1.0000 0.77827  0.60327  0.46701  Biso   1.000  H
  H386     1.0000 0.65760  0.66069  0.46580  Biso   1.000  H
  N188     1.0000 0.75299  0.69060  0.41500  Biso   1.000  N
  C328     1.0000 0.75487  0.42886  0.43329  Biso   1.000  C
  C329     1.0000 0.57480  0.50353  0.44861  Biso   1.000  C
  C330     1.0000 0.86376  0.67889  0.39487  Biso   1.000  C
  C331     1.0000 0.69526  0.78662  0.40467  Biso   1.000  C
  C332     1.0000 0.67514  0.34280  0.43409  Biso   1.000  C
  N189     1.0000 0.80970  0.42977  0.39360  Biso   1.000  N
  O116     1.0000 0.83055  0.40546  0.46158  Biso   1.000  O
  N190     1.0000 0.57099  0.39782  0.44344  Biso   1.000  N
  O117     1.0000 0.49779  0.56982  0.45757  Biso   1.000  O
  N191     1.0000 0.87946  0.59661  0.36851  Biso   1.000  N
  C333     1.0000 0.86096  0.78407  0.36489  Biso   1.000  C
  C334     1.0000 0.94824  0.66939  0.42453  Biso   1.000  C
  N192     1.0000 0.75316  0.84035  0.37486  Biso   1.000  N
  O118     1.0000 0.60620  0.82136  0.42153  Biso   1.000  O
  N193     1.0000 0.69510  0.30631  0.39570  Biso   1.000  N
  O119     1.0000 0.70263  0.25201  0.45909  Biso   1.000  O
  C335     1.0000 0.77794  0.35407  0.37261  Biso   1.000  C
  C336     1.0000 0.90445  0.48353  0.38107  Biso   1.000  C
  C337     1.0000 0.47002  0.34687  0.45674  Biso   1.000  C
  C338     1.0000 0.88795  0.63268  0.32914  Biso   1.000  C
  N194     1.0000 0.87134  0.74251  0.32558  Biso   1.000  N
  C339     1.0000 0.95005  0.85310  0.36738  Biso   1.000  C
  H387     1.0000 0.93197  0.72728  0.44130  Biso   1.000  H
  H388     1.0000 0.94689  0.60197  0.44080  Biso   1.000  H
  H389     1.0000 0.02028  0.67281  0.41040  Biso   1.000  H
  C340     1.0000 0.71350  0.94720  0.35892  Biso   1.000  C
  C341     1.0000 0.65285  0.21380  0.38407  Biso   1.000  C
  O120     1.0000 0.82106  0.33076  0.33974  Biso   1.000  O
  H390     1.0000 0.94605  0.44889  0.35901  Biso   1.000  H
  H391     1.0000 0.95095  0.47567  0.40301  Biso   1.000  H
  N195     1.0000 0.41560  0.31794  0.42569  Biso   1.000  N
  H392     1.0000 0.48890  0.28291  0.47461  Biso   1.000  H
  H393     1.0000 0.41935  0.39597  0.47200  Biso   1.000  H
  O121     1.0000 0.90740  0.57929  0.30133  Biso   1.000  O
  C342     1.0000 0.87914  0.80419  0.28731  Biso   1.000  C
  H394     1.0000 0.94753  0.87251  0.39431  Biso   1.000  H
  H395     1.0000 0.93958  0.91698  0.34921  Biso   1.000  H
  H396     1.0000 0.02062  0.81411  0.36029  Biso   1.000  H
  N196     1.0000 0.66167  0.95237  0.32229  Biso   1.000  N
  H397     1.0000 0.66091  0.97951  0.37899  Biso   1.000  H
  H398     1.0000 0.77498  0.98987  0.35420  Biso   1.000  H
  N197     1.0000 0.54026  0.23383  0.37388  Biso   1.000  N
  H399     1.0000 0.65759  0.15687  0.40589  Biso   1.000  H
  H400     1.0000 0.69939  0.18840  0.36121  Biso   1.000  H
  C343     1.0000 0.44542  0.22461  0.40336  Biso   1.000  C
  C344     1.0000 0.32648  0.38137  0.41340  Biso   1.000  C
  N198     1.0000 0.77541  0.84876  0.27416  Biso   1.000  N
  H401     1.0000 0.92335  0.86218  0.28871  Biso   1.000  H
  H402     1.0000 0.91703  0.75856  0.26760  Biso   1.000  H
  C345     1.0000 0.71754  0.95428  0.28245  Biso   1.000  C
  C346     1.0000 0.55106  0.95178  0.32273  Biso   1.000  C
  C347     1.0000 0.51834  0.23401  0.33668  Biso   1.000  C
  C348     1.0000 0.34950  0.23462  0.37510  Biso   1.000  C
  C349     1.0000 0.46261  0.12132  0.43130  Biso   1.000  C
  N199     1.0000 0.28828  0.33601  0.38371  Biso   1.000  N
  O122     1.0000 0.28192  0.45970  0.42836  Biso   1.000  O
  C350     1.0000 0.73789  0.81027  0.24272  Biso   1.000  C
  C351     1.0000 0.61828  0.96670  0.25493  Biso   1.000  C
  C352     1.0000 0.79045  0.03987  0.27532  Biso   1.000  C
  N200     1.0000 0.52468  0.95400  0.28470  Biso   1.000  N
  O123     1.0000 0.48442  0.95676  0.35242  Biso   1.000  O
  N201     1.0000 0.40720  0.23677  0.33582  Biso   1.000  N
  O124     1.0000 0.58478  0.23068  0.30614  Biso   1.000  O
  C353     1.0000 0.27231  0.14181  0.38377  Biso   1.000  C
  H403     1.0000 0.48155  0.06130  0.41571  Biso   1.000  H
  H404     1.0000 0.39590  0.11163  0.44819  Biso   1.000  H
  H405     1.0000 0.52118  0.12588  0.44760  Biso   1.000  H
  C354     1.0000 0.18162  0.37809  0.36952  Biso   1.000  C
  N202     1.0000 0.64830  0.87549  0.23180  Biso   1.000  N
  O125     1.0000 0.77994  0.73147  0.22687  Biso   1.000  O
  C355     1.0000 0.60734  0.07107  0.22919  Biso   1.000  C
  H406     1.0000 0.82697  0.03970  0.24869  Biso   1.000  H
  H407     1.0000 0.84445  0.02777  0.29441  Biso   1.000  H
  H408     1.0000 0.74761  0.10816  0.27820  Biso   1.000  H
  C356     1.0000 0.41077  0.97321  0.27612  Biso   1.000  C
  C357     1.0000 0.35786  0.24200  0.29836  Biso   1.000  C
  H409     1.0000 0.31430  0.07449  0.37840  Biso   1.000  H
  H410     1.0000 0.21301  0.15651  0.36679  Biso   1.000  H
  H411     1.0000 0.24270  0.13798  0.41141  Biso   1.000  H
  N203     1.0000 0.18999  0.44257  0.33140  Biso   1.000  N
  H412     1.0000 0.14066  0.31838  0.36711  Biso   1.000  H
  H413     1.0000 0.14014  0.42141  0.38929  Biso   1.000  H
  C358     1.0000 0.58791  0.85288  0.20048  Biso   1.000  C
  H414     1.0000 0.58899  0.12898  0.24590  Biso   1.000  H
  H415     1.0000 0.55017  0.07132  0.21179  Biso   1.000  H
  H416     1.0000 0.67586  0.08010  0.21330  Biso   1.000  H
  N204     1.0000 0.36973  0.88125  0.26481  Biso   1.000  N
  H417     1.0000 0.36608  0.99699  0.29969  Biso   1.000  H
  H418     1.0000 0.40329  0.03078  0.25460  Biso   1.000  H
  N205     1.0000 0.31626  0.34868  0.28307  Biso   1.000  N
  H419     1.0000 0.41251  0.21201  0.27850  Biso   1.000  H
  H420     1.0000 0.29783  0.19759  0.30219  Biso   1.000  H
  C359     1.0000 0.20548  0.40231  0.29168  Biso   1.000  C
  C360     1.0000 0.17537  0.55150  0.32888  Biso   1.000  C
  N206     1.0000 0.49472  0.79638  0.21470  Biso   1.000  N
  H421     1.0000 0.63676  0.81017  0.18231  Biso   1.000  H
  H422     1.0000 0.56257  0.91997  0.18549  Biso   1.000  H
  C361     1.0000 0.38586  0.84930  0.22453  Biso   1.000  C
  C362     1.0000 0.28670  0.83327  0.28726  Biso   1.000  C
  C363     1.0000 0.37880  0.40288  0.25540  Biso   1.000  C
  C364     1.0000 0.20728  0.50770  0.26270  Biso   1.000  C
  C365     1.0000 0.11650  0.33220  0.28788  Biso   1.000  C
  N207     1.0000 0.18536  0.59091  0.29034  Biso   1.000  N
  O126     1.0000 0.15078  0.60429  0.35744  Biso   1.000  O
  C366     1.0000 0.49196  0.68971  0.21051  Biso   1.000  C
  C367     1.0000 0.30987  0.76047  0.22562  Biso   1.000  C
  O127     1.0000 0.36288  0.94399  0.20036  Biso   1.000  O
  N208     1.0000 0.25449  0.75840  0.26520  Biso   1.000  N
  O128     1.0000 0.24539  0.85415  0.31938  Biso   1.000  O
  N209     1.0000 0.31888  0.50058  0.24439  Biso   1.000  N
  O129     1.0000 0.46890  0.37498  0.24112  Biso   1.000  O
  C368     1.0000 0.12261  0.52252  0.23302  Biso   1.000  C
  H423     1.0000 0.12724  0.30547  0.26199  Biso   1.000  H
  H424     1.0000 0.04551  0.37361  0.29091  Biso   1.000  H
  H425     1.0000 0.12020  0.27271  0.30830  Biso   1.000  H
  C369     1.0000 0.15936  0.70323  0.27859  Biso   1.000  C
  N210     1.0000 0.38840  0.66606  0.21906  Biso   1.000  N
  O130     1.0000 0.57092  0.63305  0.19864  Biso   1.000  O
  O131     1.0000 0.23931  0.77185  0.19635  Biso   1.000  O
  C370     1.0000 0.35547  0.56560  0.20965  Biso   1.000  C
  H426     1.0000 0.13642  0.46538  0.21580  Biso   1.000  H
  H427     1.0000 0.12669  0.59029  0.21719  Biso   1.000  H
  H428     1.0000 0.05049  0.52117  0.24709  Biso   1.000  H
  H429     1.0000 0.11941  0.73692  0.30121  Biso   1.000  H
  H430     1.0000 0.11118  0.71157  0.25721  Biso   1.000  H
  H431     1.0000 0.29666  0.58120  0.19199  Biso   1.000  H
  H432     1.0000 0.41761  0.52613  0.19540  Biso   1.000  H
