data_image0
_cell_length_a       19.727
_cell_length_b       19.727
_cell_length_c       19.727
_cell_angle_alpha    90
_cell_angle_beta     90
_cell_angle_gamma    90

_symmetry_space_group_name_H-M    "P 1"
_symmetry_int_tables_number       1

loop_
  _symmetry_equiv_pos_as_xyz
  'x, y, z'

loop_
  _atom_site_label
  _atom_site_occupancy
  _atom_site_fract_x
  _atom_site_fract_y
  _atom_site_fract_z
  _atom_site_thermal_displace_type
  _atom_site_B_iso_or_equiv
  _atom_site_type_symbol
  C1       1.0000 0.21990  0.00350  0.03832  Biso   1.000  C
  N1       1.0000 0.27556  0.96720  0.07142  Biso   1.000  N
  H1       1.0000 0.22299  0.05221  0.05008  Biso   1.000  H
  C2       1.0000 0.21990  0.99650  0.96168  Biso   1.000  C
  H2       1.0000 0.17631  0.98621  0.05622  Biso   1.000  H
  C3       1.0000 0.33350  0.00091  0.08597  Biso   1.000  C
  C4       1.0000 0.21990  0.00350  0.03827  Biso   1.000  C
  C5       1.0000 0.26882  0.89329  0.07462  Biso   1.000  C
  H3       1.0000 0.22299  0.94779  0.94992  Biso   1.000  H
  N2       1.0000 0.27556  0.03280  0.92858  Biso   1.000  N
  H4       1.0000 0.17631  0.01379  0.94378  Biso   1.000  H
  N3       1.0000 0.27556  0.03280  0.92852  Biso   1.000  N
  O1       1.0000 0.34182  0.06129  0.07320  Biso   1.000  O
  C6       1.0000 0.38952  0.96198  0.11913  Biso   1.000  C
  C7       1.0000 0.20733  0.87063  0.11487  Biso   1.000  C
  H5       1.0000 0.31008  0.87398  0.09561  Biso   1.000  H
  H6       1.0000 0.26542  0.87520  0.02798  Biso   1.000  H
  H7       1.0000 0.26537  0.87520  0.02798  Biso   1.000  H
  C8       1.0000 0.33350  0.99909  0.91403  Biso   1.000  C
  C9       1.0000 0.26882  0.10671  0.92538  Biso   1.000  C
  C10      1.0000 0.39590  0.97790  0.18842  Biso   1.000  C
  C11      1.0000 0.44822  0.93522  0.08471  Biso   1.000  C
  C12      1.0000 0.39590  0.97790  0.18837  Biso   1.000  C
  C13      1.0000 0.44817  0.93522  0.08471  Biso   1.000  C
  C14      1.0000 0.43078  0.92690  0.08050  Biso   1.000  C
  C15      1.0000 0.38982  0.94358  0.18771  Biso   1.000  C
  C16      1.0000 0.18574  0.90617  0.17185  Biso   1.000  C
  C17      1.0000 0.17185  0.81426  0.09383  Biso   1.000  C
  O2       1.0000 0.34182  0.93871  0.92680  Biso   1.000  O
  C18      1.0000 0.38952  0.03802  0.88087  Biso   1.000  C
  C19      1.0000 0.20733  0.12937  0.88513  Biso   1.000  C
  H8       1.0000 0.31008  0.12602  0.90439  Biso   1.000  H
  H9       1.0000 0.26542  0.12480  0.97202  Biso   1.000  H
  C20      1.0000 0.20733  0.12937  0.88508  Biso   1.000  C
  H10      1.0000 0.31008  0.12597  0.90439  Biso   1.000  H
  H11      1.0000 0.26537  0.12480  0.97202  Biso   1.000  H
  H12      1.0000 0.36392  0.00370  0.21362  Biso   1.000  H
  C21      1.0000 0.46018  0.94850  0.21752  Biso   1.000  C
  C22      1.0000 0.43549  0.90688  0.22010  Biso   1.000  C
  H13      1.0000 0.35271  0.95929  0.21402  Biso   1.000  H
  C23      1.0000 0.49409  0.89938  0.11380  Biso   1.000  C
  H14      1.0000 0.45319  0.94459  0.03771  Biso   1.000  H
  H15      1.0000 0.42140  0.91930  0.03391  Biso   1.000  H
  H16      1.0000 0.20992  0.94520  0.18639  Biso   1.000  H
  C24      1.0000 0.12937  0.88513  0.20733  Biso   1.000  C
  C25      1.0000 0.12937  0.88508  0.20733  Biso   1.000  C
  C26      1.0000 0.11487  0.79267  0.12937  Biso   1.000  C
  H17      1.0000 0.18639  0.79008  0.05480  Biso   1.000  H
  C27      1.0000 0.39590  0.02210  0.81158  Biso   1.000  C
  C28      1.0000 0.44822  0.06478  0.91529  Biso   1.000  C
  C29      1.0000 0.44817  0.06478  0.91529  Biso   1.000  C
  C30      1.0000 0.43078  0.07310  0.91950  Biso   1.000  C
  C31      1.0000 0.38982  0.05642  0.81229  Biso   1.000  C
  C32      1.0000 0.18574  0.09383  0.82815  Biso   1.000  C
  C33      1.0000 0.17185  0.18574  0.90617  Biso   1.000  C
  C34      1.0000 0.18574  0.09383  0.82810  Biso   1.000  C
  C35      1.0000 0.50281  0.91281  0.17960  Biso   1.000  C
  H18      1.0000 0.47042  0.95559  0.26411  Biso   1.000  H
  H19      1.0000 0.47037  0.95559  0.26411  Biso   1.000  H
  C36      1.0000 0.49029  0.88402  0.18031  Biso   1.000  C
  H20      1.0000 0.43169  0.89679  0.26699  Biso   1.000  H
  H21      1.0000 0.52618  0.87352  0.08891  Biso   1.000  H
  H22      1.0000 0.52618  0.87347  0.08891  Biso   1.000  H
  C37      1.0000 0.09383  0.82815  0.18574  Biso   1.000  C
  C38      1.0000 0.10671  0.92538  0.26882  Biso   1.000  C
  C39      1.0000 0.09383  0.82810  0.18574  Biso   1.000  C
  C40      1.0000 0.07462  0.73118  0.10671  Biso   1.000  C
  H23      1.0000 0.36392  0.99630  0.78638  Biso   1.000  H
  C41      1.0000 0.46018  0.05150  0.78248  Biso   1.000  C
  C42      1.0000 0.43549  0.09312  0.77990  Biso   1.000  C
  H24      1.0000 0.35271  0.04071  0.78598  Biso   1.000  H
  C43      1.0000 0.49409  0.10062  0.88620  Biso   1.000  C
  H25      1.0000 0.45319  0.05541  0.96229  Biso   1.000  H
  C44      1.0000 0.49409  0.10057  0.88620  Biso   1.000  C
  H26      1.0000 0.42140  0.08070  0.96609  Biso   1.000  H
  H27      1.0000 0.20992  0.05480  0.81361  Biso   1.000  H
  C45      1.0000 0.12937  0.11487  0.79267  Biso   1.000  C
  H28      1.0000 0.18639  0.20992  0.94520  Biso   1.000  H
  C46      1.0000 0.11487  0.20733  0.87063  Biso   1.000  C
  Br1      1.0000 0.57794  0.86724  0.22036  Biso   1.000  Br
  Br2      1.0000 0.56369  0.83844  0.22619  Biso   1.000  Br
  H29      1.0000 0.05480  0.81361  0.20992  Biso   1.000  H
  N4       1.0000 0.03280  0.92858  0.27556  Biso   1.000  N
  H30      1.0000 0.12602  0.90439  0.31008  Biso   1.000  H
  H31      1.0000 0.12480  0.97202  0.26542  Biso   1.000  H
  H32      1.0000 0.12480  0.97202  0.26537  Biso   1.000  H
  N5       1.0000 0.03280  0.92852  0.27556  Biso   1.000  N
  H33      1.0000 0.12597  0.90439  0.31008  Biso   1.000  H
  N6       1.0000 0.07142  0.72444  0.03280  Biso   1.000  N
  H34      1.0000 0.09561  0.68992  0.12602  Biso   1.000  H
  H35      1.0000 0.02798  0.73458  0.12480  Biso   1.000  H
  H36      1.0000 0.09561  0.68992  0.12597  Biso   1.000  H
  C47      1.0000 0.50281  0.08719  0.82040  Biso   1.000  C
  H37      1.0000 0.47042  0.04441  0.73589  Biso   1.000  H
  H38      1.0000 0.47037  0.04441  0.73589  Biso   1.000  H
  C48      1.0000 0.49029  0.11598  0.81969  Biso   1.000  C
  H39      1.0000 0.43169  0.10321  0.73301  Biso   1.000  H
  H40      1.0000 0.52618  0.12648  0.91109  Biso   1.000  H
  C49      1.0000 0.10671  0.07462  0.73118  Biso   1.000  C
  C50      1.0000 0.09383  0.17185  0.81426  Biso   1.000  C
  C51      1.0000 0.07462  0.26882  0.89329  Biso   1.000  C
  C52      1.0000 0.99650  0.96168  0.21990  Biso   1.000  C
  C53      1.0000 0.99909  0.91403  0.33350  Biso   1.000  C
  C54      1.0000 0.03832  0.78010  0.99650  Biso   1.000  C
  C55      1.0000 0.08597  0.66650  0.99909  Biso   1.000  C
  C56      1.0000 0.03827  0.78010  0.99650  Biso   1.000  C
  Br3      1.0000 0.57794  0.13276  0.77964  Biso   1.000  Br
  Br4      1.0000 0.56369  0.16156  0.77381  Biso   1.000  Br
  N7       1.0000 0.03280  0.07142  0.72444  Biso   1.000  N
  H41      1.0000 0.12602  0.09561  0.68992  Biso   1.000  H
  H42      1.0000 0.12480  0.02798  0.73458  Biso   1.000  H
  H43      1.0000 0.12597  0.09561  0.68992  Biso   1.000  H
  H44      1.0000 0.05480  0.18639  0.79008  Biso   1.000  H
  N8       1.0000 0.07142  0.27556  0.96720  Biso   1.000  N
  H45      1.0000 0.09561  0.31008  0.87398  Biso   1.000  H
  H46      1.0000 0.02798  0.26542  0.87520  Biso   1.000  H
  H47      1.0000 0.02798  0.26537  0.87520  Biso   1.000  H
  C57      1.0000 0.00350  0.03832  0.21990  Biso   1.000  C
  C58      1.0000 0.00350  0.03827  0.21990  Biso   1.000  C
  H48      1.0000 0.94779  0.94992  0.22299  Biso   1.000  H
  H49      1.0000 0.01379  0.94378  0.17631  Biso   1.000  H
  O3       1.0000 0.93871  0.92680  0.34182  Biso   1.000  O
  C59      1.0000 0.03802  0.88087  0.38952  Biso   1.000  C
  C60      1.0000 0.96168  0.78010  0.00350  Biso   1.000  C
  H50      1.0000 0.05008  0.77701  0.94779  Biso   1.000  H
  H51      1.0000 0.05622  0.82369  0.01379  Biso   1.000  H
  O4       1.0000 0.07320  0.65818  0.93871  Biso   1.000  O
  C61      1.0000 0.11913  0.61048  0.03802  Biso   1.000  C
  C62      1.0000 0.99650  0.03832  0.78010  Biso   1.000  C
  C63      1.0000 0.99909  0.08597  0.66650  Biso   1.000  C
  C64      1.0000 0.99650  0.03827  0.78010  Biso   1.000  C
  C65      1.0000 0.03832  0.21990  0.00350  Biso   1.000  C
  C66      1.0000 0.08597  0.33350  0.00091  Biso   1.000  C
  C67      1.0000 0.03827  0.21990  0.00350  Biso   1.000  C
  H52      1.0000 0.05221  0.05008  0.22299  Biso   1.000  H
  N9       1.0000 0.96720  0.07142  0.27556  Biso   1.000  N
  H53      1.0000 0.98621  0.05622  0.17631  Biso   1.000  H
  C68      1.0000 0.02210  0.81158  0.39590  Biso   1.000  C
  C69      1.0000 0.06478  0.91529  0.44822  Biso   1.000  C
  C70      1.0000 0.06478  0.91529  0.44817  Biso   1.000  C
  C71      1.0000 0.07310  0.91950  0.43078  Biso   1.000  C
  C72      1.0000 0.05642  0.81229  0.38982  Biso   1.000  C
  N10      1.0000 0.92858  0.72444  0.96720  Biso   1.000  N
  H54      1.0000 0.94378  0.82369  0.98621  Biso   1.000  H
  N11      1.0000 0.92852  0.72444  0.96720  Biso   1.000  N
  H55      1.0000 0.94992  0.77701  0.05221  Biso   1.000  H
  C73      1.0000 0.18842  0.60410  0.02210  Biso   1.000  C
  C74      1.0000 0.08471  0.55178  0.06478  Biso   1.000  C
  C75      1.0000 0.18837  0.60410  0.02210  Biso   1.000  C
  C76      1.0000 0.08050  0.56922  0.07310  Biso   1.000  C
  C77      1.0000 0.18771  0.61018  0.05642  Biso   1.000  C
  H56      1.0000 0.94779  0.05008  0.77701  Biso   1.000  H
  C78      1.0000 0.00350  0.96168  0.78010  Biso   1.000  C
  H57      1.0000 0.01379  0.05622  0.82369  Biso   1.000  H
  O5       1.0000 0.93871  0.07320  0.65818  Biso   1.000  O
  C79      1.0000 0.03802  0.11913  0.61048  Biso   1.000  C
  H58      1.0000 0.05008  0.22299  0.05221  Biso   1.000  H
  C80      1.0000 0.96168  0.21990  0.99650  Biso   1.000  C
  H59      1.0000 0.05622  0.17631  0.98621  Biso   1.000  H
  O6       1.0000 0.07320  0.34182  0.06129  Biso   1.000  O
  C81      1.0000 0.11913  0.38952  0.96198  Biso   1.000  C
  C82      1.0000 0.00091  0.08597  0.33350  Biso   1.000  C
  C83      1.0000 0.89329  0.07462  0.26882  Biso   1.000  C
  H60      1.0000 0.99630  0.78638  0.36392  Biso   1.000  H
  C84      1.0000 0.05150  0.78248  0.46018  Biso   1.000  C
  C85      1.0000 0.09312  0.77990  0.43549  Biso   1.000  C
  H61      1.0000 0.04071  0.78598  0.35271  Biso   1.000  H
  C86      1.0000 0.10062  0.88620  0.49409  Biso   1.000  C
  H62      1.0000 0.05541  0.96229  0.45319  Biso   1.000  H
  C87      1.0000 0.10057  0.88620  0.49409  Biso   1.000  C
  H63      1.0000 0.08070  0.96609  0.42140  Biso   1.000  H
  C88      1.0000 0.92538  0.73118  0.89329  Biso   1.000  C
  C89      1.0000 0.91403  0.66650  0.00091  Biso   1.000  C
  H64      1.0000 0.21362  0.63608  0.99630  Biso   1.000  H
  C90      1.0000 0.21752  0.53982  0.05150  Biso   1.000  C
  C91      1.0000 0.22010  0.56451  0.09312  Biso   1.000  C
  H65      1.0000 0.21402  0.64729  0.04071  Biso   1.000  H
  C92      1.0000 0.11380  0.50591  0.10062  Biso   1.000  C
  H66      1.0000 0.03771  0.54681  0.05541  Biso   1.000  H
  C93      1.0000 0.11380  0.50591  0.10057  Biso   1.000  C
  H67      1.0000 0.03391  0.57860  0.08070  Biso   1.000  H
  N12      1.0000 0.96720  0.92858  0.72444  Biso   1.000  N
  H68      1.0000 0.98621  0.94378  0.82369  Biso   1.000  H
  N13      1.0000 0.96720  0.92852  0.72444  Biso   1.000  N
  H69      1.0000 0.05221  0.94992  0.77701  Biso   1.000  H
  C94      1.0000 0.02210  0.18842  0.60410  Biso   1.000  C
  C95      1.0000 0.06478  0.08471  0.55178  Biso   1.000  C
  C96      1.0000 0.02210  0.18837  0.60410  Biso   1.000  C
  C97      1.0000 0.07310  0.08050  0.56922  Biso   1.000  C
  C98      1.0000 0.05642  0.18771  0.61018  Biso   1.000  C
  H70      1.0000 0.94992  0.22299  0.94779  Biso   1.000  H
  N14      1.0000 0.92858  0.27556  0.03280  Biso   1.000  N
  H71      1.0000 0.94378  0.17631  0.01379  Biso   1.000  H
  N15      1.0000 0.92852  0.27556  0.03280  Biso   1.000  N
  C99      1.0000 0.18842  0.39590  0.97790  Biso   1.000  C
  C100     1.0000 0.08471  0.44822  0.93522  Biso   1.000  C
  C101     1.0000 0.08471  0.44817  0.93522  Biso   1.000  C
  C102     1.0000 0.18837  0.39590  0.97790  Biso   1.000  C
  C103     1.0000 0.08050  0.43078  0.92690  Biso   1.000  C
  C104     1.0000 0.18771  0.38982  0.94358  Biso   1.000  C
  O7       1.0000 0.06129  0.07320  0.34182  Biso   1.000  O
  C105     1.0000 0.96198  0.11913  0.38952  Biso   1.000  C
  C106     1.0000 0.87063  0.11487  0.20733  Biso   1.000  C
  H72      1.0000 0.87398  0.09561  0.31008  Biso   1.000  H
  H73      1.0000 0.87520  0.02798  0.26542  Biso   1.000  H
  H74      1.0000 0.87520  0.02798  0.26537  Biso   1.000  H
  C107     1.0000 0.08719  0.82040  0.50281  Biso   1.000  C
  H75      1.0000 0.04441  0.73589  0.47042  Biso   1.000  H
  H76      1.0000 0.04441  0.73589  0.47037  Biso   1.000  H
  C108     1.0000 0.11598  0.81969  0.49029  Biso   1.000  C
  H77      1.0000 0.10321  0.73301  0.43169  Biso   1.000  H
  H78      1.0000 0.12648  0.91109  0.52618  Biso   1.000  H
  C109     1.0000 0.88513  0.79267  0.87063  Biso   1.000  C
  H79      1.0000 0.90439  0.68992  0.87398  Biso   1.000  H
  H80      1.0000 0.97202  0.73458  0.87520  Biso   1.000  H
  C110     1.0000 0.88508  0.79267  0.87063  Biso   1.000  C
  C111     1.0000 0.88087  0.61048  0.96198  Biso   1.000  C
  O8       1.0000 0.92680  0.65818  0.06129  Biso   1.000  O
  C112     1.0000 0.17960  0.49719  0.08719  Biso   1.000  C
  H81      1.0000 0.26411  0.52958  0.04441  Biso   1.000  H
  C113     1.0000 0.18031  0.50971  0.11598  Biso   1.000  C
  H82      1.0000 0.26699  0.56831  0.10321  Biso   1.000  H
  H83      1.0000 0.08891  0.47382  0.12648  Biso   1.000  H
  C114     1.0000 0.89329  0.92538  0.73118  Biso   1.000  C
  C115     1.0000 0.00091  0.91403  0.66650  Biso   1.000  C
  H84      1.0000 0.99630  0.21362  0.63608  Biso   1.000  H
  C116     1.0000 0.05150  0.21752  0.53982  Biso   1.000  C
  C117     1.0000 0.09312  0.22010  0.56451  Biso   1.000  C
  H85      1.0000 0.04071  0.21402  0.64729  Biso   1.000  H
  C118     1.0000 0.10062  0.11380  0.50591  Biso   1.000  C
  H86      1.0000 0.05541  0.03771  0.54681  Biso   1.000  H
  C119     1.0000 0.10057  0.11380  0.50591  Biso   1.000  C
  H87      1.0000 0.08070  0.03391  0.57860  Biso   1.000  H
  C120     1.0000 0.91403  0.33350  0.99909  Biso   1.000  C
  C121     1.0000 0.92538  0.26882  0.10671  Biso   1.000  C
  H88      1.0000 0.21362  0.36392  0.00370  Biso   1.000  H
  C122     1.0000 0.21752  0.46018  0.94850  Biso   1.000  C
  C123     1.0000 0.22010  0.43549  0.90688  Biso   1.000  C
  H89      1.0000 0.21402  0.35271  0.95929  Biso   1.000  H
  C124     1.0000 0.11380  0.49409  0.89938  Biso   1.000  C
  H90      1.0000 0.03771  0.45319  0.94459  Biso   1.000  H
  H91      1.0000 0.03391  0.42140  0.91930  Biso   1.000  H
  C125     1.0000 0.97790  0.18842  0.39590  Biso   1.000  C
  C126     1.0000 0.93522  0.08471  0.44822  Biso   1.000  C
  C127     1.0000 0.93522  0.08471  0.44817  Biso   1.000  C
  C128     1.0000 0.97790  0.18837  0.39590  Biso   1.000  C
  C129     1.0000 0.92690  0.08050  0.43078  Biso   1.000  C
  C130     1.0000 0.94358  0.18771  0.38982  Biso   1.000  C
  C131     1.0000 0.90617  0.17185  0.18574  Biso   1.000  C
  C132     1.0000 0.81426  0.09383  0.17185  Biso   1.000  C
  Br5      1.0000 0.13276  0.77964  0.57794  Biso   1.000  Br
  Br6      1.0000 0.16156  0.77381  0.56369  Biso   1.000  Br
  C133     1.0000 0.90617  0.82815  0.81426  Biso   1.000  C
  C134     1.0000 0.82815  0.81426  0.90617  Biso   1.000  C
  C135     1.0000 0.90617  0.82810  0.81426  Biso   1.000  C
  C136     1.0000 0.82810  0.81426  0.90617  Biso   1.000  C
  C137     1.0000 0.81158  0.60410  0.97790  Biso   1.000  C
  C138     1.0000 0.91529  0.55178  0.93522  Biso   1.000  C
  C139     1.0000 0.91950  0.56922  0.92690  Biso   1.000  C
  C140     1.0000 0.81229  0.61018  0.94358  Biso   1.000  C
  Br7      1.0000 0.22036  0.42206  0.13276  Biso   1.000  Br
  Br8      1.0000 0.22619  0.43631  0.16156  Biso   1.000  Br
  C141     1.0000 0.87063  0.88513  0.79267  Biso   1.000  C
  C142     1.0000 0.87063  0.88508  0.79267  Biso   1.000  C
  H92      1.0000 0.87398  0.90439  0.68992  Biso   1.000  H
  H93      1.0000 0.87520  0.97202  0.73458  Biso   1.000  H
  C143     1.0000 0.96198  0.88087  0.61048  Biso   1.000  C
  O9       1.0000 0.06129  0.92680  0.65818  Biso   1.000  O
  C144     1.0000 0.08719  0.17960  0.49719  Biso   1.000  C
  H94      1.0000 0.04441  0.26411  0.52958  Biso   1.000  H
  C145     1.0000 0.11598  0.18031  0.50971  Biso   1.000  C
  H95      1.0000 0.10321  0.26699  0.56831  Biso   1.000  H
  H96      1.0000 0.12648  0.08891  0.47382  Biso   1.000  H
  O10      1.0000 0.92680  0.34182  0.93871  Biso   1.000  O
  C146     1.0000 0.88087  0.38952  0.03802  Biso   1.000  C
  C147     1.0000 0.88513  0.20733  0.12937  Biso   1.000  C
  C148     1.0000 0.88508  0.20733  0.12937  Biso   1.000  C
  H97      1.0000 0.90439  0.31008  0.12602  Biso   1.000  H
  H98      1.0000 0.97202  0.26542  0.12480  Biso   1.000  H
  H99      1.0000 0.90439  0.31008  0.12597  Biso   1.000  H
  H100     1.0000 0.97202  0.26537  0.12480  Biso   1.000  H
  C149     1.0000 0.17960  0.50281  0.91281  Biso   1.000  C
  H101     1.0000 0.26411  0.47042  0.95559  Biso   1.000  H
  H102     1.0000 0.26411  0.47037  0.95559  Biso   1.000  H
  C150     1.0000 0.18031  0.49029  0.88402  Biso   1.000  C
  H103     1.0000 0.26699  0.43169  0.89679  Biso   1.000  H
  H104     1.0000 0.08891  0.52618  0.87352  Biso   1.000  H
  H105     1.0000 0.08891  0.52618  0.87347  Biso   1.000  H
  H106     1.0000 0.00370  0.21362  0.36392  Biso   1.000  H
  C151     1.0000 0.94850  0.21752  0.46018  Biso   1.000  C
  C152     1.0000 0.90688  0.22010  0.43549  Biso   1.000  C
  H107     1.0000 0.95929  0.21402  0.35271  Biso   1.000  H
  C153     1.0000 0.89938  0.11380  0.49409  Biso   1.000  C
  H108     1.0000 0.94459  0.03771  0.45319  Biso   1.000  H
  H109     1.0000 0.91930  0.03391  0.42140  Biso   1.000  H
  H110     1.0000 0.94520  0.18639  0.20992  Biso   1.000  H
  C154     1.0000 0.79267  0.12937  0.11487  Biso   1.000  C
  H111     1.0000 0.79008  0.05480  0.18639  Biso   1.000  H
  H112     1.0000 0.94520  0.81361  0.79008  Biso   1.000  H
  H113     1.0000 0.81361  0.79008  0.94520  Biso   1.000  H
  C155     1.0000 0.79267  0.87063  0.88513  Biso   1.000  C
  C156     1.0000 0.79267  0.87063  0.88508  Biso   1.000  C
  C157     1.0000 0.78248  0.53982  0.94850  Biso   1.000  C
  C158     1.0000 0.77990  0.56451  0.90688  Biso   1.000  C
  H114     1.0000 0.78598  0.64729  0.95929  Biso   1.000  H
  H115     1.0000 0.78638  0.63608  0.00370  Biso   1.000  H
  C159     1.0000 0.88620  0.50591  0.89938  Biso   1.000  C
  H116     1.0000 0.96229  0.54681  0.94459  Biso   1.000  H
  H117     1.0000 0.96609  0.57860  0.91930  Biso   1.000  H
  C160     1.0000 0.81426  0.90617  0.82815  Biso   1.000  C
  C161     1.0000 0.81426  0.90617  0.82810  Biso   1.000  C
  C162     1.0000 0.97790  0.81158  0.60410  Biso   1.000  C
  C163     1.0000 0.93522  0.91529  0.55178  Biso   1.000  C
  C164     1.0000 0.92690  0.91950  0.56922  Biso   1.000  C
  C165     1.0000 0.94358  0.81229  0.61018  Biso   1.000  C
  Br9      1.0000 0.13276  0.22036  0.42206  Biso   1.000  Br
  Br10     1.0000 0.16156  0.22619  0.43631  Biso   1.000  Br
  C166     1.0000 0.81158  0.39590  0.02210  Biso   1.000  C
  C167     1.0000 0.91529  0.44822  0.06478  Biso   1.000  C
  C168     1.0000 0.91529  0.44817  0.06478  Biso   1.000  C
  C169     1.0000 0.91950  0.43078  0.07310  Biso   1.000  C
  C170     1.0000 0.81229  0.38982  0.05642  Biso   1.000  C
  C171     1.0000 0.82815  0.18574  0.09383  Biso   1.000  C
  C172     1.0000 0.82810  0.18574  0.09383  Biso   1.000  C
  Br11     1.0000 0.22036  0.57794  0.86724  Biso   1.000  Br
  Br12     1.0000 0.22619  0.56369  0.83844  Biso   1.000  Br
  C173     1.0000 0.91281  0.17960  0.50281  Biso   1.000  C
  H118     1.0000 0.95559  0.26411  0.47042  Biso   1.000  H
  H119     1.0000 0.95559  0.26411  0.47037  Biso   1.000  H
  C174     1.0000 0.88402  0.18031  0.49029  Biso   1.000  C
  H120     1.0000 0.89679  0.26699  0.43169  Biso   1.000  H
  H121     1.0000 0.87352  0.08891  0.52618  Biso   1.000  H
  H122     1.0000 0.87347  0.08891  0.52618  Biso   1.000  H
  C175     1.0000 0.73118  0.10671  0.07462  Biso   1.000  C
  C176     1.0000 0.73118  0.89329  0.92538  Biso   1.000  C
  C177     1.0000 0.82040  0.49719  0.91281  Biso   1.000  C
  H123     1.0000 0.73589  0.52958  0.95559  Biso   1.000  H
  C178     1.0000 0.81969  0.50971  0.88402  Biso   1.000  C
  H124     1.0000 0.73301  0.56831  0.89679  Biso   1.000  H
  H125     1.0000 0.91109  0.47382  0.87352  Biso   1.000  H
  H126     1.0000 0.91109  0.47382  0.87347  Biso   1.000  H
  H127     1.0000 0.79008  0.94520  0.81361  Biso   1.000  H
  C179     1.0000 0.94850  0.78248  0.53982  Biso   1.000  C
  C180     1.0000 0.90688  0.77990  0.56451  Biso   1.000  C
  H128     1.0000 0.95929  0.78598  0.64729  Biso   1.000  H
  H129     1.0000 0.00370  0.78638  0.63608  Biso   1.000  H
  C181     1.0000 0.89938  0.88620  0.50591  Biso   1.000  C
  H130     1.0000 0.94459  0.96229  0.54681  Biso   1.000  H
  H131     1.0000 0.91930  0.96609  0.57860  Biso   1.000  H
  H132     1.0000 0.78638  0.36392  0.99630  Biso   1.000  H
  C182     1.0000 0.78248  0.46018  0.05150  Biso   1.000  C
  C183     1.0000 0.77990  0.43549  0.09312  Biso   1.000  C
  H133     1.0000 0.78598  0.35271  0.04071  Biso   1.000  H
  C184     1.0000 0.88620  0.49409  0.10062  Biso   1.000  C
  H134     1.0000 0.96229  0.45319  0.05541  Biso   1.000  H
  C185     1.0000 0.88620  0.49409  0.10057  Biso   1.000  C
  H135     1.0000 0.96609  0.42140  0.08070  Biso   1.000  H
  H136     1.0000 0.81361  0.20992  0.05480  Biso   1.000  H
  Br13     1.0000 0.86724  0.22036  0.57794  Biso   1.000  Br
  Br14     1.0000 0.83844  0.22619  0.56369  Biso   1.000  Br
  N16      1.0000 0.72444  0.03280  0.07142  Biso   1.000  N
  H137     1.0000 0.68992  0.12602  0.09561  Biso   1.000  H
  H138     1.0000 0.73458  0.12480  0.02798  Biso   1.000  H
  H139     1.0000 0.68992  0.12597  0.09561  Biso   1.000  H
  N17      1.0000 0.72444  0.96720  0.92858  Biso   1.000  N
  H140     1.0000 0.68992  0.87398  0.90439  Biso   1.000  H
  H141     1.0000 0.73458  0.87520  0.97202  Biso   1.000  H
  N18      1.0000 0.72444  0.96720  0.92852  Biso   1.000  N
  Br15     1.0000 0.77964  0.42206  0.86724  Biso   1.000  Br
  Br16     1.0000 0.77381  0.43631  0.83844  Biso   1.000  Br
  C186     1.0000 0.91281  0.82040  0.49719  Biso   1.000  C
  H142     1.0000 0.95559  0.73589  0.52958  Biso   1.000  H
  C187     1.0000 0.88402  0.81969  0.50971  Biso   1.000  C
  H143     1.0000 0.89679  0.73301  0.56831  Biso   1.000  H
  H144     1.0000 0.87352  0.91109  0.47382  Biso   1.000  H
  H145     1.0000 0.87347  0.91109  0.47382  Biso   1.000  H
  C188     1.0000 0.82040  0.50281  0.08719  Biso   1.000  C
  H146     1.0000 0.73589  0.47042  0.04441  Biso   1.000  H
  H147     1.0000 0.73589  0.47037  0.04441  Biso   1.000  H
  C189     1.0000 0.81969  0.49029  0.11598  Biso   1.000  C
  H148     1.0000 0.73301  0.43169  0.10321  Biso   1.000  H
  H149     1.0000 0.91109  0.52618  0.12648  Biso   1.000  H
  C190     1.0000 0.78010  0.99650  0.03832  Biso   1.000  C
  C191     1.0000 0.66650  0.99909  0.08597  Biso   1.000  C
  C192     1.0000 0.78010  0.99650  0.03827  Biso   1.000  C
  C193     1.0000 0.78010  0.00350  0.96168  Biso   1.000  C
  C194     1.0000 0.66650  0.00091  0.91403  Biso   1.000  C
  Br17     1.0000 0.86724  0.77964  0.42206  Biso   1.000  Br
  Br18     1.0000 0.83844  0.77381  0.43631  Biso   1.000  Br
  Br19     1.0000 0.77964  0.57794  0.13276  Biso   1.000  Br
  Br20     1.0000 0.77381  0.56369  0.16156  Biso   1.000  Br
  H150     1.0000 0.77701  0.94779  0.05008  Biso   1.000  H
  H151     1.0000 0.82369  0.01379  0.05622  Biso   1.000  H
  O11      1.0000 0.65818  0.93871  0.07320  Biso   1.000  O
  C195     1.0000 0.61048  0.03802  0.11913  Biso   1.000  C
  H152     1.0000 0.82369  0.98621  0.94378  Biso   1.000  H
  H153     1.0000 0.77701  0.05221  0.94992  Biso   1.000  H
  C196     1.0000 0.61048  0.96198  0.88087  Biso   1.000  C
  O12      1.0000 0.65818  0.06129  0.92680  Biso   1.000  O
  C197     1.0000 0.60410  0.02210  0.18842  Biso   1.000  C
  C198     1.0000 0.55178  0.06478  0.08471  Biso   1.000  C
  C199     1.0000 0.60410  0.02210  0.18837  Biso   1.000  C
  C200     1.0000 0.56922  0.07310  0.08050  Biso   1.000  C
  C201     1.0000 0.61018  0.05642  0.18771  Biso   1.000  C
  C202     1.0000 0.60410  0.97790  0.81158  Biso   1.000  C
  C203     1.0000 0.55178  0.93522  0.91529  Biso   1.000  C
  C204     1.0000 0.56922  0.92690  0.91950  Biso   1.000  C
  C205     1.0000 0.61018  0.94358  0.81229  Biso   1.000  C
  H154     1.0000 0.63608  0.99630  0.21362  Biso   1.000  H
  C206     1.0000 0.53982  0.05150  0.21752  Biso   1.000  C
  C207     1.0000 0.56451  0.09312  0.22010  Biso   1.000  C
  H155     1.0000 0.64729  0.04071  0.21402  Biso   1.000  H
  C208     1.0000 0.50591  0.10062  0.11380  Biso   1.000  C
  H156     1.0000 0.54681  0.05541  0.03771  Biso   1.000  H
  C209     1.0000 0.50591  0.10057  0.11380  Biso   1.000  C
  H157     1.0000 0.57860  0.08070  0.03391  Biso   1.000  H
  C210     1.0000 0.53982  0.94850  0.78248  Biso   1.000  C
  C211     1.0000 0.56451  0.90688  0.77990  Biso   1.000  C
  H158     1.0000 0.64729  0.95929  0.78598  Biso   1.000  H
  H159     1.0000 0.63608  0.00370  0.78638  Biso   1.000  H
  C212     1.0000 0.50591  0.89938  0.88620  Biso   1.000  C
  H160     1.0000 0.54681  0.94459  0.96229  Biso   1.000  H
  H161     1.0000 0.57860  0.91930  0.96609  Biso   1.000  H
  C213     1.0000 0.49719  0.08719  0.17960  Biso   1.000  C
  H162     1.0000 0.52958  0.04441  0.26411  Biso   1.000  H
  C214     1.0000 0.50971  0.11598  0.18031  Biso   1.000  C
  H163     1.0000 0.56831  0.10321  0.26699  Biso   1.000  H
  H164     1.0000 0.47382  0.12648  0.08891  Biso   1.000  H
  C215     1.0000 0.49719  0.91281  0.82040  Biso   1.000  C
  H165     1.0000 0.52958  0.95559  0.73589  Biso   1.000  H
  C216     1.0000 0.50971  0.88402  0.81969  Biso   1.000  C
  H166     1.0000 0.56831  0.89679  0.73301  Biso   1.000  H
  H167     1.0000 0.47382  0.87352  0.91109  Biso   1.000  H
  H168     1.0000 0.47382  0.87347  0.91109  Biso   1.000  H
  Br21     1.0000 0.42206  0.13276  0.22036  Biso   1.000  Br
  Br22     1.0000 0.43631  0.16156  0.22619  Biso   1.000  Br
  Br23     1.0000 0.42206  0.86724  0.77964  Biso   1.000  Br
  Br24     1.0000 0.43631  0.83844  0.77381  Biso   1.000  Br
  C217     1.0000 0.21990  0.00350  0.03832  Biso   1.000  C
  N19      1.0000 0.27556  0.96720  0.07142  Biso   1.000  N
  H169     1.0000 0.22299  0.05221  0.05008  Biso   1.000  H
  C218     1.0000 0.21990  0.99650  0.96168  Biso   1.000  C
  H170     1.0000 0.17631  0.98621  0.05622  Biso   1.000  H
  C219     1.0000 0.33350  0.00091  0.08597  Biso   1.000  C
  C220     1.0000 0.21990  0.00350  0.03827  Biso   1.000  C
  C221     1.0000 0.26882  0.89329  0.07462  Biso   1.000  C
  H171     1.0000 0.22299  0.94779  0.94992  Biso   1.000  H
  N20      1.0000 0.27556  0.03280  0.92858  Biso   1.000  N
  H172     1.0000 0.17631  0.01379  0.94378  Biso   1.000  H
  N21      1.0000 0.27556  0.03280  0.92852  Biso   1.000  N
  O13      1.0000 0.34182  0.06129  0.07320  Biso   1.000  O
  C222     1.0000 0.38952  0.96198  0.11913  Biso   1.000  C
  C223     1.0000 0.20733  0.87063  0.11487  Biso   1.000  C
  H173     1.0000 0.31008  0.87398  0.09561  Biso   1.000  H
  H174     1.0000 0.26542  0.87520  0.02798  Biso   1.000  H
  H175     1.0000 0.26537  0.87520  0.02798  Biso   1.000  H
  C224     1.0000 0.33350  0.99909  0.91403  Biso   1.000  C
  C225     1.0000 0.26882  0.10671  0.92538  Biso   1.000  C
  C226     1.0000 0.39590  0.97790  0.18842  Biso   1.000  C
  C227     1.0000 0.44822  0.93522  0.08471  Biso   1.000  C
  C228     1.0000 0.39590  0.97790  0.18837  Biso   1.000  C
  C229     1.0000 0.44817  0.93522  0.08471  Biso   1.000  C
  C230     1.0000 0.43078  0.92690  0.08050  Biso   1.000  C
  C231     1.0000 0.38982  0.94358  0.18771  Biso   1.000  C
  C232     1.0000 0.18574  0.90617  0.17185  Biso   1.000  C
  C233     1.0000 0.17185  0.81426  0.09383  Biso   1.000  C
  O14      1.0000 0.34182  0.93871  0.92680  Biso   1.000  O
  C234     1.0000 0.38952  0.03802  0.88087  Biso   1.000  C
  C235     1.0000 0.20733  0.12937  0.88513  Biso   1.000  C
  H176     1.0000 0.31008  0.12602  0.90439  Biso   1.000  H
  H177     1.0000 0.26542  0.12480  0.97202  Biso   1.000  H
  C236     1.0000 0.20733  0.12937  0.88508  Biso   1.000  C
  H178     1.0000 0.31008  0.12597  0.90439  Biso   1.000  H
  H179     1.0000 0.26537  0.12480  0.97202  Biso   1.000  H
  H180     1.0000 0.36392  0.00370  0.21362  Biso   1.000  H
  C237     1.0000 0.46018  0.94850  0.21752  Biso   1.000  C
  C238     1.0000 0.43549  0.90688  0.22010  Biso   1.000  C
  H181     1.0000 0.35271  0.95929  0.21402  Biso   1.000  H
  C239     1.0000 0.49409  0.89938  0.11380  Biso   1.000  C
  H182     1.0000 0.45319  0.94459  0.03771  Biso   1.000  H
  H183     1.0000 0.42140  0.91930  0.03391  Biso   1.000  H
  H184     1.0000 0.20992  0.94520  0.18639  Biso   1.000  H
  C240     1.0000 0.12937  0.88513  0.20733  Biso   1.000  C
  C241     1.0000 0.12937  0.88508  0.20733  Biso   1.000  C
  C242     1.0000 0.11487  0.79267  0.12937  Biso   1.000  C
  H185     1.0000 0.18639  0.79008  0.05480  Biso   1.000  H
  C243     1.0000 0.39590  0.02210  0.81158  Biso   1.000  C
  C244     1.0000 0.44822  0.06478  0.91529  Biso   1.000  C
  C245     1.0000 0.44817  0.06478  0.91529  Biso   1.000  C
  C246     1.0000 0.43078  0.07310  0.91950  Biso   1.000  C
  C247     1.0000 0.38982  0.05642  0.81229  Biso   1.000  C
  C248     1.0000 0.18574  0.09383  0.82815  Biso   1.000  C
  C249     1.0000 0.17185  0.18574  0.90617  Biso   1.000  C
  C250     1.0000 0.18574  0.09383  0.82810  Biso   1.000  C
  C251     1.0000 0.50281  0.91281  0.17960  Biso   1.000  C
  H186     1.0000 0.47042  0.95559  0.26411  Biso   1.000  H
  H187     1.0000 0.47037  0.95559  0.26411  Biso   1.000  H
  C252     1.0000 0.49029  0.88402  0.18031  Biso   1.000  C
  H188     1.0000 0.43169  0.89679  0.26699  Biso   1.000  H
  H189     1.0000 0.52618  0.87352  0.08891  Biso   1.000  H
  H190     1.0000 0.52618  0.87347  0.08891  Biso   1.000  H
  C253     1.0000 0.09383  0.82815  0.18574  Biso   1.000  C
  C254     1.0000 0.10671  0.92538  0.26882  Biso   1.000  C
  C255     1.0000 0.09383  0.82810  0.18574  Biso   1.000  C
  C256     1.0000 0.07462  0.73118  0.10671  Biso   1.000  C
  H191     1.0000 0.36392  0.99630  0.78638  Biso   1.000  H
  C257     1.0000 0.46018  0.05150  0.78248  Biso   1.000  C
  C258     1.0000 0.43549  0.09312  0.77990  Biso   1.000  C
  H192     1.0000 0.35271  0.04071  0.78598  Biso   1.000  H
  C259     1.0000 0.49409  0.10062  0.88620  Biso   1.000  C
  H193     1.0000 0.45319  0.05541  0.96229  Biso   1.000  H
  C260     1.0000 0.49409  0.10057  0.88620  Biso   1.000  C
  H194     1.0000 0.42140  0.08070  0.96609  Biso   1.000  H
  H195     1.0000 0.20992  0.05480  0.81361  Biso   1.000  H
  C261     1.0000 0.12937  0.11487  0.79267  Biso   1.000  C
  H196     1.0000 0.18639  0.20992  0.94520  Biso   1.000  H
  C262     1.0000 0.11487  0.20733  0.87063  Biso   1.000  C
  Br25     1.0000 0.57794  0.86724  0.22036  Biso   1.000  Br
  Br26     1.0000 0.56369  0.83844  0.22619  Biso   1.000  Br
  H197     1.0000 0.05480  0.81361  0.20992  Biso   1.000  H
  N22      1.0000 0.03280  0.92858  0.27556  Biso   1.000  N
  H198     1.0000 0.12602  0.90439  0.31008  Biso   1.000  H
  H199     1.0000 0.12480  0.97202  0.26542  Biso   1.000  H
  H200     1.0000 0.12480  0.97202  0.26537  Biso   1.000  H
  N23      1.0000 0.03280  0.92852  0.27556  Biso   1.000  N
  H201     1.0000 0.12597  0.90439  0.31008  Biso   1.000  H
  N24      1.0000 0.07142  0.72444  0.03280  Biso   1.000  N
  H202     1.0000 0.09561  0.68992  0.12602  Biso   1.000  H
  H203     1.0000 0.02798  0.73458  0.12480  Biso   1.000  H
  H204     1.0000 0.09561  0.68992  0.12597  Biso   1.000  H
  C263     1.0000 0.50281  0.08719  0.82040  Biso   1.000  C
  H205     1.0000 0.47042  0.04441  0.73589  Biso   1.000  H
  H206     1.0000 0.47037  0.04441  0.73589  Biso   1.000  H
  C264     1.0000 0.49029  0.11598  0.81969  Biso   1.000  C
  H207     1.0000 0.43169  0.10321  0.73301  Biso   1.000  H
  H208     1.0000 0.52618  0.12648  0.91109  Biso   1.000  H
  C265     1.0000 0.10671  0.07462  0.73118  Biso   1.000  C
  C266     1.0000 0.09383  0.17185  0.81426  Biso   1.000  C
  C267     1.0000 0.07462  0.26882  0.89329  Biso   1.000  C
  C268     1.0000 0.99650  0.96168  0.21990  Biso   1.000  C
  C269     1.0000 0.99909  0.91403  0.33350  Biso   1.000  C
  C270     1.0000 0.03832  0.78010  0.99650  Biso   1.000  C
  C271     1.0000 0.08597  0.66650  0.99909  Biso   1.000  C
  C272     1.0000 0.03827  0.78010  0.99650  Biso   1.000  C
  Br27     1.0000 0.57794  0.13276  0.77964  Biso   1.000  Br
  Br28     1.0000 0.56369  0.16156  0.77381  Biso   1.000  Br
  N25      1.0000 0.03280  0.07142  0.72444  Biso   1.000  N
  H209     1.0000 0.12602  0.09561  0.68992  Biso   1.000  H
  H210     1.0000 0.12480  0.02798  0.73458  Biso   1.000  H
  H211     1.0000 0.12597  0.09561  0.68992  Biso   1.000  H
  H212     1.0000 0.05480  0.18639  0.79008  Biso   1.000  H
  N26      1.0000 0.07142  0.27556  0.96720  Biso   1.000  N
  H213     1.0000 0.09561  0.31008  0.87398  Biso   1.000  H
  H214     1.0000 0.02798  0.26542  0.87520  Biso   1.000  H
  H215     1.0000 0.02798  0.26537  0.87520  Biso   1.000  H
  C273     1.0000 0.00350  0.03832  0.21990  Biso   1.000  C
  C274     1.0000 0.00350  0.03827  0.21990  Biso   1.000  C
  H216     1.0000 0.94779  0.94992  0.22299  Biso   1.000  H
  H217     1.0000 0.01379  0.94378  0.17631  Biso   1.000  H
  O15      1.0000 0.93871  0.92680  0.34182  Biso   1.000  O
  C275     1.0000 0.03802  0.88087  0.38952  Biso   1.000  C
  C276     1.0000 0.96168  0.78010  0.00350  Biso   1.000  C
  H218     1.0000 0.05008  0.77701  0.94779  Biso   1.000  H
  H219     1.0000 0.05622  0.82369  0.01379  Biso   1.000  H
  O16      1.0000 0.07320  0.65818  0.93871  Biso   1.000  O
  C277     1.0000 0.11913  0.61048  0.03802  Biso   1.000  C
  C278     1.0000 0.99650  0.03832  0.78010  Biso   1.000  C
  C279     1.0000 0.99909  0.08597  0.66650  Biso   1.000  C
  C280     1.0000 0.99650  0.03827  0.78010  Biso   1.000  C
  C281     1.0000 0.03832  0.21990  0.00350  Biso   1.000  C
  C282     1.0000 0.08597  0.33350  0.00091  Biso   1.000  C
  C283     1.0000 0.03827  0.21990  0.00350  Biso   1.000  C
  H220     1.0000 0.05221  0.05008  0.22299  Biso   1.000  H
  N27      1.0000 0.96720  0.07142  0.27556  Biso   1.000  N
  H221     1.0000 0.98621  0.05622  0.17631  Biso   1.000  H
  C284     1.0000 0.02210  0.81158  0.39590  Biso   1.000  C
  C285     1.0000 0.06478  0.91529  0.44822  Biso   1.000  C
  C286     1.0000 0.06478  0.91529  0.44817  Biso   1.000  C
  C287     1.0000 0.07310  0.91950  0.43078  Biso   1.000  C
  C288     1.0000 0.05642  0.81229  0.38982  Biso   1.000  C
  N28      1.0000 0.92858  0.72444  0.96720  Biso   1.000  N
  H222     1.0000 0.94378  0.82369  0.98621  Biso   1.000  H
  N29      1.0000 0.92852  0.72444  0.96720  Biso   1.000  N
  H223     1.0000 0.94992  0.77701  0.05221  Biso   1.000  H
  C289     1.0000 0.18842  0.60410  0.02210  Biso   1.000  C
  C290     1.0000 0.08471  0.55178  0.06478  Biso   1.000  C
  C291     1.0000 0.18837  0.60410  0.02210  Biso   1.000  C
  C292     1.0000 0.08050  0.56922  0.07310  Biso   1.000  C
  C293     1.0000 0.18771  0.61018  0.05642  Biso   1.000  C
  H224     1.0000 0.94779  0.05008  0.77701  Biso   1.000  H
  C294     1.0000 0.00350  0.96168  0.78010  Biso   1.000  C
  H225     1.0000 0.01379  0.05622  0.82369  Biso   1.000  H
  O17      1.0000 0.93871  0.07320  0.65818  Biso   1.000  O
  C295     1.0000 0.03802  0.11913  0.61048  Biso   1.000  C
  H226     1.0000 0.05008  0.22299  0.05221  Biso   1.000  H
  C296     1.0000 0.96168  0.21990  0.99650  Biso   1.000  C
  H227     1.0000 0.05622  0.17631  0.98621  Biso   1.000  H
  O18      1.0000 0.07320  0.34182  0.06129  Biso   1.000  O
  C297     1.0000 0.11913  0.38952  0.96198  Biso   1.000  C
  C298     1.0000 0.00091  0.08597  0.33350  Biso   1.000  C
  C299     1.0000 0.89329  0.07462  0.26882  Biso   1.000  C
  H228     1.0000 0.99630  0.78638  0.36392  Biso   1.000  H
  C300     1.0000 0.05150  0.78248  0.46018  Biso   1.000  C
  C301     1.0000 0.09312  0.77990  0.43549  Biso   1.000  C
  H229     1.0000 0.04071  0.78598  0.35271  Biso   1.000  H
  C302     1.0000 0.10062  0.88620  0.49409  Biso   1.000  C
  H230     1.0000 0.05541  0.96229  0.45319  Biso   1.000  H
  C303     1.0000 0.10057  0.88620  0.49409  Biso   1.000  C
  H231     1.0000 0.08070  0.96609  0.42140  Biso   1.000  H
  C304     1.0000 0.92538  0.73118  0.89329  Biso   1.000  C
  C305     1.0000 0.91403  0.66650  0.00091  Biso   1.000  C
  H232     1.0000 0.21362  0.63608  0.99630  Biso   1.000  H
  C306     1.0000 0.21752  0.53982  0.05150  Biso   1.000  C
  C307     1.0000 0.22010  0.56451  0.09312  Biso   1.000  C
  H233     1.0000 0.21402  0.64729  0.04071  Biso   1.000  H
  C308     1.0000 0.11380  0.50591  0.10062  Biso   1.000  C
  H234     1.0000 0.03771  0.54681  0.05541  Biso   1.000  H
  C309     1.0000 0.11380  0.50591  0.10057  Biso   1.000  C
  H235     1.0000 0.03391  0.57860  0.08070  Biso   1.000  H
  N30      1.0000 0.96720  0.92858  0.72444  Biso   1.000  N
  H236     1.0000 0.98621  0.94378  0.82369  Biso   1.000  H
  N31      1.0000 0.96720  0.92852  0.72444  Biso   1.000  N
  H237     1.0000 0.05221  0.94992  0.77701  Biso   1.000  H
  C310     1.0000 0.02210  0.18842  0.60410  Biso   1.000  C
  C311     1.0000 0.06478  0.08471  0.55178  Biso   1.000  C
  C312     1.0000 0.02210  0.18837  0.60410  Biso   1.000  C
  C313     1.0000 0.07310  0.08050  0.56922  Biso   1.000  C
  C314     1.0000 0.05642  0.18771  0.61018  Biso   1.000  C
  H238     1.0000 0.94992  0.22299  0.94779  Biso   1.000  H
  N32      1.0000 0.92858  0.27556  0.03280  Biso   1.000  N
  H239     1.0000 0.94378  0.17631  0.01379  Biso   1.000  H
  N33      1.0000 0.92852  0.27556  0.03280  Biso   1.000  N
  C315     1.0000 0.18842  0.39590  0.97790  Biso   1.000  C
  C316     1.0000 0.08471  0.44822  0.93522  Biso   1.000  C
  C317     1.0000 0.08471  0.44817  0.93522  Biso   1.000  C
  C318     1.0000 0.18837  0.39590  0.97790  Biso   1.000  C
  C319     1.0000 0.08050  0.43078  0.92690  Biso   1.000  C
  C320     1.0000 0.18771  0.38982  0.94358  Biso   1.000  C
  O19      1.0000 0.06129  0.07320  0.34182  Biso   1.000  O
  C321     1.0000 0.96198  0.11913  0.38952  Biso   1.000  C
  C322     1.0000 0.87063  0.11487  0.20733  Biso   1.000  C
  H240     1.0000 0.87398  0.09561  0.31008  Biso   1.000  H
  H241     1.0000 0.87520  0.02798  0.26542  Biso   1.000  H
  H242     1.0000 0.87520  0.02798  0.26537  Biso   1.000  H
  C323     1.0000 0.08719  0.82040  0.50281  Biso   1.000  C
  H243     1.0000 0.04441  0.73589  0.47042  Biso   1.000  H
  H244     1.0000 0.04441  0.73589  0.47037  Biso   1.000  H
  C324     1.0000 0.11598  0.81969  0.49029  Biso   1.000  C
  H245     1.0000 0.10321  0.73301  0.43169  Biso   1.000  H
  H246     1.0000 0.12648  0.91109  0.52618  Biso   1.000  H
  C325     1.0000 0.88513  0.79267  0.87063  Biso   1.000  C
  H247     1.0000 0.90439  0.68992  0.87398  Biso   1.000  H
  H248     1.0000 0.97202  0.73458  0.87520  Biso   1.000  H
  C326     1.0000 0.88508  0.79267  0.87063  Biso   1.000  C
  C327     1.0000 0.88087  0.61048  0.96198  Biso   1.000  C
  O20      1.0000 0.92680  0.65818  0.06129  Biso   1.000  O
  C328     1.0000 0.17960  0.49719  0.08719  Biso   1.000  C
  H249     1.0000 0.26411  0.52958  0.04441  Biso   1.000  H
  C329     1.0000 0.18031  0.50971  0.11598  Biso   1.000  C
  H250     1.0000 0.26699  0.56831  0.10321  Biso   1.000  H
  H251     1.0000 0.08891  0.47382  0.12648  Biso   1.000  H
  C330     1.0000 0.89329  0.92538  0.73118  Biso   1.000  C
  C331     1.0000 0.00091  0.91403  0.66650  Biso   1.000  C
  H252     1.0000 0.99630  0.21362  0.63608  Biso   1.000  H
  C332     1.0000 0.05150  0.21752  0.53982  Biso   1.000  C
  C333     1.0000 0.09312  0.22010  0.56451  Biso   1.000  C
  H253     1.0000 0.04071  0.21402  0.64729  Biso   1.000  H
  C334     1.0000 0.10062  0.11380  0.50591  Biso   1.000  C
  H254     1.0000 0.05541  0.03771  0.54681  Biso   1.000  H
  C335     1.0000 0.10057  0.11380  0.50591  Biso   1.000  C
  H255     1.0000 0.08070  0.03391  0.57860  Biso   1.000  H
  C336     1.0000 0.91403  0.33350  0.99909  Biso   1.000  C
  C337     1.0000 0.92538  0.26882  0.10671  Biso   1.000  C
  H256     1.0000 0.21362  0.36392  0.00370  Biso   1.000  H
  C338     1.0000 0.21752  0.46018  0.94850  Biso   1.000  C
  C339     1.0000 0.22010  0.43549  0.90688  Biso   1.000  C
  H257     1.0000 0.21402  0.35271  0.95929  Biso   1.000  H
  C340     1.0000 0.11380  0.49409  0.89938  Biso   1.000  C
  H258     1.0000 0.03771  0.45319  0.94459  Biso   1.000  H
  H259     1.0000 0.03391  0.42140  0.91930  Biso   1.000  H
  C341     1.0000 0.97790  0.18842  0.39590  Biso   1.000  C
  C342     1.0000 0.93522  0.08471  0.44822  Biso   1.000  C
  C343     1.0000 0.93522  0.08471  0.44817  Biso   1.000  C
  C344     1.0000 0.97790  0.18837  0.39590  Biso   1.000  C
  C345     1.0000 0.92690  0.08050  0.43078  Biso   1.000  C
  C346     1.0000 0.94358  0.18771  0.38982  Biso   1.000  C
  C347     1.0000 0.90617  0.17185  0.18574  Biso   1.000  C
  C348     1.0000 0.81426  0.09383  0.17185  Biso   1.000  C
  Br29     1.0000 0.13276  0.77964  0.57794  Biso   1.000  Br
  Br30     1.0000 0.16156  0.77381  0.56369  Biso   1.000  Br
  C349     1.0000 0.90617  0.82815  0.81426  Biso   1.000  C
  C350     1.0000 0.82815  0.81426  0.90617  Biso   1.000  C
  C351     1.0000 0.90617  0.82810  0.81426  Biso   1.000  C
  C352     1.0000 0.82810  0.81426  0.90617  Biso   1.000  C
  C353     1.0000 0.81158  0.60410  0.97790  Biso   1.000  C
  C354     1.0000 0.91529  0.55178  0.93522  Biso   1.000  C
  C355     1.0000 0.91950  0.56922  0.92690  Biso   1.000  C
  C356     1.0000 0.81229  0.61018  0.94358  Biso   1.000  C
  Br31     1.0000 0.22036  0.42206  0.13276  Biso   1.000  Br
  Br32     1.0000 0.22619  0.43631  0.16156  Biso   1.000  Br
  C357     1.0000 0.87063  0.88513  0.79267  Biso   1.000  C
  C358     1.0000 0.87063  0.88508  0.79267  Biso   1.000  C
  H260     1.0000 0.87398  0.90439  0.68992  Biso   1.000  H
  H261     1.0000 0.87520  0.97202  0.73458  Biso   1.000  H
  C359     1.0000 0.96198  0.88087  0.61048  Biso   1.000  C
  O21      1.0000 0.06129  0.92680  0.65818  Biso   1.000  O
  C360     1.0000 0.08719  0.17960  0.49719  Biso   1.000  C
  H262     1.0000 0.04441  0.26411  0.52958  Biso   1.000  H
  C361     1.0000 0.11598  0.18031  0.50971  Biso   1.000  C
  H263     1.0000 0.10321  0.26699  0.56831  Biso   1.000  H
  H264     1.0000 0.12648  0.08891  0.47382  Biso   1.000  H
  O22      1.0000 0.92680  0.34182  0.93871  Biso   1.000  O
  C362     1.0000 0.88087  0.38952  0.03802  Biso   1.000  C
  C363     1.0000 0.88513  0.20733  0.12937  Biso   1.000  C
  C364     1.0000 0.88508  0.20733  0.12937  Biso   1.000  C
  H265     1.0000 0.90439  0.31008  0.12602  Biso   1.000  H
  H266     1.0000 0.97202  0.26542  0.12480  Biso   1.000  H
  H267     1.0000 0.90439  0.31008  0.12597  Biso   1.000  H
  H268     1.0000 0.97202  0.26537  0.12480  Biso   1.000  H
  C365     1.0000 0.17960  0.50281  0.91281  Biso   1.000  C
  H269     1.0000 0.26411  0.47042  0.95559  Biso   1.000  H
  H270     1.0000 0.26411  0.47037  0.95559  Biso   1.000  H
  C366     1.0000 0.18031  0.49029  0.88402  Biso   1.000  C
  H271     1.0000 0.26699  0.43169  0.89679  Biso   1.000  H
  H272     1.0000 0.08891  0.52618  0.87352  Biso   1.000  H
  H273     1.0000 0.08891  0.52618  0.87347  Biso   1.000  H
  H274     1.0000 0.00370  0.21362  0.36392  Biso   1.000  H
  C367     1.0000 0.94850  0.21752  0.46018  Biso   1.000  C
  C368     1.0000 0.90688  0.22010  0.43549  Biso   1.000  C
  H275     1.0000 0.95929  0.21402  0.35271  Biso   1.000  H
  C369     1.0000 0.89938  0.11380  0.49409  Biso   1.000  C
  H276     1.0000 0.94459  0.03771  0.45319  Biso   1.000  H
  H277     1.0000 0.91930  0.03391  0.42140  Biso   1.000  H
  H278     1.0000 0.94520  0.18639  0.20992  Biso   1.000  H
  C370     1.0000 0.79267  0.12937  0.11487  Biso   1.000  C
  H279     1.0000 0.79008  0.05480  0.18639  Biso   1.000  H
  H280     1.0000 0.94520  0.81361  0.79008  Biso   1.000  H
  H281     1.0000 0.81361  0.79008  0.94520  Biso   1.000  H
  C371     1.0000 0.79267  0.87063  0.88513  Biso   1.000  C
  C372     1.0000 0.79267  0.87063  0.88508  Biso   1.000  C
  C373     1.0000 0.78248  0.53982  0.94850  Biso   1.000  C
  C374     1.0000 0.77990  0.56451  0.90688  Biso   1.000  C
  H282     1.0000 0.78598  0.64729  0.95929  Biso   1.000  H
  H283     1.0000 0.78638  0.63608  0.00370  Biso   1.000  H
  C375     1.0000 0.88620  0.50591  0.89938  Biso   1.000  C
  H284     1.0000 0.96229  0.54681  0.94459  Biso   1.000  H
  H285     1.0000 0.96609  0.57860  0.91930  Biso   1.000  H
  C376     1.0000 0.81426  0.90617  0.82815  Biso   1.000  C
  C377     1.0000 0.81426  0.90617  0.82810  Biso   1.000  C
  C378     1.0000 0.97790  0.81158  0.60410  Biso   1.000  C
  C379     1.0000 0.93522  0.91529  0.55178  Biso   1.000  C
  C380     1.0000 0.92690  0.91950  0.56922  Biso   1.000  C
  C381     1.0000 0.94358  0.81229  0.61018  Biso   1.000  C
  Br33     1.0000 0.13276  0.22036  0.42206  Biso   1.000  Br
  Br34     1.0000 0.16156  0.22619  0.43631  Biso   1.000  Br
  C382     1.0000 0.81158  0.39590  0.02210  Biso   1.000  C
  C383     1.0000 0.91529  0.44822  0.06478  Biso   1.000  C
  C384     1.0000 0.91529  0.44817  0.06478  Biso   1.000  C
  C385     1.0000 0.91950  0.43078  0.07310  Biso   1.000  C
  C386     1.0000 0.81229  0.38982  0.05642  Biso   1.000  C
  C387     1.0000 0.82815  0.18574  0.09383  Biso   1.000  C
  C388     1.0000 0.82810  0.18574  0.09383  Biso   1.000  C
  Br35     1.0000 0.22036  0.57794  0.86724  Biso   1.000  Br
  Br36     1.0000 0.22619  0.56369  0.83844  Biso   1.000  Br
  C389     1.0000 0.91281  0.17960  0.50281  Biso   1.000  C
  H286     1.0000 0.95559  0.26411  0.47042  Biso   1.000  H
  H287     1.0000 0.95559  0.26411  0.47037  Biso   1.000  H
  C390     1.0000 0.88402  0.18031  0.49029  Biso   1.000  C
  H288     1.0000 0.89679  0.26699  0.43169  Biso   1.000  H
  H289     1.0000 0.87352  0.08891  0.52618  Biso   1.000  H
  H290     1.0000 0.87347  0.08891  0.52618  Biso   1.000  H
  C391     1.0000 0.73118  0.10671  0.07462  Biso   1.000  C
  C392     1.0000 0.73118  0.89329  0.92538  Biso   1.000  C
  C393     1.0000 0.82040  0.49719  0.91281  Biso   1.000  C
  H291     1.0000 0.73589  0.52958  0.95559  Biso   1.000  H
  C394     1.0000 0.81969  0.50971  0.88402  Biso   1.000  C
  H292     1.0000 0.73301  0.56831  0.89679  Biso   1.000  H
  H293     1.0000 0.91109  0.47382  0.87352  Biso   1.000  H
  H294     1.0000 0.91109  0.47382  0.87347  Biso   1.000  H
  H295     1.0000 0.79008  0.94520  0.81361  Biso   1.000  H
  C395     1.0000 0.94850  0.78248  0.53982  Biso   1.000  C
  C396     1.0000 0.90688  0.77990  0.56451  Biso   1.000  C
  H296     1.0000 0.95929  0.78598  0.64729  Biso   1.000  H
  H297     1.0000 0.00370  0.78638  0.63608  Biso   1.000  H
  C397     1.0000 0.89938  0.88620  0.50591  Biso   1.000  C
  H298     1.0000 0.94459  0.96229  0.54681  Biso   1.000  H
  H299     1.0000 0.91930  0.96609  0.57860  Biso   1.000  H
  H300     1.0000 0.78638  0.36392  0.99630  Biso   1.000  H
  C398     1.0000 0.78248  0.46018  0.05150  Biso   1.000  C
  C399     1.0000 0.77990  0.43549  0.09312  Biso   1.000  C
  H301     1.0000 0.78598  0.35271  0.04071  Biso   1.000  H
  C400     1.0000 0.88620  0.49409  0.10062  Biso   1.000  C
  H302     1.0000 0.96229  0.45319  0.05541  Biso   1.000  H
  C401     1.0000 0.88620  0.49409  0.10057  Biso   1.000  C
  H303     1.0000 0.96609  0.42140  0.08070  Biso   1.000  H
  H304     1.0000 0.81361  0.20992  0.05480  Biso   1.000  H
  Br37     1.0000 0.86724  0.22036  0.57794  Biso   1.000  Br
  Br38     1.0000 0.83844  0.22619  0.56369  Biso   1.000  Br
  N34      1.0000 0.72444  0.03280  0.07142  Biso   1.000  N
  H305     1.0000 0.68992  0.12602  0.09561  Biso   1.000  H
  H306     1.0000 0.73458  0.12480  0.02798  Biso   1.000  H
  H307     1.0000 0.68992  0.12597  0.09561  Biso   1.000  H
  N35      1.0000 0.72444  0.96720  0.92858  Biso   1.000  N
  H308     1.0000 0.68992  0.87398  0.90439  Biso   1.000  H
  H309     1.0000 0.73458  0.87520  0.97202  Biso   1.000  H
  N36      1.0000 0.72444  0.96720  0.92852  Biso   1.000  N
  Br39     1.0000 0.77964  0.42206  0.86724  Biso   1.000  Br
  Br40     1.0000 0.77381  0.43631  0.83844  Biso   1.000  Br
  C402     1.0000 0.91281  0.82040  0.49719  Biso   1.000  C
  H310     1.0000 0.95559  0.73589  0.52958  Biso   1.000  H
  C403     1.0000 0.88402  0.81969  0.50971  Biso   1.000  C
  H311     1.0000 0.89679  0.73301  0.56831  Biso   1.000  H
  H312     1.0000 0.87352  0.91109  0.47382  Biso   1.000  H
  H313     1.0000 0.87347  0.91109  0.47382  Biso   1.000  H
  C404     1.0000 0.82040  0.50281  0.08719  Biso   1.000  C
  H314     1.0000 0.73589  0.47042  0.04441  Biso   1.000  H
  H315     1.0000 0.73589  0.47037  0.04441  Biso   1.000  H
  C405     1.0000 0.81969  0.49029  0.11598  Biso   1.000  C
  H316     1.0000 0.73301  0.43169  0.10321  Biso   1.000  H
  H317     1.0000 0.91109  0.52618  0.12648  Biso   1.000  H
  C406     1.0000 0.78010  0.99650  0.03832  Biso   1.000  C
  C407     1.0000 0.66650  0.99909  0.08597  Biso   1.000  C
  C408     1.0000 0.78010  0.99650  0.03827  Biso   1.000  C
  C409     1.0000 0.78010  0.00350  0.96168  Biso   1.000  C
  C410     1.0000 0.66650  0.00091  0.91403  Biso   1.000  C
  Br41     1.0000 0.86724  0.77964  0.42206  Biso   1.000  Br
  Br42     1.0000 0.83844  0.77381  0.43631  Biso   1.000  Br
  Br43     1.0000 0.77964  0.57794  0.13276  Biso   1.000  Br
  Br44     1.0000 0.77381  0.56369  0.16156  Biso   1.000  Br
  H318     1.0000 0.77701  0.94779  0.05008  Biso   1.000  H
  H319     1.0000 0.82369  0.01379  0.05622  Biso   1.000  H
  O23      1.0000 0.65818  0.93871  0.07320  Biso   1.000  O
  C411     1.0000 0.61048  0.03802  0.11913  Biso   1.000  C
  H320     1.0000 0.82369  0.98621  0.94378  Biso   1.000  H
  H321     1.0000 0.77701  0.05221  0.94992  Biso   1.000  H
  C412     1.0000 0.61048  0.96198  0.88087  Biso   1.000  C
  O24      1.0000 0.65818  0.06129  0.92680  Biso   1.000  O
  C413     1.0000 0.60410  0.02210  0.18842  Biso   1.000  C
  C414     1.0000 0.55178  0.06478  0.08471  Biso   1.000  C
  C415     1.0000 0.60410  0.02210  0.18837  Biso   1.000  C
  C416     1.0000 0.56922  0.07310  0.08050  Biso   1.000  C
  C417     1.0000 0.61018  0.05642  0.18771  Biso   1.000  C
  C418     1.0000 0.60410  0.97790  0.81158  Biso   1.000  C
  C419     1.0000 0.55178  0.93522  0.91529  Biso   1.000  C
  C420     1.0000 0.56922  0.92690  0.91950  Biso   1.000  C
  C421     1.0000 0.61018  0.94358  0.81229  Biso   1.000  C
  H322     1.0000 0.63608  0.99630  0.21362  Biso   1.000  H
  C422     1.0000 0.53982  0.05150  0.21752  Biso   1.000  C
  C423     1.0000 0.56451  0.09312  0.22010  Biso   1.000  C
  H323     1.0000 0.64729  0.04071  0.21402  Biso   1.000  H
  C424     1.0000 0.50591  0.10062  0.11380  Biso   1.000  C
  H324     1.0000 0.54681  0.05541  0.03771  Biso   1.000  H
  C425     1.0000 0.50591  0.10057  0.11380  Biso   1.000  C
  H325     1.0000 0.57860  0.08070  0.03391  Biso   1.000  H
  C426     1.0000 0.53982  0.94850  0.78248  Biso   1.000  C
  C427     1.0000 0.56451  0.90688  0.77990  Biso   1.000  C
  H326     1.0000 0.64729  0.95929  0.78598  Biso   1.000  H
  H327     1.0000 0.63608  0.00370  0.78638  Biso   1.000  H
  C428     1.0000 0.50591  0.89938  0.88620  Biso   1.000  C
  H328     1.0000 0.54681  0.94459  0.96229  Biso   1.000  H
  H329     1.0000 0.57860  0.91930  0.96609  Biso   1.000  H
  C429     1.0000 0.49719  0.08719  0.17960  Biso   1.000  C
  H330     1.0000 0.52958  0.04441  0.26411  Biso   1.000  H
  C430     1.0000 0.50971  0.11598  0.18031  Biso   1.000  C
  H331     1.0000 0.56831  0.10321  0.26699  Biso   1.000  H
  H332     1.0000 0.47382  0.12648  0.08891  Biso   1.000  H
  C431     1.0000 0.49719  0.91281  0.82040  Biso   1.000  C
  H333     1.0000 0.52958  0.95559  0.73589  Biso   1.000  H
  C432     1.0000 0.50971  0.88402  0.81969  Biso   1.000  C
  H334     1.0000 0.56831  0.89679  0.73301  Biso   1.000  H
  H335     1.0000 0.47382  0.87352  0.91109  Biso   1.000  H
  H336     1.0000 0.47382  0.87347  0.91109  Biso   1.000  H
  Br45     1.0000 0.42206  0.13276  0.22036  Biso   1.000  Br
  Br46     1.0000 0.43631  0.16156  0.22619  Biso   1.000  Br
  Br47     1.0000 0.42206  0.86724  0.77964  Biso   1.000  Br
  Br48     1.0000 0.43631  0.83844  0.77381  Biso   1.000  Br
  C433     1.0000 0.21990  0.00350  0.03832  Biso   1.000  C
  N37      1.0000 0.27556  0.96720  0.07142  Biso   1.000  N
  H337     1.0000 0.22299  0.05221  0.05008  Biso   1.000  H
  C434     1.0000 0.21990  0.99650  0.96168  Biso   1.000  C
  H338     1.0000 0.17631  0.98621  0.05622  Biso   1.000  H
  C435     1.0000 0.33350  0.00091  0.08597  Biso   1.000  C
  C436     1.0000 0.21990  0.00350  0.03827  Biso   1.000  C
  C437     1.0000 0.26882  0.89329  0.07462  Biso   1.000  C
  H339     1.0000 0.22299  0.94779  0.94992  Biso   1.000  H
  N38      1.0000 0.27556  0.03280  0.92858  Biso   1.000  N
  H340     1.0000 0.17631  0.01379  0.94378  Biso   1.000  H
  N39      1.0000 0.27556  0.03280  0.92852  Biso   1.000  N
  O25      1.0000 0.34182  0.06129  0.07320  Biso   1.000  O
  C438     1.0000 0.38952  0.96198  0.11913  Biso   1.000  C
  C439     1.0000 0.20733  0.87063  0.11487  Biso   1.000  C
  H341     1.0000 0.31008  0.87398  0.09561  Biso   1.000  H
  H342     1.0000 0.26542  0.87520  0.02798  Biso   1.000  H
  H343     1.0000 0.26537  0.87520  0.02798  Biso   1.000  H
  C440     1.0000 0.33350  0.99909  0.91403  Biso   1.000  C
  C441     1.0000 0.26882  0.10671  0.92538  Biso   1.000  C
  C442     1.0000 0.39590  0.97790  0.18842  Biso   1.000  C
  C443     1.0000 0.44822  0.93522  0.08471  Biso   1.000  C
  C444     1.0000 0.39590  0.97790  0.18837  Biso   1.000  C
  C445     1.0000 0.44817  0.93522  0.08471  Biso   1.000  C
  C446     1.0000 0.43078  0.92690  0.08050  Biso   1.000  C
  C447     1.0000 0.38982  0.94358  0.18771  Biso   1.000  C
  C448     1.0000 0.18574  0.90617  0.17185  Biso   1.000  C
  C449     1.0000 0.17185  0.81426  0.09383  Biso   1.000  C
  O26      1.0000 0.34182  0.93871  0.92680  Biso   1.000  O
  C450     1.0000 0.38952  0.03802  0.88087  Biso   1.000  C
  C451     1.0000 0.20733  0.12937  0.88513  Biso   1.000  C
  H344     1.0000 0.31008  0.12602  0.90439  Biso   1.000  H
  H345     1.0000 0.26542  0.12480  0.97202  Biso   1.000  H
  C452     1.0000 0.20733  0.12937  0.88508  Biso   1.000  C
  H346     1.0000 0.31008  0.12597  0.90439  Biso   1.000  H
  H347     1.0000 0.26537  0.12480  0.97202  Biso   1.000  H
  H348     1.0000 0.36392  0.00370  0.21362  Biso   1.000  H
  C453     1.0000 0.46018  0.94850  0.21752  Biso   1.000  C
  C454     1.0000 0.43549  0.90688  0.22010  Biso   1.000  C
  H349     1.0000 0.35271  0.95929  0.21402  Biso   1.000  H
  C455     1.0000 0.49409  0.89938  0.11380  Biso   1.000  C
  H350     1.0000 0.45319  0.94459  0.03771  Biso   1.000  H
  H351     1.0000 0.42140  0.91930  0.03391  Biso   1.000  H
  H352     1.0000 0.20992  0.94520  0.18639  Biso   1.000  H
  C456     1.0000 0.12937  0.88513  0.20733  Biso   1.000  C
  C457     1.0000 0.12937  0.88508  0.20733  Biso   1.000  C
  C458     1.0000 0.11487  0.79267  0.12937  Biso   1.000  C
  H353     1.0000 0.18639  0.79008  0.05480  Biso   1.000  H
  C459     1.0000 0.39590  0.02210  0.81158  Biso   1.000  C
  C460     1.0000 0.44822  0.06478  0.91529  Biso   1.000  C
  C461     1.0000 0.44817  0.06478  0.91529  Biso   1.000  C
  C462     1.0000 0.43078  0.07310  0.91950  Biso   1.000  C
  C463     1.0000 0.38982  0.05642  0.81229  Biso   1.000  C
  C464     1.0000 0.18574  0.09383  0.82815  Biso   1.000  C
  C465     1.0000 0.17185  0.18574  0.90617  Biso   1.000  C
  C466     1.0000 0.18574  0.09383  0.82810  Biso   1.000  C
  C467     1.0000 0.50281  0.91281  0.17960  Biso   1.000  C
  H354     1.0000 0.47042  0.95559  0.26411  Biso   1.000  H
  H355     1.0000 0.47037  0.95559  0.26411  Biso   1.000  H
  C468     1.0000 0.49029  0.88402  0.18031  Biso   1.000  C
  H356     1.0000 0.43169  0.89679  0.26699  Biso   1.000  H
  H357     1.0000 0.52618  0.87352  0.08891  Biso   1.000  H
  H358     1.0000 0.52618  0.87347  0.08891  Biso   1.000  H
  C469     1.0000 0.09383  0.82815  0.18574  Biso   1.000  C
  C470     1.0000 0.10671  0.92538  0.26882  Biso   1.000  C
  C471     1.0000 0.09383  0.82810  0.18574  Biso   1.000  C
  C472     1.0000 0.07462  0.73118  0.10671  Biso   1.000  C
  H359     1.0000 0.36392  0.99630  0.78638  Biso   1.000  H
  C473     1.0000 0.46018  0.05150  0.78248  Biso   1.000  C
  C474     1.0000 0.43549  0.09312  0.77990  Biso   1.000  C
  H360     1.0000 0.35271  0.04071  0.78598  Biso   1.000  H
  C475     1.0000 0.49409  0.10062  0.88620  Biso   1.000  C
  H361     1.0000 0.45319  0.05541  0.96229  Biso   1.000  H
  C476     1.0000 0.49409  0.10057  0.88620  Biso   1.000  C
  H362     1.0000 0.42140  0.08070  0.96609  Biso   1.000  H
  H363     1.0000 0.20992  0.05480  0.81361  Biso   1.000  H
  C477     1.0000 0.12937  0.11487  0.79267  Biso   1.000  C
  H364     1.0000 0.18639  0.20992  0.94520  Biso   1.000  H
  C478     1.0000 0.11487  0.20733  0.87063  Biso   1.000  C
  Br49     1.0000 0.57794  0.86724  0.22036  Biso   1.000  Br
  Br50     1.0000 0.56369  0.83844  0.22619  Biso   1.000  Br
  H365     1.0000 0.05480  0.81361  0.20992  Biso   1.000  H
  N40      1.0000 0.03280  0.92858  0.27556  Biso   1.000  N
  H366     1.0000 0.12602  0.90439  0.31008  Biso   1.000  H
  H367     1.0000 0.12480  0.97202  0.26542  Biso   1.000  H
  H368     1.0000 0.12480  0.97202  0.26537  Biso   1.000  H
  N41      1.0000 0.03280  0.92852  0.27556  Biso   1.000  N
  H369     1.0000 0.12597  0.90439  0.31008  Biso   1.000  H
  N42      1.0000 0.07142  0.72444  0.03280  Biso   1.000  N
  H370     1.0000 0.09561  0.68992  0.12602  Biso   1.000  H
  H371     1.0000 0.02798  0.73458  0.12480  Biso   1.000  H
  H372     1.0000 0.09561  0.68992  0.12597  Biso   1.000  H
  C479     1.0000 0.50281  0.08719  0.82040  Biso   1.000  C
  H373     1.0000 0.47042  0.04441  0.73589  Biso   1.000  H
  H374     1.0000 0.47037  0.04441  0.73589  Biso   1.000  H
  C480     1.0000 0.49029  0.11598  0.81969  Biso   1.000  C
  H375     1.0000 0.43169  0.10321  0.73301  Biso   1.000  H
  H376     1.0000 0.52618  0.12648  0.91109  Biso   1.000  H
  C481     1.0000 0.10671  0.07462  0.73118  Biso   1.000  C
  C482     1.0000 0.09383  0.17185  0.81426  Biso   1.000  C
  C483     1.0000 0.07462  0.26882  0.89329  Biso   1.000  C
  C484     1.0000 0.99650  0.96168  0.21990  Biso   1.000  C
  C485     1.0000 0.99909  0.91403  0.33350  Biso   1.000  C
  C486     1.0000 0.03832  0.78010  0.99650  Biso   1.000  C
  C487     1.0000 0.08597  0.66650  0.99909  Biso   1.000  C
  C488     1.0000 0.03827  0.78010  0.99650  Biso   1.000  C
  Br51     1.0000 0.57794  0.13276  0.77964  Biso   1.000  Br
  Br52     1.0000 0.56369  0.16156  0.77381  Biso   1.000  Br
  N43      1.0000 0.03280  0.07142  0.72444  Biso   1.000  N
  H377     1.0000 0.12602  0.09561  0.68992  Biso   1.000  H
  H378     1.0000 0.12480  0.02798  0.73458  Biso   1.000  H
  H379     1.0000 0.12597  0.09561  0.68992  Biso   1.000  H
  H380     1.0000 0.05480  0.18639  0.79008  Biso   1.000  H
  N44      1.0000 0.07142  0.27556  0.96720  Biso   1.000  N
  H381     1.0000 0.09561  0.31008  0.87398  Biso   1.000  H
  H382     1.0000 0.02798  0.26542  0.87520  Biso   1.000  H
  H383     1.0000 0.02798  0.26537  0.87520  Biso   1.000  H
  C489     1.0000 0.00350  0.03832  0.21990  Biso   1.000  C
  C490     1.0000 0.00350  0.03827  0.21990  Biso   1.000  C
  H384     1.0000 0.94779  0.94992  0.22299  Biso   1.000  H
  H385     1.0000 0.01379  0.94378  0.17631  Biso   1.000  H
  O27      1.0000 0.93871  0.92680  0.34182  Biso   1.000  O
  C491     1.0000 0.03802  0.88087  0.38952  Biso   1.000  C
  C492     1.0000 0.96168  0.78010  0.00350  Biso   1.000  C
  H386     1.0000 0.05008  0.77701  0.94779  Biso   1.000  H
  H387     1.0000 0.05622  0.82369  0.01379  Biso   1.000  H
  O28      1.0000 0.07320  0.65818  0.93871  Biso   1.000  O
  C493     1.0000 0.11913  0.61048  0.03802  Biso   1.000  C
  C494     1.0000 0.99650  0.03832  0.78010  Biso   1.000  C
  C495     1.0000 0.99909  0.08597  0.66650  Biso   1.000  C
  C496     1.0000 0.99650  0.03827  0.78010  Biso   1.000  C
  C497     1.0000 0.03832  0.21990  0.00350  Biso   1.000  C
  C498     1.0000 0.08597  0.33350  0.00091  Biso   1.000  C
  C499     1.0000 0.03827  0.21990  0.00350  Biso   1.000  C
  H388     1.0000 0.05221  0.05008  0.22299  Biso   1.000  H
  N45      1.0000 0.96720  0.07142  0.27556  Biso   1.000  N
  H389     1.0000 0.98621  0.05622  0.17631  Biso   1.000  H
  C500     1.0000 0.02210  0.81158  0.39590  Biso   1.000  C
  C501     1.0000 0.06478  0.91529  0.44822  Biso   1.000  C
  C502     1.0000 0.06478  0.91529  0.44817  Biso   1.000  C
  C503     1.0000 0.07310  0.91950  0.43078  Biso   1.000  C
  C504     1.0000 0.05642  0.81229  0.38982  Biso   1.000  C
  N46      1.0000 0.92858  0.72444  0.96720  Biso   1.000  N
  H390     1.0000 0.94378  0.82369  0.98621  Biso   1.000  H
  N47      1.0000 0.92852  0.72444  0.96720  Biso   1.000  N
  H391     1.0000 0.94992  0.77701  0.05221  Biso   1.000  H
  C505     1.0000 0.18842  0.60410  0.02210  Biso   1.000  C
  C506     1.0000 0.08471  0.55178  0.06478  Biso   1.000  C
  C507     1.0000 0.18837  0.60410  0.02210  Biso   1.000  C
  C508     1.0000 0.08050  0.56922  0.07310  Biso   1.000  C
  C509     1.0000 0.18771  0.61018  0.05642  Biso   1.000  C
  H392     1.0000 0.94779  0.05008  0.77701  Biso   1.000  H
  C510     1.0000 0.00350  0.96168  0.78010  Biso   1.000  C
  H393     1.0000 0.01379  0.05622  0.82369  Biso   1.000  H
  O29      1.0000 0.93871  0.07320  0.65818  Biso   1.000  O
  C511     1.0000 0.03802  0.11913  0.61048  Biso   1.000  C
  H394     1.0000 0.05008  0.22299  0.05221  Biso   1.000  H
  C512     1.0000 0.96168  0.21990  0.99650  Biso   1.000  C
  H395     1.0000 0.05622  0.17631  0.98621  Biso   1.000  H
  O30      1.0000 0.07320  0.34182  0.06129  Biso   1.000  O
  C513     1.0000 0.11913  0.38952  0.96198  Biso   1.000  C
  C514     1.0000 0.00091  0.08597  0.33350  Biso   1.000  C
  C515     1.0000 0.89329  0.07462  0.26882  Biso   1.000  C
  H396     1.0000 0.99630  0.78638  0.36392  Biso   1.000  H
  C516     1.0000 0.05150  0.78248  0.46018  Biso   1.000  C
  C517     1.0000 0.09312  0.77990  0.43549  Biso   1.000  C
  H397     1.0000 0.04071  0.78598  0.35271  Biso   1.000  H
  C518     1.0000 0.10062  0.88620  0.49409  Biso   1.000  C
  H398     1.0000 0.05541  0.96229  0.45319  Biso   1.000  H
  C519     1.0000 0.10057  0.88620  0.49409  Biso   1.000  C
  H399     1.0000 0.08070  0.96609  0.42140  Biso   1.000  H
  C520     1.0000 0.92538  0.73118  0.89329  Biso   1.000  C
  C521     1.0000 0.91403  0.66650  0.00091  Biso   1.000  C
  H400     1.0000 0.21362  0.63608  0.99630  Biso   1.000  H
  C522     1.0000 0.21752  0.53982  0.05150  Biso   1.000  C
  C523     1.0000 0.22010  0.56451  0.09312  Biso   1.000  C
  H401     1.0000 0.21402  0.64729  0.04071  Biso   1.000  H
  C524     1.0000 0.11380  0.50591  0.10062  Biso   1.000  C
  H402     1.0000 0.03771  0.54681  0.05541  Biso   1.000  H
  C525     1.0000 0.11380  0.50591  0.10057  Biso   1.000  C
  H403     1.0000 0.03391  0.57860  0.08070  Biso   1.000  H
  N48      1.0000 0.96720  0.92858  0.72444  Biso   1.000  N
  H404     1.0000 0.98621  0.94378  0.82369  Biso   1.000  H
  N49      1.0000 0.96720  0.92852  0.72444  Biso   1.000  N
  H405     1.0000 0.05221  0.94992  0.77701  Biso   1.000  H
  C526     1.0000 0.02210  0.18842  0.60410  Biso   1.000  C
  C527     1.0000 0.06478  0.08471  0.55178  Biso   1.000  C
  C528     1.0000 0.02210  0.18837  0.60410  Biso   1.000  C
  C529     1.0000 0.07310  0.08050  0.56922  Biso   1.000  C
  C530     1.0000 0.05642  0.18771  0.61018  Biso   1.000  C
  H406     1.0000 0.94992  0.22299  0.94779  Biso   1.000  H
  N50      1.0000 0.92858  0.27556  0.03280  Biso   1.000  N
  H407     1.0000 0.94378  0.17631  0.01379  Biso   1.000  H
  N51      1.0000 0.92852  0.27556  0.03280  Biso   1.000  N
  C531     1.0000 0.18842  0.39590  0.97790  Biso   1.000  C
  C532     1.0000 0.08471  0.44822  0.93522  Biso   1.000  C
  C533     1.0000 0.08471  0.44817  0.93522  Biso   1.000  C
  C534     1.0000 0.18837  0.39590  0.97790  Biso   1.000  C
  C535     1.0000 0.08050  0.43078  0.92690  Biso   1.000  C
  C536     1.0000 0.18771  0.38982  0.94358  Biso   1.000  C
  O31      1.0000 0.06129  0.07320  0.34182  Biso   1.000  O
  C537     1.0000 0.96198  0.11913  0.38952  Biso   1.000  C
  C538     1.0000 0.87063  0.11487  0.20733  Biso   1.000  C
  H408     1.0000 0.87398  0.09561  0.31008  Biso   1.000  H
  H409     1.0000 0.87520  0.02798  0.26542  Biso   1.000  H
  H410     1.0000 0.87520  0.02798  0.26537  Biso   1.000  H
  C539     1.0000 0.08719  0.82040  0.50281  Biso   1.000  C
  H411     1.0000 0.04441  0.73589  0.47042  Biso   1.000  H
  H412     1.0000 0.04441  0.73589  0.47037  Biso   1.000  H
  C540     1.0000 0.11598  0.81969  0.49029  Biso   1.000  C
  H413     1.0000 0.10321  0.73301  0.43169  Biso   1.000  H
  H414     1.0000 0.12648  0.91109  0.52618  Biso   1.000  H
  C541     1.0000 0.88513  0.79267  0.87063  Biso   1.000  C
  H415     1.0000 0.90439  0.68992  0.87398  Biso   1.000  H
  H416     1.0000 0.97202  0.73458  0.87520  Biso   1.000  H
  C542     1.0000 0.88508  0.79267  0.87063  Biso   1.000  C
  C543     1.0000 0.88087  0.61048  0.96198  Biso   1.000  C
  O32      1.0000 0.92680  0.65818  0.06129  Biso   1.000  O
  C544     1.0000 0.17960  0.49719  0.08719  Biso   1.000  C
  H417     1.0000 0.26411  0.52958  0.04441  Biso   1.000  H
  C545     1.0000 0.18031  0.50971  0.11598  Biso   1.000  C
  H418     1.0000 0.26699  0.56831  0.10321  Biso   1.000  H
  H419     1.0000 0.08891  0.47382  0.12648  Biso   1.000  H
  C546     1.0000 0.89329  0.92538  0.73118  Biso   1.000  C
  C547     1.0000 0.00091  0.91403  0.66650  Biso   1.000  C
  H420     1.0000 0.99630  0.21362  0.63608  Biso   1.000  H
  C548     1.0000 0.05150  0.21752  0.53982  Biso   1.000  C
  C549     1.0000 0.09312  0.22010  0.56451  Biso   1.000  C
  H421     1.0000 0.04071  0.21402  0.64729  Biso   1.000  H
  C550     1.0000 0.10062  0.11380  0.50591  Biso   1.000  C
  H422     1.0000 0.05541  0.03771  0.54681  Biso   1.000  H
  C551     1.0000 0.10057  0.11380  0.50591  Biso   1.000  C
  H423     1.0000 0.08070  0.03391  0.57860  Biso   1.000  H
  C552     1.0000 0.91403  0.33350  0.99909  Biso   1.000  C
  C553     1.0000 0.92538  0.26882  0.10671  Biso   1.000  C
  H424     1.0000 0.21362  0.36392  0.00370  Biso   1.000  H
  C554     1.0000 0.21752  0.46018  0.94850  Biso   1.000  C
  C555     1.0000 0.22010  0.43549  0.90688  Biso   1.000  C
  H425     1.0000 0.21402  0.35271  0.95929  Biso   1.000  H
  C556     1.0000 0.11380  0.49409  0.89938  Biso   1.000  C
  H426     1.0000 0.03771  0.45319  0.94459  Biso   1.000  H
  H427     1.0000 0.03391  0.42140  0.91930  Biso   1.000  H
  C557     1.0000 0.97790  0.18842  0.39590  Biso   1.000  C
  C558     1.0000 0.93522  0.08471  0.44822  Biso   1.000  C
  C559     1.0000 0.93522  0.08471  0.44817  Biso   1.000  C
  C560     1.0000 0.97790  0.18837  0.39590  Biso   1.000  C
  C561     1.0000 0.92690  0.08050  0.43078  Biso   1.000  C
  C562     1.0000 0.94358  0.18771  0.38982  Biso   1.000  C
  C563     1.0000 0.90617  0.17185  0.18574  Biso   1.000  C
  C564     1.0000 0.81426  0.09383  0.17185  Biso   1.000  C
  Br53     1.0000 0.13276  0.77964  0.57794  Biso   1.000  Br
  Br54     1.0000 0.16156  0.77381  0.56369  Biso   1.000  Br
  C565     1.0000 0.90617  0.82815  0.81426  Biso   1.000  C
  C566     1.0000 0.82815  0.81426  0.90617  Biso   1.000  C
  C567     1.0000 0.90617  0.82810  0.81426  Biso   1.000  C
  C568     1.0000 0.82810  0.81426  0.90617  Biso   1.000  C
  C569     1.0000 0.81158  0.60410  0.97790  Biso   1.000  C
  C570     1.0000 0.91529  0.55178  0.93522  Biso   1.000  C
  C571     1.0000 0.91950  0.56922  0.92690  Biso   1.000  C
  C572     1.0000 0.81229  0.61018  0.94358  Biso   1.000  C
  Br55     1.0000 0.22036  0.42206  0.13276  Biso   1.000  Br
  Br56     1.0000 0.22619  0.43631  0.16156  Biso   1.000  Br
  C573     1.0000 0.87063  0.88513  0.79267  Biso   1.000  C
  C574     1.0000 0.87063  0.88508  0.79267  Biso   1.000  C
  H428     1.0000 0.87398  0.90439  0.68992  Biso   1.000  H
  H429     1.0000 0.87520  0.97202  0.73458  Biso   1.000  H
  C575     1.0000 0.96198  0.88087  0.61048  Biso   1.000  C
  O33      1.0000 0.06129  0.92680  0.65818  Biso   1.000  O
  C576     1.0000 0.08719  0.17960  0.49719  Biso   1.000  C
  H430     1.0000 0.04441  0.26411  0.52958  Biso   1.000  H
  C577     1.0000 0.11598  0.18031  0.50971  Biso   1.000  C
  H431     1.0000 0.10321  0.26699  0.56831  Biso   1.000  H
  H432     1.0000 0.12648  0.08891  0.47382  Biso   1.000  H
  O34      1.0000 0.92680  0.34182  0.93871  Biso   1.000  O
  C578     1.0000 0.88087  0.38952  0.03802  Biso   1.000  C
  C579     1.0000 0.88513  0.20733  0.12937  Biso   1.000  C
  C580     1.0000 0.88508  0.20733  0.12937  Biso   1.000  C
  H433     1.0000 0.90439  0.31008  0.12602  Biso   1.000  H
  H434     1.0000 0.97202  0.26542  0.12480  Biso   1.000  H
  H435     1.0000 0.90439  0.31008  0.12597  Biso   1.000  H
  H436     1.0000 0.97202  0.26537  0.12480  Biso   1.000  H
  C581     1.0000 0.17960  0.50281  0.91281  Biso   1.000  C
  H437     1.0000 0.26411  0.47042  0.95559  Biso   1.000  H
  H438     1.0000 0.26411  0.47037  0.95559  Biso   1.000  H
  C582     1.0000 0.18031  0.49029  0.88402  Biso   1.000  C
  H439     1.0000 0.26699  0.43169  0.89679  Biso   1.000  H
  H440     1.0000 0.08891  0.52618  0.87352  Biso   1.000  H
  H441     1.0000 0.08891  0.52618  0.87347  Biso   1.000  H
  H442     1.0000 0.00370  0.21362  0.36392  Biso   1.000  H
  C583     1.0000 0.94850  0.21752  0.46018  Biso   1.000  C
  C584     1.0000 0.90688  0.22010  0.43549  Biso   1.000  C
  H443     1.0000 0.95929  0.21402  0.35271  Biso   1.000  H
  C585     1.0000 0.89938  0.11380  0.49409  Biso   1.000  C
  H444     1.0000 0.94459  0.03771  0.45319  Biso   1.000  H
  H445     1.0000 0.91930  0.03391  0.42140  Biso   1.000  H
  H446     1.0000 0.94520  0.18639  0.20992  Biso   1.000  H
  C586     1.0000 0.79267  0.12937  0.11487  Biso   1.000  C
  H447     1.0000 0.79008  0.05480  0.18639  Biso   1.000  H
  H448     1.0000 0.94520  0.81361  0.79008  Biso   1.000  H
  H449     1.0000 0.81361  0.79008  0.94520  Biso   1.000  H
  C587     1.0000 0.79267  0.87063  0.88513  Biso   1.000  C
  C588     1.0000 0.79267  0.87063  0.88508  Biso   1.000  C
  C589     1.0000 0.78248  0.53982  0.94850  Biso   1.000  C
  C590     1.0000 0.77990  0.56451  0.90688  Biso   1.000  C
  H450     1.0000 0.78598  0.64729  0.95929  Biso   1.000  H
  H451     1.0000 0.78638  0.63608  0.00370  Biso   1.000  H
  C591     1.0000 0.88620  0.50591  0.89938  Biso   1.000  C
  H452     1.0000 0.96229  0.54681  0.94459  Biso   1.000  H
  H453     1.0000 0.96609  0.57860  0.91930  Biso   1.000  H
  C592     1.0000 0.81426  0.90617  0.82815  Biso   1.000  C
  C593     1.0000 0.81426  0.90617  0.82810  Biso   1.000  C
  C594     1.0000 0.97790  0.81158  0.60410  Biso   1.000  C
  C595     1.0000 0.93522  0.91529  0.55178  Biso   1.000  C
  C596     1.0000 0.92690  0.91950  0.56922  Biso   1.000  C
  C597     1.0000 0.94358  0.81229  0.61018  Biso   1.000  C
  Br57     1.0000 0.13276  0.22036  0.42206  Biso   1.000  Br
  Br58     1.0000 0.16156  0.22619  0.43631  Biso   1.000  Br
  C598     1.0000 0.81158  0.39590  0.02210  Biso   1.000  C
  C599     1.0000 0.91529  0.44822  0.06478  Biso   1.000  C
  C600     1.0000 0.91529  0.44817  0.06478  Biso   1.000  C
  C601     1.0000 0.91950  0.43078  0.07310  Biso   1.000  C
  C602     1.0000 0.81229  0.38982  0.05642  Biso   1.000  C
  C603     1.0000 0.82815  0.18574  0.09383  Biso   1.000  C
  C604     1.0000 0.82810  0.18574  0.09383  Biso   1.000  C
  Br59     1.0000 0.22036  0.57794  0.86724  Biso   1.000  Br
  Br60     1.0000 0.22619  0.56369  0.83844  Biso   1.000  Br
  C605     1.0000 0.91281  0.17960  0.50281  Biso   1.000  C
  H454     1.0000 0.95559  0.26411  0.47042  Biso   1.000  H
  H455     1.0000 0.95559  0.26411  0.47037  Biso   1.000  H
  C606     1.0000 0.88402  0.18031  0.49029  Biso   1.000  C
  H456     1.0000 0.89679  0.26699  0.43169  Biso   1.000  H
  H457     1.0000 0.87352  0.08891  0.52618  Biso   1.000  H
  H458     1.0000 0.87347  0.08891  0.52618  Biso   1.000  H
  C607     1.0000 0.73118  0.10671  0.07462  Biso   1.000  C
  C608     1.0000 0.73118  0.89329  0.92538  Biso   1.000  C
  C609     1.0000 0.82040  0.49719  0.91281  Biso   1.000  C
  H459     1.0000 0.73589  0.52958  0.95559  Biso   1.000  H
  C610     1.0000 0.81969  0.50971  0.88402  Biso   1.000  C
  H460     1.0000 0.73301  0.56831  0.89679  Biso   1.000  H
  H461     1.0000 0.91109  0.47382  0.87352  Biso   1.000  H
  H462     1.0000 0.91109  0.47382  0.87347  Biso   1.000  H
  H463     1.0000 0.79008  0.94520  0.81361  Biso   1.000  H
  C611     1.0000 0.94850  0.78248  0.53982  Biso   1.000  C
  C612     1.0000 0.90688  0.77990  0.56451  Biso   1.000  C
  H464     1.0000 0.95929  0.78598  0.64729  Biso   1.000  H
  H465     1.0000 0.00370  0.78638  0.63608  Biso   1.000  H
  C613     1.0000 0.89938  0.88620  0.50591  Biso   1.000  C
  H466     1.0000 0.94459  0.96229  0.54681  Biso   1.000  H
  H467     1.0000 0.91930  0.96609  0.57860  Biso   1.000  H
  H468     1.0000 0.78638  0.36392  0.99630  Biso   1.000  H
  C614     1.0000 0.78248  0.46018  0.05150  Biso   1.000  C
  C615     1.0000 0.77990  0.43549  0.09312  Biso   1.000  C
  H469     1.0000 0.78598  0.35271  0.04071  Biso   1.000  H
  C616     1.0000 0.88620  0.49409  0.10062  Biso   1.000  C
  H470     1.0000 0.96229  0.45319  0.05541  Biso   1.000  H
  C617     1.0000 0.88620  0.49409  0.10057  Biso   1.000  C
  H471     1.0000 0.96609  0.42140  0.08070  Biso   1.000  H
  H472     1.0000 0.81361  0.20992  0.05480  Biso   1.000  H
  Br61     1.0000 0.86724  0.22036  0.57794  Biso   1.000  Br
  Br62     1.0000 0.83844  0.22619  0.56369  Biso   1.000  Br
  N52      1.0000 0.72444  0.03280  0.07142  Biso   1.000  N
  H473     1.0000 0.68992  0.12602  0.09561  Biso   1.000  H
  H474     1.0000 0.73458  0.12480  0.02798  Biso   1.000  H
  H475     1.0000 0.68992  0.12597  0.09561  Biso   1.000  H
  N53      1.0000 0.72444  0.96720  0.92858  Biso   1.000  N
  H476     1.0000 0.68992  0.87398  0.90439  Biso   1.000  H
  H477     1.0000 0.73458  0.87520  0.97202  Biso   1.000  H
  N54      1.0000 0.72444  0.96720  0.92852  Biso   1.000  N
  Br63     1.0000 0.77964  0.42206  0.86724  Biso   1.000  Br
  Br64     1.0000 0.77381  0.43631  0.83844  Biso   1.000  Br
  C618     1.0000 0.91281  0.82040  0.49719  Biso   1.000  C
  H478     1.0000 0.95559  0.73589  0.52958  Biso   1.000  H
  C619     1.0000 0.88402  0.81969  0.50971  Biso   1.000  C
  H479     1.0000 0.89679  0.73301  0.56831  Biso   1.000  H
  H480     1.0000 0.87352  0.91109  0.47382  Biso   1.000  H
  H481     1.0000 0.87347  0.91109  0.47382  Biso   1.000  H
  C620     1.0000 0.82040  0.50281  0.08719  Biso   1.000  C
  H482     1.0000 0.73589  0.47042  0.04441  Biso   1.000  H
  H483     1.0000 0.73589  0.47037  0.04441  Biso   1.000  H
  C621     1.0000 0.81969  0.49029  0.11598  Biso   1.000  C
  H484     1.0000 0.73301  0.43169  0.10321  Biso   1.000  H
  H485     1.0000 0.91109  0.52618  0.12648  Biso   1.000  H
  C622     1.0000 0.78010  0.99650  0.03832  Biso   1.000  C
  C623     1.0000 0.66650  0.99909  0.08597  Biso   1.000  C
  C624     1.0000 0.78010  0.99650  0.03827  Biso   1.000  C
  C625     1.0000 0.78010  0.00350  0.96168  Biso   1.000  C
  C626     1.0000 0.66650  0.00091  0.91403  Biso   1.000  C
  Br65     1.0000 0.86724  0.77964  0.42206  Biso   1.000  Br
  Br66     1.0000 0.83844  0.77381  0.43631  Biso   1.000  Br
  Br67     1.0000 0.77964  0.57794  0.13276  Biso   1.000  Br
  Br68     1.0000 0.77381  0.56369  0.16156  Biso   1.000  Br
  H486     1.0000 0.77701  0.94779  0.05008  Biso   1.000  H
  H487     1.0000 0.82369  0.01379  0.05622  Biso   1.000  H
  O35      1.0000 0.65818  0.93871  0.07320  Biso   1.000  O
  C627     1.0000 0.61048  0.03802  0.11913  Biso   1.000  C
  H488     1.0000 0.82369  0.98621  0.94378  Biso   1.000  H
  H489     1.0000 0.77701  0.05221  0.94992  Biso   1.000  H
  C628     1.0000 0.61048  0.96198  0.88087  Biso   1.000  C
  O36      1.0000 0.65818  0.06129  0.92680  Biso   1.000  O
  C629     1.0000 0.60410  0.02210  0.18842  Biso   1.000  C
  C630     1.0000 0.55178  0.06478  0.08471  Biso   1.000  C
  C631     1.0000 0.60410  0.02210  0.18837  Biso   1.000  C
  C632     1.0000 0.56922  0.07310  0.08050  Biso   1.000  C
  C633     1.0000 0.61018  0.05642  0.18771  Biso   1.000  C
  C634     1.0000 0.60410  0.97790  0.81158  Biso   1.000  C
  C635     1.0000 0.55178  0.93522  0.91529  Biso   1.000  C
  C636     1.0000 0.56922  0.92690  0.91950  Biso   1.000  C
  C637     1.0000 0.61018  0.94358  0.81229  Biso   1.000  C
  H490     1.0000 0.63608  0.99630  0.21362  Biso   1.000  H
  C638     1.0000 0.53982  0.05150  0.21752  Biso   1.000  C
  C639     1.0000 0.56451  0.09312  0.22010  Biso   1.000  C
  H491     1.0000 0.64729  0.04071  0.21402  Biso   1.000  H
  C640     1.0000 0.50591  0.10062  0.11380  Biso   1.000  C
  H492     1.0000 0.54681  0.05541  0.03771  Biso   1.000  H
  C641     1.0000 0.50591  0.10057  0.11380  Biso   1.000  C
  H493     1.0000 0.57860  0.08070  0.03391  Biso   1.000  H
  C642     1.0000 0.53982  0.94850  0.78248  Biso   1.000  C
  C643     1.0000 0.56451  0.90688  0.77990  Biso   1.000  C
  H494     1.0000 0.64729  0.95929  0.78598  Biso   1.000  H
  H495     1.0000 0.63608  0.00370  0.78638  Biso   1.000  H
  C644     1.0000 0.50591  0.89938  0.88620  Biso   1.000  C
  H496     1.0000 0.54681  0.94459  0.96229  Biso   1.000  H
  H497     1.0000 0.57860  0.91930  0.96609  Biso   1.000  H
  C645     1.0000 0.49719  0.08719  0.17960  Biso   1.000  C
  H498     1.0000 0.52958  0.04441  0.26411  Biso   1.000  H
  C646     1.0000 0.50971  0.11598  0.18031  Biso   1.000  C
  H499     1.0000 0.56831  0.10321  0.26699  Biso   1.000  H
  H500     1.0000 0.47382  0.12648  0.08891  Biso   1.000  H
  C647     1.0000 0.49719  0.91281  0.82040  Biso   1.000  C
  H501     1.0000 0.52958  0.95559  0.73589  Biso   1.000  H
  C648     1.0000 0.50971  0.88402  0.81969  Biso   1.000  C
  H502     1.0000 0.56831  0.89679  0.73301  Biso   1.000  H
  H503     1.0000 0.47382  0.87352  0.91109  Biso   1.000  H
  H504     1.0000 0.47382  0.87347  0.91109  Biso   1.000  H
  Br69     1.0000 0.42206  0.13276  0.22036  Biso   1.000  Br
  Br70     1.0000 0.43631  0.16156  0.22619  Biso   1.000  Br
  Br71     1.0000 0.42206  0.86724  0.77964  Biso   1.000  Br
  Br72     1.0000 0.43631  0.83844  0.77381  Biso   1.000  Br
  C649     1.0000 0.21990  0.00350  0.03832  Biso   1.000  C
  N55      1.0000 0.27556  0.96720  0.07142  Biso   1.000  N
  H505     1.0000 0.22299  0.05221  0.05008  Biso   1.000  H
  C650     1.0000 0.21990  0.99650  0.96168  Biso   1.000  C
  H506     1.0000 0.17631  0.98621  0.05622  Biso   1.000  H
  C651     1.0000 0.33350  0.00091  0.08597  Biso   1.000  C
  C652     1.0000 0.21990  0.00350  0.03827  Biso   1.000  C
  C653     1.0000 0.26882  0.89329  0.07462  Biso   1.000  C
  H507     1.0000 0.22299  0.94779  0.94992  Biso   1.000  H
  N56      1.0000 0.27556  0.03280  0.92858  Biso   1.000  N
  H508     1.0000 0.17631  0.01379  0.94378  Biso   1.000  H
  N57      1.0000 0.27556  0.03280  0.92852  Biso   1.000  N
  O37      1.0000 0.34182  0.06129  0.07320  Biso   1.000  O
  C654     1.0000 0.38952  0.96198  0.11913  Biso   1.000  C
  C655     1.0000 0.20733  0.87063  0.11487  Biso   1.000  C
  H509     1.0000 0.31008  0.87398  0.09561  Biso   1.000  H
  H510     1.0000 0.26542  0.87520  0.02798  Biso   1.000  H
  H511     1.0000 0.26537  0.87520  0.02798  Biso   1.000  H
  C656     1.0000 0.33350  0.99909  0.91403  Biso   1.000  C
  C657     1.0000 0.26882  0.10671  0.92538  Biso   1.000  C
  C658     1.0000 0.39590  0.97790  0.18842  Biso   1.000  C
  C659     1.0000 0.44822  0.93522  0.08471  Biso   1.000  C
  C660     1.0000 0.39590  0.97790  0.18837  Biso   1.000  C
  C661     1.0000 0.44817  0.93522  0.08471  Biso   1.000  C
  C662     1.0000 0.43078  0.92690  0.08050  Biso   1.000  C
  C663     1.0000 0.38982  0.94358  0.18771  Biso   1.000  C
  C664     1.0000 0.18574  0.90617  0.17185  Biso   1.000  C
  C665     1.0000 0.17185  0.81426  0.09383  Biso   1.000  C
  O38      1.0000 0.34182  0.93871  0.92680  Biso   1.000  O
  C666     1.0000 0.38952  0.03802  0.88087  Biso   1.000  C
  C667     1.0000 0.20733  0.12937  0.88513  Biso   1.000  C
  H512     1.0000 0.31008  0.12602  0.90439  Biso   1.000  H
  H513     1.0000 0.26542  0.12480  0.97202  Biso   1.000  H
  C668     1.0000 0.20733  0.12937  0.88508  Biso   1.000  C
  H514     1.0000 0.31008  0.12597  0.90439  Biso   1.000  H
  H515     1.0000 0.26537  0.12480  0.97202  Biso   1.000  H
  H516     1.0000 0.36392  0.00370  0.21362  Biso   1.000  H
  C669     1.0000 0.46018  0.94850  0.21752  Biso   1.000  C
  C670     1.0000 0.43549  0.90688  0.22010  Biso   1.000  C
  H517     1.0000 0.35271  0.95929  0.21402  Biso   1.000  H
  C671     1.0000 0.49409  0.89938  0.11380  Biso   1.000  C
  H518     1.0000 0.45319  0.94459  0.03771  Biso   1.000  H
  H519     1.0000 0.42140  0.91930  0.03391  Biso   1.000  H
  H520     1.0000 0.20992  0.94520  0.18639  Biso   1.000  H
  C672     1.0000 0.12937  0.88513  0.20733  Biso   1.000  C
  C673     1.0000 0.12937  0.88508  0.20733  Biso   1.000  C
  C674     1.0000 0.11487  0.79267  0.12937  Biso   1.000  C
  H521     1.0000 0.18639  0.79008  0.05480  Biso   1.000  H
  C675     1.0000 0.39590  0.02210  0.81158  Biso   1.000  C
  C676     1.0000 0.44822  0.06478  0.91529  Biso   1.000  C
  C677     1.0000 0.44817  0.06478  0.91529  Biso   1.000  C
  C678     1.0000 0.43078  0.07310  0.91950  Biso   1.000  C
  C679     1.0000 0.38982  0.05642  0.81229  Biso   1.000  C
  C680     1.0000 0.18574  0.09383  0.82815  Biso   1.000  C
  C681     1.0000 0.17185  0.18574  0.90617  Biso   1.000  C
  C682     1.0000 0.18574  0.09383  0.82810  Biso   1.000  C
  C683     1.0000 0.50281  0.91281  0.17960  Biso   1.000  C
  H522     1.0000 0.47042  0.95559  0.26411  Biso   1.000  H
  H523     1.0000 0.47037  0.95559  0.26411  Biso   1.000  H
  C684     1.0000 0.49029  0.88402  0.18031  Biso   1.000  C
  H524     1.0000 0.43169  0.89679  0.26699  Biso   1.000  H
  H525     1.0000 0.52618  0.87352  0.08891  Biso   1.000  H
  H526     1.0000 0.52618  0.87347  0.08891  Biso   1.000  H
  C685     1.0000 0.09383  0.82815  0.18574  Biso   1.000  C
  C686     1.0000 0.10671  0.92538  0.26882  Biso   1.000  C
  C687     1.0000 0.09383  0.82810  0.18574  Biso   1.000  C
  C688     1.0000 0.07462  0.73118  0.10671  Biso   1.000  C
  H527     1.0000 0.36392  0.99630  0.78638  Biso   1.000  H
  C689     1.0000 0.46018  0.05150  0.78248  Biso   1.000  C
  C690     1.0000 0.43549  0.09312  0.77990  Biso   1.000  C
  H528     1.0000 0.35271  0.04071  0.78598  Biso   1.000  H
  C691     1.0000 0.49409  0.10062  0.88620  Biso   1.000  C
  H529     1.0000 0.45319  0.05541  0.96229  Biso   1.000  H
  C692     1.0000 0.49409  0.10057  0.88620  Biso   1.000  C
  H530     1.0000 0.42140  0.08070  0.96609  Biso   1.000  H
  H531     1.0000 0.20992  0.05480  0.81361  Biso   1.000  H
  C693     1.0000 0.12937  0.11487  0.79267  Biso   1.000  C
  H532     1.0000 0.18639  0.20992  0.94520  Biso   1.000  H
  C694     1.0000 0.11487  0.20733  0.87063  Biso   1.000  C
  Br73     1.0000 0.57794  0.86724  0.22036  Biso   1.000  Br
  Br74     1.0000 0.56369  0.83844  0.22619  Biso   1.000  Br
  H533     1.0000 0.05480  0.81361  0.20992  Biso   1.000  H
  N58      1.0000 0.03280  0.92858  0.27556  Biso   1.000  N
  H534     1.0000 0.12602  0.90439  0.31008  Biso   1.000  H
  H535     1.0000 0.12480  0.97202  0.26542  Biso   1.000  H
  H536     1.0000 0.12480  0.97202  0.26537  Biso   1.000  H
  N59      1.0000 0.03280  0.92852  0.27556  Biso   1.000  N
  H537     1.0000 0.12597  0.90439  0.31008  Biso   1.000  H
  N60      1.0000 0.07142  0.72444  0.03280  Biso   1.000  N
  H538     1.0000 0.09561  0.68992  0.12602  Biso   1.000  H
  H539     1.0000 0.02798  0.73458  0.12480  Biso   1.000  H
  H540     1.0000 0.09561  0.68992  0.12597  Biso   1.000  H
  C695     1.0000 0.50281  0.08719  0.82040  Biso   1.000  C
  H541     1.0000 0.47042  0.04441  0.73589  Biso   1.000  H
  H542     1.0000 0.47037  0.04441  0.73589  Biso   1.000  H
  C696     1.0000 0.49029  0.11598  0.81969  Biso   1.000  C
  H543     1.0000 0.43169  0.10321  0.73301  Biso   1.000  H
  H544     1.0000 0.52618  0.12648  0.91109  Biso   1.000  H
  C697     1.0000 0.10671  0.07462  0.73118  Biso   1.000  C
  C698     1.0000 0.09383  0.17185  0.81426  Biso   1.000  C
  C699     1.0000 0.07462  0.26882  0.89329  Biso   1.000  C
  C700     1.0000 0.99650  0.96168  0.21990  Biso   1.000  C
  C701     1.0000 0.99909  0.91403  0.33350  Biso   1.000  C
  C702     1.0000 0.03832  0.78010  0.99650  Biso   1.000  C
  C703     1.0000 0.08597  0.66650  0.99909  Biso   1.000  C
  C704     1.0000 0.03827  0.78010  0.99650  Biso   1.000  C
  Br75     1.0000 0.57794  0.13276  0.77964  Biso   1.000  Br
  Br76     1.0000 0.56369  0.16156  0.77381  Biso   1.000  Br
  N61      1.0000 0.03280  0.07142  0.72444  Biso   1.000  N
  H545     1.0000 0.12602  0.09561  0.68992  Biso   1.000  H
  H546     1.0000 0.12480  0.02798  0.73458  Biso   1.000  H
  H547     1.0000 0.12597  0.09561  0.68992  Biso   1.000  H
  H548     1.0000 0.05480  0.18639  0.79008  Biso   1.000  H
  N62      1.0000 0.07142  0.27556  0.96720  Biso   1.000  N
  H549     1.0000 0.09561  0.31008  0.87398  Biso   1.000  H
  H550     1.0000 0.02798  0.26542  0.87520  Biso   1.000  H
  H551     1.0000 0.02798  0.26537  0.87520  Biso   1.000  H
  C705     1.0000 0.00350  0.03832  0.21990  Biso   1.000  C
  C706     1.0000 0.00350  0.03827  0.21990  Biso   1.000  C
  H552     1.0000 0.94779  0.94992  0.22299  Biso   1.000  H
  H553     1.0000 0.01379  0.94378  0.17631  Biso   1.000  H
  O39      1.0000 0.93871  0.92680  0.34182  Biso   1.000  O
  C707     1.0000 0.03802  0.88087  0.38952  Biso   1.000  C
  C708     1.0000 0.96168  0.78010  0.00350  Biso   1.000  C
  H554     1.0000 0.05008  0.77701  0.94779  Biso   1.000  H
  H555     1.0000 0.05622  0.82369  0.01379  Biso   1.000  H
  O40      1.0000 0.07320  0.65818  0.93871  Biso   1.000  O
  C709     1.0000 0.11913  0.61048  0.03802  Biso   1.000  C
  C710     1.0000 0.99650  0.03832  0.78010  Biso   1.000  C
  C711     1.0000 0.99909  0.08597  0.66650  Biso   1.000  C
  C712     1.0000 0.99650  0.03827  0.78010  Biso   1.000  C
  C713     1.0000 0.03832  0.21990  0.00350  Biso   1.000  C
  C714     1.0000 0.08597  0.33350  0.00091  Biso   1.000  C
  C715     1.0000 0.03827  0.21990  0.00350  Biso   1.000  C
  H556     1.0000 0.05221  0.05008  0.22299  Biso   1.000  H
  N63      1.0000 0.96720  0.07142  0.27556  Biso   1.000  N
  H557     1.0000 0.98621  0.05622  0.17631  Biso   1.000  H
  C716     1.0000 0.02210  0.81158  0.39590  Biso   1.000  C
  C717     1.0000 0.06478  0.91529  0.44822  Biso   1.000  C
  C718     1.0000 0.06478  0.91529  0.44817  Biso   1.000  C
  C719     1.0000 0.07310  0.91950  0.43078  Biso   1.000  C
  C720     1.0000 0.05642  0.81229  0.38982  Biso   1.000  C
  N64      1.0000 0.92858  0.72444  0.96720  Biso   1.000  N
  H558     1.0000 0.94378  0.82369  0.98621  Biso   1.000  H
  N65      1.0000 0.92852  0.72444  0.96720  Biso   1.000  N
  H559     1.0000 0.94992  0.77701  0.05221  Biso   1.000  H
  C721     1.0000 0.18842  0.60410  0.02210  Biso   1.000  C
  C722     1.0000 0.08471  0.55178  0.06478  Biso   1.000  C
  C723     1.0000 0.18837  0.60410  0.02210  Biso   1.000  C
  C724     1.0000 0.08050  0.56922  0.07310  Biso   1.000  C
  C725     1.0000 0.18771  0.61018  0.05642  Biso   1.000  C
  H560     1.0000 0.94779  0.05008  0.77701  Biso   1.000  H
  C726     1.0000 0.00350  0.96168  0.78010  Biso   1.000  C
  H561     1.0000 0.01379  0.05622  0.82369  Biso   1.000  H
  O41      1.0000 0.93871  0.07320  0.65818  Biso   1.000  O
  C727     1.0000 0.03802  0.11913  0.61048  Biso   1.000  C
  H562     1.0000 0.05008  0.22299  0.05221  Biso   1.000  H
  C728     1.0000 0.96168  0.21990  0.99650  Biso   1.000  C
  H563     1.0000 0.05622  0.17631  0.98621  Biso   1.000  H
  O42      1.0000 0.07320  0.34182  0.06129  Biso   1.000  O
  C729     1.0000 0.11913  0.38952  0.96198  Biso   1.000  C
  C730     1.0000 0.00091  0.08597  0.33350  Biso   1.000  C
  C731     1.0000 0.89329  0.07462  0.26882  Biso   1.000  C
  H564     1.0000 0.99630  0.78638  0.36392  Biso   1.000  H
  C732     1.0000 0.05150  0.78248  0.46018  Biso   1.000  C
  C733     1.0000 0.09312  0.77990  0.43549  Biso   1.000  C
  H565     1.0000 0.04071  0.78598  0.35271  Biso   1.000  H
  C734     1.0000 0.10062  0.88620  0.49409  Biso   1.000  C
  H566     1.0000 0.05541  0.96229  0.45319  Biso   1.000  H
  C735     1.0000 0.10057  0.88620  0.49409  Biso   1.000  C
  H567     1.0000 0.08070  0.96609  0.42140  Biso   1.000  H
  C736     1.0000 0.92538  0.73118  0.89329  Biso   1.000  C
  C737     1.0000 0.91403  0.66650  0.00091  Biso   1.000  C
  H568     1.0000 0.21362  0.63608  0.99630  Biso   1.000  H
  C738     1.0000 0.21752  0.53982  0.05150  Biso   1.000  C
  C739     1.0000 0.22010  0.56451  0.09312  Biso   1.000  C
  H569     1.0000 0.21402  0.64729  0.04071  Biso   1.000  H
  C740     1.0000 0.11380  0.50591  0.10062  Biso   1.000  C
  H570     1.0000 0.03771  0.54681  0.05541  Biso   1.000  H
  C741     1.0000 0.11380  0.50591  0.10057  Biso   1.000  C
  H571     1.0000 0.03391  0.57860  0.08070  Biso   1.000  H
  N66      1.0000 0.96720  0.92858  0.72444  Biso   1.000  N
  H572     1.0000 0.98621  0.94378  0.82369  Biso   1.000  H
  N67      1.0000 0.96720  0.92852  0.72444  Biso   1.000  N
  H573     1.0000 0.05221  0.94992  0.77701  Biso   1.000  H
  C742     1.0000 0.02210  0.18842  0.60410  Biso   1.000  C
  C743     1.0000 0.06478  0.08471  0.55178  Biso   1.000  C
  C744     1.0000 0.02210  0.18837  0.60410  Biso   1.000  C
  C745     1.0000 0.07310  0.08050  0.56922  Biso   1.000  C
  C746     1.0000 0.05642  0.18771  0.61018  Biso   1.000  C
  H574     1.0000 0.94992  0.22299  0.94779  Biso   1.000  H
  N68      1.0000 0.92858  0.27556  0.03280  Biso   1.000  N
  H575     1.0000 0.94378  0.17631  0.01379  Biso   1.000  H
  N69      1.0000 0.92852  0.27556  0.03280  Biso   1.000  N
  C747     1.0000 0.18842  0.39590  0.97790  Biso   1.000  C
  C748     1.0000 0.08471  0.44822  0.93522  Biso   1.000  C
  C749     1.0000 0.08471  0.44817  0.93522  Biso   1.000  C
  C750     1.0000 0.18837  0.39590  0.97790  Biso   1.000  C
  C751     1.0000 0.08050  0.43078  0.92690  Biso   1.000  C
  C752     1.0000 0.18771  0.38982  0.94358  Biso   1.000  C
  O43      1.0000 0.06129  0.07320  0.34182  Biso   1.000  O
  C753     1.0000 0.96198  0.11913  0.38952  Biso   1.000  C
  C754     1.0000 0.87063  0.11487  0.20733  Biso   1.000  C
  H576     1.0000 0.87398  0.09561  0.31008  Biso   1.000  H
  H577     1.0000 0.87520  0.02798  0.26542  Biso   1.000  H
  H578     1.0000 0.87520  0.02798  0.26537  Biso   1.000  H
  C755     1.0000 0.08719  0.82040  0.50281  Biso   1.000  C
  H579     1.0000 0.04441  0.73589  0.47042  Biso   1.000  H
  H580     1.0000 0.04441  0.73589  0.47037  Biso   1.000  H
  C756     1.0000 0.11598  0.81969  0.49029  Biso   1.000  C
  H581     1.0000 0.10321  0.73301  0.43169  Biso   1.000  H
  H582     1.0000 0.12648  0.91109  0.52618  Biso   1.000  H
  C757     1.0000 0.88513  0.79267  0.87063  Biso   1.000  C
  H583     1.0000 0.90439  0.68992  0.87398  Biso   1.000  H
  H584     1.0000 0.97202  0.73458  0.87520  Biso   1.000  H
  C758     1.0000 0.88508  0.79267  0.87063  Biso   1.000  C
  C759     1.0000 0.88087  0.61048  0.96198  Biso   1.000  C
  O44      1.0000 0.92680  0.65818  0.06129  Biso   1.000  O
  C760     1.0000 0.17960  0.49719  0.08719  Biso   1.000  C
  H585     1.0000 0.26411  0.52958  0.04441  Biso   1.000  H
  C761     1.0000 0.18031  0.50971  0.11598  Biso   1.000  C
  H586     1.0000 0.26699  0.56831  0.10321  Biso   1.000  H
  H587     1.0000 0.08891  0.47382  0.12648  Biso   1.000  H
  C762     1.0000 0.89329  0.92538  0.73118  Biso   1.000  C
  C763     1.0000 0.00091  0.91403  0.66650  Biso   1.000  C
  H588     1.0000 0.99630  0.21362  0.63608  Biso   1.000  H
  C764     1.0000 0.05150  0.21752  0.53982  Biso   1.000  C
  C765     1.0000 0.09312  0.22010  0.56451  Biso   1.000  C
  H589     1.0000 0.04071  0.21402  0.64729  Biso   1.000  H
  C766     1.0000 0.10062  0.11380  0.50591  Biso   1.000  C
  H590     1.0000 0.05541  0.03771  0.54681  Biso   1.000  H
  C767     1.0000 0.10057  0.11380  0.50591  Biso   1.000  C
  H591     1.0000 0.08070  0.03391  0.57860  Biso   1.000  H
  C768     1.0000 0.91403  0.33350  0.99909  Biso   1.000  C
  C769     1.0000 0.92538  0.26882  0.10671  Biso   1.000  C
  H592     1.0000 0.21362  0.36392  0.00370  Biso   1.000  H
  C770     1.0000 0.21752  0.46018  0.94850  Biso   1.000  C
  C771     1.0000 0.22010  0.43549  0.90688  Biso   1.000  C
  H593     1.0000 0.21402  0.35271  0.95929  Biso   1.000  H
  C772     1.0000 0.11380  0.49409  0.89938  Biso   1.000  C
  H594     1.0000 0.03771  0.45319  0.94459  Biso   1.000  H
  H595     1.0000 0.03391  0.42140  0.91930  Biso   1.000  H
  C773     1.0000 0.97790  0.18842  0.39590  Biso   1.000  C
  C774     1.0000 0.93522  0.08471  0.44822  Biso   1.000  C
  C775     1.0000 0.93522  0.08471  0.44817  Biso   1.000  C
  C776     1.0000 0.97790  0.18837  0.39590  Biso   1.000  C
  C777     1.0000 0.92690  0.08050  0.43078  Biso   1.000  C
  C778     1.0000 0.94358  0.18771  0.38982  Biso   1.000  C
  C779     1.0000 0.90617  0.17185  0.18574  Biso   1.000  C
  C780     1.0000 0.81426  0.09383  0.17185  Biso   1.000  C
  Br77     1.0000 0.13276  0.77964  0.57794  Biso   1.000  Br
  Br78     1.0000 0.16156  0.77381  0.56369  Biso   1.000  Br
  C781     1.0000 0.90617  0.82815  0.81426  Biso   1.000  C
  C782     1.0000 0.82815  0.81426  0.90617  Biso   1.000  C
  C783     1.0000 0.90617  0.82810  0.81426  Biso   1.000  C
  C784     1.0000 0.82810  0.81426  0.90617  Biso   1.000  C
  C785     1.0000 0.81158  0.60410  0.97790  Biso   1.000  C
  C786     1.0000 0.91529  0.55178  0.93522  Biso   1.000  C
  C787     1.0000 0.91950  0.56922  0.92690  Biso   1.000  C
  C788     1.0000 0.81229  0.61018  0.94358  Biso   1.000  C
  Br79     1.0000 0.22036  0.42206  0.13276  Biso   1.000  Br
  Br80     1.0000 0.22619  0.43631  0.16156  Biso   1.000  Br
  C789     1.0000 0.87063  0.88513  0.79267  Biso   1.000  C
  C790     1.0000 0.87063  0.88508  0.79267  Biso   1.000  C
  H596     1.0000 0.87398  0.90439  0.68992  Biso   1.000  H
  H597     1.0000 0.87520  0.97202  0.73458  Biso   1.000  H
  C791     1.0000 0.96198  0.88087  0.61048  Biso   1.000  C
  O45      1.0000 0.06129  0.92680  0.65818  Biso   1.000  O
  C792     1.0000 0.08719  0.17960  0.49719  Biso   1.000  C
  H598     1.0000 0.04441  0.26411  0.52958  Biso   1.000  H
  C793     1.0000 0.11598  0.18031  0.50971  Biso   1.000  C
  H599     1.0000 0.10321  0.26699  0.56831  Biso   1.000  H
  H600     1.0000 0.12648  0.08891  0.47382  Biso   1.000  H
  O46      1.0000 0.92680  0.34182  0.93871  Biso   1.000  O
  C794     1.0000 0.88087  0.38952  0.03802  Biso   1.000  C
  C795     1.0000 0.88513  0.20733  0.12937  Biso   1.000  C
  C796     1.0000 0.88508  0.20733  0.12937  Biso   1.000  C
  H601     1.0000 0.90439  0.31008  0.12602  Biso   1.000  H
  H602     1.0000 0.97202  0.26542  0.12480  Biso   1.000  H
  H603     1.0000 0.90439  0.31008  0.12597  Biso   1.000  H
  H604     1.0000 0.97202  0.26537  0.12480  Biso   1.000  H
  C797     1.0000 0.17960  0.50281  0.91281  Biso   1.000  C
  H605     1.0000 0.26411  0.47042  0.95559  Biso   1.000  H
  H606     1.0000 0.26411  0.47037  0.95559  Biso   1.000  H
  C798     1.0000 0.18031  0.49029  0.88402  Biso   1.000  C
  H607     1.0000 0.26699  0.43169  0.89679  Biso   1.000  H
  H608     1.0000 0.08891  0.52618  0.87352  Biso   1.000  H
  H609     1.0000 0.08891  0.52618  0.87347  Biso   1.000  H
  H610     1.0000 0.00370  0.21362  0.36392  Biso   1.000  H
  C799     1.0000 0.94850  0.21752  0.46018  Biso   1.000  C
  C800     1.0000 0.90688  0.22010  0.43549  Biso   1.000  C
  H611     1.0000 0.95929  0.21402  0.35271  Biso   1.000  H
  C801     1.0000 0.89938  0.11380  0.49409  Biso   1.000  C
  H612     1.0000 0.94459  0.03771  0.45319  Biso   1.000  H
  H613     1.0000 0.91930  0.03391  0.42140  Biso   1.000  H
  H614     1.0000 0.94520  0.18639  0.20992  Biso   1.000  H
  C802     1.0000 0.79267  0.12937  0.11487  Biso   1.000  C
  H615     1.0000 0.79008  0.05480  0.18639  Biso   1.000  H
  H616     1.0000 0.94520  0.81361  0.79008  Biso   1.000  H
  H617     1.0000 0.81361  0.79008  0.94520  Biso   1.000  H
  C803     1.0000 0.79267  0.87063  0.88513  Biso   1.000  C
  C804     1.0000 0.79267  0.87063  0.88508  Biso   1.000  C
  C805     1.0000 0.78248  0.53982  0.94850  Biso   1.000  C
  C806     1.0000 0.77990  0.56451  0.90688  Biso   1.000  C
  H618     1.0000 0.78598  0.64729  0.95929  Biso   1.000  H
  H619     1.0000 0.78638  0.63608  0.00370  Biso   1.000  H
  C807     1.0000 0.88620  0.50591  0.89938  Biso   1.000  C
  H620     1.0000 0.96229  0.54681  0.94459  Biso   1.000  H
  H621     1.0000 0.96609  0.57860  0.91930  Biso   1.000  H
  C808     1.0000 0.81426  0.90617  0.82815  Biso   1.000  C
  C809     1.0000 0.81426  0.90617  0.82810  Biso   1.000  C
  C810     1.0000 0.97790  0.81158  0.60410  Biso   1.000  C
  C811     1.0000 0.93522  0.91529  0.55178  Biso   1.000  C
  C812     1.0000 0.92690  0.91950  0.56922  Biso   1.000  C
  C813     1.0000 0.94358  0.81229  0.61018  Biso   1.000  C
  Br81     1.0000 0.13276  0.22036  0.42206  Biso   1.000  Br
  Br82     1.0000 0.16156  0.22619  0.43631  Biso   1.000  Br
  C814     1.0000 0.81158  0.39590  0.02210  Biso   1.000  C
  C815     1.0000 0.91529  0.44822  0.06478  Biso   1.000  C
  C816     1.0000 0.91529  0.44817  0.06478  Biso   1.000  C
  C817     1.0000 0.91950  0.43078  0.07310  Biso   1.000  C
  C818     1.0000 0.81229  0.38982  0.05642  Biso   1.000  C
  C819     1.0000 0.82815  0.18574  0.09383  Biso   1.000  C
  C820     1.0000 0.82810  0.18574  0.09383  Biso   1.000  C
  Br83     1.0000 0.22036  0.57794  0.86724  Biso   1.000  Br
  Br84     1.0000 0.22619  0.56369  0.83844  Biso   1.000  Br
  C821     1.0000 0.91281  0.17960  0.50281  Biso   1.000  C
  H622     1.0000 0.95559  0.26411  0.47042  Biso   1.000  H
  H623     1.0000 0.95559  0.26411  0.47037  Biso   1.000  H
  C822     1.0000 0.88402  0.18031  0.49029  Biso   1.000  C
  H624     1.0000 0.89679  0.26699  0.43169  Biso   1.000  H
  H625     1.0000 0.87352  0.08891  0.52618  Biso   1.000  H
  H626     1.0000 0.87347  0.08891  0.52618  Biso   1.000  H
  C823     1.0000 0.73118  0.10671  0.07462  Biso   1.000  C
  C824     1.0000 0.73118  0.89329  0.92538  Biso   1.000  C
  C825     1.0000 0.82040  0.49719  0.91281  Biso   1.000  C
  H627     1.0000 0.73589  0.52958  0.95559  Biso   1.000  H
  C826     1.0000 0.81969  0.50971  0.88402  Biso   1.000  C
  H628     1.0000 0.73301  0.56831  0.89679  Biso   1.000  H
  H629     1.0000 0.91109  0.47382  0.87352  Biso   1.000  H
  H630     1.0000 0.91109  0.47382  0.87347  Biso   1.000  H
  H631     1.0000 0.79008  0.94520  0.81361  Biso   1.000  H
  C827     1.0000 0.94850  0.78248  0.53982  Biso   1.000  C
  C828     1.0000 0.90688  0.77990  0.56451  Biso   1.000  C
  H632     1.0000 0.95929  0.78598  0.64729  Biso   1.000  H
  H633     1.0000 0.00370  0.78638  0.63608  Biso   1.000  H
  C829     1.0000 0.89938  0.88620  0.50591  Biso   1.000  C
  H634     1.0000 0.94459  0.96229  0.54681  Biso   1.000  H
  H635     1.0000 0.91930  0.96609  0.57860  Biso   1.000  H
  H636     1.0000 0.78638  0.36392  0.99630  Biso   1.000  H
  C830     1.0000 0.78248  0.46018  0.05150  Biso   1.000  C
  C831     1.0000 0.77990  0.43549  0.09312  Biso   1.000  C
  H637     1.0000 0.78598  0.35271  0.04071  Biso   1.000  H
  C832     1.0000 0.88620  0.49409  0.10062  Biso   1.000  C
  H638     1.0000 0.96229  0.45319  0.05541  Biso   1.000  H
  C833     1.0000 0.88620  0.49409  0.10057  Biso   1.000  C
  H639     1.0000 0.96609  0.42140  0.08070  Biso   1.000  H
  H640     1.0000 0.81361  0.20992  0.05480  Biso   1.000  H
  Br85     1.0000 0.86724  0.22036  0.57794  Biso   1.000  Br
  Br86     1.0000 0.83844  0.22619  0.56369  Biso   1.000  Br
  N70      1.0000 0.72444  0.03280  0.07142  Biso   1.000  N
  H641     1.0000 0.68992  0.12602  0.09561  Biso   1.000  H
  H642     1.0000 0.73458  0.12480  0.02798  Biso   1.000  H
  H643     1.0000 0.68992  0.12597  0.09561  Biso   1.000  H
  N71      1.0000 0.72444  0.96720  0.92858  Biso   1.000  N
  H644     1.0000 0.68992  0.87398  0.90439  Biso   1.000  H
  H645     1.0000 0.73458  0.87520  0.97202  Biso   1.000  H
  N72      1.0000 0.72444  0.96720  0.92852  Biso   1.000  N
  Br87     1.0000 0.77964  0.42206  0.86724  Biso   1.000  Br
  Br88     1.0000 0.77381  0.43631  0.83844  Biso   1.000  Br
  C834     1.0000 0.91281  0.82040  0.49719  Biso   1.000  C
  H646     1.0000 0.95559  0.73589  0.52958  Biso   1.000  H
  C835     1.0000 0.88402  0.81969  0.50971  Biso   1.000  C
  H647     1.0000 0.89679  0.73301  0.56831  Biso   1.000  H
  H648     1.0000 0.87352  0.91109  0.47382  Biso   1.000  H
  H649     1.0000 0.87347  0.91109  0.47382  Biso   1.000  H
  C836     1.0000 0.82040  0.50281  0.08719  Biso   1.000  C
  H650     1.0000 0.73589  0.47042  0.04441  Biso   1.000  H
  H651     1.0000 0.73589  0.47037  0.04441  Biso   1.000  H
  C837     1.0000 0.81969  0.49029  0.11598  Biso   1.000  C
  H652     1.0000 0.73301  0.43169  0.10321  Biso   1.000  H
  H653     1.0000 0.91109  0.52618  0.12648  Biso   1.000  H
  C838     1.0000 0.78010  0.99650  0.03832  Biso   1.000  C
  C839     1.0000 0.66650  0.99909  0.08597  Biso   1.000  C
  C840     1.0000 0.78010  0.99650  0.03827  Biso   1.000  C
  C841     1.0000 0.78010  0.00350  0.96168  Biso   1.000  C
  C842     1.0000 0.66650  0.00091  0.91403  Biso   1.000  C
  Br89     1.0000 0.86724  0.77964  0.42206  Biso   1.000  Br
  Br90     1.0000 0.83844  0.77381  0.43631  Biso   1.000  Br
  Br91     1.0000 0.77964  0.57794  0.13276  Biso   1.000  Br
  Br92     1.0000 0.77381  0.56369  0.16156  Biso   1.000  Br
  H654     1.0000 0.77701  0.94779  0.05008  Biso   1.000  H
  H655     1.0000 0.82369  0.01379  0.05622  Biso   1.000  H
  O47      1.0000 0.65818  0.93871  0.07320  Biso   1.000  O
  C843     1.0000 0.61048  0.03802  0.11913  Biso   1.000  C
  H656     1.0000 0.82369  0.98621  0.94378  Biso   1.000  H
  H657     1.0000 0.77701  0.05221  0.94992  Biso   1.000  H
  C844     1.0000 0.61048  0.96198  0.88087  Biso   1.000  C
  O48      1.0000 0.65818  0.06129  0.92680  Biso   1.000  O
  C845     1.0000 0.60410  0.02210  0.18842  Biso   1.000  C
  C846     1.0000 0.55178  0.06478  0.08471  Biso   1.000  C
  C847     1.0000 0.60410  0.02210  0.18837  Biso   1.000  C
  C848     1.0000 0.56922  0.07310  0.08050  Biso   1.000  C
  C849     1.0000 0.61018  0.05642  0.18771  Biso   1.000  C
  C850     1.0000 0.60410  0.97790  0.81158  Biso   1.000  C
  C851     1.0000 0.55178  0.93522  0.91529  Biso   1.000  C
  C852     1.0000 0.56922  0.92690  0.91950  Biso   1.000  C
  C853     1.0000 0.61018  0.94358  0.81229  Biso   1.000  C
  H658     1.0000 0.63608  0.99630  0.21362  Biso   1.000  H
  C854     1.0000 0.53982  0.05150  0.21752  Biso   1.000  C
  C855     1.0000 0.56451  0.09312  0.22010  Biso   1.000  C
  H659     1.0000 0.64729  0.04071  0.21402  Biso   1.000  H
  C856     1.0000 0.50591  0.10062  0.11380  Biso   1.000  C
  H660     1.0000 0.54681  0.05541  0.03771  Biso   1.000  H
  C857     1.0000 0.50591  0.10057  0.11380  Biso   1.000  C
  H661     1.0000 0.57860  0.08070  0.03391  Biso   1.000  H
  C858     1.0000 0.53982  0.94850  0.78248  Biso   1.000  C
  C859     1.0000 0.56451  0.90688  0.77990  Biso   1.000  C
  H662     1.0000 0.64729  0.95929  0.78598  Biso   1.000  H
  H663     1.0000 0.63608  0.00370  0.78638  Biso   1.000  H
  C860     1.0000 0.50591  0.89938  0.88620  Biso   1.000  C
  H664     1.0000 0.54681  0.94459  0.96229  Biso   1.000  H
  H665     1.0000 0.57860  0.91930  0.96609  Biso   1.000  H
  C861     1.0000 0.49719  0.08719  0.17960  Biso   1.000  C
  H666     1.0000 0.52958  0.04441  0.26411  Biso   1.000  H
  C862     1.0000 0.50971  0.11598  0.18031  Biso   1.000  C
  H667     1.0000 0.56831  0.10321  0.26699  Biso   1.000  H
  H668     1.0000 0.47382  0.12648  0.08891  Biso   1.000  H
  C863     1.0000 0.49719  0.91281  0.82040  Biso   1.000  C
  H669     1.0000 0.52958  0.95559  0.73589  Biso   1.000  H
  C864     1.0000 0.50971  0.88402  0.81969  Biso   1.000  C
  H670     1.0000 0.56831  0.89679  0.73301  Biso   1.000  H
  H671     1.0000 0.47382  0.87352  0.91109  Biso   1.000  H
  H672     1.0000 0.47382  0.87347  0.91109  Biso   1.000  H
  Br93     1.0000 0.42206  0.13276  0.22036  Biso   1.000  Br
  Br94     1.0000 0.43631  0.16156  0.22619  Biso   1.000  Br
  Br95     1.0000 0.42206  0.86724  0.77964  Biso   1.000  Br
  Br96     1.0000 0.43631  0.83844  0.77381  Biso   1.000  Br
  C865     1.0000 0.21990  0.00350  0.03832  Biso   1.000  C
  N73      1.0000 0.27556  0.96720  0.07142  Biso   1.000  N
  H673     1.0000 0.22299  0.05221  0.05008  Biso   1.000  H
  C866     1.0000 0.21990  0.99650  0.96168  Biso   1.000  C
  H674     1.0000 0.17631  0.98621  0.05622  Biso   1.000  H
  C867     1.0000 0.33350  0.00091  0.08597  Biso   1.000  C
  C868     1.0000 0.26882  0.89329  0.07462  Biso   1.000  C
  C869     1.0000 0.21990  0.00350  0.03827  Biso   1.000  C
  H675     1.0000 0.22299  0.94779  0.94992  Biso   1.000  H
  N74      1.0000 0.27556  0.03280  0.92858  Biso   1.000  N
  H676     1.0000 0.17631  0.01379  0.94378  Biso   1.000  H
  N75      1.0000 0.27556  0.03280  0.92852  Biso   1.000  N
  O49      1.0000 0.34182  0.06129  0.07320  Biso   1.000  O
  C870     1.0000 0.38952  0.96198  0.11913  Biso   1.000  C
  C871     1.0000 0.20733  0.87063  0.11487  Biso   1.000  C
  H677     1.0000 0.31008  0.87398  0.09561  Biso   1.000  H
  H678     1.0000 0.26542  0.87520  0.02798  Biso   1.000  H
  H679     1.0000 0.26537  0.87520  0.02798  Biso   1.000  H
  C872     1.0000 0.33350  0.99909  0.91403  Biso   1.000  C
  C873     1.0000 0.26882  0.10671  0.92538  Biso   1.000  C
  C874     1.0000 0.39590  0.97790  0.18842  Biso   1.000  C
  C875     1.0000 0.44822  0.93522  0.08471  Biso   1.000  C
  C876     1.0000 0.39590  0.97790  0.18837  Biso   1.000  C
  C877     1.0000 0.44817  0.93522  0.08471  Biso   1.000  C
  C878     1.0000 0.43078  0.92690  0.08050  Biso   1.000  C
  C879     1.0000 0.38982  0.94358  0.18771  Biso   1.000  C
  C880     1.0000 0.18574  0.90617  0.17185  Biso   1.000  C
  C881     1.0000 0.17185  0.81426  0.09383  Biso   1.000  C
  O50      1.0000 0.34182  0.93871  0.92680  Biso   1.000  O
  C882     1.0000 0.38952  0.03802  0.88087  Biso   1.000  C
  C883     1.0000 0.20733  0.12937  0.88513  Biso   1.000  C
  H680     1.0000 0.31008  0.12602  0.90439  Biso   1.000  H
  H681     1.0000 0.26542  0.12480  0.97202  Biso   1.000  H
  C884     1.0000 0.20733  0.12937  0.88508  Biso   1.000  C
  H682     1.0000 0.31008  0.12597  0.90439  Biso   1.000  H
  H683     1.0000 0.26537  0.12480  0.97202  Biso   1.000  H
  H684     1.0000 0.36392  0.00370  0.21362  Biso   1.000  H
  C885     1.0000 0.46018  0.94850  0.21752  Biso   1.000  C
  C886     1.0000 0.43549  0.90688  0.22010  Biso   1.000  C
  H685     1.0000 0.35271  0.95929  0.21402  Biso   1.000  H
  C887     1.0000 0.49409  0.89938  0.11380  Biso   1.000  C
  H686     1.0000 0.45319  0.94459  0.03771  Biso   1.000  H
  H687     1.0000 0.42140  0.91930  0.03391  Biso   1.000  H
  H688     1.0000 0.20992  0.94520  0.18639  Biso   1.000  H
  C888     1.0000 0.12937  0.88513  0.20733  Biso   1.000  C
  C889     1.0000 0.12937  0.88508  0.20733  Biso   1.000  C
  C890     1.0000 0.11487  0.79267  0.12937  Biso   1.000  C
  H689     1.0000 0.18639  0.79008  0.05480  Biso   1.000  H
  C891     1.0000 0.39590  0.02210  0.81158  Biso   1.000  C
  C892     1.0000 0.44822  0.06478  0.91529  Biso   1.000  C
  C893     1.0000 0.44817  0.06478  0.91529  Biso   1.000  C
  C894     1.0000 0.43078  0.07310  0.91950  Biso   1.000  C
  C895     1.0000 0.38982  0.05642  0.81229  Biso   1.000  C
  C896     1.0000 0.18574  0.09383  0.82815  Biso   1.000  C
  C897     1.0000 0.17185  0.18574  0.90617  Biso   1.000  C
  C898     1.0000 0.18574  0.09383  0.82810  Biso   1.000  C
  C899     1.0000 0.50281  0.91281  0.17960  Biso   1.000  C
  H690     1.0000 0.47042  0.95559  0.26411  Biso   1.000  H
  H691     1.0000 0.47037  0.95559  0.26411  Biso   1.000  H
  C900     1.0000 0.49029  0.88402  0.18031  Biso   1.000  C
  H692     1.0000 0.43169  0.89679  0.26699  Biso   1.000  H
  H693     1.0000 0.52618  0.87352  0.08891  Biso   1.000  H
  H694     1.0000 0.52618  0.87347  0.08891  Biso   1.000  H
  C901     1.0000 0.09383  0.82815  0.18574  Biso   1.000  C
  C902     1.0000 0.10671  0.92538  0.26882  Biso   1.000  C
  C903     1.0000 0.09383  0.82810  0.18574  Biso   1.000  C
  C904     1.0000 0.07462  0.73118  0.10671  Biso   1.000  C
  H695     1.0000 0.36392  0.99630  0.78638  Biso   1.000  H
  C905     1.0000 0.46018  0.05150  0.78248  Biso   1.000  C
  C906     1.0000 0.43549  0.09312  0.77990  Biso   1.000  C
  H696     1.0000 0.35271  0.04071  0.78598  Biso   1.000  H
  C907     1.0000 0.49409  0.10062  0.88620  Biso   1.000  C
  H697     1.0000 0.45319  0.05541  0.96229  Biso   1.000  H
  C908     1.0000 0.49409  0.10057  0.88620  Biso   1.000  C
  H698     1.0000 0.42140  0.08070  0.96609  Biso   1.000  H
  H699     1.0000 0.20992  0.05480  0.81361  Biso   1.000  H
  C909     1.0000 0.12937  0.11487  0.79267  Biso   1.000  C
  H700     1.0000 0.18639  0.20992  0.94520  Biso   1.000  H
  C910     1.0000 0.11487  0.20733  0.87063  Biso   1.000  C
  Br97     1.0000 0.57794  0.86724  0.22036  Biso   1.000  Br
  Br98     1.0000 0.56369  0.83844  0.22619  Biso   1.000  Br
  H701     1.0000 0.05480  0.81361  0.20992  Biso   1.000  H
  N76      1.0000 0.03280  0.92858  0.27556  Biso   1.000  N
  H702     1.0000 0.12602  0.90439  0.31008  Biso   1.000  H
  H703     1.0000 0.12480  0.97202  0.26542  Biso   1.000  H
  H704     1.0000 0.12480  0.97202  0.26537  Biso   1.000  H
  N77      1.0000 0.03280  0.92852  0.27556  Biso   1.000  N
  H705     1.0000 0.12597  0.90439  0.31008  Biso   1.000  H
  N78      1.0000 0.07142  0.72444  0.03280  Biso   1.000  N
  H706     1.0000 0.09561  0.68992  0.12602  Biso   1.000  H
  H707     1.0000 0.02798  0.73458  0.12480  Biso   1.000  H
  H708     1.0000 0.09561  0.68992  0.12597  Biso   1.000  H
  C911     1.0000 0.50281  0.08719  0.82040  Biso   1.000  C
  H709     1.0000 0.47042  0.04441  0.73589  Biso   1.000  H
  H710     1.0000 0.47037  0.04441  0.73589  Biso   1.000  H
  C912     1.0000 0.49029  0.11598  0.81969  Biso   1.000  C
  H711     1.0000 0.43169  0.10321  0.73301  Biso   1.000  H
  H712     1.0000 0.52618  0.12648  0.91109  Biso   1.000  H
  C913     1.0000 0.10671  0.07462  0.73118  Biso   1.000  C
  C914     1.0000 0.09383  0.17185  0.81426  Biso   1.000  C
  C915     1.0000 0.07462  0.26882  0.89329  Biso   1.000  C
  C916     1.0000 0.99650  0.96168  0.21990  Biso   1.000  C
  C917     1.0000 0.99909  0.91403  0.33350  Biso   1.000  C
  C918     1.0000 0.03832  0.78010  0.99650  Biso   1.000  C
  C919     1.0000 0.08597  0.66650  0.99909  Biso   1.000  C
  C920     1.0000 0.03827  0.78010  0.99650  Biso   1.000  C
  Br99     1.0000 0.57794  0.13276  0.77964  Biso   1.000  Br
  Br100    1.0000 0.56369  0.16156  0.77381  Biso   1.000  Br
  N79      1.0000 0.03280  0.07142  0.72444  Biso   1.000  N
  H713     1.0000 0.12602  0.09561  0.68992  Biso   1.000  H
  H714     1.0000 0.12480  0.02798  0.73458  Biso   1.000  H
  H715     1.0000 0.12597  0.09561  0.68992  Biso   1.000  H
  H716     1.0000 0.05480  0.18639  0.79008  Biso   1.000  H
  N80      1.0000 0.07142  0.27556  0.96720  Biso   1.000  N
  H717     1.0000 0.09561  0.31008  0.87398  Biso   1.000  H
  H718     1.0000 0.02798  0.26542  0.87520  Biso   1.000  H
  H719     1.0000 0.02798  0.26537  0.87520  Biso   1.000  H
  H720     1.0000 0.94779  0.94992  0.22299  Biso   1.000  H
  H721     1.0000 0.01379  0.94378  0.17631  Biso   1.000  H
  C921     1.0000 0.00350  0.03832  0.21990  Biso   1.000  C
  C922     1.0000 0.00350  0.03827  0.21990  Biso   1.000  C
  O51      1.0000 0.93871  0.92680  0.34182  Biso   1.000  O
  C923     1.0000 0.03802  0.88087  0.38952  Biso   1.000  C
  C924     1.0000 0.96168  0.78010  0.00350  Biso   1.000  C
  H722     1.0000 0.05008  0.77701  0.94779  Biso   1.000  H
  H723     1.0000 0.05622  0.82369  0.01379  Biso   1.000  H
  O52      1.0000 0.07320  0.65818  0.93871  Biso   1.000  O
  C925     1.0000 0.11913  0.61048  0.03802  Biso   1.000  C
  C926     1.0000 0.99650  0.03832  0.78010  Biso   1.000  C
  C927     1.0000 0.99909  0.08597  0.66650  Biso   1.000  C
  C928     1.0000 0.99650  0.03827  0.78010  Biso   1.000  C
  C929     1.0000 0.08597  0.33350  0.00091  Biso   1.000  C
  C930     1.0000 0.03832  0.21990  0.00350  Biso   1.000  C
  C931     1.0000 0.03827  0.21990  0.00350  Biso   1.000  C
  H724     1.0000 0.05221  0.05008  0.22299  Biso   1.000  H
  N81      1.0000 0.96720  0.07142  0.27556  Biso   1.000  N
  H725     1.0000 0.98621  0.05622  0.17631  Biso   1.000  H
  C932     1.0000 0.02210  0.81158  0.39590  Biso   1.000  C
  C933     1.0000 0.06478  0.91529  0.44822  Biso   1.000  C
  C934     1.0000 0.06478  0.91529  0.44817  Biso   1.000  C
  C935     1.0000 0.07310  0.91950  0.43078  Biso   1.000  C
  C936     1.0000 0.05642  0.81229  0.38982  Biso   1.000  C
  N82      1.0000 0.92858  0.72444  0.96720  Biso   1.000  N
  H726     1.0000 0.94378  0.82369  0.98621  Biso   1.000  H
  N83      1.0000 0.92852  0.72444  0.96720  Biso   1.000  N
  H727     1.0000 0.94992  0.77701  0.05221  Biso   1.000  H
  C937     1.0000 0.18842  0.60410  0.02210  Biso   1.000  C
  C938     1.0000 0.08471  0.55178  0.06478  Biso   1.000  C
  C939     1.0000 0.18837  0.60410  0.02210  Biso   1.000  C
  C940     1.0000 0.08050  0.56922  0.07310  Biso   1.000  C
  C941     1.0000 0.18771  0.61018  0.05642  Biso   1.000  C
  H728     1.0000 0.94779  0.05008  0.77701  Biso   1.000  H
  C942     1.0000 0.00350  0.96168  0.78010  Biso   1.000  C
  H729     1.0000 0.01379  0.05622  0.82369  Biso   1.000  H
  O53      1.0000 0.93871  0.07320  0.65818  Biso   1.000  O
  C943     1.0000 0.03802  0.11913  0.61048  Biso   1.000  C
  O54      1.0000 0.07320  0.34182  0.06129  Biso   1.000  O
  C944     1.0000 0.11913  0.38952  0.96198  Biso   1.000  C
  H730     1.0000 0.05008  0.22299  0.05221  Biso   1.000  H
  C945     1.0000 0.96168  0.21990  0.99650  Biso   1.000  C
  H731     1.0000 0.05622  0.17631  0.98621  Biso   1.000  H
  C946     1.0000 0.00091  0.08597  0.33350  Biso   1.000  C
  C947     1.0000 0.89329  0.07462  0.26882  Biso   1.000  C
  H732     1.0000 0.99630  0.78638  0.36392  Biso   1.000  H
  C948     1.0000 0.05150  0.78248  0.46018  Biso   1.000  C
  C949     1.0000 0.09312  0.77990  0.43549  Biso   1.000  C
  H733     1.0000 0.04071  0.78598  0.35271  Biso   1.000  H
  C950     1.0000 0.10062  0.88620  0.49409  Biso   1.000  C
  H734     1.0000 0.05541  0.96229  0.45319  Biso   1.000  H
  C951     1.0000 0.10057  0.88620  0.49409  Biso   1.000  C
  H735     1.0000 0.08070  0.96609  0.42140  Biso   1.000  H
  C952     1.0000 0.92538  0.73118  0.89329  Biso   1.000  C
  C953     1.0000 0.91403  0.66650  0.00091  Biso   1.000  C
  H736     1.0000 0.21362  0.63608  0.99630  Biso   1.000  H
  C954     1.0000 0.21752  0.53982  0.05150  Biso   1.000  C
  C955     1.0000 0.22010  0.56451  0.09312  Biso   1.000  C
  H737     1.0000 0.21402  0.64729  0.04071  Biso   1.000  H
  C956     1.0000 0.11380  0.50591  0.10062  Biso   1.000  C
  H738     1.0000 0.03771  0.54681  0.05541  Biso   1.000  H
  C957     1.0000 0.11380  0.50591  0.10057  Biso   1.000  C
  H739     1.0000 0.03391  0.57860  0.08070  Biso   1.000  H
  N84      1.0000 0.96720  0.92858  0.72444  Biso   1.000  N
  H740     1.0000 0.98621  0.94378  0.82369  Biso   1.000  H
  N85      1.0000 0.96720  0.92852  0.72444  Biso   1.000  N
  H741     1.0000 0.05221  0.94992  0.77701  Biso   1.000  H
  C958     1.0000 0.02210  0.18842  0.60410  Biso   1.000  C
  C959     1.0000 0.06478  0.08471  0.55178  Biso   1.000  C
  C960     1.0000 0.02210  0.18837  0.60410  Biso   1.000  C
  C961     1.0000 0.07310  0.08050  0.56922  Biso   1.000  C
  C962     1.0000 0.05642  0.18771  0.61018  Biso   1.000  C
  C963     1.0000 0.18842  0.39590  0.97790  Biso   1.000  C
  C964     1.0000 0.08471  0.44822  0.93522  Biso   1.000  C
  C965     1.0000 0.08471  0.44817  0.93522  Biso   1.000  C
  C966     1.0000 0.18837  0.39590  0.97790  Biso   1.000  C
  C967     1.0000 0.08050  0.43078  0.92690  Biso   1.000  C
  C968     1.0000 0.18771  0.38982  0.94358  Biso   1.000  C
  H742     1.0000 0.94992  0.22299  0.94779  Biso   1.000  H
  N86      1.0000 0.92858  0.27556  0.03280  Biso   1.000  N
  H743     1.0000 0.94378  0.17631  0.01379  Biso   1.000  H
  N87      1.0000 0.92852  0.27556  0.03280  Biso   1.000  N
  O55      1.0000 0.06129  0.07320  0.34182  Biso   1.000  O
  C969     1.0000 0.96198  0.11913  0.38952  Biso   1.000  C
  C970     1.0000 0.87063  0.11487  0.20733  Biso   1.000  C
  H744     1.0000 0.87398  0.09561  0.31008  Biso   1.000  H
  H745     1.0000 0.87520  0.02798  0.26542  Biso   1.000  H
  H746     1.0000 0.87520  0.02798  0.26537  Biso   1.000  H
  C971     1.0000 0.08719  0.82040  0.50281  Biso   1.000  C
  H747     1.0000 0.04441  0.73589  0.47042  Biso   1.000  H
  H748     1.0000 0.04441  0.73589  0.47037  Biso   1.000  H
  C972     1.0000 0.11598  0.81969  0.49029  Biso   1.000  C
  H749     1.0000 0.10321  0.73301  0.43169  Biso   1.000  H
  H750     1.0000 0.12648  0.91109  0.52618  Biso   1.000  H
  C973     1.0000 0.88513  0.79267  0.87063  Biso   1.000  C
  H751     1.0000 0.90439  0.68992  0.87398  Biso   1.000  H
  H752     1.0000 0.97202  0.73458  0.87520  Biso   1.000  H
  C974     1.0000 0.88508  0.79267  0.87063  Biso   1.000  C
  C975     1.0000 0.88087  0.61048  0.96198  Biso   1.000  C
  O56      1.0000 0.92680  0.65818  0.06129  Biso   1.000  O
  C976     1.0000 0.17960  0.49719  0.08719  Biso   1.000  C
  H753     1.0000 0.26411  0.52958  0.04441  Biso   1.000  H
  C977     1.0000 0.18031  0.50971  0.11598  Biso   1.000  C
  H754     1.0000 0.26699  0.56831  0.10321  Biso   1.000  H
  H755     1.0000 0.08891  0.47382  0.12648  Biso   1.000  H
  C978     1.0000 0.89329  0.92538  0.73118  Biso   1.000  C
  C979     1.0000 0.00091  0.91403  0.66650  Biso   1.000  C
  H756     1.0000 0.99630  0.21362  0.63608  Biso   1.000  H
  C980     1.0000 0.05150  0.21752  0.53982  Biso   1.000  C
  C981     1.0000 0.09312  0.22010  0.56451  Biso   1.000  C
  H757     1.0000 0.04071  0.21402  0.64729  Biso   1.000  H
  C982     1.0000 0.10062  0.11380  0.50591  Biso   1.000  C
  H758     1.0000 0.05541  0.03771  0.54681  Biso   1.000  H
  C983     1.0000 0.10057  0.11380  0.50591  Biso   1.000  C
  H759     1.0000 0.08070  0.03391  0.57860  Biso   1.000  H
  H760     1.0000 0.21362  0.36392  0.00370  Biso   1.000  H
  C984     1.0000 0.21752  0.46018  0.94850  Biso   1.000  C
  C985     1.0000 0.22010  0.43549  0.90688  Biso   1.000  C
  H761     1.0000 0.21402  0.35271  0.95929  Biso   1.000  H
  C986     1.0000 0.11380  0.49409  0.89938  Biso   1.000  C
  H762     1.0000 0.03771  0.45319  0.94459  Biso   1.000  H
  H763     1.0000 0.03391  0.42140  0.91930  Biso   1.000  H
  C987     1.0000 0.91403  0.33350  0.99909  Biso   1.000  C
  C988     1.0000 0.92538  0.26882  0.10671  Biso   1.000  C
  C989     1.0000 0.97790  0.18842  0.39590  Biso   1.000  C
  C990     1.0000 0.93522  0.08471  0.44822  Biso   1.000  C
  C991     1.0000 0.93522  0.08471  0.44817  Biso   1.000  C
  C992     1.0000 0.97790  0.18837  0.39590  Biso   1.000  C
  C993     1.0000 0.92690  0.08050  0.43078  Biso   1.000  C
  C994     1.0000 0.94358  0.18771  0.38982  Biso   1.000  C
  C995     1.0000 0.90617  0.17185  0.18574  Biso   1.000  C
  C996     1.0000 0.81426  0.09383  0.17185  Biso   1.000  C
  Br101    1.0000 0.13276  0.77964  0.57794  Biso   1.000  Br
  Br102    1.0000 0.16156  0.77381  0.56369  Biso   1.000  Br
  C997     1.0000 0.90617  0.82815  0.81426  Biso   1.000  C
  C998     1.0000 0.82815  0.81426  0.90617  Biso   1.000  C
  C999     1.0000 0.90617  0.82810  0.81426  Biso   1.000  C
  C1000    1.0000 0.82810  0.81426  0.90617  Biso   1.000  C
  C1001    1.0000 0.81158  0.60410  0.97790  Biso   1.000  C
  C1002    1.0000 0.91529  0.55178  0.93522  Biso   1.000  C
  C1003    1.0000 0.91950  0.56922  0.92690  Biso   1.000  C
  C1004    1.0000 0.81229  0.61018  0.94358  Biso   1.000  C
  Br103    1.0000 0.22036  0.42206  0.13276  Biso   1.000  Br
  Br104    1.0000 0.22619  0.43631  0.16156  Biso   1.000  Br
  C1005    1.0000 0.87063  0.88513  0.79267  Biso   1.000  C
  C1006    1.0000 0.87063  0.88508  0.79267  Biso   1.000  C
  H764     1.0000 0.87398  0.90439  0.68992  Biso   1.000  H
  H765     1.0000 0.87520  0.97202  0.73458  Biso   1.000  H
  C1007    1.0000 0.96198  0.88087  0.61048  Biso   1.000  C
  O57      1.0000 0.06129  0.92680  0.65818  Biso   1.000  O
  C1008    1.0000 0.08719  0.17960  0.49719  Biso   1.000  C
  H766     1.0000 0.04441  0.26411  0.52958  Biso   1.000  H
  C1009    1.0000 0.11598  0.18031  0.50971  Biso   1.000  C
  H767     1.0000 0.10321  0.26699  0.56831  Biso   1.000  H
  H768     1.0000 0.12648  0.08891  0.47382  Biso   1.000  H
  C1010    1.0000 0.17960  0.50281  0.91281  Biso   1.000  C
  H769     1.0000 0.26411  0.47042  0.95559  Biso   1.000  H
  H770     1.0000 0.26411  0.47037  0.95559  Biso   1.000  H
  C1011    1.0000 0.18031  0.49029  0.88402  Biso   1.000  C
  H771     1.0000 0.26699  0.43169  0.89679  Biso   1.000  H
  H772     1.0000 0.08891  0.52618  0.87352  Biso   1.000  H
  H773     1.0000 0.08891  0.52618  0.87347  Biso   1.000  H
  O58      1.0000 0.92680  0.34182  0.93871  Biso   1.000  O
  C1012    1.0000 0.88087  0.38952  0.03802  Biso   1.000  C
  C1013    1.0000 0.88513  0.20733  0.12937  Biso   1.000  C
  C1014    1.0000 0.88508  0.20733  0.12937  Biso   1.000  C
  H774     1.0000 0.90439  0.31008  0.12602  Biso   1.000  H
  H775     1.0000 0.97202  0.26542  0.12480  Biso   1.000  H
  H776     1.0000 0.90439  0.31008  0.12597  Biso   1.000  H
  H777     1.0000 0.97202  0.26537  0.12480  Biso   1.000  H
  H778     1.0000 0.00370  0.21362  0.36392  Biso   1.000  H
  C1015    1.0000 0.94850  0.21752  0.46018  Biso   1.000  C
  C1016    1.0000 0.90688  0.22010  0.43549  Biso   1.000  C
  H779     1.0000 0.95929  0.21402  0.35271  Biso   1.000  H
  C1017    1.0000 0.89938  0.11380  0.49409  Biso   1.000  C
  H780     1.0000 0.94459  0.03771  0.45319  Biso   1.000  H
  H781     1.0000 0.91930  0.03391  0.42140  Biso   1.000  H
  H782     1.0000 0.94520  0.18639  0.20992  Biso   1.000  H
  C1018    1.0000 0.79267  0.12937  0.11487  Biso   1.000  C
  H783     1.0000 0.79008  0.05480  0.18639  Biso   1.000  H
  H784     1.0000 0.94520  0.81361  0.79008  Biso   1.000  H
  H785     1.0000 0.81361  0.79008  0.94520  Biso   1.000  H
  C1019    1.0000 0.79267  0.87063  0.88513  Biso   1.000  C
  C1020    1.0000 0.79267  0.87063  0.88508  Biso   1.000  C
  C1021    1.0000 0.78248  0.53982  0.94850  Biso   1.000  C
  C1022    1.0000 0.77990  0.56451  0.90688  Biso   1.000  C
  H786     1.0000 0.78598  0.64729  0.95929  Biso   1.000  H
  H787     1.0000 0.78638  0.63608  0.00370  Biso   1.000  H
  C1023    1.0000 0.88620  0.50591  0.89938  Biso   1.000  C
  H788     1.0000 0.96229  0.54681  0.94459  Biso   1.000  H
  H789     1.0000 0.96609  0.57860  0.91930  Biso   1.000  H
  C1024    1.0000 0.81426  0.90617  0.82815  Biso   1.000  C
  C1025    1.0000 0.81426  0.90617  0.82810  Biso   1.000  C
  C1026    1.0000 0.97790  0.81158  0.60410  Biso   1.000  C
  C1027    1.0000 0.93522  0.91529  0.55178  Biso   1.000  C
  C1028    1.0000 0.92690  0.91950  0.56922  Biso   1.000  C
  C1029    1.0000 0.94358  0.81229  0.61018  Biso   1.000  C
  Br105    1.0000 0.13276  0.22036  0.42206  Biso   1.000  Br
  Br106    1.0000 0.16156  0.22619  0.43631  Biso   1.000  Br
  Br107    1.0000 0.22036  0.57794  0.86724  Biso   1.000  Br
  Br108    1.0000 0.22619  0.56369  0.83844  Biso   1.000  Br
  C1030    1.0000 0.81158  0.39590  0.02210  Biso   1.000  C
  C1031    1.0000 0.91529  0.44822  0.06478  Biso   1.000  C
  C1032    1.0000 0.91529  0.44817  0.06478  Biso   1.000  C
  C1033    1.0000 0.91950  0.43078  0.07310  Biso   1.000  C
  C1034    1.0000 0.81229  0.38982  0.05642  Biso   1.000  C
  C1035    1.0000 0.82815  0.18574  0.09383  Biso   1.000  C
  C1036    1.0000 0.82810  0.18574  0.09383  Biso   1.000  C
  C1037    1.0000 0.91281  0.17960  0.50281  Biso   1.000  C
  H790     1.0000 0.95559  0.26411  0.47042  Biso   1.000  H
  H791     1.0000 0.95559  0.26411  0.47037  Biso   1.000  H
  C1038    1.0000 0.88402  0.18031  0.49029  Biso   1.000  C
  H792     1.0000 0.89679  0.26699  0.43169  Biso   1.000  H
  H793     1.0000 0.87352  0.08891  0.52618  Biso   1.000  H
  H794     1.0000 0.87347  0.08891  0.52618  Biso   1.000  H
  C1039    1.0000 0.73118  0.10671  0.07462  Biso   1.000  C
  C1040    1.0000 0.73118  0.89329  0.92538  Biso   1.000  C
  C1041    1.0000 0.82040  0.49719  0.91281  Biso   1.000  C
  H795     1.0000 0.73589  0.52958  0.95559  Biso   1.000  H
  C1042    1.0000 0.81969  0.50971  0.88402  Biso   1.000  C
  H796     1.0000 0.73301  0.56831  0.89679  Biso   1.000  H
  H797     1.0000 0.91109  0.47382  0.87352  Biso   1.000  H
  H798     1.0000 0.91109  0.47382  0.87347  Biso   1.000  H
  H799     1.0000 0.79008  0.94520  0.81361  Biso   1.000  H
  C1043    1.0000 0.94850  0.78248  0.53982  Biso   1.000  C
  C1044    1.0000 0.90688  0.77990  0.56451  Biso   1.000  C
  H800     1.0000 0.95929  0.78598  0.64729  Biso   1.000  H
  H801     1.0000 0.00370  0.78638  0.63608  Biso   1.000  H
  C1045    1.0000 0.89938  0.88620  0.50591  Biso   1.000  C
  H802     1.0000 0.94459  0.96229  0.54681  Biso   1.000  H
  H803     1.0000 0.91930  0.96609  0.57860  Biso   1.000  H
  H804     1.0000 0.78638  0.36392  0.99630  Biso   1.000  H
  C1046    1.0000 0.78248  0.46018  0.05150  Biso   1.000  C
  C1047    1.0000 0.77990  0.43549  0.09312  Biso   1.000  C
  H805     1.0000 0.78598  0.35271  0.04071  Biso   1.000  H
  C1048    1.0000 0.88620  0.49409  0.10062  Biso   1.000  C
  H806     1.0000 0.96229  0.45319  0.05541  Biso   1.000  H
  C1049    1.0000 0.88620  0.49409  0.10057  Biso   1.000  C
  H807     1.0000 0.96609  0.42140  0.08070  Biso   1.000  H
  H808     1.0000 0.81361  0.20992  0.05480  Biso   1.000  H
  Br109    1.0000 0.86724  0.22036  0.57794  Biso   1.000  Br
  Br110    1.0000 0.83844  0.22619  0.56369  Biso   1.000  Br
  N88      1.0000 0.72444  0.03280  0.07142  Biso   1.000  N
  H809     1.0000 0.68992  0.12602  0.09561  Biso   1.000  H
  H810     1.0000 0.73458  0.12480  0.02798  Biso   1.000  H
  H811     1.0000 0.68992  0.12597  0.09561  Biso   1.000  H
  N89      1.0000 0.72444  0.96720  0.92858  Biso   1.000  N
  H812     1.0000 0.68992  0.87398  0.90439  Biso   1.000  H
  H813     1.0000 0.73458  0.87520  0.97202  Biso   1.000  H
  N90      1.0000 0.72444  0.96720  0.92852  Biso   1.000  N
  Br111    1.0000 0.77964  0.42206  0.86724  Biso   1.000  Br
  Br112    1.0000 0.77381  0.43631  0.83844  Biso   1.000  Br
  C1050    1.0000 0.91281  0.82040  0.49719  Biso   1.000  C
  H814     1.0000 0.95559  0.73589  0.52958  Biso   1.000  H
  C1051    1.0000 0.88402  0.81969  0.50971  Biso   1.000  C
  H815     1.0000 0.89679  0.73301  0.56831  Biso   1.000  H
  H816     1.0000 0.87352  0.91109  0.47382  Biso   1.000  H
  H817     1.0000 0.87347  0.91109  0.47382  Biso   1.000  H
  C1052    1.0000 0.82040  0.50281  0.08719  Biso   1.000  C
  H818     1.0000 0.73589  0.47042  0.04441  Biso   1.000  H
  H819     1.0000 0.73589  0.47037  0.04441  Biso   1.000  H
  C1053    1.0000 0.81969  0.49029  0.11598  Biso   1.000  C
  H820     1.0000 0.73301  0.43169  0.10321  Biso   1.000  H
  H821     1.0000 0.91109  0.52618  0.12648  Biso   1.000  H
  C1054    1.0000 0.78010  0.99650  0.03832  Biso   1.000  C
  C1055    1.0000 0.66650  0.99909  0.08597  Biso   1.000  C
  C1056    1.0000 0.78010  0.99650  0.03827  Biso   1.000  C
  C1057    1.0000 0.78010  0.00350  0.96168  Biso   1.000  C
  C1058    1.0000 0.66650  0.00091  0.91403  Biso   1.000  C
  Br113    1.0000 0.86724  0.77964  0.42206  Biso   1.000  Br
  Br114    1.0000 0.83844  0.77381  0.43631  Biso   1.000  Br
  Br115    1.0000 0.77964  0.57794  0.13276  Biso   1.000  Br
  Br116    1.0000 0.77381  0.56369  0.16156  Biso   1.000  Br
  H822     1.0000 0.77701  0.94779  0.05008  Biso   1.000  H
  H823     1.0000 0.82369  0.01379  0.05622  Biso   1.000  H
  O59      1.0000 0.65818  0.93871  0.07320  Biso   1.000  O
  C1059    1.0000 0.61048  0.03802  0.11913  Biso   1.000  C
  H824     1.0000 0.82369  0.98621  0.94378  Biso   1.000  H
  H825     1.0000 0.77701  0.05221  0.94992  Biso   1.000  H
  C1060    1.0000 0.61048  0.96198  0.88087  Biso   1.000  C
  O60      1.0000 0.65818  0.06129  0.92680  Biso   1.000  O
  C1061    1.0000 0.60410  0.02210  0.18842  Biso   1.000  C
  C1062    1.0000 0.55178  0.06478  0.08471  Biso   1.000  C
  C1063    1.0000 0.60410  0.02210  0.18837  Biso   1.000  C
  C1064    1.0000 0.56922  0.07310  0.08050  Biso   1.000  C
  C1065    1.0000 0.61018  0.05642  0.18771  Biso   1.000  C
  C1066    1.0000 0.60410  0.97790  0.81158  Biso   1.000  C
  C1067    1.0000 0.55178  0.93522  0.91529  Biso   1.000  C
  C1068    1.0000 0.56922  0.92690  0.91950  Biso   1.000  C
  C1069    1.0000 0.61018  0.94358  0.81229  Biso   1.000  C
  H826     1.0000 0.63608  0.99630  0.21362  Biso   1.000  H
  C1070    1.0000 0.53982  0.05150  0.21752  Biso   1.000  C
  C1071    1.0000 0.56451  0.09312  0.22010  Biso   1.000  C
  H827     1.0000 0.64729  0.04071  0.21402  Biso   1.000  H
  C1072    1.0000 0.50591  0.10062  0.11380  Biso   1.000  C
  H828     1.0000 0.54681  0.05541  0.03771  Biso   1.000  H
  C1073    1.0000 0.50591  0.10057  0.11380  Biso   1.000  C
  H829     1.0000 0.57860  0.08070  0.03391  Biso   1.000  H
  C1074    1.0000 0.53982  0.94850  0.78248  Biso   1.000  C
  C1075    1.0000 0.56451  0.90688  0.77990  Biso   1.000  C
  H830     1.0000 0.64729  0.95929  0.78598  Biso   1.000  H
  H831     1.0000 0.63608  0.00370  0.78638  Biso   1.000  H
  C1076    1.0000 0.50591  0.89938  0.88620  Biso   1.000  C
  H832     1.0000 0.54681  0.94459  0.96229  Biso   1.000  H
  H833     1.0000 0.57860  0.91930  0.96609  Biso   1.000  H
  C1077    1.0000 0.49719  0.08719  0.17960  Biso   1.000  C
  H834     1.0000 0.52958  0.04441  0.26411  Biso   1.000  H
  C1078    1.0000 0.50971  0.11598  0.18031  Biso   1.000  C
  H835     1.0000 0.56831  0.10321  0.26699  Biso   1.000  H
  H836     1.0000 0.47382  0.12648  0.08891  Biso   1.000  H
  C1079    1.0000 0.49719  0.91281  0.82040  Biso   1.000  C
  H837     1.0000 0.52958  0.95559  0.73589  Biso   1.000  H
  C1080    1.0000 0.50971  0.88402  0.81969  Biso   1.000  C
  H838     1.0000 0.56831  0.89679  0.73301  Biso   1.000  H
  H839     1.0000 0.47382  0.87352  0.91109  Biso   1.000  H
  H840     1.0000 0.47382  0.87347  0.91109  Biso   1.000  H
  Br117    1.0000 0.42206  0.13276  0.22036  Biso   1.000  Br
  Br118    1.0000 0.43631  0.16156  0.22619  Biso   1.000  Br
  Br119    1.0000 0.42206  0.86724  0.77964  Biso   1.000  Br
  Br120    1.0000 0.43631  0.83844  0.77381  Biso   1.000  Br
  C1081    1.0000 0.21990  0.00350  0.03832  Biso   1.000  C
  N91      1.0000 0.27556  0.96720  0.07142  Biso   1.000  N
  H841     1.0000 0.22299  0.05221  0.05008  Biso   1.000  H
  C1082    1.0000 0.21990  0.99650  0.96168  Biso   1.000  C
  H842     1.0000 0.17631  0.98621  0.05622  Biso   1.000  H
  C1083    1.0000 0.33350  0.00091  0.08597  Biso   1.000  C
  C1084    1.0000 0.26882  0.89329  0.07462  Biso   1.000  C
  C1085    1.0000 0.21990  0.00350  0.03827  Biso   1.000  C
  H843     1.0000 0.22299  0.94779  0.94992  Biso   1.000  H
  N92      1.0000 0.27556  0.03280  0.92858  Biso   1.000  N
  H844     1.0000 0.17631  0.01379  0.94378  Biso   1.000  H
  N93      1.0000 0.27556  0.03280  0.92852  Biso   1.000  N
  O61      1.0000 0.34182  0.06129  0.07320  Biso   1.000  O
  C1086    1.0000 0.38952  0.96198  0.11913  Biso   1.000  C
  C1087    1.0000 0.20733  0.87063  0.11487  Biso   1.000  C
  H845     1.0000 0.31008  0.87398  0.09561  Biso   1.000  H
  H846     1.0000 0.26542  0.87520  0.02798  Biso   1.000  H
  H847     1.0000 0.26537  0.87520  0.02798  Biso   1.000  H
  C1088    1.0000 0.33350  0.99909  0.91403  Biso   1.000  C
  C1089    1.0000 0.26882  0.10671  0.92538  Biso   1.000  C
  C1090    1.0000 0.39590  0.97790  0.18842  Biso   1.000  C
  C1091    1.0000 0.44822  0.93522  0.08471  Biso   1.000  C
  C1092    1.0000 0.39590  0.97790  0.18837  Biso   1.000  C
  C1093    1.0000 0.44817  0.93522  0.08471  Biso   1.000  C
  C1094    1.0000 0.43078  0.92690  0.08050  Biso   1.000  C
  C1095    1.0000 0.38982  0.94358  0.18771  Biso   1.000  C
  C1096    1.0000 0.18574  0.90617  0.17185  Biso   1.000  C
  C1097    1.0000 0.17185  0.81426  0.09383  Biso   1.000  C
  O62      1.0000 0.34182  0.93871  0.92680  Biso   1.000  O
  C1098    1.0000 0.38952  0.03802  0.88087  Biso   1.000  C
  C1099    1.0000 0.20733  0.12937  0.88513  Biso   1.000  C
  H848     1.0000 0.31008  0.12602  0.90439  Biso   1.000  H
  H849     1.0000 0.26542  0.12480  0.97202  Biso   1.000  H
  C1100    1.0000 0.20733  0.12937  0.88508  Biso   1.000  C
  H850     1.0000 0.31008  0.12597  0.90439  Biso   1.000  H
  H851     1.0000 0.26537  0.12480  0.97202  Biso   1.000  H
  H852     1.0000 0.36392  0.00370  0.21362  Biso   1.000  H
  C1101    1.0000 0.46018  0.94850  0.21752  Biso   1.000  C
  C1102    1.0000 0.43549  0.90688  0.22010  Biso   1.000  C
  H853     1.0000 0.35271  0.95929  0.21402  Biso   1.000  H
  C1103    1.0000 0.49409  0.89938  0.11380  Biso   1.000  C
  H854     1.0000 0.45319  0.94459  0.03771  Biso   1.000  H
  H855     1.0000 0.42140  0.91930  0.03391  Biso   1.000  H
  H856     1.0000 0.20992  0.94520  0.18639  Biso   1.000  H
  C1104    1.0000 0.12937  0.88513  0.20733  Biso   1.000  C
  C1105    1.0000 0.12937  0.88508  0.20733  Biso   1.000  C
  C1106    1.0000 0.11487  0.79267  0.12937  Biso   1.000  C
  H857     1.0000 0.18639  0.79008  0.05480  Biso   1.000  H
  C1107    1.0000 0.39590  0.02210  0.81158  Biso   1.000  C
  C1108    1.0000 0.44822  0.06478  0.91529  Biso   1.000  C
  C1109    1.0000 0.44817  0.06478  0.91529  Biso   1.000  C
  C1110    1.0000 0.43078  0.07310  0.91950  Biso   1.000  C
  C1111    1.0000 0.38982  0.05642  0.81229  Biso   1.000  C
  C1112    1.0000 0.18574  0.09383  0.82815  Biso   1.000  C
  C1113    1.0000 0.17185  0.18574  0.90617  Biso   1.000  C
  C1114    1.0000 0.18574  0.09383  0.82810  Biso   1.000  C
  C1115    1.0000 0.50281  0.91281  0.17960  Biso   1.000  C
  H858     1.0000 0.47042  0.95559  0.26411  Biso   1.000  H
  H859     1.0000 0.47037  0.95559  0.26411  Biso   1.000  H
  C1116    1.0000 0.49029  0.88402  0.18031  Biso   1.000  C
  H860     1.0000 0.43169  0.89679  0.26699  Biso   1.000  H
  H861     1.0000 0.52618  0.87352  0.08891  Biso   1.000  H
  H862     1.0000 0.52618  0.87347  0.08891  Biso   1.000  H
  C1117    1.0000 0.09383  0.82815  0.18574  Biso   1.000  C
  C1118    1.0000 0.10671  0.92538  0.26882  Biso   1.000  C
  C1119    1.0000 0.09383  0.82810  0.18574  Biso   1.000  C
  C1120    1.0000 0.07462  0.73118  0.10671  Biso   1.000  C
  H863     1.0000 0.36392  0.99630  0.78638  Biso   1.000  H
  C1121    1.0000 0.46018  0.05150  0.78248  Biso   1.000  C
  C1122    1.0000 0.43549  0.09312  0.77990  Biso   1.000  C
  H864     1.0000 0.35271  0.04071  0.78598  Biso   1.000  H
  C1123    1.0000 0.49409  0.10062  0.88620  Biso   1.000  C
  H865     1.0000 0.45319  0.05541  0.96229  Biso   1.000  H
  C1124    1.0000 0.49409  0.10057  0.88620  Biso   1.000  C
  H866     1.0000 0.42140  0.08070  0.96609  Biso   1.000  H
  H867     1.0000 0.20992  0.05480  0.81361  Biso   1.000  H
  C1125    1.0000 0.12937  0.11487  0.79267  Biso   1.000  C
  H868     1.0000 0.18639  0.20992  0.94520  Biso   1.000  H
  C1126    1.0000 0.11487  0.20733  0.87063  Biso   1.000  C
  Br121    1.0000 0.57794  0.86724  0.22036  Biso   1.000  Br
  Br122    1.0000 0.56369  0.83844  0.22619  Biso   1.000  Br
  H869     1.0000 0.05480  0.81361  0.20992  Biso   1.000  H
  N94      1.0000 0.03280  0.92858  0.27556  Biso   1.000  N
  H870     1.0000 0.12602  0.90439  0.31008  Biso   1.000  H
  H871     1.0000 0.12480  0.97202  0.26542  Biso   1.000  H
  H872     1.0000 0.12480  0.97202  0.26537  Biso   1.000  H
  N95      1.0000 0.03280  0.92852  0.27556  Biso   1.000  N
  H873     1.0000 0.12597  0.90439  0.31008  Biso   1.000  H
  N96      1.0000 0.07142  0.72444  0.03280  Biso   1.000  N
  H874     1.0000 0.09561  0.68992  0.12602  Biso   1.000  H
  H875     1.0000 0.02798  0.73458  0.12480  Biso   1.000  H
  H876     1.0000 0.09561  0.68992  0.12597  Biso   1.000  H
  C1127    1.0000 0.50281  0.08719  0.82040  Biso   1.000  C
  H877     1.0000 0.47042  0.04441  0.73589  Biso   1.000  H
  H878     1.0000 0.47037  0.04441  0.73589  Biso   1.000  H
  C1128    1.0000 0.49029  0.11598  0.81969  Biso   1.000  C
  H879     1.0000 0.43169  0.10321  0.73301  Biso   1.000  H
  H880     1.0000 0.52618  0.12648  0.91109  Biso   1.000  H
  C1129    1.0000 0.10671  0.07462  0.73118  Biso   1.000  C
  C1130    1.0000 0.09383  0.17185  0.81426  Biso   1.000  C
  C1131    1.0000 0.07462  0.26882  0.89329  Biso   1.000  C
  C1132    1.0000 0.99650  0.96168  0.21990  Biso   1.000  C
  C1133    1.0000 0.99909  0.91403  0.33350  Biso   1.000  C
  C1134    1.0000 0.03832  0.78010  0.99650  Biso   1.000  C
  C1135    1.0000 0.08597  0.66650  0.99909  Biso   1.000  C
  C1136    1.0000 0.03827  0.78010  0.99650  Biso   1.000  C
  Br123    1.0000 0.57794  0.13276  0.77964  Biso   1.000  Br
  Br124    1.0000 0.56369  0.16156  0.77381  Biso   1.000  Br
  N97      1.0000 0.03280  0.07142  0.72444  Biso   1.000  N
  H881     1.0000 0.12602  0.09561  0.68992  Biso   1.000  H
  H882     1.0000 0.12480  0.02798  0.73458  Biso   1.000  H
  H883     1.0000 0.12597  0.09561  0.68992  Biso   1.000  H
  H884     1.0000 0.05480  0.18639  0.79008  Biso   1.000  H
  N98      1.0000 0.07142  0.27556  0.96720  Biso   1.000  N
  H885     1.0000 0.09561  0.31008  0.87398  Biso   1.000  H
  H886     1.0000 0.02798  0.26542  0.87520  Biso   1.000  H
  H887     1.0000 0.02798  0.26537  0.87520  Biso   1.000  H
  H888     1.0000 0.94779  0.94992  0.22299  Biso   1.000  H
  H889     1.0000 0.01379  0.94378  0.17631  Biso   1.000  H
  C1137    1.0000 0.00350  0.03832  0.21990  Biso   1.000  C
  C1138    1.0000 0.00350  0.03827  0.21990  Biso   1.000  C
  O63      1.0000 0.93871  0.92680  0.34182  Biso   1.000  O
  C1139    1.0000 0.03802  0.88087  0.38952  Biso   1.000  C
  C1140    1.0000 0.96168  0.78010  0.00350  Biso   1.000  C
  H890     1.0000 0.05008  0.77701  0.94779  Biso   1.000  H
  H891     1.0000 0.05622  0.82369  0.01379  Biso   1.000  H
  O64      1.0000 0.07320  0.65818  0.93871  Biso   1.000  O
  C1141    1.0000 0.11913  0.61048  0.03802  Biso   1.000  C
  C1142    1.0000 0.99650  0.03832  0.78010  Biso   1.000  C
  C1143    1.0000 0.99909  0.08597  0.66650  Biso   1.000  C
  C1144    1.0000 0.99650  0.03827  0.78010  Biso   1.000  C
  C1145    1.0000 0.08597  0.33350  0.00091  Biso   1.000  C
  C1146    1.0000 0.03832  0.21990  0.00350  Biso   1.000  C
  C1147    1.0000 0.03827  0.21990  0.00350  Biso   1.000  C
  H892     1.0000 0.05221  0.05008  0.22299  Biso   1.000  H
  N99      1.0000 0.96720  0.07142  0.27556  Biso   1.000  N
  H893     1.0000 0.98621  0.05622  0.17631  Biso   1.000  H
  C1148    1.0000 0.02210  0.81158  0.39590  Biso   1.000  C
  C1149    1.0000 0.06478  0.91529  0.44822  Biso   1.000  C
  C1150    1.0000 0.06478  0.91529  0.44817  Biso   1.000  C
  C1151    1.0000 0.07310  0.91950  0.43078  Biso   1.000  C
  C1152    1.0000 0.05642  0.81229  0.38982  Biso   1.000  C
  N100     1.0000 0.92858  0.72444  0.96720  Biso   1.000  N
  H894     1.0000 0.94378  0.82369  0.98621  Biso   1.000  H
  N101     1.0000 0.92852  0.72444  0.96720  Biso   1.000  N
  H895     1.0000 0.94992  0.77701  0.05221  Biso   1.000  H
  C1153    1.0000 0.18842  0.60410  0.02210  Biso   1.000  C
  C1154    1.0000 0.08471  0.55178  0.06478  Biso   1.000  C
  C1155    1.0000 0.18837  0.60410  0.02210  Biso   1.000  C
  C1156    1.0000 0.08050  0.56922  0.07310  Biso   1.000  C
  C1157    1.0000 0.18771  0.61018  0.05642  Biso   1.000  C
  H896     1.0000 0.94779  0.05008  0.77701  Biso   1.000  H
  C1158    1.0000 0.00350  0.96168  0.78010  Biso   1.000  C
  H897     1.0000 0.01379  0.05622  0.82369  Biso   1.000  H
  O65      1.0000 0.93871  0.07320  0.65818  Biso   1.000  O
  C1159    1.0000 0.03802  0.11913  0.61048  Biso   1.000  C
  O66      1.0000 0.07320  0.34182  0.06129  Biso   1.000  O
  C1160    1.0000 0.11913  0.38952  0.96198  Biso   1.000  C
  H898     1.0000 0.05008  0.22299  0.05221  Biso   1.000  H
  C1161    1.0000 0.96168  0.21990  0.99650  Biso   1.000  C
  H899     1.0000 0.05622  0.17631  0.98621  Biso   1.000  H
  C1162    1.0000 0.00091  0.08597  0.33350  Biso   1.000  C
  C1163    1.0000 0.89329  0.07462  0.26882  Biso   1.000  C
  H900     1.0000 0.99630  0.78638  0.36392  Biso   1.000  H
  C1164    1.0000 0.05150  0.78248  0.46018  Biso   1.000  C
  C1165    1.0000 0.09312  0.77990  0.43549  Biso   1.000  C
  H901     1.0000 0.04071  0.78598  0.35271  Biso   1.000  H
  C1166    1.0000 0.10062  0.88620  0.49409  Biso   1.000  C
  H902     1.0000 0.05541  0.96229  0.45319  Biso   1.000  H
  C1167    1.0000 0.10057  0.88620  0.49409  Biso   1.000  C
  H903     1.0000 0.08070  0.96609  0.42140  Biso   1.000  H
  C1168    1.0000 0.92538  0.73118  0.89329  Biso   1.000  C
  C1169    1.0000 0.91403  0.66650  0.00091  Biso   1.000  C
  H904     1.0000 0.21362  0.63608  0.99630  Biso   1.000  H
  C1170    1.0000 0.21752  0.53982  0.05150  Biso   1.000  C
  C1171    1.0000 0.22010  0.56451  0.09312  Biso   1.000  C
  H905     1.0000 0.21402  0.64729  0.04071  Biso   1.000  H
  C1172    1.0000 0.11380  0.50591  0.10062  Biso   1.000  C
  H906     1.0000 0.03771  0.54681  0.05541  Biso   1.000  H
  C1173    1.0000 0.11380  0.50591  0.10057  Biso   1.000  C
  H907     1.0000 0.03391  0.57860  0.08070  Biso   1.000  H
  N102     1.0000 0.96720  0.92858  0.72444  Biso   1.000  N
  H908     1.0000 0.98621  0.94378  0.82369  Biso   1.000  H
  N103     1.0000 0.96720  0.92852  0.72444  Biso   1.000  N
  H909     1.0000 0.05221  0.94992  0.77701  Biso   1.000  H
  C1174    1.0000 0.02210  0.18842  0.60410  Biso   1.000  C
  C1175    1.0000 0.06478  0.08471  0.55178  Biso   1.000  C
  C1176    1.0000 0.02210  0.18837  0.60410  Biso   1.000  C
  C1177    1.0000 0.07310  0.08050  0.56922  Biso   1.000  C
  C1178    1.0000 0.05642  0.18771  0.61018  Biso   1.000  C
  C1179    1.0000 0.18842  0.39590  0.97790  Biso   1.000  C
  C1180    1.0000 0.08471  0.44822  0.93522  Biso   1.000  C
  C1181    1.0000 0.08471  0.44817  0.93522  Biso   1.000  C
  C1182    1.0000 0.18837  0.39590  0.97790  Biso   1.000  C
  C1183    1.0000 0.08050  0.43078  0.92690  Biso   1.000  C
  C1184    1.0000 0.18771  0.38982  0.94358  Biso   1.000  C
  H910     1.0000 0.94992  0.22299  0.94779  Biso   1.000  H
  N104     1.0000 0.92858  0.27556  0.03280  Biso   1.000  N
  H911     1.0000 0.94378  0.17631  0.01379  Biso   1.000  H
  N105     1.0000 0.92852  0.27556  0.03280  Biso   1.000  N
  O67      1.0000 0.06129  0.07320  0.34182  Biso   1.000  O
  C1185    1.0000 0.96198  0.11913  0.38952  Biso   1.000  C
  C1186    1.0000 0.87063  0.11487  0.20733  Biso   1.000  C
  H912     1.0000 0.87398  0.09561  0.31008  Biso   1.000  H
  H913     1.0000 0.87520  0.02798  0.26542  Biso   1.000  H
  H914     1.0000 0.87520  0.02798  0.26537  Biso   1.000  H
  C1187    1.0000 0.08719  0.82040  0.50281  Biso   1.000  C
  H915     1.0000 0.04441  0.73589  0.47042  Biso   1.000  H
  H916     1.0000 0.04441  0.73589  0.47037  Biso   1.000  H
  C1188    1.0000 0.11598  0.81969  0.49029  Biso   1.000  C
  H917     1.0000 0.10321  0.73301  0.43169  Biso   1.000  H
  H918     1.0000 0.12648  0.91109  0.52618  Biso   1.000  H
  C1189    1.0000 0.88513  0.79267  0.87063  Biso   1.000  C
  H919     1.0000 0.90439  0.68992  0.87398  Biso   1.000  H
  H920     1.0000 0.97202  0.73458  0.87520  Biso   1.000  H
  C1190    1.0000 0.88508  0.79267  0.87063  Biso   1.000  C
  C1191    1.0000 0.88087  0.61048  0.96198  Biso   1.000  C
  O68      1.0000 0.92680  0.65818  0.06129  Biso   1.000  O
  C1192    1.0000 0.17960  0.49719  0.08719  Biso   1.000  C
  H921     1.0000 0.26411  0.52958  0.04441  Biso   1.000  H
  C1193    1.0000 0.18031  0.50971  0.11598  Biso   1.000  C
  H922     1.0000 0.26699  0.56831  0.10321  Biso   1.000  H
  H923     1.0000 0.08891  0.47382  0.12648  Biso   1.000  H
  C1194    1.0000 0.89329  0.92538  0.73118  Biso   1.000  C
  C1195    1.0000 0.00091  0.91403  0.66650  Biso   1.000  C
  H924     1.0000 0.99630  0.21362  0.63608  Biso   1.000  H
  C1196    1.0000 0.05150  0.21752  0.53982  Biso   1.000  C
  C1197    1.0000 0.09312  0.22010  0.56451  Biso   1.000  C
  H925     1.0000 0.04071  0.21402  0.64729  Biso   1.000  H
  C1198    1.0000 0.10062  0.11380  0.50591  Biso   1.000  C
  H926     1.0000 0.05541  0.03771  0.54681  Biso   1.000  H
  C1199    1.0000 0.10057  0.11380  0.50591  Biso   1.000  C
  H927     1.0000 0.08070  0.03391  0.57860  Biso   1.000  H
  H928     1.0000 0.21362  0.36392  0.00370  Biso   1.000  H
  C1200    1.0000 0.21752  0.46018  0.94850  Biso   1.000  C
  C1201    1.0000 0.22010  0.43549  0.90688  Biso   1.000  C
  H929     1.0000 0.21402  0.35271  0.95929  Biso   1.000  H
  C1202    1.0000 0.11380  0.49409  0.89938  Biso   1.000  C
  H930     1.0000 0.03771  0.45319  0.94459  Biso   1.000  H
  H931     1.0000 0.03391  0.42140  0.91930  Biso   1.000  H
  C1203    1.0000 0.91403  0.33350  0.99909  Biso   1.000  C
  C1204    1.0000 0.92538  0.26882  0.10671  Biso   1.000  C
  C1205    1.0000 0.97790  0.18842  0.39590  Biso   1.000  C
  C1206    1.0000 0.93522  0.08471  0.44822  Biso   1.000  C
  C1207    1.0000 0.93522  0.08471  0.44817  Biso   1.000  C
  C1208    1.0000 0.97790  0.18837  0.39590  Biso   1.000  C
  C1209    1.0000 0.92690  0.08050  0.43078  Biso   1.000  C
  C1210    1.0000 0.94358  0.18771  0.38982  Biso   1.000  C
  C1211    1.0000 0.90617  0.17185  0.18574  Biso   1.000  C
  C1212    1.0000 0.81426  0.09383  0.17185  Biso   1.000  C
  Br125    1.0000 0.13276  0.77964  0.57794  Biso   1.000  Br
  Br126    1.0000 0.16156  0.77381  0.56369  Biso   1.000  Br
  C1213    1.0000 0.90617  0.82815  0.81426  Biso   1.000  C
  C1214    1.0000 0.82815  0.81426  0.90617  Biso   1.000  C
  C1215    1.0000 0.90617  0.82810  0.81426  Biso   1.000  C
  C1216    1.0000 0.82810  0.81426  0.90617  Biso   1.000  C
  C1217    1.0000 0.81158  0.60410  0.97790  Biso   1.000  C
  C1218    1.0000 0.91529  0.55178  0.93522  Biso   1.000  C
  C1219    1.0000 0.91950  0.56922  0.92690  Biso   1.000  C
  C1220    1.0000 0.81229  0.61018  0.94358  Biso   1.000  C
  Br127    1.0000 0.22036  0.42206  0.13276  Biso   1.000  Br
  Br128    1.0000 0.22619  0.43631  0.16156  Biso   1.000  Br
  C1221    1.0000 0.87063  0.88513  0.79267  Biso   1.000  C
  C1222    1.0000 0.87063  0.88508  0.79267  Biso   1.000  C
  H932     1.0000 0.87398  0.90439  0.68992  Biso   1.000  H
  H933     1.0000 0.87520  0.97202  0.73458  Biso   1.000  H
  C1223    1.0000 0.96198  0.88087  0.61048  Biso   1.000  C
  O69      1.0000 0.06129  0.92680  0.65818  Biso   1.000  O
  C1224    1.0000 0.08719  0.17960  0.49719  Biso   1.000  C
  H934     1.0000 0.04441  0.26411  0.52958  Biso   1.000  H
  C1225    1.0000 0.11598  0.18031  0.50971  Biso   1.000  C
  H935     1.0000 0.10321  0.26699  0.56831  Biso   1.000  H
  H936     1.0000 0.12648  0.08891  0.47382  Biso   1.000  H
  C1226    1.0000 0.17960  0.50281  0.91281  Biso   1.000  C
  H937     1.0000 0.26411  0.47042  0.95559  Biso   1.000  H
  H938     1.0000 0.26411  0.47037  0.95559  Biso   1.000  H
  C1227    1.0000 0.18031  0.49029  0.88402  Biso   1.000  C
  H939     1.0000 0.26699  0.43169  0.89679  Biso   1.000  H
  H940     1.0000 0.08891  0.52618  0.87352  Biso   1.000  H
  H941     1.0000 0.08891  0.52618  0.87347  Biso   1.000  H
  O70      1.0000 0.92680  0.34182  0.93871  Biso   1.000  O
  C1228    1.0000 0.88087  0.38952  0.03802  Biso   1.000  C
  C1229    1.0000 0.88513  0.20733  0.12937  Biso   1.000  C
  C1230    1.0000 0.88508  0.20733  0.12937  Biso   1.000  C
  H942     1.0000 0.90439  0.31008  0.12602  Biso   1.000  H
  H943     1.0000 0.97202  0.26542  0.12480  Biso   1.000  H
  H944     1.0000 0.90439  0.31008  0.12597  Biso   1.000  H
  H945     1.0000 0.97202  0.26537  0.12480  Biso   1.000  H
  H946     1.0000 0.00370  0.21362  0.36392  Biso   1.000  H
  C1231    1.0000 0.94850  0.21752  0.46018  Biso   1.000  C
  C1232    1.0000 0.90688  0.22010  0.43549  Biso   1.000  C
  H947     1.0000 0.95929  0.21402  0.35271  Biso   1.000  H
  C1233    1.0000 0.89938  0.11380  0.49409  Biso   1.000  C
  H948     1.0000 0.94459  0.03771  0.45319  Biso   1.000  H
  H949     1.0000 0.91930  0.03391  0.42140  Biso   1.000  H
  H950     1.0000 0.94520  0.18639  0.20992  Biso   1.000  H
  C1234    1.0000 0.79267  0.12937  0.11487  Biso   1.000  C
  H951     1.0000 0.79008  0.05480  0.18639  Biso   1.000  H
  H952     1.0000 0.94520  0.81361  0.79008  Biso   1.000  H
  H953     1.0000 0.81361  0.79008  0.94520  Biso   1.000  H
  C1235    1.0000 0.79267  0.87063  0.88513  Biso   1.000  C
  C1236    1.0000 0.79267  0.87063  0.88508  Biso   1.000  C
  C1237    1.0000 0.78248  0.53982  0.94850  Biso   1.000  C
  C1238    1.0000 0.77990  0.56451  0.90688  Biso   1.000  C
  H954     1.0000 0.78598  0.64729  0.95929  Biso   1.000  H
  H955     1.0000 0.78638  0.63608  0.00370  Biso   1.000  H
  C1239    1.0000 0.88620  0.50591  0.89938  Biso   1.000  C
  H956     1.0000 0.96229  0.54681  0.94459  Biso   1.000  H
  H957     1.0000 0.96609  0.57860  0.91930  Biso   1.000  H
  C1240    1.0000 0.81426  0.90617  0.82815  Biso   1.000  C
  C1241    1.0000 0.81426  0.90617  0.82810  Biso   1.000  C
  C1242    1.0000 0.97790  0.81158  0.60410  Biso   1.000  C
  C1243    1.0000 0.93522  0.91529  0.55178  Biso   1.000  C
  C1244    1.0000 0.92690  0.91950  0.56922  Biso   1.000  C
  C1245    1.0000 0.94358  0.81229  0.61018  Biso   1.000  C
  Br129    1.0000 0.13276  0.22036  0.42206  Biso   1.000  Br
  Br130    1.0000 0.16156  0.22619  0.43631  Biso   1.000  Br
  Br131    1.0000 0.22036  0.57794  0.86724  Biso   1.000  Br
  Br132    1.0000 0.22619  0.56369  0.83844  Biso   1.000  Br
  C1246    1.0000 0.81158  0.39590  0.02210  Biso   1.000  C
  C1247    1.0000 0.91529  0.44822  0.06478  Biso   1.000  C
  C1248    1.0000 0.91529  0.44817  0.06478  Biso   1.000  C
  C1249    1.0000 0.91950  0.43078  0.07310  Biso   1.000  C
  C1250    1.0000 0.81229  0.38982  0.05642  Biso   1.000  C
  C1251    1.0000 0.82815  0.18574  0.09383  Biso   1.000  C
  C1252    1.0000 0.82810  0.18574  0.09383  Biso   1.000  C
  C1253    1.0000 0.91281  0.17960  0.50281  Biso   1.000  C
  H958     1.0000 0.95559  0.26411  0.47042  Biso   1.000  H
  H959     1.0000 0.95559  0.26411  0.47037  Biso   1.000  H
  C1254    1.0000 0.88402  0.18031  0.49029  Biso   1.000  C
  H960     1.0000 0.89679  0.26699  0.43169  Biso   1.000  H
  H961     1.0000 0.87352  0.08891  0.52618  Biso   1.000  H
  H962     1.0000 0.87347  0.08891  0.52618  Biso   1.000  H
  C1255    1.0000 0.73118  0.10671  0.07462  Biso   1.000  C
  C1256    1.0000 0.73118  0.89329  0.92538  Biso   1.000  C
  C1257    1.0000 0.82040  0.49719  0.91281  Biso   1.000  C
  H963     1.0000 0.73589  0.52958  0.95559  Biso   1.000  H
  C1258    1.0000 0.81969  0.50971  0.88402  Biso   1.000  C
  H964     1.0000 0.73301  0.56831  0.89679  Biso   1.000  H
  H965     1.0000 0.91109  0.47382  0.87352  Biso   1.000  H
  H966     1.0000 0.91109  0.47382  0.87347  Biso   1.000  H
  H967     1.0000 0.79008  0.94520  0.81361  Biso   1.000  H
  C1259    1.0000 0.94850  0.78248  0.53982  Biso   1.000  C
  C1260    1.0000 0.90688  0.77990  0.56451  Biso   1.000  C
  H968     1.0000 0.95929  0.78598  0.64729  Biso   1.000  H
  H969     1.0000 0.00370  0.78638  0.63608  Biso   1.000  H
  C1261    1.0000 0.89938  0.88620  0.50591  Biso   1.000  C
  H970     1.0000 0.94459  0.96229  0.54681  Biso   1.000  H
  H971     1.0000 0.91930  0.96609  0.57860  Biso   1.000  H
  H972     1.0000 0.78638  0.36392  0.99630  Biso   1.000  H
  C1262    1.0000 0.78248  0.46018  0.05150  Biso   1.000  C
  C1263    1.0000 0.77990  0.43549  0.09312  Biso   1.000  C
  H973     1.0000 0.78598  0.35271  0.04071  Biso   1.000  H
  C1264    1.0000 0.88620  0.49409  0.10062  Biso   1.000  C
  H974     1.0000 0.96229  0.45319  0.05541  Biso   1.000  H
  C1265    1.0000 0.88620  0.49409  0.10057  Biso   1.000  C
  H975     1.0000 0.96609  0.42140  0.08070  Biso   1.000  H
  H976     1.0000 0.81361  0.20992  0.05480  Biso   1.000  H
  Br133    1.0000 0.86724  0.22036  0.57794  Biso   1.000  Br
  Br134    1.0000 0.83844  0.22619  0.56369  Biso   1.000  Br
  N106     1.0000 0.72444  0.03280  0.07142  Biso   1.000  N
  H977     1.0000 0.68992  0.12602  0.09561  Biso   1.000  H
  H978     1.0000 0.73458  0.12480  0.02798  Biso   1.000  H
  H979     1.0000 0.68992  0.12597  0.09561  Biso   1.000  H
  N107     1.0000 0.72444  0.96720  0.92858  Biso   1.000  N
  H980     1.0000 0.68992  0.87398  0.90439  Biso   1.000  H
  H981     1.0000 0.73458  0.87520  0.97202  Biso   1.000  H
  N108     1.0000 0.72444  0.96720  0.92852  Biso   1.000  N
  Br135    1.0000 0.77964  0.42206  0.86724  Biso   1.000  Br
  Br136    1.0000 0.77381  0.43631  0.83844  Biso   1.000  Br
  C1266    1.0000 0.91281  0.82040  0.49719  Biso   1.000  C
  H982     1.0000 0.95559  0.73589  0.52958  Biso   1.000  H
  C1267    1.0000 0.88402  0.81969  0.50971  Biso   1.000  C
  H983     1.0000 0.89679  0.73301  0.56831  Biso   1.000  H
  H984     1.0000 0.87352  0.91109  0.47382  Biso   1.000  H
  H985     1.0000 0.87347  0.91109  0.47382  Biso   1.000  H
  C1268    1.0000 0.82040  0.50281  0.08719  Biso   1.000  C
  H986     1.0000 0.73589  0.47042  0.04441  Biso   1.000  H
  H987     1.0000 0.73589  0.47037  0.04441  Biso   1.000  H
  C1269    1.0000 0.81969  0.49029  0.11598  Biso   1.000  C
  H988     1.0000 0.73301  0.43169  0.10321  Biso   1.000  H
  H989     1.0000 0.91109  0.52618  0.12648  Biso   1.000  H
  C1270    1.0000 0.78010  0.99650  0.03832  Biso   1.000  C
  C1271    1.0000 0.66650  0.99909  0.08597  Biso   1.000  C
  C1272    1.0000 0.78010  0.99650  0.03827  Biso   1.000  C
  C1273    1.0000 0.78010  0.00350  0.96168  Biso   1.000  C
  C1274    1.0000 0.66650  0.00091  0.91403  Biso   1.000  C
  Br137    1.0000 0.86724  0.77964  0.42206  Biso   1.000  Br
  Br138    1.0000 0.83844  0.77381  0.43631  Biso   1.000  Br
  Br139    1.0000 0.77964  0.57794  0.13276  Biso   1.000  Br
  Br140    1.0000 0.77381  0.56369  0.16156  Biso   1.000  Br
  H990     1.0000 0.77701  0.94779  0.05008  Biso   1.000  H
  H991     1.0000 0.82369  0.01379  0.05622  Biso   1.000  H
  O71      1.0000 0.65818  0.93871  0.07320  Biso   1.000  O
  C1275    1.0000 0.61048  0.03802  0.11913  Biso   1.000  C
  H992     1.0000 0.82369  0.98621  0.94378  Biso   1.000  H
  H993     1.0000 0.77701  0.05221  0.94992  Biso   1.000  H
  C1276    1.0000 0.61048  0.96198  0.88087  Biso   1.000  C
  O72      1.0000 0.65818  0.06129  0.92680  Biso   1.000  O
  C1277    1.0000 0.60410  0.02210  0.18842  Biso   1.000  C
  C1278    1.0000 0.55178  0.06478  0.08471  Biso   1.000  C
  C1279    1.0000 0.60410  0.02210  0.18837  Biso   1.000  C
  C1280    1.0000 0.56922  0.07310  0.08050  Biso   1.000  C
  C1281    1.0000 0.61018  0.05642  0.18771  Biso   1.000  C
  C1282    1.0000 0.60410  0.97790  0.81158  Biso   1.000  C
  C1283    1.0000 0.55178  0.93522  0.91529  Biso   1.000  C
  C1284    1.0000 0.56922  0.92690  0.91950  Biso   1.000  C
  C1285    1.0000 0.61018  0.94358  0.81229  Biso   1.000  C
  H994     1.0000 0.63608  0.99630  0.21362  Biso   1.000  H
  C1286    1.0000 0.53982  0.05150  0.21752  Biso   1.000  C
  C1287    1.0000 0.56451  0.09312  0.22010  Biso   1.000  C
  H995     1.0000 0.64729  0.04071  0.21402  Biso   1.000  H
  C1288    1.0000 0.50591  0.10062  0.11380  Biso   1.000  C
  H996     1.0000 0.54681  0.05541  0.03771  Biso   1.000  H
  C1289    1.0000 0.50591  0.10057  0.11380  Biso   1.000  C
  H997     1.0000 0.57860  0.08070  0.03391  Biso   1.000  H
  C1290    1.0000 0.53982  0.94850  0.78248  Biso   1.000  C
  C1291    1.0000 0.56451  0.90688  0.77990  Biso   1.000  C
  H998     1.0000 0.64729  0.95929  0.78598  Biso   1.000  H
  H999     1.0000 0.63608  0.00370  0.78638  Biso   1.000  H
  C1292    1.0000 0.50591  0.89938  0.88620  Biso   1.000  C
  H1000    1.0000 0.54681  0.94459  0.96229  Biso   1.000  H
  H1001    1.0000 0.57860  0.91930  0.96609  Biso   1.000  H
  C1293    1.0000 0.49719  0.08719  0.17960  Biso   1.000  C
  H1002    1.0000 0.52958  0.04441  0.26411  Biso   1.000  H
  C1294    1.0000 0.50971  0.11598  0.18031  Biso   1.000  C
  H1003    1.0000 0.56831  0.10321  0.26699  Biso   1.000  H
  H1004    1.0000 0.47382  0.12648  0.08891  Biso   1.000  H
  C1295    1.0000 0.49719  0.91281  0.82040  Biso   1.000  C
  H1005    1.0000 0.52958  0.95559  0.73589  Biso   1.000  H
  C1296    1.0000 0.50971  0.88402  0.81969  Biso   1.000  C
  H1006    1.0000 0.56831  0.89679  0.73301  Biso   1.000  H
  H1007    1.0000 0.47382  0.87352  0.91109  Biso   1.000  H
  H1008    1.0000 0.47382  0.87347  0.91109  Biso   1.000  H
  Br141    1.0000 0.42206  0.13276  0.22036  Biso   1.000  Br
  Br142    1.0000 0.43631  0.16156  0.22619  Biso   1.000  Br
  Br143    1.0000 0.42206  0.86724  0.77964  Biso   1.000  Br
  Br144    1.0000 0.43631  0.83844  0.77381  Biso   1.000  Br
  C1297    1.0000 0.21990  0.00350  0.03832  Biso   1.000  C
  N109     1.0000 0.27556  0.96720  0.07142  Biso   1.000  N
  H1009    1.0000 0.22299  0.05221  0.05008  Biso   1.000  H
  C1298    1.0000 0.21990  0.99650  0.96168  Biso   1.000  C
  H1010    1.0000 0.17631  0.98621  0.05622  Biso   1.000  H
  C1299    1.0000 0.33350  0.00091  0.08597  Biso   1.000  C
  C1300    1.0000 0.26882  0.89329  0.07462  Biso   1.000  C
  C1301    1.0000 0.21990  0.00350  0.03827  Biso   1.000  C
  H1011    1.0000 0.22299  0.94779  0.94992  Biso   1.000  H
  N110     1.0000 0.27556  0.03280  0.92858  Biso   1.000  N
  H1012    1.0000 0.17631  0.01379  0.94378  Biso   1.000  H
  N111     1.0000 0.27556  0.03280  0.92852  Biso   1.000  N
  O73      1.0000 0.34182  0.06129  0.07320  Biso   1.000  O
  C1302    1.0000 0.38952  0.96198  0.11913  Biso   1.000  C
  C1303    1.0000 0.20733  0.87063  0.11487  Biso   1.000  C
  H1013    1.0000 0.31008  0.87398  0.09561  Biso   1.000  H
  H1014    1.0000 0.26542  0.87520  0.02798  Biso   1.000  H
  H1015    1.0000 0.26537  0.87520  0.02798  Biso   1.000  H
  C1304    1.0000 0.33350  0.99909  0.91403  Biso   1.000  C
  C1305    1.0000 0.26882  0.10671  0.92538  Biso   1.000  C
  C1306    1.0000 0.39590  0.97790  0.18842  Biso   1.000  C
  C1307    1.0000 0.44822  0.93522  0.08471  Biso   1.000  C
  C1308    1.0000 0.39590  0.97790  0.18837  Biso   1.000  C
  C1309    1.0000 0.44817  0.93522  0.08471  Biso   1.000  C
  C1310    1.0000 0.43078  0.92690  0.08050  Biso   1.000  C
  C1311    1.0000 0.38982  0.94358  0.18771  Biso   1.000  C
  C1312    1.0000 0.18574  0.90617  0.17185  Biso   1.000  C
  C1313    1.0000 0.17185  0.81426  0.09383  Biso   1.000  C
  O74      1.0000 0.34182  0.93871  0.92680  Biso   1.000  O
  C1314    1.0000 0.38952  0.03802  0.88087  Biso   1.000  C
  C1315    1.0000 0.20733  0.12937  0.88513  Biso   1.000  C
  H1016    1.0000 0.31008  0.12602  0.90439  Biso   1.000  H
  H1017    1.0000 0.26542  0.12480  0.97202  Biso   1.000  H
  C1316    1.0000 0.20733  0.12937  0.88508  Biso   1.000  C
  H1018    1.0000 0.31008  0.12597  0.90439  Biso   1.000  H
  H1019    1.0000 0.26537  0.12480  0.97202  Biso   1.000  H
  H1020    1.0000 0.36392  0.00370  0.21362  Biso   1.000  H
  C1317    1.0000 0.46018  0.94850  0.21752  Biso   1.000  C
  C1318    1.0000 0.43549  0.90688  0.22010  Biso   1.000  C
  H1021    1.0000 0.35271  0.95929  0.21402  Biso   1.000  H
  C1319    1.0000 0.49409  0.89938  0.11380  Biso   1.000  C
  H1022    1.0000 0.45319  0.94459  0.03771  Biso   1.000  H
  H1023    1.0000 0.42140  0.91930  0.03391  Biso   1.000  H
  H1024    1.0000 0.20992  0.94520  0.18639  Biso   1.000  H
  C1320    1.0000 0.12937  0.88513  0.20733  Biso   1.000  C
  C1321    1.0000 0.12937  0.88508  0.20733  Biso   1.000  C
  C1322    1.0000 0.11487  0.79267  0.12937  Biso   1.000  C
  H1025    1.0000 0.18639  0.79008  0.05480  Biso   1.000  H
  C1323    1.0000 0.39590  0.02210  0.81158  Biso   1.000  C
  C1324    1.0000 0.44822  0.06478  0.91529  Biso   1.000  C
  C1325    1.0000 0.44817  0.06478  0.91529  Biso   1.000  C
  C1326    1.0000 0.43078  0.07310  0.91950  Biso   1.000  C
  C1327    1.0000 0.38982  0.05642  0.81229  Biso   1.000  C
  C1328    1.0000 0.18574  0.09383  0.82815  Biso   1.000  C
  C1329    1.0000 0.17185  0.18574  0.90617  Biso   1.000  C
  C1330    1.0000 0.18574  0.09383  0.82810  Biso   1.000  C
  C1331    1.0000 0.50281  0.91281  0.17960  Biso   1.000  C
  H1026    1.0000 0.47042  0.95559  0.26411  Biso   1.000  H
  H1027    1.0000 0.47037  0.95559  0.26411  Biso   1.000  H
  C1332    1.0000 0.49029  0.88402  0.18031  Biso   1.000  C
  H1028    1.0000 0.43169  0.89679  0.26699  Biso   1.000  H
  H1029    1.0000 0.52618  0.87352  0.08891  Biso   1.000  H
  H1030    1.0000 0.52618  0.87347  0.08891  Biso   1.000  H
  C1333    1.0000 0.09383  0.82815  0.18574  Biso   1.000  C
  C1334    1.0000 0.10671  0.92538  0.26882  Biso   1.000  C
  C1335    1.0000 0.09383  0.82810  0.18574  Biso   1.000  C
  C1336    1.0000 0.07462  0.73118  0.10671  Biso   1.000  C
  H1031    1.0000 0.36392  0.99630  0.78638  Biso   1.000  H
  C1337    1.0000 0.46018  0.05150  0.78248  Biso   1.000  C
  C1338    1.0000 0.43549  0.09312  0.77990  Biso   1.000  C
  H1032    1.0000 0.35271  0.04071  0.78598  Biso   1.000  H
  C1339    1.0000 0.49409  0.10062  0.88620  Biso   1.000  C
  H1033    1.0000 0.45319  0.05541  0.96229  Biso   1.000  H
  C1340    1.0000 0.49409  0.10057  0.88620  Biso   1.000  C
  H1034    1.0000 0.42140  0.08070  0.96609  Biso   1.000  H
  H1035    1.0000 0.20992  0.05480  0.81361  Biso   1.000  H
  C1341    1.0000 0.12937  0.11487  0.79267  Biso   1.000  C
  H1036    1.0000 0.18639  0.20992  0.94520  Biso   1.000  H
  C1342    1.0000 0.11487  0.20733  0.87063  Biso   1.000  C
  Br145    1.0000 0.57794  0.86724  0.22036  Biso   1.000  Br
  Br146    1.0000 0.56369  0.83844  0.22619  Biso   1.000  Br
  H1037    1.0000 0.05480  0.81361  0.20992  Biso   1.000  H
  N112     1.0000 0.03280  0.92858  0.27556  Biso   1.000  N
  H1038    1.0000 0.12602  0.90439  0.31008  Biso   1.000  H
  H1039    1.0000 0.12480  0.97202  0.26542  Biso   1.000  H
  H1040    1.0000 0.12480  0.97202  0.26537  Biso   1.000  H
  N113     1.0000 0.03280  0.92852  0.27556  Biso   1.000  N
  H1041    1.0000 0.12597  0.90439  0.31008  Biso   1.000  H
  N114     1.0000 0.07142  0.72444  0.03280  Biso   1.000  N
  H1042    1.0000 0.09561  0.68992  0.12602  Biso   1.000  H
  H1043    1.0000 0.02798  0.73458  0.12480  Biso   1.000  H
  H1044    1.0000 0.09561  0.68992  0.12597  Biso   1.000  H
  C1343    1.0000 0.50281  0.08719  0.82040  Biso   1.000  C
  H1045    1.0000 0.47042  0.04441  0.73589  Biso   1.000  H
  H1046    1.0000 0.47037  0.04441  0.73589  Biso   1.000  H
  C1344    1.0000 0.49029  0.11598  0.81969  Biso   1.000  C
  H1047    1.0000 0.43169  0.10321  0.73301  Biso   1.000  H
  H1048    1.0000 0.52618  0.12648  0.91109  Biso   1.000  H
  C1345    1.0000 0.10671  0.07462  0.73118  Biso   1.000  C
  C1346    1.0000 0.09383  0.17185  0.81426  Biso   1.000  C
  C1347    1.0000 0.07462  0.26882  0.89329  Biso   1.000  C
  C1348    1.0000 0.99650  0.96168  0.21990  Biso   1.000  C
  C1349    1.0000 0.99909  0.91403  0.33350  Biso   1.000  C
  C1350    1.0000 0.03832  0.78010  0.99650  Biso   1.000  C
  C1351    1.0000 0.08597  0.66650  0.99909  Biso   1.000  C
  C1352    1.0000 0.03827  0.78010  0.99650  Biso   1.000  C
  Br147    1.0000 0.57794  0.13276  0.77964  Biso   1.000  Br
  Br148    1.0000 0.56369  0.16156  0.77381  Biso   1.000  Br
  N115     1.0000 0.03280  0.07142  0.72444  Biso   1.000  N
  H1049    1.0000 0.12602  0.09561  0.68992  Biso   1.000  H
  H1050    1.0000 0.12480  0.02798  0.73458  Biso   1.000  H
  H1051    1.0000 0.12597  0.09561  0.68992  Biso   1.000  H
  H1052    1.0000 0.05480  0.18639  0.79008  Biso   1.000  H
  N116     1.0000 0.07142  0.27556  0.96720  Biso   1.000  N
  H1053    1.0000 0.09561  0.31008  0.87398  Biso   1.000  H
  H1054    1.0000 0.02798  0.26542  0.87520  Biso   1.000  H
  H1055    1.0000 0.02798  0.26537  0.87520  Biso   1.000  H
  H1056    1.0000 0.94779  0.94992  0.22299  Biso   1.000  H
  H1057    1.0000 0.01379  0.94378  0.17631  Biso   1.000  H
  C1353    1.0000 0.00350  0.03832  0.21990  Biso   1.000  C
  C1354    1.0000 0.00350  0.03827  0.21990  Biso   1.000  C
  O75      1.0000 0.93871  0.92680  0.34182  Biso   1.000  O
  C1355    1.0000 0.03802  0.88087  0.38952  Biso   1.000  C
  C1356    1.0000 0.96168  0.78010  0.00350  Biso   1.000  C
  H1058    1.0000 0.05008  0.77701  0.94779  Biso   1.000  H
  H1059    1.0000 0.05622  0.82369  0.01379  Biso   1.000  H
  O76      1.0000 0.07320  0.65818  0.93871  Biso   1.000  O
  C1357    1.0000 0.11913  0.61048  0.03802  Biso   1.000  C
  C1358    1.0000 0.99650  0.03832  0.78010  Biso   1.000  C
  C1359    1.0000 0.99909  0.08597  0.66650  Biso   1.000  C
  C1360    1.0000 0.99650  0.03827  0.78010  Biso   1.000  C
  C1361    1.0000 0.08597  0.33350  0.00091  Biso   1.000  C
  C1362    1.0000 0.03832  0.21990  0.00350  Biso   1.000  C
  C1363    1.0000 0.03827  0.21990  0.00350  Biso   1.000  C
  H1060    1.0000 0.05221  0.05008  0.22299  Biso   1.000  H
  N117     1.0000 0.96720  0.07142  0.27556  Biso   1.000  N
  H1061    1.0000 0.98621  0.05622  0.17631  Biso   1.000  H
  C1364    1.0000 0.02210  0.81158  0.39590  Biso   1.000  C
  C1365    1.0000 0.06478  0.91529  0.44822  Biso   1.000  C
  C1366    1.0000 0.06478  0.91529  0.44817  Biso   1.000  C
  C1367    1.0000 0.07310  0.91950  0.43078  Biso   1.000  C
  C1368    1.0000 0.05642  0.81229  0.38982  Biso   1.000  C
  N118     1.0000 0.92858  0.72444  0.96720  Biso   1.000  N
  H1062    1.0000 0.94378  0.82369  0.98621  Biso   1.000  H
  N119     1.0000 0.92852  0.72444  0.96720  Biso   1.000  N
  H1063    1.0000 0.94992  0.77701  0.05221  Biso   1.000  H
  C1369    1.0000 0.18842  0.60410  0.02210  Biso   1.000  C
  C1370    1.0000 0.08471  0.55178  0.06478  Biso   1.000  C
  C1371    1.0000 0.18837  0.60410  0.02210  Biso   1.000  C
  C1372    1.0000 0.08050  0.56922  0.07310  Biso   1.000  C
  C1373    1.0000 0.18771  0.61018  0.05642  Biso   1.000  C
  H1064    1.0000 0.94779  0.05008  0.77701  Biso   1.000  H
  C1374    1.0000 0.00350  0.96168  0.78010  Biso   1.000  C
  H1065    1.0000 0.01379  0.05622  0.82369  Biso   1.000  H
  O77      1.0000 0.93871  0.07320  0.65818  Biso   1.000  O
  C1375    1.0000 0.03802  0.11913  0.61048  Biso   1.000  C
  O78      1.0000 0.07320  0.34182  0.06129  Biso   1.000  O
  C1376    1.0000 0.11913  0.38952  0.96198  Biso   1.000  C
  H1066    1.0000 0.05008  0.22299  0.05221  Biso   1.000  H
  C1377    1.0000 0.96168  0.21990  0.99650  Biso   1.000  C
  H1067    1.0000 0.05622  0.17631  0.98621  Biso   1.000  H
  C1378    1.0000 0.00091  0.08597  0.33350  Biso   1.000  C
  C1379    1.0000 0.89329  0.07462  0.26882  Biso   1.000  C
  H1068    1.0000 0.99630  0.78638  0.36392  Biso   1.000  H
  C1380    1.0000 0.05150  0.78248  0.46018  Biso   1.000  C
  C1381    1.0000 0.09312  0.77990  0.43549  Biso   1.000  C
  H1069    1.0000 0.04071  0.78598  0.35271  Biso   1.000  H
  C1382    1.0000 0.10062  0.88620  0.49409  Biso   1.000  C
  H1070    1.0000 0.05541  0.96229  0.45319  Biso   1.000  H
  C1383    1.0000 0.10057  0.88620  0.49409  Biso   1.000  C
  H1071    1.0000 0.08070  0.96609  0.42140  Biso   1.000  H
  C1384    1.0000 0.92538  0.73118  0.89329  Biso   1.000  C
  C1385    1.0000 0.91403  0.66650  0.00091  Biso   1.000  C
  H1072    1.0000 0.21362  0.63608  0.99630  Biso   1.000  H
  C1386    1.0000 0.21752  0.53982  0.05150  Biso   1.000  C
  C1387    1.0000 0.22010  0.56451  0.09312  Biso   1.000  C
  H1073    1.0000 0.21402  0.64729  0.04071  Biso   1.000  H
  C1388    1.0000 0.11380  0.50591  0.10062  Biso   1.000  C
  H1074    1.0000 0.03771  0.54681  0.05541  Biso   1.000  H
  C1389    1.0000 0.11380  0.50591  0.10057  Biso   1.000  C
  H1075    1.0000 0.03391  0.57860  0.08070  Biso   1.000  H
  N120     1.0000 0.96720  0.92858  0.72444  Biso   1.000  N
  H1076    1.0000 0.98621  0.94378  0.82369  Biso   1.000  H
  N121     1.0000 0.96720  0.92852  0.72444  Biso   1.000  N
  H1077    1.0000 0.05221  0.94992  0.77701  Biso   1.000  H
  C1390    1.0000 0.02210  0.18842  0.60410  Biso   1.000  C
  C1391    1.0000 0.06478  0.08471  0.55178  Biso   1.000  C
  C1392    1.0000 0.02210  0.18837  0.60410  Biso   1.000  C
  C1393    1.0000 0.07310  0.08050  0.56922  Biso   1.000  C
  C1394    1.0000 0.05642  0.18771  0.61018  Biso   1.000  C
  C1395    1.0000 0.18842  0.39590  0.97790  Biso   1.000  C
  C1396    1.0000 0.08471  0.44822  0.93522  Biso   1.000  C
  C1397    1.0000 0.08471  0.44817  0.93522  Biso   1.000  C
  C1398    1.0000 0.18837  0.39590  0.97790  Biso   1.000  C
  C1399    1.0000 0.08050  0.43078  0.92690  Biso   1.000  C
  C1400    1.0000 0.18771  0.38982  0.94358  Biso   1.000  C
  H1078    1.0000 0.94992  0.22299  0.94779  Biso   1.000  H
  N122     1.0000 0.92858  0.27556  0.03280  Biso   1.000  N
  H1079    1.0000 0.94378  0.17631  0.01379  Biso   1.000  H
  N123     1.0000 0.92852  0.27556  0.03280  Biso   1.000  N
  O79      1.0000 0.06129  0.07320  0.34182  Biso   1.000  O
  C1401    1.0000 0.96198  0.11913  0.38952  Biso   1.000  C
  C1402    1.0000 0.87063  0.11487  0.20733  Biso   1.000  C
  H1080    1.0000 0.87398  0.09561  0.31008  Biso   1.000  H
  H1081    1.0000 0.87520  0.02798  0.26542  Biso   1.000  H
  H1082    1.0000 0.87520  0.02798  0.26537  Biso   1.000  H
  C1403    1.0000 0.08719  0.82040  0.50281  Biso   1.000  C
  H1083    1.0000 0.04441  0.73589  0.47042  Biso   1.000  H
  H1084    1.0000 0.04441  0.73589  0.47037  Biso   1.000  H
  C1404    1.0000 0.11598  0.81969  0.49029  Biso   1.000  C
  H1085    1.0000 0.10321  0.73301  0.43169  Biso   1.000  H
  H1086    1.0000 0.12648  0.91109  0.52618  Biso   1.000  H
  C1405    1.0000 0.88513  0.79267  0.87063  Biso   1.000  C
  H1087    1.0000 0.90439  0.68992  0.87398  Biso   1.000  H
  H1088    1.0000 0.97202  0.73458  0.87520  Biso   1.000  H
  C1406    1.0000 0.88508  0.79267  0.87063  Biso   1.000  C
  C1407    1.0000 0.88087  0.61048  0.96198  Biso   1.000  C
  O80      1.0000 0.92680  0.65818  0.06129  Biso   1.000  O
  C1408    1.0000 0.17960  0.49719  0.08719  Biso   1.000  C
  H1089    1.0000 0.26411  0.52958  0.04441  Biso   1.000  H
  C1409    1.0000 0.18031  0.50971  0.11598  Biso   1.000  C
  H1090    1.0000 0.26699  0.56831  0.10321  Biso   1.000  H
  H1091    1.0000 0.08891  0.47382  0.12648  Biso   1.000  H
  C1410    1.0000 0.89329  0.92538  0.73118  Biso   1.000  C
  C1411    1.0000 0.00091  0.91403  0.66650  Biso   1.000  C
  H1092    1.0000 0.99630  0.21362  0.63608  Biso   1.000  H
  C1412    1.0000 0.05150  0.21752  0.53982  Biso   1.000  C
  C1413    1.0000 0.09312  0.22010  0.56451  Biso   1.000  C
  H1093    1.0000 0.04071  0.21402  0.64729  Biso   1.000  H
  C1414    1.0000 0.10062  0.11380  0.50591  Biso   1.000  C
  H1094    1.0000 0.05541  0.03771  0.54681  Biso   1.000  H
  C1415    1.0000 0.10057  0.11380  0.50591  Biso   1.000  C
  H1095    1.0000 0.08070  0.03391  0.57860  Biso   1.000  H
  H1096    1.0000 0.21362  0.36392  0.00370  Biso   1.000  H
  C1416    1.0000 0.21752  0.46018  0.94850  Biso   1.000  C
  C1417    1.0000 0.22010  0.43549  0.90688  Biso   1.000  C
  H1097    1.0000 0.21402  0.35271  0.95929  Biso   1.000  H
  C1418    1.0000 0.11380  0.49409  0.89938  Biso   1.000  C
  H1098    1.0000 0.03771  0.45319  0.94459  Biso   1.000  H
  H1099    1.0000 0.03391  0.42140  0.91930  Biso   1.000  H
  C1419    1.0000 0.91403  0.33350  0.99909  Biso   1.000  C
  C1420    1.0000 0.92538  0.26882  0.10671  Biso   1.000  C
  C1421    1.0000 0.97790  0.18842  0.39590  Biso   1.000  C
  C1422    1.0000 0.93522  0.08471  0.44822  Biso   1.000  C
  C1423    1.0000 0.93522  0.08471  0.44817  Biso   1.000  C
  C1424    1.0000 0.97790  0.18837  0.39590  Biso   1.000  C
  C1425    1.0000 0.92690  0.08050  0.43078  Biso   1.000  C
  C1426    1.0000 0.94358  0.18771  0.38982  Biso   1.000  C
  C1427    1.0000 0.90617  0.17185  0.18574  Biso   1.000  C
  C1428    1.0000 0.81426  0.09383  0.17185  Biso   1.000  C
  Br149    1.0000 0.13276  0.77964  0.57794  Biso   1.000  Br
  Br150    1.0000 0.16156  0.77381  0.56369  Biso   1.000  Br
  C1429    1.0000 0.90617  0.82815  0.81426  Biso   1.000  C
  C1430    1.0000 0.82815  0.81426  0.90617  Biso   1.000  C
  C1431    1.0000 0.90617  0.82810  0.81426  Biso   1.000  C
  C1432    1.0000 0.82810  0.81426  0.90617  Biso   1.000  C
  C1433    1.0000 0.81158  0.60410  0.97790  Biso   1.000  C
  C1434    1.0000 0.91529  0.55178  0.93522  Biso   1.000  C
  C1435    1.0000 0.91950  0.56922  0.92690  Biso   1.000  C
  C1436    1.0000 0.81229  0.61018  0.94358  Biso   1.000  C
  Br151    1.0000 0.22036  0.42206  0.13276  Biso   1.000  Br
  Br152    1.0000 0.22619  0.43631  0.16156  Biso   1.000  Br
  C1437    1.0000 0.87063  0.88513  0.79267  Biso   1.000  C
  C1438    1.0000 0.87063  0.88508  0.79267  Biso   1.000  C
  H1100    1.0000 0.87398  0.90439  0.68992  Biso   1.000  H
  H1101    1.0000 0.87520  0.97202  0.73458  Biso   1.000  H
  C1439    1.0000 0.96198  0.88087  0.61048  Biso   1.000  C
  O81      1.0000 0.06129  0.92680  0.65818  Biso   1.000  O
  C1440    1.0000 0.08719  0.17960  0.49719  Biso   1.000  C
  H1102    1.0000 0.04441  0.26411  0.52958  Biso   1.000  H
  C1441    1.0000 0.11598  0.18031  0.50971  Biso   1.000  C
  H1103    1.0000 0.10321  0.26699  0.56831  Biso   1.000  H
  H1104    1.0000 0.12648  0.08891  0.47382  Biso   1.000  H
  C1442    1.0000 0.17960  0.50281  0.91281  Biso   1.000  C
  H1105    1.0000 0.26411  0.47042  0.95559  Biso   1.000  H
  H1106    1.0000 0.26411  0.47037  0.95559  Biso   1.000  H
  C1443    1.0000 0.18031  0.49029  0.88402  Biso   1.000  C
  H1107    1.0000 0.26699  0.43169  0.89679  Biso   1.000  H
  H1108    1.0000 0.08891  0.52618  0.87352  Biso   1.000  H
  H1109    1.0000 0.08891  0.52618  0.87347  Biso   1.000  H
  O82      1.0000 0.92680  0.34182  0.93871  Biso   1.000  O
  C1444    1.0000 0.88087  0.38952  0.03802  Biso   1.000  C
  C1445    1.0000 0.88513  0.20733  0.12937  Biso   1.000  C
  C1446    1.0000 0.88508  0.20733  0.12937  Biso   1.000  C
  H1110    1.0000 0.90439  0.31008  0.12602  Biso   1.000  H
  H1111    1.0000 0.97202  0.26542  0.12480  Biso   1.000  H
  H1112    1.0000 0.90439  0.31008  0.12597  Biso   1.000  H
  H1113    1.0000 0.97202  0.26537  0.12480  Biso   1.000  H
  H1114    1.0000 0.00370  0.21362  0.36392  Biso   1.000  H
  C1447    1.0000 0.94850  0.21752  0.46018  Biso   1.000  C
  C1448    1.0000 0.90688  0.22010  0.43549  Biso   1.000  C
  H1115    1.0000 0.95929  0.21402  0.35271  Biso   1.000  H
  C1449    1.0000 0.89938  0.11380  0.49409  Biso   1.000  C
  H1116    1.0000 0.94459  0.03771  0.45319  Biso   1.000  H
  H1117    1.0000 0.91930  0.03391  0.42140  Biso   1.000  H
  H1118    1.0000 0.94520  0.18639  0.20992  Biso   1.000  H
  C1450    1.0000 0.79267  0.12937  0.11487  Biso   1.000  C
  H1119    1.0000 0.79008  0.05480  0.18639  Biso   1.000  H
  H1120    1.0000 0.94520  0.81361  0.79008  Biso   1.000  H
  H1121    1.0000 0.81361  0.79008  0.94520  Biso   1.000  H
  C1451    1.0000 0.79267  0.87063  0.88513  Biso   1.000  C
  C1452    1.0000 0.79267  0.87063  0.88508  Biso   1.000  C
  C1453    1.0000 0.78248  0.53982  0.94850  Biso   1.000  C
  C1454    1.0000 0.77990  0.56451  0.90688  Biso   1.000  C
  H1122    1.0000 0.78598  0.64729  0.95929  Biso   1.000  H
  H1123    1.0000 0.78638  0.63608  0.00370  Biso   1.000  H
  C1455    1.0000 0.88620  0.50591  0.89938  Biso   1.000  C
  H1124    1.0000 0.96229  0.54681  0.94459  Biso   1.000  H
  H1125    1.0000 0.96609  0.57860  0.91930  Biso   1.000  H
  C1456    1.0000 0.81426  0.90617  0.82815  Biso   1.000  C
  C1457    1.0000 0.81426  0.90617  0.82810  Biso   1.000  C
  C1458    1.0000 0.97790  0.81158  0.60410  Biso   1.000  C
  C1459    1.0000 0.93522  0.91529  0.55178  Biso   1.000  C
  C1460    1.0000 0.92690  0.91950  0.56922  Biso   1.000  C
  C1461    1.0000 0.94358  0.81229  0.61018  Biso   1.000  C
  Br153    1.0000 0.13276  0.22036  0.42206  Biso   1.000  Br
  Br154    1.0000 0.16156  0.22619  0.43631  Biso   1.000  Br
  Br155    1.0000 0.22036  0.57794  0.86724  Biso   1.000  Br
  Br156    1.0000 0.22619  0.56369  0.83844  Biso   1.000  Br
  C1462    1.0000 0.81158  0.39590  0.02210  Biso   1.000  C
  C1463    1.0000 0.91529  0.44822  0.06478  Biso   1.000  C
  C1464    1.0000 0.91529  0.44817  0.06478  Biso   1.000  C
  C1465    1.0000 0.91950  0.43078  0.07310  Biso   1.000  C
  C1466    1.0000 0.81229  0.38982  0.05642  Biso   1.000  C
  C1467    1.0000 0.82815  0.18574  0.09383  Biso   1.000  C
  C1468    1.0000 0.82810  0.18574  0.09383  Biso   1.000  C
  C1469    1.0000 0.91281  0.17960  0.50281  Biso   1.000  C
  H1126    1.0000 0.95559  0.26411  0.47042  Biso   1.000  H
  H1127    1.0000 0.95559  0.26411  0.47037  Biso   1.000  H
  C1470    1.0000 0.88402  0.18031  0.49029  Biso   1.000  C
  H1128    1.0000 0.89679  0.26699  0.43169  Biso   1.000  H
  H1129    1.0000 0.87352  0.08891  0.52618  Biso   1.000  H
  H1130    1.0000 0.87347  0.08891  0.52618  Biso   1.000  H
  C1471    1.0000 0.73118  0.10671  0.07462  Biso   1.000  C
  C1472    1.0000 0.73118  0.89329  0.92538  Biso   1.000  C
  C1473    1.0000 0.82040  0.49719  0.91281  Biso   1.000  C
  H1131    1.0000 0.73589  0.52958  0.95559  Biso   1.000  H
  C1474    1.0000 0.81969  0.50971  0.88402  Biso   1.000  C
  H1132    1.0000 0.73301  0.56831  0.89679  Biso   1.000  H
  H1133    1.0000 0.91109  0.47382  0.87352  Biso   1.000  H
  H1134    1.0000 0.91109  0.47382  0.87347  Biso   1.000  H
  H1135    1.0000 0.79008  0.94520  0.81361  Biso   1.000  H
  C1475    1.0000 0.94850  0.78248  0.53982  Biso   1.000  C
  C1476    1.0000 0.90688  0.77990  0.56451  Biso   1.000  C
  H1136    1.0000 0.95929  0.78598  0.64729  Biso   1.000  H
  H1137    1.0000 0.00370  0.78638  0.63608  Biso   1.000  H
  C1477    1.0000 0.89938  0.88620  0.50591  Biso   1.000  C
  H1138    1.0000 0.94459  0.96229  0.54681  Biso   1.000  H
  H1139    1.0000 0.91930  0.96609  0.57860  Biso   1.000  H
  H1140    1.0000 0.78638  0.36392  0.99630  Biso   1.000  H
  C1478    1.0000 0.78248  0.46018  0.05150  Biso   1.000  C
  C1479    1.0000 0.77990  0.43549  0.09312  Biso   1.000  C
  H1141    1.0000 0.78598  0.35271  0.04071  Biso   1.000  H
  C1480    1.0000 0.88620  0.49409  0.10062  Biso   1.000  C
  H1142    1.0000 0.96229  0.45319  0.05541  Biso   1.000  H
  C1481    1.0000 0.88620  0.49409  0.10057  Biso   1.000  C
  H1143    1.0000 0.96609  0.42140  0.08070  Biso   1.000  H
  H1144    1.0000 0.81361  0.20992  0.05480  Biso   1.000  H
  Br157    1.0000 0.86724  0.22036  0.57794  Biso   1.000  Br
  Br158    1.0000 0.83844  0.22619  0.56369  Biso   1.000  Br
  N124     1.0000 0.72444  0.03280  0.07142  Biso   1.000  N
  H1145    1.0000 0.68992  0.12602  0.09561  Biso   1.000  H
  H1146    1.0000 0.73458  0.12480  0.02798  Biso   1.000  H
  H1147    1.0000 0.68992  0.12597  0.09561  Biso   1.000  H
  N125     1.0000 0.72444  0.96720  0.92858  Biso   1.000  N
  H1148    1.0000 0.68992  0.87398  0.90439  Biso   1.000  H
  H1149    1.0000 0.73458  0.87520  0.97202  Biso   1.000  H
  N126     1.0000 0.72444  0.96720  0.92852  Biso   1.000  N
  Br159    1.0000 0.77964  0.42206  0.86724  Biso   1.000  Br
  Br160    1.0000 0.77381  0.43631  0.83844  Biso   1.000  Br
  C1482    1.0000 0.91281  0.82040  0.49719  Biso   1.000  C
  H1150    1.0000 0.95559  0.73589  0.52958  Biso   1.000  H
  C1483    1.0000 0.88402  0.81969  0.50971  Biso   1.000  C
  H1151    1.0000 0.89679  0.73301  0.56831  Biso   1.000  H
  H1152    1.0000 0.87352  0.91109  0.47382  Biso   1.000  H
  H1153    1.0000 0.87347  0.91109  0.47382  Biso   1.000  H
  C1484    1.0000 0.82040  0.50281  0.08719  Biso   1.000  C
  H1154    1.0000 0.73589  0.47042  0.04441  Biso   1.000  H
  H1155    1.0000 0.73589  0.47037  0.04441  Biso   1.000  H
  C1485    1.0000 0.81969  0.49029  0.11598  Biso   1.000  C
  H1156    1.0000 0.73301  0.43169  0.10321  Biso   1.000  H
  H1157    1.0000 0.91109  0.52618  0.12648  Biso   1.000  H
  C1486    1.0000 0.78010  0.99650  0.03832  Biso   1.000  C
  C1487    1.0000 0.66650  0.99909  0.08597  Biso   1.000  C
  C1488    1.0000 0.78010  0.99650  0.03827  Biso   1.000  C
  C1489    1.0000 0.78010  0.00350  0.96168  Biso   1.000  C
  C1490    1.0000 0.66650  0.00091  0.91403  Biso   1.000  C
  Br161    1.0000 0.86724  0.77964  0.42206  Biso   1.000  Br
  Br162    1.0000 0.83844  0.77381  0.43631  Biso   1.000  Br
  Br163    1.0000 0.77964  0.57794  0.13276  Biso   1.000  Br
  Br164    1.0000 0.77381  0.56369  0.16156  Biso   1.000  Br
  H1158    1.0000 0.77701  0.94779  0.05008  Biso   1.000  H
  H1159    1.0000 0.82369  0.01379  0.05622  Biso   1.000  H
  O83      1.0000 0.65818  0.93871  0.07320  Biso   1.000  O
  C1491    1.0000 0.61048  0.03802  0.11913  Biso   1.000  C
  H1160    1.0000 0.82369  0.98621  0.94378  Biso   1.000  H
  H1161    1.0000 0.77701  0.05221  0.94992  Biso   1.000  H
  C1492    1.0000 0.61048  0.96198  0.88087  Biso   1.000  C
  O84      1.0000 0.65818  0.06129  0.92680  Biso   1.000  O
  C1493    1.0000 0.60410  0.02210  0.18842  Biso   1.000  C
  C1494    1.0000 0.55178  0.06478  0.08471  Biso   1.000  C
  C1495    1.0000 0.60410  0.02210  0.18837  Biso   1.000  C
  C1496    1.0000 0.56922  0.07310  0.08050  Biso   1.000  C
  C1497    1.0000 0.61018  0.05642  0.18771  Biso   1.000  C
  C1498    1.0000 0.60410  0.97790  0.81158  Biso   1.000  C
  C1499    1.0000 0.55178  0.93522  0.91529  Biso   1.000  C
  C1500    1.0000 0.56922  0.92690  0.91950  Biso   1.000  C
  C1501    1.0000 0.61018  0.94358  0.81229  Biso   1.000  C
  H1162    1.0000 0.63608  0.99630  0.21362  Biso   1.000  H
  C1502    1.0000 0.53982  0.05150  0.21752  Biso   1.000  C
  C1503    1.0000 0.56451  0.09312  0.22010  Biso   1.000  C
  H1163    1.0000 0.64729  0.04071  0.21402  Biso   1.000  H
  C1504    1.0000 0.50591  0.10062  0.11380  Biso   1.000  C
  H1164    1.0000 0.54681  0.05541  0.03771  Biso   1.000  H
  C1505    1.0000 0.50591  0.10057  0.11380  Biso   1.000  C
  H1165    1.0000 0.57860  0.08070  0.03391  Biso   1.000  H
  C1506    1.0000 0.53982  0.94850  0.78248  Biso   1.000  C
  C1507    1.0000 0.56451  0.90688  0.77990  Biso   1.000  C
  H1166    1.0000 0.64729  0.95929  0.78598  Biso   1.000  H
  H1167    1.0000 0.63608  0.00370  0.78638  Biso   1.000  H
  C1508    1.0000 0.50591  0.89938  0.88620  Biso   1.000  C
  H1168    1.0000 0.54681  0.94459  0.96229  Biso   1.000  H
  H1169    1.0000 0.57860  0.91930  0.96609  Biso   1.000  H
  C1509    1.0000 0.49719  0.08719  0.17960  Biso   1.000  C
  H1170    1.0000 0.52958  0.04441  0.26411  Biso   1.000  H
  C1510    1.0000 0.50971  0.11598  0.18031  Biso   1.000  C
  H1171    1.0000 0.56831  0.10321  0.26699  Biso   1.000  H
  H1172    1.0000 0.47382  0.12648  0.08891  Biso   1.000  H
  C1511    1.0000 0.49719  0.91281  0.82040  Biso   1.000  C
  H1173    1.0000 0.52958  0.95559  0.73589  Biso   1.000  H
  C1512    1.0000 0.50971  0.88402  0.81969  Biso   1.000  C
  H1174    1.0000 0.56831  0.89679  0.73301  Biso   1.000  H
  H1175    1.0000 0.47382  0.87352  0.91109  Biso   1.000  H
  H1176    1.0000 0.47382  0.87347  0.91109  Biso   1.000  H
  Br165    1.0000 0.42206  0.13276  0.22036  Biso   1.000  Br
  Br166    1.0000 0.43631  0.16156  0.22619  Biso   1.000  Br
  Br167    1.0000 0.42206  0.86724  0.77964  Biso   1.000  Br
  Br168    1.0000 0.43631  0.83844  0.77381  Biso   1.000  Br
  C1513    1.0000 0.21990  0.00350  0.03832  Biso   1.000  C
  N127     1.0000 0.27556  0.96720  0.07142  Biso   1.000  N
  H1177    1.0000 0.22299  0.05221  0.05008  Biso   1.000  H
  C1514    1.0000 0.21990  0.99650  0.96168  Biso   1.000  C
  H1178    1.0000 0.17631  0.98621  0.05622  Biso   1.000  H
  C1515    1.0000 0.33350  0.00091  0.08597  Biso   1.000  C
  C1516    1.0000 0.26882  0.89329  0.07462  Biso   1.000  C
  C1517    1.0000 0.21990  0.00350  0.03827  Biso   1.000  C
  H1179    1.0000 0.22299  0.94779  0.94992  Biso   1.000  H
  N128     1.0000 0.27556  0.03280  0.92858  Biso   1.000  N
  H1180    1.0000 0.17631  0.01379  0.94378  Biso   1.000  H
  N129     1.0000 0.27556  0.03280  0.92852  Biso   1.000  N
  O85      1.0000 0.34182  0.06129  0.07320  Biso   1.000  O
  C1518    1.0000 0.38952  0.96198  0.11913  Biso   1.000  C
  C1519    1.0000 0.20733  0.87063  0.11487  Biso   1.000  C
  H1181    1.0000 0.31008  0.87398  0.09561  Biso   1.000  H
  H1182    1.0000 0.26542  0.87520  0.02798  Biso   1.000  H
  H1183    1.0000 0.26537  0.87520  0.02798  Biso   1.000  H
  C1520    1.0000 0.33350  0.99909  0.91403  Biso   1.000  C
  C1521    1.0000 0.26882  0.10671  0.92538  Biso   1.000  C
  C1522    1.0000 0.39590  0.97790  0.18842  Biso   1.000  C
  C1523    1.0000 0.44822  0.93522  0.08471  Biso   1.000  C
  C1524    1.0000 0.39590  0.97790  0.18837  Biso   1.000  C
  C1525    1.0000 0.44817  0.93522  0.08471  Biso   1.000  C
  C1526    1.0000 0.43078  0.92690  0.08050  Biso   1.000  C
  C1527    1.0000 0.38982  0.94358  0.18771  Biso   1.000  C
  C1528    1.0000 0.18574  0.90617  0.17185  Biso   1.000  C
  C1529    1.0000 0.17185  0.81426  0.09383  Biso   1.000  C
  O86      1.0000 0.34182  0.93871  0.92680  Biso   1.000  O
  C1530    1.0000 0.38952  0.03802  0.88087  Biso   1.000  C
  C1531    1.0000 0.20733  0.12937  0.88513  Biso   1.000  C
  H1184    1.0000 0.31008  0.12602  0.90439  Biso   1.000  H
  H1185    1.0000 0.26542  0.12480  0.97202  Biso   1.000  H
  C1532    1.0000 0.20733  0.12937  0.88508  Biso   1.000  C
  H1186    1.0000 0.31008  0.12597  0.90439  Biso   1.000  H
  H1187    1.0000 0.26537  0.12480  0.97202  Biso   1.000  H
  H1188    1.0000 0.36392  0.00370  0.21362  Biso   1.000  H
  C1533    1.0000 0.46018  0.94850  0.21752  Biso   1.000  C
  C1534    1.0000 0.43549  0.90688  0.22010  Biso   1.000  C
  H1189    1.0000 0.35271  0.95929  0.21402  Biso   1.000  H
  C1535    1.0000 0.49409  0.89938  0.11380  Biso   1.000  C
  H1190    1.0000 0.45319  0.94459  0.03771  Biso   1.000  H
  H1191    1.0000 0.42140  0.91930  0.03391  Biso   1.000  H
  H1192    1.0000 0.20992  0.94520  0.18639  Biso   1.000  H
  C1536    1.0000 0.12937  0.88513  0.20733  Biso   1.000  C
  C1537    1.0000 0.12937  0.88508  0.20733  Biso   1.000  C
  C1538    1.0000 0.11487  0.79267  0.12937  Biso   1.000  C
  H1193    1.0000 0.18639  0.79008  0.05480  Biso   1.000  H
  C1539    1.0000 0.39590  0.02210  0.81158  Biso   1.000  C
  C1540    1.0000 0.44822  0.06478  0.91529  Biso   1.000  C
  C1541    1.0000 0.44817  0.06478  0.91529  Biso   1.000  C
  C1542    1.0000 0.43078  0.07310  0.91950  Biso   1.000  C
  C1543    1.0000 0.38982  0.05642  0.81229  Biso   1.000  C
  C1544    1.0000 0.18574  0.09383  0.82815  Biso   1.000  C
  C1545    1.0000 0.17185  0.18574  0.90617  Biso   1.000  C
  C1546    1.0000 0.18574  0.09383  0.82810  Biso   1.000  C
  C1547    1.0000 0.50281  0.91281  0.17960  Biso   1.000  C
  H1194    1.0000 0.47042  0.95559  0.26411  Biso   1.000  H
  H1195    1.0000 0.47037  0.95559  0.26411  Biso   1.000  H
  C1548    1.0000 0.49029  0.88402  0.18031  Biso   1.000  C
  H1196    1.0000 0.43169  0.89679  0.26699  Biso   1.000  H
  H1197    1.0000 0.52618  0.87352  0.08891  Biso   1.000  H
  H1198    1.0000 0.52618  0.87347  0.08891  Biso   1.000  H
  C1549    1.0000 0.09383  0.82815  0.18574  Biso   1.000  C
  C1550    1.0000 0.10671  0.92538  0.26882  Biso   1.000  C
  C1551    1.0000 0.09383  0.82810  0.18574  Biso   1.000  C
  C1552    1.0000 0.07462  0.73118  0.10671  Biso   1.000  C
  H1199    1.0000 0.36392  0.99630  0.78638  Biso   1.000  H
  C1553    1.0000 0.46018  0.05150  0.78248  Biso   1.000  C
  C1554    1.0000 0.43549  0.09312  0.77990  Biso   1.000  C
  H1200    1.0000 0.35271  0.04071  0.78598  Biso   1.000  H
  C1555    1.0000 0.49409  0.10062  0.88620  Biso   1.000  C
  H1201    1.0000 0.45319  0.05541  0.96229  Biso   1.000  H
  C1556    1.0000 0.49409  0.10057  0.88620  Biso   1.000  C
  H1202    1.0000 0.42140  0.08070  0.96609  Biso   1.000  H
  H1203    1.0000 0.20992  0.05480  0.81361  Biso   1.000  H
  C1557    1.0000 0.12937  0.11487  0.79267  Biso   1.000  C
  H1204    1.0000 0.18639  0.20992  0.94520  Biso   1.000  H
  C1558    1.0000 0.11487  0.20733  0.87063  Biso   1.000  C
  Br169    1.0000 0.57794  0.86724  0.22036  Biso   1.000  Br
  Br170    1.0000 0.56369  0.83844  0.22619  Biso   1.000  Br
  H1205    1.0000 0.05480  0.81361  0.20992  Biso   1.000  H
  N130     1.0000 0.03280  0.92858  0.27556  Biso   1.000  N
  H1206    1.0000 0.12602  0.90439  0.31008  Biso   1.000  H
  H1207    1.0000 0.12480  0.97202  0.26542  Biso   1.000  H
  H1208    1.0000 0.12480  0.97202  0.26537  Biso   1.000  H
  N131     1.0000 0.03280  0.92852  0.27556  Biso   1.000  N
  H1209    1.0000 0.12597  0.90439  0.31008  Biso   1.000  H
  N132     1.0000 0.07142  0.72444  0.03280  Biso   1.000  N
  H1210    1.0000 0.09561  0.68992  0.12602  Biso   1.000  H
  H1211    1.0000 0.02798  0.73458  0.12480  Biso   1.000  H
  H1212    1.0000 0.09561  0.68992  0.12597  Biso   1.000  H
  C1559    1.0000 0.50281  0.08719  0.82040  Biso   1.000  C
  H1213    1.0000 0.47042  0.04441  0.73589  Biso   1.000  H
  H1214    1.0000 0.47037  0.04441  0.73589  Biso   1.000  H
  C1560    1.0000 0.49029  0.11598  0.81969  Biso   1.000  C
  H1215    1.0000 0.43169  0.10321  0.73301  Biso   1.000  H
  H1216    1.0000 0.52618  0.12648  0.91109  Biso   1.000  H
  C1561    1.0000 0.10671  0.07462  0.73118  Biso   1.000  C
  C1562    1.0000 0.09383  0.17185  0.81426  Biso   1.000  C
  C1563    1.0000 0.07462  0.26882  0.89329  Biso   1.000  C
  C1564    1.0000 0.99650  0.96168  0.21990  Biso   1.000  C
  C1565    1.0000 0.99909  0.91403  0.33350  Biso   1.000  C
  C1566    1.0000 0.03832  0.78010  0.99650  Biso   1.000  C
  C1567    1.0000 0.08597  0.66650  0.99909  Biso   1.000  C
  C1568    1.0000 0.03827  0.78010  0.99650  Biso   1.000  C
  Br171    1.0000 0.57794  0.13276  0.77964  Biso   1.000  Br
  Br172    1.0000 0.56369  0.16156  0.77381  Biso   1.000  Br
  N133     1.0000 0.03280  0.07142  0.72444  Biso   1.000  N
  H1217    1.0000 0.12602  0.09561  0.68992  Biso   1.000  H
  H1218    1.0000 0.12480  0.02798  0.73458  Biso   1.000  H
  H1219    1.0000 0.12597  0.09561  0.68992  Biso   1.000  H
  H1220    1.0000 0.05480  0.18639  0.79008  Biso   1.000  H
  N134     1.0000 0.07142  0.27556  0.96720  Biso   1.000  N
  H1221    1.0000 0.09561  0.31008  0.87398  Biso   1.000  H
  H1222    1.0000 0.02798  0.26542  0.87520  Biso   1.000  H
  H1223    1.0000 0.02798  0.26537  0.87520  Biso   1.000  H
  H1224    1.0000 0.94779  0.94992  0.22299  Biso   1.000  H
  H1225    1.0000 0.01379  0.94378  0.17631  Biso   1.000  H
  C1569    1.0000 0.00350  0.03832  0.21990  Biso   1.000  C
  C1570    1.0000 0.00350  0.03827  0.21990  Biso   1.000  C
  O87      1.0000 0.93871  0.92680  0.34182  Biso   1.000  O
  C1571    1.0000 0.03802  0.88087  0.38952  Biso   1.000  C
  C1572    1.0000 0.96168  0.78010  0.00350  Biso   1.000  C
  H1226    1.0000 0.05008  0.77701  0.94779  Biso   1.000  H
  H1227    1.0000 0.05622  0.82369  0.01379  Biso   1.000  H
  O88      1.0000 0.07320  0.65818  0.93871  Biso   1.000  O
  C1573    1.0000 0.11913  0.61048  0.03802  Biso   1.000  C
  C1574    1.0000 0.99650  0.03832  0.78010  Biso   1.000  C
  C1575    1.0000 0.99909  0.08597  0.66650  Biso   1.000  C
  C1576    1.0000 0.99650  0.03827  0.78010  Biso   1.000  C
  C1577    1.0000 0.08597  0.33350  0.00091  Biso   1.000  C
  C1578    1.0000 0.03832  0.21990  0.00350  Biso   1.000  C
  C1579    1.0000 0.03827  0.21990  0.00350  Biso   1.000  C
  H1228    1.0000 0.05221  0.05008  0.22299  Biso   1.000  H
  N135     1.0000 0.96720  0.07142  0.27556  Biso   1.000  N
  H1229    1.0000 0.98621  0.05622  0.17631  Biso   1.000  H
  C1580    1.0000 0.02210  0.81158  0.39590  Biso   1.000  C
  C1581    1.0000 0.06478  0.91529  0.44822  Biso   1.000  C
  C1582    1.0000 0.06478  0.91529  0.44817  Biso   1.000  C
  C1583    1.0000 0.07310  0.91950  0.43078  Biso   1.000  C
  C1584    1.0000 0.05642  0.81229  0.38982  Biso   1.000  C
  N136     1.0000 0.92858  0.72444  0.96720  Biso   1.000  N
  H1230    1.0000 0.94378  0.82369  0.98621  Biso   1.000  H
  N137     1.0000 0.92852  0.72444  0.96720  Biso   1.000  N
  H1231    1.0000 0.94992  0.77701  0.05221  Biso   1.000  H
  C1585    1.0000 0.18842  0.60410  0.02210  Biso   1.000  C
  C1586    1.0000 0.08471  0.55178  0.06478  Biso   1.000  C
  C1587    1.0000 0.18837  0.60410  0.02210  Biso   1.000  C
  C1588    1.0000 0.08050  0.56922  0.07310  Biso   1.000  C
  C1589    1.0000 0.18771  0.61018  0.05642  Biso   1.000  C
  H1232    1.0000 0.94779  0.05008  0.77701  Biso   1.000  H
  C1590    1.0000 0.00350  0.96168  0.78010  Biso   1.000  C
  H1233    1.0000 0.01379  0.05622  0.82369  Biso   1.000  H
  O89      1.0000 0.93871  0.07320  0.65818  Biso   1.000  O
  C1591    1.0000 0.03802  0.11913  0.61048  Biso   1.000  C
  O90      1.0000 0.07320  0.34182  0.06129  Biso   1.000  O
  C1592    1.0000 0.11913  0.38952  0.96198  Biso   1.000  C
  H1234    1.0000 0.05008  0.22299  0.05221  Biso   1.000  H
  C1593    1.0000 0.96168  0.21990  0.99650  Biso   1.000  C
  H1235    1.0000 0.05622  0.17631  0.98621  Biso   1.000  H
  C1594    1.0000 0.00091  0.08597  0.33350  Biso   1.000  C
  C1595    1.0000 0.89329  0.07462  0.26882  Biso   1.000  C
  H1236    1.0000 0.99630  0.78638  0.36392  Biso   1.000  H
  C1596    1.0000 0.05150  0.78248  0.46018  Biso   1.000  C
  C1597    1.0000 0.09312  0.77990  0.43549  Biso   1.000  C
  H1237    1.0000 0.04071  0.78598  0.35271  Biso   1.000  H
  C1598    1.0000 0.10062  0.88620  0.49409  Biso   1.000  C
  H1238    1.0000 0.05541  0.96229  0.45319  Biso   1.000  H
  C1599    1.0000 0.10057  0.88620  0.49409  Biso   1.000  C
  H1239    1.0000 0.08070  0.96609  0.42140  Biso   1.000  H
  C1600    1.0000 0.92538  0.73118  0.89329  Biso   1.000  C
  C1601    1.0000 0.91403  0.66650  0.00091  Biso   1.000  C
  H1240    1.0000 0.21362  0.63608  0.99630  Biso   1.000  H
  C1602    1.0000 0.21752  0.53982  0.05150  Biso   1.000  C
  C1603    1.0000 0.22010  0.56451  0.09312  Biso   1.000  C
  H1241    1.0000 0.21402  0.64729  0.04071  Biso   1.000  H
  C1604    1.0000 0.11380  0.50591  0.10062  Biso   1.000  C
  H1242    1.0000 0.03771  0.54681  0.05541  Biso   1.000  H
  C1605    1.0000 0.11380  0.50591  0.10057  Biso   1.000  C
  H1243    1.0000 0.03391  0.57860  0.08070  Biso   1.000  H
  N138     1.0000 0.96720  0.92858  0.72444  Biso   1.000  N
  H1244    1.0000 0.98621  0.94378  0.82369  Biso   1.000  H
  N139     1.0000 0.96720  0.92852  0.72444  Biso   1.000  N
  H1245    1.0000 0.05221  0.94992  0.77701  Biso   1.000  H
  C1606    1.0000 0.02210  0.18842  0.60410  Biso   1.000  C
  C1607    1.0000 0.06478  0.08471  0.55178  Biso   1.000  C
  C1608    1.0000 0.02210  0.18837  0.60410  Biso   1.000  C
  C1609    1.0000 0.07310  0.08050  0.56922  Biso   1.000  C
  C1610    1.0000 0.05642  0.18771  0.61018  Biso   1.000  C
  C1611    1.0000 0.18842  0.39590  0.97790  Biso   1.000  C
  C1612    1.0000 0.08471  0.44822  0.93522  Biso   1.000  C
  C1613    1.0000 0.08471  0.44817  0.93522  Biso   1.000  C
  C1614    1.0000 0.18837  0.39590  0.97790  Biso   1.000  C
  C1615    1.0000 0.08050  0.43078  0.92690  Biso   1.000  C
  C1616    1.0000 0.18771  0.38982  0.94358  Biso   1.000  C
  H1246    1.0000 0.94992  0.22299  0.94779  Biso   1.000  H
  N140     1.0000 0.92858  0.27556  0.03280  Biso   1.000  N
  H1247    1.0000 0.94378  0.17631  0.01379  Biso   1.000  H
  N141     1.0000 0.92852  0.27556  0.03280  Biso   1.000  N
  O91      1.0000 0.06129  0.07320  0.34182  Biso   1.000  O
  C1617    1.0000 0.96198  0.11913  0.38952  Biso   1.000  C
  C1618    1.0000 0.87063  0.11487  0.20733  Biso   1.000  C
  H1248    1.0000 0.87398  0.09561  0.31008  Biso   1.000  H
  H1249    1.0000 0.87520  0.02798  0.26542  Biso   1.000  H
  H1250    1.0000 0.87520  0.02798  0.26537  Biso   1.000  H
  C1619    1.0000 0.08719  0.82040  0.50281  Biso   1.000  C
  H1251    1.0000 0.04441  0.73589  0.47042  Biso   1.000  H
  H1252    1.0000 0.04441  0.73589  0.47037  Biso   1.000  H
  C1620    1.0000 0.11598  0.81969  0.49029  Biso   1.000  C
  H1253    1.0000 0.10321  0.73301  0.43169  Biso   1.000  H
  H1254    1.0000 0.12648  0.91109  0.52618  Biso   1.000  H
  C1621    1.0000 0.88513  0.79267  0.87063  Biso   1.000  C
  H1255    1.0000 0.90439  0.68992  0.87398  Biso   1.000  H
  H1256    1.0000 0.97202  0.73458  0.87520  Biso   1.000  H
  C1622    1.0000 0.88508  0.79267  0.87063  Biso   1.000  C
  C1623    1.0000 0.88087  0.61048  0.96198  Biso   1.000  C
  O92      1.0000 0.92680  0.65818  0.06129  Biso   1.000  O
  C1624    1.0000 0.17960  0.49719  0.08719  Biso   1.000  C
  H1257    1.0000 0.26411  0.52958  0.04441  Biso   1.000  H
  C1625    1.0000 0.18031  0.50971  0.11598  Biso   1.000  C
  H1258    1.0000 0.26699  0.56831  0.10321  Biso   1.000  H
  H1259    1.0000 0.08891  0.47382  0.12648  Biso   1.000  H
  C1626    1.0000 0.89329  0.92538  0.73118  Biso   1.000  C
  C1627    1.0000 0.00091  0.91403  0.66650  Biso   1.000  C
  H1260    1.0000 0.99630  0.21362  0.63608  Biso   1.000  H
  C1628    1.0000 0.05150  0.21752  0.53982  Biso   1.000  C
  C1629    1.0000 0.09312  0.22010  0.56451  Biso   1.000  C
  H1261    1.0000 0.04071  0.21402  0.64729  Biso   1.000  H
  C1630    1.0000 0.10062  0.11380  0.50591  Biso   1.000  C
  H1262    1.0000 0.05541  0.03771  0.54681  Biso   1.000  H
  C1631    1.0000 0.10057  0.11380  0.50591  Biso   1.000  C
  H1263    1.0000 0.08070  0.03391  0.57860  Biso   1.000  H
  H1264    1.0000 0.21362  0.36392  0.00370  Biso   1.000  H
  C1632    1.0000 0.21752  0.46018  0.94850  Biso   1.000  C
  C1633    1.0000 0.22010  0.43549  0.90688  Biso   1.000  C
  H1265    1.0000 0.21402  0.35271  0.95929  Biso   1.000  H
  C1634    1.0000 0.11380  0.49409  0.89938  Biso   1.000  C
  H1266    1.0000 0.03771  0.45319  0.94459  Biso   1.000  H
  H1267    1.0000 0.03391  0.42140  0.91930  Biso   1.000  H
  C1635    1.0000 0.91403  0.33350  0.99909  Biso   1.000  C
  C1636    1.0000 0.92538  0.26882  0.10671  Biso   1.000  C
  C1637    1.0000 0.97790  0.18842  0.39590  Biso   1.000  C
  C1638    1.0000 0.93522  0.08471  0.44822  Biso   1.000  C
  C1639    1.0000 0.93522  0.08471  0.44817  Biso   1.000  C
  C1640    1.0000 0.97790  0.18837  0.39590  Biso   1.000  C
  C1641    1.0000 0.92690  0.08050  0.43078  Biso   1.000  C
  C1642    1.0000 0.94358  0.18771  0.38982  Biso   1.000  C
  C1643    1.0000 0.90617  0.17185  0.18574  Biso   1.000  C
  C1644    1.0000 0.81426  0.09383  0.17185  Biso   1.000  C
  Br173    1.0000 0.13276  0.77964  0.57794  Biso   1.000  Br
  Br174    1.0000 0.16156  0.77381  0.56369  Biso   1.000  Br
  C1645    1.0000 0.90617  0.82815  0.81426  Biso   1.000  C
  C1646    1.0000 0.82815  0.81426  0.90617  Biso   1.000  C
  C1647    1.0000 0.90617  0.82810  0.81426  Biso   1.000  C
  C1648    1.0000 0.82810  0.81426  0.90617  Biso   1.000  C
  C1649    1.0000 0.81158  0.60410  0.97790  Biso   1.000  C
  C1650    1.0000 0.91529  0.55178  0.93522  Biso   1.000  C
  C1651    1.0000 0.91950  0.56922  0.92690  Biso   1.000  C
  C1652    1.0000 0.81229  0.61018  0.94358  Biso   1.000  C
  Br175    1.0000 0.22036  0.42206  0.13276  Biso   1.000  Br
  Br176    1.0000 0.22619  0.43631  0.16156  Biso   1.000  Br
  C1653    1.0000 0.87063  0.88513  0.79267  Biso   1.000  C
  C1654    1.0000 0.87063  0.88508  0.79267  Biso   1.000  C
  H1268    1.0000 0.87398  0.90439  0.68992  Biso   1.000  H
  H1269    1.0000 0.87520  0.97202  0.73458  Biso   1.000  H
  C1655    1.0000 0.96198  0.88087  0.61048  Biso   1.000  C
  O93      1.0000 0.06129  0.92680  0.65818  Biso   1.000  O
  C1656    1.0000 0.08719  0.17960  0.49719  Biso   1.000  C
  H1270    1.0000 0.04441  0.26411  0.52958  Biso   1.000  H
  C1657    1.0000 0.11598  0.18031  0.50971  Biso   1.000  C
  H1271    1.0000 0.10321  0.26699  0.56831  Biso   1.000  H
  H1272    1.0000 0.12648  0.08891  0.47382  Biso   1.000  H
  C1658    1.0000 0.17960  0.50281  0.91281  Biso   1.000  C
  H1273    1.0000 0.26411  0.47042  0.95559  Biso   1.000  H
  H1274    1.0000 0.26411  0.47037  0.95559  Biso   1.000  H
  C1659    1.0000 0.18031  0.49029  0.88402  Biso   1.000  C
  H1275    1.0000 0.26699  0.43169  0.89679  Biso   1.000  H
  H1276    1.0000 0.08891  0.52618  0.87352  Biso   1.000  H
  H1277    1.0000 0.08891  0.52618  0.87347  Biso   1.000  H
  O94      1.0000 0.92680  0.34182  0.93871  Biso   1.000  O
  C1660    1.0000 0.88087  0.38952  0.03802  Biso   1.000  C
  C1661    1.0000 0.88513  0.20733  0.12937  Biso   1.000  C
  C1662    1.0000 0.88508  0.20733  0.12937  Biso   1.000  C
  H1278    1.0000 0.90439  0.31008  0.12602  Biso   1.000  H
  H1279    1.0000 0.97202  0.26542  0.12480  Biso   1.000  H
  H1280    1.0000 0.90439  0.31008  0.12597  Biso   1.000  H
  H1281    1.0000 0.97202  0.26537  0.12480  Biso   1.000  H
  H1282    1.0000 0.00370  0.21362  0.36392  Biso   1.000  H
  C1663    1.0000 0.94850  0.21752  0.46018  Biso   1.000  C
  C1664    1.0000 0.90688  0.22010  0.43549  Biso   1.000  C
  H1283    1.0000 0.95929  0.21402  0.35271  Biso   1.000  H
  C1665    1.0000 0.89938  0.11380  0.49409  Biso   1.000  C
  H1284    1.0000 0.94459  0.03771  0.45319  Biso   1.000  H
  H1285    1.0000 0.91930  0.03391  0.42140  Biso   1.000  H
  H1286    1.0000 0.94520  0.18639  0.20992  Biso   1.000  H
  C1666    1.0000 0.79267  0.12937  0.11487  Biso   1.000  C
  H1287    1.0000 0.79008  0.05480  0.18639  Biso   1.000  H
  H1288    1.0000 0.94520  0.81361  0.79008  Biso   1.000  H
  H1289    1.0000 0.81361  0.79008  0.94520  Biso   1.000  H
  C1667    1.0000 0.79267  0.87063  0.88513  Biso   1.000  C
  C1668    1.0000 0.79267  0.87063  0.88508  Biso   1.000  C
  C1669    1.0000 0.78248  0.53982  0.94850  Biso   1.000  C
  C1670    1.0000 0.77990  0.56451  0.90688  Biso   1.000  C
  H1290    1.0000 0.78598  0.64729  0.95929  Biso   1.000  H
  H1291    1.0000 0.78638  0.63608  0.00370  Biso   1.000  H
  C1671    1.0000 0.88620  0.50591  0.89938  Biso   1.000  C
  H1292    1.0000 0.96229  0.54681  0.94459  Biso   1.000  H
  H1293    1.0000 0.96609  0.57860  0.91930  Biso   1.000  H
  C1672    1.0000 0.81426  0.90617  0.82815  Biso   1.000  C
  C1673    1.0000 0.81426  0.90617  0.82810  Biso   1.000  C
  C1674    1.0000 0.97790  0.81158  0.60410  Biso   1.000  C
  C1675    1.0000 0.93522  0.91529  0.55178  Biso   1.000  C
  C1676    1.0000 0.92690  0.91950  0.56922  Biso   1.000  C
  C1677    1.0000 0.94358  0.81229  0.61018  Biso   1.000  C
  Br177    1.0000 0.13276  0.22036  0.42206  Biso   1.000  Br
  Br178    1.0000 0.16156  0.22619  0.43631  Biso   1.000  Br
  Br179    1.0000 0.22036  0.57794  0.86724  Biso   1.000  Br
  Br180    1.0000 0.22619  0.56369  0.83844  Biso   1.000  Br
  C1678    1.0000 0.81158  0.39590  0.02210  Biso   1.000  C
  C1679    1.0000 0.91529  0.44822  0.06478  Biso   1.000  C
  C1680    1.0000 0.91529  0.44817  0.06478  Biso   1.000  C
  C1681    1.0000 0.91950  0.43078  0.07310  Biso   1.000  C
  C1682    1.0000 0.81229  0.38982  0.05642  Biso   1.000  C
  C1683    1.0000 0.82815  0.18574  0.09383  Biso   1.000  C
  C1684    1.0000 0.82810  0.18574  0.09383  Biso   1.000  C
  C1685    1.0000 0.91281  0.17960  0.50281  Biso   1.000  C
  H1294    1.0000 0.95559  0.26411  0.47042  Biso   1.000  H
  H1295    1.0000 0.95559  0.26411  0.47037  Biso   1.000  H
  C1686    1.0000 0.88402  0.18031  0.49029  Biso   1.000  C
  H1296    1.0000 0.89679  0.26699  0.43169  Biso   1.000  H
  H1297    1.0000 0.87352  0.08891  0.52618  Biso   1.000  H
  H1298    1.0000 0.87347  0.08891  0.52618  Biso   1.000  H
  C1687    1.0000 0.73118  0.10671  0.07462  Biso   1.000  C
  C1688    1.0000 0.73118  0.89329  0.92538  Biso   1.000  C
  C1689    1.0000 0.82040  0.49719  0.91281  Biso   1.000  C
  H1299    1.0000 0.73589  0.52958  0.95559  Biso   1.000  H
  C1690    1.0000 0.81969  0.50971  0.88402  Biso   1.000  C
  H1300    1.0000 0.73301  0.56831  0.89679  Biso   1.000  H
  H1301    1.0000 0.91109  0.47382  0.87352  Biso   1.000  H
  H1302    1.0000 0.91109  0.47382  0.87347  Biso   1.000  H
  H1303    1.0000 0.79008  0.94520  0.81361  Biso   1.000  H
  C1691    1.0000 0.94850  0.78248  0.53982  Biso   1.000  C
  C1692    1.0000 0.90688  0.77990  0.56451  Biso   1.000  C
  H1304    1.0000 0.95929  0.78598  0.64729  Biso   1.000  H
  H1305    1.0000 0.00370  0.78638  0.63608  Biso   1.000  H
  C1693    1.0000 0.89938  0.88620  0.50591  Biso   1.000  C
  H1306    1.0000 0.94459  0.96229  0.54681  Biso   1.000  H
  H1307    1.0000 0.91930  0.96609  0.57860  Biso   1.000  H
  H1308    1.0000 0.78638  0.36392  0.99630  Biso   1.000  H
  C1694    1.0000 0.78248  0.46018  0.05150  Biso   1.000  C
  C1695    1.0000 0.77990  0.43549  0.09312  Biso   1.000  C
  H1309    1.0000 0.78598  0.35271  0.04071  Biso   1.000  H
  C1696    1.0000 0.88620  0.49409  0.10062  Biso   1.000  C
  H1310    1.0000 0.96229  0.45319  0.05541  Biso   1.000  H
  C1697    1.0000 0.88620  0.49409  0.10057  Biso   1.000  C
  H1311    1.0000 0.96609  0.42140  0.08070  Biso   1.000  H
  H1312    1.0000 0.81361  0.20992  0.05480  Biso   1.000  H
  Br181    1.0000 0.86724  0.22036  0.57794  Biso   1.000  Br
  Br182    1.0000 0.83844  0.22619  0.56369  Biso   1.000  Br
  N142     1.0000 0.72444  0.03280  0.07142  Biso   1.000  N
  H1313    1.0000 0.68992  0.12602  0.09561  Biso   1.000  H
  H1314    1.0000 0.73458  0.12480  0.02798  Biso   1.000  H
  H1315    1.0000 0.68992  0.12597  0.09561  Biso   1.000  H
  N143     1.0000 0.72444  0.96720  0.92858  Biso   1.000  N
  H1316    1.0000 0.68992  0.87398  0.90439  Biso   1.000  H
  H1317    1.0000 0.73458  0.87520  0.97202  Biso   1.000  H
  N144     1.0000 0.72444  0.96720  0.92852  Biso   1.000  N
  Br183    1.0000 0.77964  0.42206  0.86724  Biso   1.000  Br
  Br184    1.0000 0.77381  0.43631  0.83844  Biso   1.000  Br
  C1698    1.0000 0.91281  0.82040  0.49719  Biso   1.000  C
  H1318    1.0000 0.95559  0.73589  0.52958  Biso   1.000  H
  C1699    1.0000 0.88402  0.81969  0.50971  Biso   1.000  C
  H1319    1.0000 0.89679  0.73301  0.56831  Biso   1.000  H
  H1320    1.0000 0.87352  0.91109  0.47382  Biso   1.000  H
  H1321    1.0000 0.87347  0.91109  0.47382  Biso   1.000  H
  C1700    1.0000 0.82040  0.50281  0.08719  Biso   1.000  C
  H1322    1.0000 0.73589  0.47042  0.04441  Biso   1.000  H
  H1323    1.0000 0.73589  0.47037  0.04441  Biso   1.000  H
  C1701    1.0000 0.81969  0.49029  0.11598  Biso   1.000  C
  H1324    1.0000 0.73301  0.43169  0.10321  Biso   1.000  H
  H1325    1.0000 0.91109  0.52618  0.12648  Biso   1.000  H
  C1702    1.0000 0.78010  0.99650  0.03832  Biso   1.000  C
  C1703    1.0000 0.66650  0.99909  0.08597  Biso   1.000  C
  C1704    1.0000 0.78010  0.99650  0.03827  Biso   1.000  C
  C1705    1.0000 0.78010  0.00350  0.96168  Biso   1.000  C
  C1706    1.0000 0.66650  0.00091  0.91403  Biso   1.000  C
  Br185    1.0000 0.86724  0.77964  0.42206  Biso   1.000  Br
  Br186    1.0000 0.83844  0.77381  0.43631  Biso   1.000  Br
  Br187    1.0000 0.77964  0.57794  0.13276  Biso   1.000  Br
  Br188    1.0000 0.77381  0.56369  0.16156  Biso   1.000  Br
  H1326    1.0000 0.77701  0.94779  0.05008  Biso   1.000  H
  H1327    1.0000 0.82369  0.01379  0.05622  Biso   1.000  H
  O95      1.0000 0.65818  0.93871  0.07320  Biso   1.000  O
  C1707    1.0000 0.61048  0.03802  0.11913  Biso   1.000  C
  H1328    1.0000 0.82369  0.98621  0.94378  Biso   1.000  H
  H1329    1.0000 0.77701  0.05221  0.94992  Biso   1.000  H
  C1708    1.0000 0.61048  0.96198  0.88087  Biso   1.000  C
  O96      1.0000 0.65818  0.06129  0.92680  Biso   1.000  O
  C1709    1.0000 0.60410  0.02210  0.18842  Biso   1.000  C
  C1710    1.0000 0.55178  0.06478  0.08471  Biso   1.000  C
  C1711    1.0000 0.60410  0.02210  0.18837  Biso   1.000  C
  C1712    1.0000 0.56922  0.07310  0.08050  Biso   1.000  C
  C1713    1.0000 0.61018  0.05642  0.18771  Biso   1.000  C
  C1714    1.0000 0.60410  0.97790  0.81158  Biso   1.000  C
  C1715    1.0000 0.55178  0.93522  0.91529  Biso   1.000  C
  C1716    1.0000 0.56922  0.92690  0.91950  Biso   1.000  C
  C1717    1.0000 0.61018  0.94358  0.81229  Biso   1.000  C
  H1330    1.0000 0.63608  0.99630  0.21362  Biso   1.000  H
  C1718    1.0000 0.53982  0.05150  0.21752  Biso   1.000  C
  C1719    1.0000 0.56451  0.09312  0.22010  Biso   1.000  C
  H1331    1.0000 0.64729  0.04071  0.21402  Biso   1.000  H
  C1720    1.0000 0.50591  0.10062  0.11380  Biso   1.000  C
  H1332    1.0000 0.54681  0.05541  0.03771  Biso   1.000  H
  C1721    1.0000 0.50591  0.10057  0.11380  Biso   1.000  C
  H1333    1.0000 0.57860  0.08070  0.03391  Biso   1.000  H
  C1722    1.0000 0.53982  0.94850  0.78248  Biso   1.000  C
  C1723    1.0000 0.56451  0.90688  0.77990  Biso   1.000  C
  H1334    1.0000 0.64729  0.95929  0.78598  Biso   1.000  H
  H1335    1.0000 0.63608  0.00370  0.78638  Biso   1.000  H
  C1724    1.0000 0.50591  0.89938  0.88620  Biso   1.000  C
  H1336    1.0000 0.54681  0.94459  0.96229  Biso   1.000  H
  H1337    1.0000 0.57860  0.91930  0.96609  Biso   1.000  H
  C1725    1.0000 0.49719  0.08719  0.17960  Biso   1.000  C
  H1338    1.0000 0.52958  0.04441  0.26411  Biso   1.000  H
  C1726    1.0000 0.50971  0.11598  0.18031  Biso   1.000  C
  H1339    1.0000 0.56831  0.10321  0.26699  Biso   1.000  H
  H1340    1.0000 0.47382  0.12648  0.08891  Biso   1.000  H
  C1727    1.0000 0.49719  0.91281  0.82040  Biso   1.000  C
  H1341    1.0000 0.52958  0.95559  0.73589  Biso   1.000  H
  C1728    1.0000 0.50971  0.88402  0.81969  Biso   1.000  C
  H1342    1.0000 0.56831  0.89679  0.73301  Biso   1.000  H
  H1343    1.0000 0.47382  0.87352  0.91109  Biso   1.000  H
  H1344    1.0000 0.47382  0.87347  0.91109  Biso   1.000  H
  Br189    1.0000 0.42206  0.13276  0.22036  Biso   1.000  Br
  Br190    1.0000 0.43631  0.16156  0.22619  Biso   1.000  Br
  Br191    1.0000 0.42206  0.86724  0.77964  Biso   1.000  Br
  Br192    1.0000 0.43631  0.83844  0.77381  Biso   1.000  Br
  C1729    1.0000 0.40690  0.27992  0.06448  Biso   1.000  C
  C1730    1.0000 0.47787  0.31160  0.10412  Biso   1.000  C
  C1731    1.0000 0.44361  0.31231  0.11020  Biso   1.000  C
  C1732    1.0000 0.38399  0.31971  0.00968  Biso   1.000  C
  C1733    1.0000 0.41278  0.32037  0.99721  Biso   1.000  C
  H1345    1.0000 0.39682  0.23298  0.06828  Biso   1.000  H
  C1734    1.0000 0.46201  0.38090  0.11046  Biso   1.000  C
  C1735    1.0000 0.44852  0.28251  0.03979  Biso   1.000  C
  H1346    1.0000 0.50368  0.28641  0.13611  Biso   1.000  H
  H1347    1.0000 0.45932  0.28600  0.14731  Biso   1.000  H
  C1736    1.0000 0.39940  0.38622  0.00588  Biso   1.000  C
  Br193    1.0000 0.36726  0.27967  0.92204  Biso   1.000  Br
  Br194    1.0000 0.33842  0.27384  0.93628  Biso   1.000  Br
  C1737    1.0000 0.50089  0.41405  0.16652  Biso   1.000  C
  C1738    1.0000 0.43519  0.41532  0.05181  Biso   1.000  C
  C1739    1.0000 0.42688  0.41948  0.06919  Biso   1.000  C
  H1348    1.0000 0.45562  0.23592  0.02960  Biso   1.000  H
  H1349    1.0000 0.37350  0.41111  0.97379  Biso   1.000  H
  N145     1.0000 0.46718  0.42855  0.22446  Biso   1.000  N
  O97      1.0000 0.56126  0.42683  0.15816  Biso   1.000  O
  H1350    1.0000 0.44462  0.46231  0.04679  Biso   1.000  H
  H1351    1.0000 0.41927  0.46611  0.07862  Biso   1.000  H
  C1740    1.0000 0.39327  0.42541  0.23121  Biso   1.000  C
  C1741    1.0000 0.50347  0.46170  0.28012  Biso   1.000  C
  C1742    1.0000 0.37061  0.38511  0.29264  Biso   1.000  C
  H1352    1.0000 0.37401  0.40442  0.18989  Biso   1.000  H
  H1353    1.0000 0.37522  0.47199  0.23460  Biso   1.000  H
  H1354    1.0000 0.55219  0.44989  0.27698  Biso   1.000  H
  H1355    1.0000 0.48619  0.44381  0.32372  Biso   1.000  H
  C1743    1.0000 0.49648  0.53830  0.28012  Biso   1.000  C
  C1744    1.0000 0.40614  0.32813  0.31429  Biso   1.000  C
  C1745    1.0000 0.31429  0.40614  0.32813  Biso   1.000  C
  N146     1.0000 0.53282  0.57145  0.22446  Biso   1.000  N
  H1356    1.0000 0.44781  0.55011  0.27698  Biso   1.000  H
  H1357    1.0000 0.51381  0.55619  0.32372  Biso   1.000  H
  H1358    1.0000 0.44518  0.31358  0.29011  Biso   1.000  H
  C1746    1.0000 0.38511  0.29264  0.37061  Biso   1.000  C
  C1747    1.0000 0.29264  0.37061  0.38511  Biso   1.000  C
  H1359    1.0000 0.29011  0.44518  0.31358  Biso   1.000  H
  C1748    1.0000 0.60673  0.57459  0.23121  Biso   1.000  C
  C1749    1.0000 0.49911  0.58595  0.16652  Biso   1.000  C
  C1750    1.0000 0.42541  0.23121  0.39327  Biso   1.000  C
  C1751    1.0000 0.32813  0.31429  0.40614  Biso   1.000  C
  C1752    1.0000 0.23121  0.39327  0.42541  Biso   1.000  C
  C1753    1.0000 0.62939  0.61489  0.29264  Biso   1.000  C
  H1360    1.0000 0.62599  0.59558  0.18989  Biso   1.000  H
  H1361    1.0000 0.62478  0.52801  0.23460  Biso   1.000  H
  O98      1.0000 0.43874  0.57317  0.15816  Biso   1.000  O
  C1754    1.0000 0.53799  0.61910  0.11046  Biso   1.000  C
  N147     1.0000 0.42855  0.22446  0.46718  Biso   1.000  N
  H1362    1.0000 0.40442  0.18989  0.37401  Biso   1.000  H
  H1363    1.0000 0.47199  0.23460  0.37522  Biso   1.000  H
  H1364    1.0000 0.31358  0.29011  0.44518  Biso   1.000  H
  N148     1.0000 0.22446  0.46718  0.42855  Biso   1.000  N
  H1365    1.0000 0.18989  0.37401  0.40442  Biso   1.000  H
  H1366    1.0000 0.23460  0.37522  0.47199  Biso   1.000  H
  C1755    1.0000 0.68571  0.59381  0.32813  Biso   1.000  C
  C1756    1.0000 0.59381  0.67187  0.31429  Biso   1.000  C
  C1757    1.0000 0.52208  0.68840  0.10412  Biso   1.000  C
  C1758    1.0000 0.56481  0.58468  0.05181  Biso   1.000  C
  C1759    1.0000 0.57307  0.58047  0.06919  Biso   1.000  C
  C1760    1.0000 0.55639  0.68769  0.11020  Biso   1.000  C
  C1761    1.0000 0.46170  0.28012  0.50347  Biso   1.000  C
  C1762    1.0000 0.41405  0.16652  0.50089  Biso   1.000  C
  C1763    1.0000 0.28012  0.50347  0.46170  Biso   1.000  C
  C1764    1.0000 0.16652  0.50089  0.41405  Biso   1.000  C
  H1367    1.0000 0.70989  0.55477  0.31358  Biso   1.000  H
  C1765    1.0000 0.70736  0.62939  0.38511  Biso   1.000  C
  H1368    1.0000 0.55477  0.68642  0.29011  Biso   1.000  H
  C1766    1.0000 0.61489  0.70736  0.37061  Biso   1.000  C
  C1767    1.0000 0.55148  0.71749  0.03979  Biso   1.000  C
  H1369    1.0000 0.49627  0.71359  0.13611  Biso   1.000  H
  C1768    1.0000 0.59310  0.72008  0.06448  Biso   1.000  C
  H1370    1.0000 0.54068  0.71400  0.14731  Biso   1.000  H
  C1769    1.0000 0.60060  0.61378  0.00588  Biso   1.000  C
  H1371    1.0000 0.55538  0.53769  0.04679  Biso   1.000  H
  H1372    1.0000 0.58068  0.53389  0.07862  Biso   1.000  H
  H1373    1.0000 0.44989  0.27698  0.55219  Biso   1.000  H
  H1374    1.0000 0.44381  0.32372  0.48619  Biso   1.000  H
  C1770    1.0000 0.53830  0.28012  0.49648  Biso   1.000  C
  O99      1.0000 0.42683  0.15816  0.56126  Biso   1.000  O
  C1771    1.0000 0.38090  0.11046  0.46201  Biso   1.000  C
  H1375    1.0000 0.27698  0.55219  0.44989  Biso   1.000  H
  H1376    1.0000 0.32372  0.48619  0.44381  Biso   1.000  H
  C1772    1.0000 0.28012  0.49648  0.53830  Biso   1.000  C
  O100     1.0000 0.15816  0.56126  0.42683  Biso   1.000  O
  C1773    1.0000 0.11046  0.46201  0.38090  Biso   1.000  C
  C1774    1.0000 0.67187  0.68571  0.40614  Biso   1.000  C
  C1775    1.0000 0.76879  0.60673  0.42541  Biso   1.000  C
  C1776    1.0000 0.57459  0.76879  0.39327  Biso   1.000  C
  H1377    1.0000 0.54438  0.76408  0.02960  Biso   1.000  H
  C1777    1.0000 0.61601  0.68029  0.00968  Biso   1.000  C
  C1778    1.0000 0.58722  0.67958  0.99721  Biso   1.000  C
  H1378    1.0000 0.60318  0.76702  0.06828  Biso   1.000  H
  H1379    1.0000 0.62650  0.58889  0.97379  Biso   1.000  H
  N149     1.0000 0.57145  0.22446  0.53282  Biso   1.000  N
  H1380    1.0000 0.55011  0.27698  0.44781  Biso   1.000  H
  H1381    1.0000 0.55619  0.32372  0.51381  Biso   1.000  H
  C1779    1.0000 0.31160  0.10412  0.47787  Biso   1.000  C
  C1780    1.0000 0.41532  0.05181  0.43519  Biso   1.000  C
  C1781    1.0000 0.41948  0.06919  0.42688  Biso   1.000  C
  C1782    1.0000 0.31231  0.11020  0.44361  Biso   1.000  C
  N150     1.0000 0.22446  0.53282  0.57145  Biso   1.000  N
  H1382    1.0000 0.27698  0.44781  0.55011  Biso   1.000  H
  H1383    1.0000 0.32372  0.51381  0.55619  Biso   1.000  H
  C1783    1.0000 0.10412  0.47787  0.31160  Biso   1.000  C
  C1784    1.0000 0.05181  0.43519  0.41532  Biso   1.000  C
  C1785    1.0000 0.06919  0.42688  0.41948  Biso   1.000  C
  C1786    1.0000 0.11020  0.44361  0.31231  Biso   1.000  C
  H1384    1.0000 0.68642  0.70989  0.44518  Biso   1.000  H
  N151     1.0000 0.77554  0.53282  0.42855  Biso   1.000  N
  H1385    1.0000 0.81011  0.62599  0.40442  Biso   1.000  H
  H1386    1.0000 0.76540  0.62478  0.47199  Biso   1.000  H
  N152     1.0000 0.57145  0.77554  0.46718  Biso   1.000  N
  H1387    1.0000 0.59558  0.81011  0.37401  Biso   1.000  H
  H1388    1.0000 0.52801  0.76540  0.37522  Biso   1.000  H
  Br195    1.0000 0.63274  0.72033  0.92204  Biso   1.000  Br
  Br196    1.0000 0.66158  0.72616  0.93628  Biso   1.000  Br
  C1787    1.0000 0.57459  0.23121  0.60673  Biso   1.000  C
  C1788    1.0000 0.58595  0.16652  0.49911  Biso   1.000  C
  C1789    1.0000 0.28251  0.03979  0.44852  Biso   1.000  C
  H1389    1.0000 0.28641  0.13611  0.50368  Biso   1.000  H
  C1790    1.0000 0.27992  0.06448  0.40690  Biso   1.000  C
  H1390    1.0000 0.28600  0.14731  0.45932  Biso   1.000  H
  C1791    1.0000 0.38622  0.00588  0.39940  Biso   1.000  C
  H1391    1.0000 0.46231  0.04679  0.44462  Biso   1.000  H
  H1392    1.0000 0.46611  0.07862  0.41927  Biso   1.000  H
  C1792    1.0000 0.23121  0.60673  0.57459  Biso   1.000  C
  C1793    1.0000 0.16652  0.49911  0.58595  Biso   1.000  C
  C1794    1.0000 0.03979  0.44852  0.28251  Biso   1.000  C
  H1393    1.0000 0.13611  0.50368  0.28641  Biso   1.000  H
  C1795    1.0000 0.06448  0.40690  0.27992  Biso   1.000  C
  H1394    1.0000 0.14731  0.45932  0.28600  Biso   1.000  H
  C1796    1.0000 0.00588  0.39940  0.38622  Biso   1.000  C
  H1395    1.0000 0.04679  0.44462  0.46231  Biso   1.000  H
  H1396    1.0000 0.07862  0.41927  0.46611  Biso   1.000  H
  C1797    1.0000 0.71988  0.49648  0.46170  Biso   1.000  C
  C1798    1.0000 0.83348  0.49911  0.41405  Biso   1.000  C
  C1799    1.0000 0.53830  0.71988  0.50347  Biso   1.000  C
  C1800    1.0000 0.58595  0.83348  0.50089  Biso   1.000  C
  C1801    1.0000 0.61489  0.29264  0.62939  Biso   1.000  C
  H1397    1.0000 0.59558  0.18989  0.62599  Biso   1.000  H
  H1398    1.0000 0.52801  0.23460  0.62478  Biso   1.000  H
  O101     1.0000 0.57317  0.15816  0.43874  Biso   1.000  O
  C1802    1.0000 0.61910  0.11046  0.53799  Biso   1.000  C
  H1399    1.0000 0.23592  0.02960  0.45562  Biso   1.000  H
  C1803    1.0000 0.31971  0.00968  0.38399  Biso   1.000  C
  C1804    1.0000 0.32037  0.99721  0.41278  Biso   1.000  C
  H1400    1.0000 0.23298  0.06828  0.39682  Biso   1.000  H
  H1401    1.0000 0.41111  0.97379  0.37350  Biso   1.000  H
  C1805    1.0000 0.29264  0.62939  0.61489  Biso   1.000  C
  H1402    1.0000 0.18989  0.62599  0.59558  Biso   1.000  H
  H1403    1.0000 0.23460  0.62478  0.52801  Biso   1.000  H
  O102     1.0000 0.15816  0.43874  0.57317  Biso   1.000  O
  C1806    1.0000 0.11046  0.53799  0.61910  Biso   1.000  C
  H1404    1.0000 0.02960  0.45562  0.23592  Biso   1.000  H
  C1807    1.0000 0.00968  0.38399  0.31971  Biso   1.000  C
  C1808    1.0000 0.99721  0.41278  0.32037  Biso   1.000  C
  H1405    1.0000 0.06828  0.39682  0.23298  Biso   1.000  H
  H1406    1.0000 0.97379  0.37350  0.41111  Biso   1.000  H
  C1809    1.0000 0.71988  0.50347  0.53830  Biso   1.000  C
  H1407    1.0000 0.72302  0.44781  0.44989  Biso   1.000  H
  H1408    1.0000 0.67628  0.51381  0.44381  Biso   1.000  H
  O103     1.0000 0.84179  0.43874  0.42683  Biso   1.000  O
  C1810    1.0000 0.88954  0.53799  0.38090  Biso   1.000  C
  C1811    1.0000 0.46170  0.71988  0.49648  Biso   1.000  C
  H1409    1.0000 0.55011  0.72302  0.55219  Biso   1.000  H
  H1410    1.0000 0.55619  0.67628  0.48619  Biso   1.000  H
  O104     1.0000 0.57317  0.84179  0.56126  Biso   1.000  O
  C1812    1.0000 0.61910  0.88954  0.46201  Biso   1.000  C
  C1813    1.0000 0.59381  0.32813  0.68571  Biso   1.000  C
  C1814    1.0000 0.67187  0.31429  0.59381  Biso   1.000  C
  C1815    1.0000 0.68840  0.10412  0.52208  Biso   1.000  C
  C1816    1.0000 0.58468  0.05181  0.56481  Biso   1.000  C
  C1817    1.0000 0.58047  0.06919  0.57307  Biso   1.000  C
  C1818    1.0000 0.68769  0.11020  0.55639  Biso   1.000  C
  Br197    1.0000 0.27967  0.92204  0.36726  Biso   1.000  Br
  Br198    1.0000 0.27384  0.93628  0.33842  Biso   1.000  Br
  C1819    1.0000 0.32813  0.68571  0.59381  Biso   1.000  C
  C1820    1.0000 0.31429  0.59381  0.67187  Biso   1.000  C
  C1821    1.0000 0.10412  0.52208  0.68840  Biso   1.000  C
  C1822    1.0000 0.05181  0.56481  0.58468  Biso   1.000  C
  C1823    1.0000 0.06919  0.57307  0.58047  Biso   1.000  C
  C1824    1.0000 0.11020  0.55639  0.68769  Biso   1.000  C
  Br199    1.0000 0.92204  0.36726  0.27967  Biso   1.000  Br
  Br200    1.0000 0.93628  0.33842  0.27384  Biso   1.000  Br
  N153     1.0000 0.77554  0.46718  0.57145  Biso   1.000  N
  H1411    1.0000 0.72302  0.55219  0.55011  Biso   1.000  H
  H1412    1.0000 0.67628  0.48619  0.55619  Biso   1.000  H
  C1825    1.0000 0.89588  0.52208  0.31160  Biso   1.000  C
  C1826    1.0000 0.94819  0.56481  0.41532  Biso   1.000  C
  C1827    1.0000 0.93081  0.57307  0.41948  Biso   1.000  C
  C1828    1.0000 0.88980  0.55639  0.31231  Biso   1.000  C
  N154     1.0000 0.42855  0.77554  0.53282  Biso   1.000  N
  H1413    1.0000 0.44989  0.72302  0.44781  Biso   1.000  H
  H1414    1.0000 0.44381  0.67628  0.51381  Biso   1.000  H
  C1829    1.0000 0.68840  0.89588  0.47787  Biso   1.000  C
  C1830    1.0000 0.58468  0.94819  0.43519  Biso   1.000  C
  C1831    1.0000 0.58047  0.93081  0.42688  Biso   1.000  C
  C1832    1.0000 0.68769  0.88980  0.44361  Biso   1.000  C
  H1415    1.0000 0.55477  0.31358  0.70989  Biso   1.000  H
  C1833    1.0000 0.62939  0.38511  0.70736  Biso   1.000  C
  H1416    1.0000 0.68642  0.29011  0.55477  Biso   1.000  H
  C1834    1.0000 0.70736  0.37061  0.61489  Biso   1.000  C
  C1835    1.0000 0.71749  0.03979  0.55148  Biso   1.000  C
  H1417    1.0000 0.71359  0.13611  0.49627  Biso   1.000  H
  C1836    1.0000 0.72008  0.06448  0.59310  Biso   1.000  C
  H1418    1.0000 0.71400  0.14731  0.54068  Biso   1.000  H
  C1837    1.0000 0.61378  0.00588  0.60060  Biso   1.000  C
  H1419    1.0000 0.53769  0.04679  0.55538  Biso   1.000  H
  H1420    1.0000 0.53389  0.07862  0.58068  Biso   1.000  H
  H1421    1.0000 0.31358  0.70989  0.55477  Biso   1.000  H
  C1838    1.0000 0.38511  0.70736  0.62939  Biso   1.000  C
  H1422    1.0000 0.29011  0.55477  0.68642  Biso   1.000  H
  C1839    1.0000 0.37061  0.61489  0.70736  Biso   1.000  C
  C1840    1.0000 0.03979  0.55148  0.71749  Biso   1.000  C
  H1423    1.0000 0.13611  0.49627  0.71359  Biso   1.000  H
  C1841    1.0000 0.06448  0.59310  0.72008  Biso   1.000  C
  H1424    1.0000 0.14731  0.54068  0.71400  Biso   1.000  H
  C1842    1.0000 0.00588  0.60060  0.61378  Biso   1.000  C
  H1425    1.0000 0.04679  0.55538  0.53769  Biso   1.000  H
  H1426    1.0000 0.07862  0.58068  0.53389  Biso   1.000  H
  C1843    1.0000 0.76879  0.39327  0.57459  Biso   1.000  C
  C1844    1.0000 0.83348  0.50089  0.58595  Biso   1.000  C
  C1845    1.0000 0.96021  0.55148  0.28251  Biso   1.000  C
  H1427    1.0000 0.86389  0.49627  0.28641  Biso   1.000  H
  C1846    1.0000 0.93552  0.59310  0.27992  Biso   1.000  C
  H1428    1.0000 0.85269  0.54068  0.28600  Biso   1.000  H
  C1847    1.0000 0.99412  0.60060  0.38622  Biso   1.000  C
  H1429    1.0000 0.95321  0.55538  0.46231  Biso   1.000  H
  H1430    1.0000 0.92138  0.58068  0.46611  Biso   1.000  H
  C1848    1.0000 0.42541  0.76879  0.60673  Biso   1.000  C
  C1849    1.0000 0.41405  0.83348  0.49911  Biso   1.000  C
  C1850    1.0000 0.71749  0.96021  0.44852  Biso   1.000  C
  H1431    1.0000 0.71359  0.86389  0.50368  Biso   1.000  H
  C1851    1.0000 0.72008  0.93552  0.40690  Biso   1.000  C
  H1432    1.0000 0.71400  0.85269  0.45932  Biso   1.000  H
  C1852    1.0000 0.61378  0.99412  0.39940  Biso   1.000  C
  H1433    1.0000 0.53769  0.95321  0.44462  Biso   1.000  H
  H1434    1.0000 0.53389  0.92138  0.41927  Biso   1.000  H
  C1853    1.0000 0.68571  0.40614  0.67187  Biso   1.000  C
  C1854    1.0000 0.60673  0.42541  0.76879  Biso   1.000  C
  H1435    1.0000 0.76408  0.02960  0.54438  Biso   1.000  H
  C1855    1.0000 0.68029  0.00968  0.61601  Biso   1.000  C
  C1856    1.0000 0.67958  0.99721  0.58722  Biso   1.000  C
  H1436    1.0000 0.76702  0.06828  0.60318  Biso   1.000  H
  H1437    1.0000 0.58889  0.97379  0.62650  Biso   1.000  H
  C1857    1.0000 0.40614  0.67187  0.68571  Biso   1.000  C
  C1858    1.0000 0.39327  0.57459  0.76879  Biso   1.000  C
  H1438    1.0000 0.02960  0.54438  0.76408  Biso   1.000  H
  C1859    1.0000 0.00968  0.61601  0.68029  Biso   1.000  C
  C1860    1.0000 0.99721  0.58722  0.67958  Biso   1.000  C
  H1439    1.0000 0.06828  0.60318  0.76702  Biso   1.000  H
  H1440    1.0000 0.97379  0.62650  0.58889  Biso   1.000  H
  H1441    1.0000 0.81011  0.37401  0.59558  Biso   1.000  H
  H1442    1.0000 0.76540  0.37522  0.52801  Biso   1.000  H
  O105     1.0000 0.84179  0.56126  0.57317  Biso   1.000  O
  C1861    1.0000 0.88954  0.46201  0.61910  Biso   1.000  C
  H1443    1.0000 0.97040  0.54438  0.23592  Biso   1.000  H
  C1862    1.0000 0.99032  0.61601  0.31971  Biso   1.000  C
  C1863    1.0000 0.00279  0.58722  0.32037  Biso   1.000  C
  H1444    1.0000 0.93172  0.60318  0.23298  Biso   1.000  H
  H1445    1.0000 0.02621  0.62650  0.41111  Biso   1.000  H
  H1446    1.0000 0.40442  0.81011  0.62599  Biso   1.000  H
  H1447    1.0000 0.47199  0.76540  0.62478  Biso   1.000  H
  O106     1.0000 0.42683  0.84179  0.43874  Biso   1.000  O
  C1864    1.0000 0.38090  0.88954  0.53799  Biso   1.000  C
  H1448    1.0000 0.76408  0.97040  0.45562  Biso   1.000  H
  C1865    1.0000 0.68029  0.99032  0.38399  Biso   1.000  C
  C1866    1.0000 0.67958  0.00279  0.41278  Biso   1.000  C
  H1449    1.0000 0.76702  0.93172  0.39682  Biso   1.000  H
  H1450    1.0000 0.58889  0.02621  0.37350  Biso   1.000  H
  H1451    1.0000 0.70989  0.44518  0.68642  Biso   1.000  H
  N155     1.0000 0.53282  0.42855  0.77554  Biso   1.000  N
  H1452    1.0000 0.62599  0.40442  0.81011  Biso   1.000  H
  H1453    1.0000 0.62478  0.47199  0.76540  Biso   1.000  H
  Br201    1.0000 0.72033  0.92204  0.63274  Biso   1.000  Br
  Br202    1.0000 0.72616  0.93628  0.66158  Biso   1.000  Br
  H1454    1.0000 0.44518  0.68642  0.70989  Biso   1.000  H
  N156     1.0000 0.46718  0.57145  0.77554  Biso   1.000  N
  H1455    1.0000 0.37401  0.59558  0.81011  Biso   1.000  H
  H1456    1.0000 0.37522  0.52801  0.76540  Biso   1.000  H
  Br203    1.0000 0.92204  0.63274  0.72033  Biso   1.000  Br
  Br204    1.0000 0.93628  0.66158  0.72616  Biso   1.000  Br
  C1867    1.0000 0.89588  0.47787  0.68840  Biso   1.000  C
  C1868    1.0000 0.94819  0.43519  0.58468  Biso   1.000  C
  C1869    1.0000 0.93081  0.42688  0.58047  Biso   1.000  C
  C1870    1.0000 0.88980  0.44361  0.68769  Biso   1.000  C
  Br205    1.0000 0.07796  0.63274  0.27967  Biso   1.000  Br
  Br206    1.0000 0.06372  0.66158  0.27384  Biso   1.000  Br
  C1871    1.0000 0.31160  0.89588  0.52208  Biso   1.000  C
  C1872    1.0000 0.41532  0.94819  0.56481  Biso   1.000  C
  C1873    1.0000 0.41948  0.93081  0.57307  Biso   1.000  C
  C1874    1.0000 0.31231  0.88980  0.55639  Biso   1.000  C
  Br207    1.0000 0.72033  0.07796  0.36726  Biso   1.000  Br
  Br208    1.0000 0.72616  0.06372  0.33842  Biso   1.000  Br
  C1875    1.0000 0.49648  0.46170  0.71988  Biso   1.000  C
  C1876    1.0000 0.49911  0.41405  0.83348  Biso   1.000  C
  C1877    1.0000 0.50347  0.53830  0.71988  Biso   1.000  C
  C1878    1.0000 0.50089  0.58595  0.83348  Biso   1.000  C
  C1879    1.0000 0.96021  0.44852  0.71749  Biso   1.000  C
  H1457    1.0000 0.86389  0.50368  0.71359  Biso   1.000  H
  C1880    1.0000 0.93552  0.40690  0.72008  Biso   1.000  C
  H1458    1.0000 0.85269  0.45932  0.71400  Biso   1.000  H
  C1881    1.0000 0.99412  0.39940  0.61378  Biso   1.000  C
  H1459    1.0000 0.95321  0.44462  0.53769  Biso   1.000  H
  H1460    1.0000 0.92138  0.41927  0.53389  Biso   1.000  H
  C1882    1.0000 0.28251  0.96021  0.55148  Biso   1.000  C
  H1461    1.0000 0.28641  0.86389  0.49627  Biso   1.000  H
  C1883    1.0000 0.27992  0.93552  0.59310  Biso   1.000  C
  H1462    1.0000 0.28600  0.85269  0.54068  Biso   1.000  H
  C1884    1.0000 0.38622  0.99412  0.60060  Biso   1.000  C
  H1463    1.0000 0.46231  0.95321  0.55538  Biso   1.000  H
  H1464    1.0000 0.46611  0.92138  0.58068  Biso   1.000  H
  H1465    1.0000 0.44781  0.44989  0.72302  Biso   1.000  H
  H1466    1.0000 0.51381  0.44381  0.67628  Biso   1.000  H
  O107     1.0000 0.43874  0.42683  0.84179  Biso   1.000  O
  C1885    1.0000 0.53799  0.38090  0.88954  Biso   1.000  C
  H1467    1.0000 0.55219  0.55011  0.72302  Biso   1.000  H
  H1468    1.0000 0.48619  0.55619  0.67628  Biso   1.000  H
  O108     1.0000 0.56126  0.57317  0.84179  Biso   1.000  O
  C1886    1.0000 0.46201  0.61910  0.88954  Biso   1.000  C
  H1469    1.0000 0.97040  0.45562  0.76408  Biso   1.000  H
  C1887    1.0000 0.99032  0.38399  0.68029  Biso   1.000  C
  C1888    1.0000 0.00279  0.41278  0.67958  Biso   1.000  C
  H1470    1.0000 0.93172  0.39682  0.76702  Biso   1.000  H
  H1471    1.0000 0.02621  0.37350  0.58889  Biso   1.000  H
  H1472    1.0000 0.23592  0.97040  0.54438  Biso   1.000  H
  C1889    1.0000 0.31971  0.99032  0.61601  Biso   1.000  C
  C1890    1.0000 0.32037  0.00279  0.58722  Biso   1.000  C
  H1473    1.0000 0.23298  0.93172  0.60318  Biso   1.000  H
  H1474    1.0000 0.41111  0.02621  0.62650  Biso   1.000  H
  C1891    1.0000 0.52208  0.31160  0.89588  Biso   1.000  C
  C1892    1.0000 0.56481  0.41532  0.94819  Biso   1.000  C
  C1893    1.0000 0.57307  0.41948  0.93081  Biso   1.000  C
  C1894    1.0000 0.55639  0.31231  0.88980  Biso   1.000  C
  C1895    1.0000 0.47787  0.68840  0.89588  Biso   1.000  C
  C1896    1.0000 0.43519  0.58468  0.94819  Biso   1.000  C
  C1897    1.0000 0.42688  0.58047  0.93081  Biso   1.000  C
  C1898    1.0000 0.44361  0.68769  0.88980  Biso   1.000  C
  Br209    1.0000 0.07796  0.36726  0.72033  Biso   1.000  Br
  Br210    1.0000 0.06372  0.33842  0.72616  Biso   1.000  Br
  Br211    1.0000 0.27967  0.07796  0.63274  Biso   1.000  Br
  Br212    1.0000 0.27384  0.06372  0.66158  Biso   1.000  Br
  C1899    1.0000 0.55148  0.28251  0.96021  Biso   1.000  C
  H1475    1.0000 0.49627  0.28641  0.86389  Biso   1.000  H
  C1900    1.0000 0.59310  0.27992  0.93552  Biso   1.000  C
  H1476    1.0000 0.54068  0.28600  0.85269  Biso   1.000  H
  C1901    1.0000 0.60060  0.38622  0.99412  Biso   1.000  C
  H1477    1.0000 0.55538  0.46231  0.95321  Biso   1.000  H
  H1478    1.0000 0.58068  0.46611  0.92138  Biso   1.000  H
  C1902    1.0000 0.44852  0.71749  0.96021  Biso   1.000  C
  H1479    1.0000 0.50368  0.71359  0.86389  Biso   1.000  H
  C1903    1.0000 0.40690  0.72008  0.93552  Biso   1.000  C
  H1480    1.0000 0.45932  0.71400  0.85269  Biso   1.000  H
  C1904    1.0000 0.39940  0.61378  0.99412  Biso   1.000  C
  H1481    1.0000 0.44462  0.53769  0.95321  Biso   1.000  H
  H1482    1.0000 0.41927  0.53389  0.92138  Biso   1.000  H
  H1483    1.0000 0.54438  0.23592  0.97040  Biso   1.000  H
  C1905    1.0000 0.61601  0.31971  0.99032  Biso   1.000  C
  C1906    1.0000 0.58722  0.32037  0.00279  Biso   1.000  C
  H1484    1.0000 0.60318  0.23298  0.93172  Biso   1.000  H
  H1485    1.0000 0.62650  0.41111  0.02621  Biso   1.000  H
  H1486    1.0000 0.45562  0.76408  0.97040  Biso   1.000  H
  C1907    1.0000 0.38399  0.68029  0.99032  Biso   1.000  C
  C1908    1.0000 0.41278  0.67958  0.00279  Biso   1.000  C
  H1487    1.0000 0.39682  0.76702  0.93172  Biso   1.000  H
  H1488    1.0000 0.37350  0.58889  0.02621  Biso   1.000  H
  Br213    1.0000 0.63274  0.27967  0.07796  Biso   1.000  Br
  Br214    1.0000 0.66158  0.27384  0.06372  Biso   1.000  Br
  Br215    1.0000 0.36726  0.72033  0.07796  Biso   1.000  Br
  Br216    1.0000 0.33842  0.72616  0.06372  Biso   1.000  Br
