data_image0
_cell_length_a       14.938
_cell_length_b       14.938
_cell_length_c       39.779
_cell_angle_alpha    90
_cell_angle_beta     90
_cell_angle_gamma    90

_symmetry_space_group_name_H-M    "P 1"
_symmetry_int_tables_number       1

loop_
  _symmetry_equiv_pos_as_xyz
  'x, y, z'

loop_
  _atom_site_label
  _atom_site_occupancy
  _atom_site_fract_x
  _atom_site_fract_y
  _atom_site_fract_z
  _atom_site_thermal_displace_type
  _atom_site_B_iso_or_equiv
  _atom_site_type_symbol
  C1       1.0000 0.13469  0.60918  0.51532  Biso   1.000  C
  C2       1.0000 0.16214  0.58696  0.55109  Biso   1.000  C
  H1       1.0000 0.18697  0.62773  0.50270  Biso   1.000  H
  H2       1.0000 0.11039  0.55603  0.50469  Biso   1.000  H
  C3       1.0000 0.06567  0.68282  0.51447  Biso   1.000  C
  C4       1.0000 0.11990  0.52095  0.56952  Biso   1.000  C
  C5       1.0000 0.22727  0.63663  0.56676  Biso   1.000  C
  C6       1.0000 0.08977  0.77219  0.51464  Biso   1.000  C
  C7       1.0000 0.97557  0.66180  0.51429  Biso   1.000  C
  C8       1.0000 0.14493  0.50428  0.60258  Biso   1.000  C
  O1       1.0000 0.05449  0.47255  0.55298  Biso   1.000  O
  H3       1.0000 0.25673  0.68108  0.55469  Biso   1.000  H
  C9       1.0000 0.25017  0.62217  0.59994  Biso   1.000  C
  C10      1.0000 0.02443  0.83820  0.51429  Biso   1.000  C
  O2       1.0000 0.18041  0.79013  0.51495  Biso   1.000  O
  C11      1.0000 0.91023  0.72781  0.51464  Biso   1.000  C
  H4       1.0000 0.95829  0.60202  0.51389  Biso   1.000  H
  C12      1.0000 0.20967  0.55550  0.61847  Biso   1.000  C
  H5       1.0000 0.11762  0.45783  0.61429  Biso   1.000  H
  C13      1.0000 0.99083  0.42730  0.57171  Biso   1.000  C
  O3       1.0000 0.31376  0.67251  0.61658  Biso   1.000  O
  H6       1.0000 0.04171  0.89798  0.51389  Biso   1.000  H
  C14      1.0000 0.93433  0.81718  0.51447  Biso   1.000  C
  C15      1.0000 0.20839  0.87997  0.51769  Biso   1.000  C
  O4       1.0000 0.81959  0.70987  0.51495  Biso   1.000  O
  C16      1.0000 0.23296  0.53923  0.65489  Biso   1.000  C
  H7       1.0000 0.01828  0.37723  0.58279  Biso   1.000  H
  H8       1.0000 0.94430  0.40621  0.55710  Biso   1.000  H
  H9       1.0000 0.96572  0.46693  0.58820  Biso   1.000  H
  C17      1.0000 0.34529  0.74943  0.60095  Biso   1.000  C
  C18      1.0000 0.86531  0.89082  0.51532  Biso   1.000  C
  H10      1.0000 0.19059  0.91230  0.49790  Biso   1.000  H
  H11      1.0000 0.27239  0.88211  0.51990  Biso   1.000  H
  H12      1.0000 0.18128  0.90668  0.53709  Biso   1.000  H
  C19      1.0000 0.79161  0.62003  0.51769  Biso   1.000  C
  C20      1.0000 0.17459  0.59171  0.67890  Biso   1.000  C
  H13      1.0000 0.29502  0.55550  0.65859  Biso   1.000  H
  H14      1.0000 0.22680  0.47590  0.65980  Biso   1.000  H
  H15      1.0000 0.36692  0.73470  0.57890  Biso   1.000  H
  H16      1.0000 0.39323  0.77447  0.61399  Biso   1.000  H
  H17      1.0000 0.29763  0.79221  0.59911  Biso   1.000  H
  C21      1.0000 0.83786  0.91304  0.55109  Biso   1.000  C
  H18      1.0000 0.81303  0.87227  0.50270  Biso   1.000  H
  H19      1.0000 0.88961  0.94397  0.50469  Biso   1.000  H
  H20      1.0000 0.80941  0.58770  0.49790  Biso   1.000  H
  H21      1.0000 0.72761  0.61789  0.51990  Biso   1.000  H
  H22      1.0000 0.81872  0.59332  0.53709  Biso   1.000  H
  C22      1.0000 0.09231  0.55945  0.68936  Biso   1.000  C
  C23      1.0000 0.20063  0.67519  0.69089  Biso   1.000  C
  C24      1.0000 0.88010  0.97905  0.56952  Biso   1.000  C
  C25      1.0000 0.77273  0.86337  0.56676  Biso   1.000  C
  C26      1.0000 0.03863  0.60898  0.71012  Biso   1.000  C
  O5       1.0000 0.06989  0.47496  0.67752  Biso   1.000  O
  H23      1.0000 0.25673  0.69748  0.68511  Biso   1.000  H
  C27      1.0000 0.14513  0.72573  0.71120  Biso   1.000  C
  C28      1.0000 0.85507  0.99572  0.60258  Biso   1.000  C
  O6       1.0000 0.94551  0.02745  0.55298  Biso   1.000  O
  H24      1.0000 0.74327  0.81892  0.55469  Biso   1.000  H
  C29      1.0000 0.74983  0.87783  0.59994  Biso   1.000  C
  C30      1.0000 0.06259  0.69387  0.72116  Biso   1.000  C
  H25      1.0000 0.98420  0.58502  0.71711  Biso   1.000  H
  C31      1.0000 0.97952  0.44832  0.67852  Biso   1.000  C
  O7       1.0000 0.16756  0.81008  0.72292  Biso   1.000  O
  C32      1.0000 0.79033  0.94450  0.61847  Biso   1.000  C
  H26      1.0000 0.88238  0.04217  0.61429  Biso   1.000  H
  C33      1.0000 0.00917  0.07270  0.57171  Biso   1.000  C
  O8       1.0000 0.68624  0.82749  0.61658  Biso   1.000  O
  C34      1.0000 0.00000  0.75003  0.74202  Biso   1.000  C
  H27      1.0000 0.96097  0.44149  0.70150  Biso   1.000  H
  H28      1.0000 0.97282  0.39229  0.66701  Biso   1.000  H
  H29      1.0000 0.94310  0.49290  0.66779  Biso   1.000  H
  C35      1.0000 0.24823  0.84938  0.71138  Biso   1.000  C
  C36      1.0000 0.76704  0.96077  0.65489  Biso   1.000  C
  H30      1.0000 0.98172  0.12277  0.58279  Biso   1.000  H
  H31      1.0000 0.05570  0.09379  0.55710  Biso   1.000  H
  H32      1.0000 0.03428  0.03307  0.58820  Biso   1.000  H
  C37      1.0000 0.65471  0.75057  0.60095  Biso   1.000  C
  H33      1.0000 0.03501  0.78899  0.75640  Biso   1.000  H
  H34      1.0000 0.96499  0.71101  0.75640  Biso   1.000  H
  C38      1.0000 0.93741  0.80613  0.72116  Biso   1.000  C
  H35      1.0000 0.29770  0.81149  0.71719  Biso   1.000  H
  H36      1.0000 0.25579  0.90688  0.72171  Biso   1.000  H
  H37      1.0000 0.24568  0.85627  0.68740  Biso   1.000  H
  C39      1.0000 0.82541  0.90829  0.67890  Biso   1.000  C
  H38      1.0000 0.70498  0.94450  0.65859  Biso   1.000  H
  H39      1.0000 0.77320  0.02410  0.65980  Biso   1.000  H
  H40      1.0000 0.63308  0.76530  0.57890  Biso   1.000  H
  H41      1.0000 0.60677  0.72553  0.61399  Biso   1.000  H
  H42      1.0000 0.70237  0.70779  0.59911  Biso   1.000  H
  C40      1.0000 0.96137  0.89102  0.71012  Biso   1.000  C
  C41      1.0000 0.85487  0.77427  0.71120  Biso   1.000  C
  C42      1.0000 0.90769  0.94055  0.68936  Biso   1.000  C
  C43      1.0000 0.79937  0.82481  0.69089  Biso   1.000  C
  H43      1.0000 0.01580  0.91498  0.71711  Biso   1.000  H
  O9       1.0000 0.83244  0.68992  0.72292  Biso   1.000  O
  O10      1.0000 0.93011  0.02504  0.67752  Biso   1.000  O
  H44      1.0000 0.74327  0.80252  0.68511  Biso   1.000  H
  C44      1.0000 0.75177  0.65062  0.71138  Biso   1.000  C
  C45      1.0000 0.02048  0.05168  0.67852  Biso   1.000  C
  H45      1.0000 0.70230  0.68851  0.71719  Biso   1.000  H
  H46      1.0000 0.74421  0.59312  0.72171  Biso   1.000  H
  H47      1.0000 0.75432  0.64373  0.68740  Biso   1.000  H
  H48      1.0000 0.03903  0.05851  0.70150  Biso   1.000  H
  H49      1.0000 0.02718  0.10771  0.66701  Biso   1.000  H
  H50      1.0000 0.05690  0.00710  0.66779  Biso   1.000  H
  C46      1.0000 0.13469  0.60918  0.51532  Biso   1.000  C
  C47      1.0000 0.16214  0.58696  0.55109  Biso   1.000  C
  H51      1.0000 0.18697  0.62773  0.50270  Biso   1.000  H
  H52      1.0000 0.11039  0.55603  0.50469  Biso   1.000  H
  C48      1.0000 0.06567  0.68282  0.51447  Biso   1.000  C
  C49      1.0000 0.11990  0.52095  0.56952  Biso   1.000  C
  C50      1.0000 0.22727  0.63663  0.56676  Biso   1.000  C
  C51      1.0000 0.08977  0.77219  0.51464  Biso   1.000  C
  C52      1.0000 0.97557  0.66180  0.51429  Biso   1.000  C
  C53      1.0000 0.14493  0.50428  0.60258  Biso   1.000  C
  O11      1.0000 0.05449  0.47255  0.55298  Biso   1.000  O
  H53      1.0000 0.25673  0.68108  0.55469  Biso   1.000  H
  C54      1.0000 0.25017  0.62217  0.59994  Biso   1.000  C
  C55      1.0000 0.02443  0.83820  0.51429  Biso   1.000  C
  O12      1.0000 0.18041  0.79013  0.51495  Biso   1.000  O
  C56      1.0000 0.91023  0.72781  0.51464  Biso   1.000  C
  H54      1.0000 0.95829  0.60202  0.51389  Biso   1.000  H
  C57      1.0000 0.20967  0.55550  0.61847  Biso   1.000  C
  H55      1.0000 0.11762  0.45783  0.61429  Biso   1.000  H
  C58      1.0000 0.99083  0.42730  0.57171  Biso   1.000  C
  O13      1.0000 0.31376  0.67251  0.61658  Biso   1.000  O
  H56      1.0000 0.04171  0.89798  0.51389  Biso   1.000  H
  C59      1.0000 0.93433  0.81718  0.51447  Biso   1.000  C
  C60      1.0000 0.20839  0.87997  0.51769  Biso   1.000  C
  O14      1.0000 0.81959  0.70987  0.51495  Biso   1.000  O
  C61      1.0000 0.23296  0.53923  0.65489  Biso   1.000  C
  H57      1.0000 0.01828  0.37723  0.58279  Biso   1.000  H
  H58      1.0000 0.94430  0.40621  0.55710  Biso   1.000  H
  H59      1.0000 0.96572  0.46693  0.58820  Biso   1.000  H
  C62      1.0000 0.34529  0.74943  0.60095  Biso   1.000  C
  C63      1.0000 0.86531  0.89082  0.51532  Biso   1.000  C
  H60      1.0000 0.19059  0.91230  0.49790  Biso   1.000  H
  H61      1.0000 0.27239  0.88211  0.51990  Biso   1.000  H
  H62      1.0000 0.18128  0.90668  0.53709  Biso   1.000  H
  C64      1.0000 0.79161  0.62003  0.51769  Biso   1.000  C
  C65      1.0000 0.17459  0.59171  0.67890  Biso   1.000  C
  H63      1.0000 0.29502  0.55550  0.65859  Biso   1.000  H
  H64      1.0000 0.22680  0.47590  0.65980  Biso   1.000  H
  H65      1.0000 0.36692  0.73470  0.57890  Biso   1.000  H
  H66      1.0000 0.39323  0.77447  0.61399  Biso   1.000  H
  H67      1.0000 0.29763  0.79221  0.59911  Biso   1.000  H
  C66      1.0000 0.83786  0.91304  0.55109  Biso   1.000  C
  H68      1.0000 0.81303  0.87227  0.50270  Biso   1.000  H
  H69      1.0000 0.88961  0.94397  0.50469  Biso   1.000  H
  H70      1.0000 0.80941  0.58770  0.49790  Biso   1.000  H
  H71      1.0000 0.72761  0.61789  0.51990  Biso   1.000  H
  H72      1.0000 0.81872  0.59332  0.53709  Biso   1.000  H
  C67      1.0000 0.09231  0.55945  0.68936  Biso   1.000  C
  C68      1.0000 0.20063  0.67519  0.69089  Biso   1.000  C
  C69      1.0000 0.88010  0.97905  0.56952  Biso   1.000  C
  C70      1.0000 0.77273  0.86337  0.56676  Biso   1.000  C
  C71      1.0000 0.03863  0.60898  0.71012  Biso   1.000  C
  O15      1.0000 0.06989  0.47496  0.67752  Biso   1.000  O
  H73      1.0000 0.25673  0.69748  0.68511  Biso   1.000  H
  C72      1.0000 0.14513  0.72573  0.71120  Biso   1.000  C
  C73      1.0000 0.85507  0.99572  0.60258  Biso   1.000  C
  O16      1.0000 0.94551  0.02745  0.55298  Biso   1.000  O
  H74      1.0000 0.74327  0.81892  0.55469  Biso   1.000  H
  C74      1.0000 0.74983  0.87783  0.59994  Biso   1.000  C
  C75      1.0000 0.06259  0.69387  0.72116  Biso   1.000  C
  H75      1.0000 0.98420  0.58502  0.71711  Biso   1.000  H
  C76      1.0000 0.97952  0.44832  0.67852  Biso   1.000  C
  O17      1.0000 0.16756  0.81008  0.72292  Biso   1.000  O
  C77      1.0000 0.79033  0.94450  0.61847  Biso   1.000  C
  H76      1.0000 0.88238  0.04217  0.61429  Biso   1.000  H
  C78      1.0000 0.00917  0.07270  0.57171  Biso   1.000  C
  O18      1.0000 0.68624  0.82749  0.61658  Biso   1.000  O
  C79      1.0000 0.00000  0.75003  0.74202  Biso   1.000  C
  H77      1.0000 0.96097  0.44149  0.70150  Biso   1.000  H
  H78      1.0000 0.97282  0.39229  0.66701  Biso   1.000  H
  H79      1.0000 0.94310  0.49290  0.66779  Biso   1.000  H
  C80      1.0000 0.24823  0.84938  0.71138  Biso   1.000  C
  C81      1.0000 0.76704  0.96077  0.65489  Biso   1.000  C
  H80      1.0000 0.98172  0.12277  0.58279  Biso   1.000  H
  H81      1.0000 0.05570  0.09379  0.55710  Biso   1.000  H
  H82      1.0000 0.03428  0.03307  0.58820  Biso   1.000  H
  C82      1.0000 0.65471  0.75057  0.60095  Biso   1.000  C
  H83      1.0000 0.03501  0.78899  0.75640  Biso   1.000  H
  H84      1.0000 0.96499  0.71101  0.75640  Biso   1.000  H
  C83      1.0000 0.93741  0.80613  0.72116  Biso   1.000  C
  H85      1.0000 0.29770  0.81149  0.71719  Biso   1.000  H
  H86      1.0000 0.25579  0.90688  0.72171  Biso   1.000  H
  H87      1.0000 0.24568  0.85627  0.68740  Biso   1.000  H
  C84      1.0000 0.82541  0.90829  0.67890  Biso   1.000  C
  H88      1.0000 0.70498  0.94450  0.65859  Biso   1.000  H
  H89      1.0000 0.77320  0.02410  0.65980  Biso   1.000  H
  H90      1.0000 0.63308  0.76530  0.57890  Biso   1.000  H
  H91      1.0000 0.60677  0.72553  0.61399  Biso   1.000  H
  H92      1.0000 0.70237  0.70779  0.59911  Biso   1.000  H
  C85      1.0000 0.96137  0.89102  0.71012  Biso   1.000  C
  C86      1.0000 0.85487  0.77427  0.71120  Biso   1.000  C
  C87      1.0000 0.90769  0.94055  0.68936  Biso   1.000  C
  C88      1.0000 0.79937  0.82481  0.69089  Biso   1.000  C
  H93      1.0000 0.01580  0.91498  0.71711  Biso   1.000  H
  O19      1.0000 0.83244  0.68992  0.72292  Biso   1.000  O
  O20      1.0000 0.93011  0.02504  0.67752  Biso   1.000  O
  H94      1.0000 0.74327  0.80252  0.68511  Biso   1.000  H
  C89      1.0000 0.75177  0.65062  0.71138  Biso   1.000  C
  C90      1.0000 0.02048  0.05168  0.67852  Biso   1.000  C
  H95      1.0000 0.70230  0.68851  0.71719  Biso   1.000  H
  H96      1.0000 0.74421  0.59312  0.72171  Biso   1.000  H
  H97      1.0000 0.75432  0.64373  0.68740  Biso   1.000  H
  H98      1.0000 0.03903  0.05851  0.70150  Biso   1.000  H
  H99      1.0000 0.02718  0.10771  0.66701  Biso   1.000  H
  H100     1.0000 0.05690  0.00710  0.66779  Biso   1.000  H
  C91      1.0000 0.20839  0.37997  0.48231  Biso   1.000  C
  O21      1.0000 0.18041  0.29013  0.48505  Biso   1.000  O
  H101     1.0000 0.19059  0.41230  0.50210  Biso   1.000  H
  H102     1.0000 0.27239  0.38211  0.48010  Biso   1.000  H
  H103     1.0000 0.18128  0.40668  0.46291  Biso   1.000  H
  C92      1.0000 0.08977  0.27219  0.48536  Biso   1.000  C
  C93      1.0000 0.06567  0.18282  0.48553  Biso   1.000  C
  C94      1.0000 0.02443  0.33820  0.48571  Biso   1.000  C
  C95      1.0000 0.13469  0.10918  0.48468  Biso   1.000  C
  C96      1.0000 0.97557  0.16180  0.48571  Biso   1.000  C
  H104     1.0000 0.04171  0.39798  0.48611  Biso   1.000  H
  C97      1.0000 0.93433  0.31718  0.48553  Biso   1.000  C
  C98      1.0000 0.16214  0.08696  0.44891  Biso   1.000  C
  H105     1.0000 0.18697  0.12773  0.49730  Biso   1.000  H
  H106     1.0000 0.11039  0.05603  0.49531  Biso   1.000  H
  C99      1.0000 0.91023  0.22781  0.48536  Biso   1.000  C
  H107     1.0000 0.95829  0.10202  0.48611  Biso   1.000  H
  C100     1.0000 0.86531  0.39082  0.48468  Biso   1.000  C
  C101     1.0000 0.11990  0.02095  0.43048  Biso   1.000  C
  C102     1.0000 0.22727  0.13663  0.43324  Biso   1.000  C
  O22      1.0000 0.81959  0.20987  0.48505  Biso   1.000  O
  C103     1.0000 0.83786  0.41304  0.44891  Biso   1.000  C
  H108     1.0000 0.81303  0.37227  0.49730  Biso   1.000  H
  H109     1.0000 0.88961  0.44397  0.49531  Biso   1.000  H
  C104     1.0000 0.14493  0.00428  0.39742  Biso   1.000  C
  O23      1.0000 0.05449  0.97255  0.44702  Biso   1.000  O
  C105     1.0000 0.25017  0.12217  0.40006  Biso   1.000  C
  H110     1.0000 0.25673  0.18108  0.44531  Biso   1.000  H
  C106     1.0000 0.79161  0.12003  0.48231  Biso   1.000  C
  C107     1.0000 0.88010  0.47905  0.43048  Biso   1.000  C
  C108     1.0000 0.77273  0.36337  0.43324  Biso   1.000  C
  C109     1.0000 0.20967  0.05550  0.38153  Biso   1.000  C
  H111     1.0000 0.11762  0.95783  0.38571  Biso   1.000  H
  C110     1.0000 0.99083  0.92730  0.42829  Biso   1.000  C
  O24      1.0000 0.31376  0.17251  0.38342  Biso   1.000  O
  H112     1.0000 0.80941  0.08770  0.50210  Biso   1.000  H
  H113     1.0000 0.72761  0.11789  0.48010  Biso   1.000  H
  H114     1.0000 0.81872  0.09332  0.46291  Biso   1.000  H
  C111     1.0000 0.85507  0.49572  0.39742  Biso   1.000  C
  O25      1.0000 0.94551  0.52745  0.44702  Biso   1.000  O
  C112     1.0000 0.74983  0.37783  0.40006  Biso   1.000  C
  H115     1.0000 0.74327  0.31892  0.44531  Biso   1.000  H
  C113     1.0000 0.23296  0.03923  0.34511  Biso   1.000  C
  H116     1.0000 0.94430  0.90621  0.44290  Biso   1.000  H
  H117     1.0000 0.96572  0.96693  0.41180  Biso   1.000  H
  H118     1.0000 0.01828  0.87723  0.41721  Biso   1.000  H
  C114     1.0000 0.34529  0.24943  0.39905  Biso   1.000  C
  C115     1.0000 0.79033  0.44450  0.38153  Biso   1.000  C
  H119     1.0000 0.88238  0.54217  0.38571  Biso   1.000  H
  C116     1.0000 0.00917  0.57270  0.42829  Biso   1.000  C
  O26      1.0000 0.68624  0.32749  0.38342  Biso   1.000  O
  C117     1.0000 0.17459  0.09171  0.32110  Biso   1.000  C
  H120     1.0000 0.29502  0.05550  0.34141  Biso   1.000  H
  H121     1.0000 0.22680  0.97590  0.34020  Biso   1.000  H
  H122     1.0000 0.36692  0.23470  0.42110  Biso   1.000  H
  H123     1.0000 0.39323  0.27447  0.38601  Biso   1.000  H
  H124     1.0000 0.29763  0.29221  0.40089  Biso   1.000  H
  C118     1.0000 0.76704  0.46077  0.34511  Biso   1.000  C
  H125     1.0000 0.05570  0.59379  0.44290  Biso   1.000  H
  H126     1.0000 0.03428  0.53307  0.41180  Biso   1.000  H
  H127     1.0000 0.98172  0.62277  0.41721  Biso   1.000  H
  C119     1.0000 0.65471  0.25057  0.39905  Biso   1.000  C
  C120     1.0000 0.20063  0.17519  0.30911  Biso   1.000  C
  C121     1.0000 0.09231  0.05945  0.31064  Biso   1.000  C
  C122     1.0000 0.82541  0.40829  0.32110  Biso   1.000  C
  H128     1.0000 0.70498  0.44450  0.34141  Biso   1.000  H
  H129     1.0000 0.77320  0.52410  0.34020  Biso   1.000  H
  H130     1.0000 0.63308  0.26530  0.42110  Biso   1.000  H
  H131     1.0000 0.60677  0.22553  0.38601  Biso   1.000  H
  H132     1.0000 0.70237  0.20779  0.40089  Biso   1.000  H
  C123     1.0000 0.14513  0.22573  0.28880  Biso   1.000  C
  H133     1.0000 0.25673  0.19748  0.31489  Biso   1.000  H
  C124     1.0000 0.03863  0.10898  0.28988  Biso   1.000  C
  O27      1.0000 0.06989  0.97496  0.32248  Biso   1.000  O
  C125     1.0000 0.90769  0.44055  0.31064  Biso   1.000  C
  C126     1.0000 0.79937  0.32481  0.30911  Biso   1.000  C
  O28      1.0000 0.16756  0.31008  0.27708  Biso   1.000  O
  C127     1.0000 0.06259  0.19387  0.27884  Biso   1.000  C
  H134     1.0000 0.98420  0.08502  0.28289  Biso   1.000  H
  C128     1.0000 0.97952  0.94832  0.32148  Biso   1.000  C
  C129     1.0000 0.96137  0.39102  0.28988  Biso   1.000  C
  O29      1.0000 0.93011  0.52504  0.32248  Biso   1.000  O
  C130     1.0000 0.85487  0.27427  0.28880  Biso   1.000  C
  H135     1.0000 0.74327  0.30252  0.31489  Biso   1.000  H
  C131     1.0000 0.24823  0.34938  0.28862  Biso   1.000  C
  C132     1.0000 0.00000  0.25003  0.25798  Biso   1.000  C
  H136     1.0000 0.96097  0.94149  0.29850  Biso   1.000  H
  H137     1.0000 0.97282  0.89229  0.33299  Biso   1.000  H
  H138     1.0000 0.94310  0.99290  0.33221  Biso   1.000  H
  C133     1.0000 0.93741  0.30613  0.27884  Biso   1.000  C
  H139     1.0000 0.01580  0.41498  0.28289  Biso   1.000  H
  C134     1.0000 0.02048  0.55168  0.32148  Biso   1.000  C
  O30      1.0000 0.83244  0.18992  0.27708  Biso   1.000  O
  H140     1.0000 0.29770  0.31149  0.28281  Biso   1.000  H
  H141     1.0000 0.25579  0.40688  0.27829  Biso   1.000  H
  H142     1.0000 0.24568  0.35627  0.31260  Biso   1.000  H
  H143     1.0000 0.03501  0.28899  0.24360  Biso   1.000  H
  H144     1.0000 0.96499  0.21101  0.24360  Biso   1.000  H
  H145     1.0000 0.03903  0.55851  0.29850  Biso   1.000  H
  H146     1.0000 0.02718  0.60771  0.33299  Biso   1.000  H
  H147     1.0000 0.05690  0.50710  0.33221  Biso   1.000  H
  C135     1.0000 0.75177  0.15062  0.28862  Biso   1.000  C
  H148     1.0000 0.70230  0.18851  0.28281  Biso   1.000  H
  H149     1.0000 0.74421  0.09312  0.27829  Biso   1.000  H
  H150     1.0000 0.75432  0.14373  0.31260  Biso   1.000  H
  C136     1.0000 0.20839  0.37997  0.48231  Biso   1.000  C
  O31      1.0000 0.18041  0.29013  0.48505  Biso   1.000  O
  H151     1.0000 0.19059  0.41230  0.50210  Biso   1.000  H
  H152     1.0000 0.27239  0.38211  0.48010  Biso   1.000  H
  H153     1.0000 0.18128  0.40668  0.46291  Biso   1.000  H
  C137     1.0000 0.08977  0.27219  0.48536  Biso   1.000  C
  C138     1.0000 0.06567  0.18282  0.48553  Biso   1.000  C
  C139     1.0000 0.02443  0.33820  0.48571  Biso   1.000  C
  C140     1.0000 0.13469  0.10918  0.48468  Biso   1.000  C
  C141     1.0000 0.97557  0.16180  0.48571  Biso   1.000  C
  H154     1.0000 0.04171  0.39798  0.48611  Biso   1.000  H
  C142     1.0000 0.93433  0.31718  0.48553  Biso   1.000  C
  C143     1.0000 0.16214  0.08696  0.44891  Biso   1.000  C
  H155     1.0000 0.18697  0.12773  0.49730  Biso   1.000  H
  H156     1.0000 0.11039  0.05603  0.49531  Biso   1.000  H
  C144     1.0000 0.91023  0.22781  0.48536  Biso   1.000  C
  H157     1.0000 0.95829  0.10202  0.48611  Biso   1.000  H
  C145     1.0000 0.86531  0.39082  0.48468  Biso   1.000  C
  C146     1.0000 0.11990  0.02095  0.43048  Biso   1.000  C
  C147     1.0000 0.22727  0.13663  0.43324  Biso   1.000  C
  O32      1.0000 0.81959  0.20987  0.48505  Biso   1.000  O
  C148     1.0000 0.83786  0.41304  0.44891  Biso   1.000  C
  H158     1.0000 0.81303  0.37227  0.49730  Biso   1.000  H
  H159     1.0000 0.88961  0.44397  0.49531  Biso   1.000  H
  C149     1.0000 0.14493  0.00428  0.39742  Biso   1.000  C
  O33      1.0000 0.05449  0.97255  0.44702  Biso   1.000  O
  C150     1.0000 0.25017  0.12217  0.40006  Biso   1.000  C
  H160     1.0000 0.25673  0.18108  0.44531  Biso   1.000  H
  C151     1.0000 0.79161  0.12003  0.48231  Biso   1.000  C
  C152     1.0000 0.88010  0.47905  0.43048  Biso   1.000  C
  C153     1.0000 0.77273  0.36337  0.43324  Biso   1.000  C
  C154     1.0000 0.20967  0.05550  0.38153  Biso   1.000  C
  H161     1.0000 0.11762  0.95783  0.38571  Biso   1.000  H
  C155     1.0000 0.99083  0.92730  0.42829  Biso   1.000  C
  O34      1.0000 0.31376  0.17251  0.38342  Biso   1.000  O
  H162     1.0000 0.80941  0.08770  0.50210  Biso   1.000  H
  H163     1.0000 0.72761  0.11789  0.48010  Biso   1.000  H
  H164     1.0000 0.81872  0.09332  0.46291  Biso   1.000  H
  C156     1.0000 0.85507  0.49572  0.39742  Biso   1.000  C
  O35      1.0000 0.94551  0.52745  0.44702  Biso   1.000  O
  C157     1.0000 0.74983  0.37783  0.40006  Biso   1.000  C
  H165     1.0000 0.74327  0.31892  0.44531  Biso   1.000  H
  C158     1.0000 0.23296  0.03923  0.34511  Biso   1.000  C
  H166     1.0000 0.94430  0.90621  0.44290  Biso   1.000  H
  H167     1.0000 0.96572  0.96693  0.41180  Biso   1.000  H
  H168     1.0000 0.01828  0.87723  0.41721  Biso   1.000  H
  C159     1.0000 0.34529  0.24943  0.39905  Biso   1.000  C
  C160     1.0000 0.79033  0.44450  0.38153  Biso   1.000  C
  H169     1.0000 0.88238  0.54217  0.38571  Biso   1.000  H
  C161     1.0000 0.00917  0.57270  0.42829  Biso   1.000  C
  O36      1.0000 0.68624  0.32749  0.38342  Biso   1.000  O
  C162     1.0000 0.17459  0.09171  0.32110  Biso   1.000  C
  H170     1.0000 0.29502  0.05550  0.34141  Biso   1.000  H
  H171     1.0000 0.22680  0.97590  0.34020  Biso   1.000  H
  H172     1.0000 0.36692  0.23470  0.42110  Biso   1.000  H
  H173     1.0000 0.39323  0.27447  0.38601  Biso   1.000  H
  H174     1.0000 0.29763  0.29221  0.40089  Biso   1.000  H
  C163     1.0000 0.76704  0.46077  0.34511  Biso   1.000  C
  H175     1.0000 0.05570  0.59379  0.44290  Biso   1.000  H
  H176     1.0000 0.03428  0.53307  0.41180  Biso   1.000  H
  H177     1.0000 0.98172  0.62277  0.41721  Biso   1.000  H
  C164     1.0000 0.65471  0.25057  0.39905  Biso   1.000  C
  C165     1.0000 0.20063  0.17519  0.30911  Biso   1.000  C
  C166     1.0000 0.09231  0.05945  0.31064  Biso   1.000  C
  C167     1.0000 0.82541  0.40829  0.32110  Biso   1.000  C
  H178     1.0000 0.70498  0.44450  0.34141  Biso   1.000  H
  H179     1.0000 0.77320  0.52410  0.34020  Biso   1.000  H
  H180     1.0000 0.63308  0.26530  0.42110  Biso   1.000  H
  H181     1.0000 0.60677  0.22553  0.38601  Biso   1.000  H
  H182     1.0000 0.70237  0.20779  0.40089  Biso   1.000  H
  C168     1.0000 0.14513  0.22573  0.28880  Biso   1.000  C
  H183     1.0000 0.25673  0.19748  0.31489  Biso   1.000  H
  C169     1.0000 0.03863  0.10898  0.28988  Biso   1.000  C
  O37      1.0000 0.06989  0.97496  0.32248  Biso   1.000  O
  C170     1.0000 0.90769  0.44055  0.31064  Biso   1.000  C
  C171     1.0000 0.79937  0.32481  0.30911  Biso   1.000  C
  O38      1.0000 0.16756  0.31008  0.27708  Biso   1.000  O
  C172     1.0000 0.06259  0.19387  0.27884  Biso   1.000  C
  H184     1.0000 0.98420  0.08502  0.28289  Biso   1.000  H
  C173     1.0000 0.97952  0.94832  0.32148  Biso   1.000  C
  C174     1.0000 0.96137  0.39102  0.28988  Biso   1.000  C
  O39      1.0000 0.93011  0.52504  0.32248  Biso   1.000  O
  C175     1.0000 0.85487  0.27427  0.28880  Biso   1.000  C
  H185     1.0000 0.74327  0.30252  0.31489  Biso   1.000  H
  C176     1.0000 0.24823  0.34938  0.28862  Biso   1.000  C
  C177     1.0000 0.00000  0.25003  0.25798  Biso   1.000  C
  H186     1.0000 0.96097  0.94149  0.29850  Biso   1.000  H
  H187     1.0000 0.97282  0.89229  0.33299  Biso   1.000  H
  H188     1.0000 0.94310  0.99290  0.33221  Biso   1.000  H
  C178     1.0000 0.93741  0.30613  0.27884  Biso   1.000  C
  H189     1.0000 0.01580  0.41498  0.28289  Biso   1.000  H
  C179     1.0000 0.02048  0.55168  0.32148  Biso   1.000  C
  O40      1.0000 0.83244  0.18992  0.27708  Biso   1.000  O
  H190     1.0000 0.29770  0.31149  0.28281  Biso   1.000  H
  H191     1.0000 0.25579  0.40688  0.27829  Biso   1.000  H
  H192     1.0000 0.24568  0.35627  0.31260  Biso   1.000  H
  H193     1.0000 0.03501  0.28899  0.24360  Biso   1.000  H
  H194     1.0000 0.96499  0.21101  0.24360  Biso   1.000  H
  H195     1.0000 0.03903  0.55851  0.29850  Biso   1.000  H
  H196     1.0000 0.02718  0.60771  0.33299  Biso   1.000  H
  H197     1.0000 0.05690  0.50710  0.33221  Biso   1.000  H
  C180     1.0000 0.75177  0.15062  0.28862  Biso   1.000  C
  H198     1.0000 0.70230  0.18851  0.28281  Biso   1.000  H
  H199     1.0000 0.74421  0.09312  0.27829  Biso   1.000  H
  H200     1.0000 0.75432  0.14373  0.31260  Biso   1.000  H
  C181     1.0000 0.40059  0.49819  0.53863  Biso   1.000  C
  O41      1.0000 0.43988  0.41759  0.52709  Biso   1.000  O
  H201     1.0000 0.43848  0.54773  0.53279  Biso   1.000  H
  H202     1.0000 0.34308  0.50582  0.52829  Biso   1.000  H
  H203     1.0000 0.39369  0.49572  0.56261  Biso   1.000  H
  C182     1.0000 0.52430  0.39510  0.53880  Biso   1.000  C
  C183     1.0000 0.55617  0.31256  0.52885  Biso   1.000  C
  C184     1.0000 0.57478  0.45066  0.55911  Biso   1.000  C
  C185     1.0000 0.50000  0.25003  0.50798  Biso   1.000  C
  C186     1.0000 0.64098  0.28859  0.53988  Biso   1.000  C
  C187     1.0000 0.65825  0.42462  0.57111  Biso   1.000  C
  H204     1.0000 0.55248  0.50669  0.56490  Biso   1.000  H
  H205     1.0000 0.53903  0.21502  0.49360  Biso   1.000  H
  C188     1.0000 0.44383  0.18744  0.52885  Biso   1.000  C
  H206     1.0000 0.46097  0.28498  0.49360  Biso   1.000  H
  H207     1.0000 0.66502  0.23417  0.53289  Biso   1.000  H
  C189     1.0000 0.69052  0.34228  0.56065  Biso   1.000  C
  C190     1.0000 0.71074  0.48293  0.59509  Biso   1.000  C
  C191     1.0000 0.35902  0.21141  0.53988  Biso   1.000  C
  C192     1.0000 0.47570  0.10490  0.53880  Biso   1.000  C
  O42      1.0000 0.77500  0.31992  0.57249  Biso   1.000  O
  H208     1.0000 0.69447  0.54499  0.59139  Biso   1.000  H
  H209     1.0000 0.77413  0.47677  0.59021  Biso   1.000  H
  C193     1.0000 0.69454  0.45970  0.63154  Biso   1.000  C
  H210     1.0000 0.33498  0.26583  0.53289  Biso   1.000  H
  C194     1.0000 0.30948  0.15772  0.56065  Biso   1.000  C
  C195     1.0000 0.42522  0.04934  0.55911  Biso   1.000  C
  O43      1.0000 0.56012  0.08241  0.52709  Biso   1.000  O
  C196     1.0000 0.80171  0.22948  0.57148  Biso   1.000  C
  C197     1.0000 0.74568  0.39490  0.64743  Biso   1.000  C
  C198     1.0000 0.62786  0.50013  0.65007  Biso   1.000  C
  C199     1.0000 0.34175  0.07538  0.57111  Biso   1.000  C
  O44      1.0000 0.22500  0.18008  0.57249  Biso   1.000  O
  H211     1.0000 0.44752  0.99331  0.56490  Biso   1.000  H
  C200     1.0000 0.59941  0.00181  0.53863  Biso   1.000  C
  H212     1.0000 0.80848  0.21101  0.54851  Biso   1.000  H
  H213     1.0000 0.85768  0.22279  0.58300  Biso   1.000  H
  H214     1.0000 0.75713  0.19313  0.58219  Biso   1.000  H
  H215     1.0000 0.79221  0.36759  0.63571  Biso   1.000  H
  C201     1.0000 0.72908  0.36993  0.68048  Biso   1.000  C
  C202     1.0000 0.61340  0.47724  0.68325  Biso   1.000  C
  O45      1.0000 0.57752  0.56380  0.63342  Biso   1.000  O
  C203     1.0000 0.28926  0.01707  0.59509  Biso   1.000  C
  C204     1.0000 0.19829  0.27052  0.57148  Biso   1.000  C
  H216     1.0000 0.60631  0.00428  0.56261  Biso   1.000  H
  H217     1.0000 0.56152  0.95227  0.53279  Biso   1.000  H
  H218     1.0000 0.65692  0.99418  0.52829  Biso   1.000  H
  C205     1.0000 0.66301  0.41217  0.69891  Biso   1.000  C
  O46      1.0000 0.77748  0.30446  0.69700  Biso   1.000  O
  H219     1.0000 0.56888  0.50669  0.69529  Biso   1.000  H
  C206     1.0000 0.50060  0.59533  0.64906  Biso   1.000  C
  H220     1.0000 0.22587  0.02323  0.59021  Biso   1.000  H
  C207     1.0000 0.30546  0.04030  0.63154  Biso   1.000  C
  H221     1.0000 0.30553  0.95501  0.59139  Biso   1.000  H
  H222     1.0000 0.19152  0.28899  0.54851  Biso   1.000  H
  H223     1.0000 0.14232  0.27721  0.58300  Biso   1.000  H
  H224     1.0000 0.24287  0.30687  0.58219  Biso   1.000  H
  C208     1.0000 0.64085  0.38472  0.73468  Biso   1.000  C
  C209     1.0000 0.82267  0.24080  0.67827  Biso   1.000  C
  H225     1.0000 0.51533  0.61688  0.67111  Biso   1.000  H
  H226     1.0000 0.47550  0.64319  0.63599  Biso   1.000  H
  H227     1.0000 0.45783  0.54760  0.65090  Biso   1.000  H
  C210     1.0000 0.25432  0.10510  0.64743  Biso   1.000  C
  C211     1.0000 0.37214  0.99987  0.65007  Biso   1.000  C
  H228     1.0000 0.62231  0.43701  0.74730  Biso   1.000  H
  H229     1.0000 0.69400  0.36042  0.74529  Biso   1.000  H
  C212     1.0000 0.56714  0.31564  0.73554  Biso   1.000  C
  H230     1.0000 0.87281  0.26831  0.66721  Biso   1.000  H
  H231     1.0000 0.84382  0.19427  0.69290  Biso   1.000  H
  H232     1.0000 0.78310  0.21569  0.66181  Biso   1.000  H
  H233     1.0000 0.20779  0.13241  0.63571  Biso   1.000  H
  C213     1.0000 0.27092  0.13007  0.68048  Biso   1.000  C
  C214     1.0000 0.38660  0.02276  0.68325  Biso   1.000  C
  O47      1.0000 0.42248  0.93620  0.63342  Biso   1.000  O
  C215     1.0000 0.58823  0.22560  0.73569  Biso   1.000  C
  C216     1.0000 0.47777  0.33974  0.73536  Biso   1.000  C
  C217     1.0000 0.33699  0.08783  0.69891  Biso   1.000  C
  O48      1.0000 0.22252  0.19554  0.69700  Biso   1.000  O
  H234     1.0000 0.43112  0.99331  0.69529  Biso   1.000  H
  C218     1.0000 0.49940  0.90467  0.64906  Biso   1.000  C
  C219     1.0000 0.52223  0.16026  0.73536  Biso   1.000  C
  H235     1.0000 0.64801  0.20833  0.73609  Biso   1.000  H
  C220     1.0000 0.41177  0.27440  0.73569  Biso   1.000  C
  O49      1.0000 0.45983  0.43045  0.73506  Biso   1.000  O
  C221     1.0000 0.35915  0.11528  0.73468  Biso   1.000  C
  C222     1.0000 0.17733  0.25920  0.67827  Biso   1.000  C
  H236     1.0000 0.48467  0.88312  0.67111  Biso   1.000  H
  H237     1.0000 0.52450  0.85681  0.63599  Biso   1.000  H
  H238     1.0000 0.54217  0.95240  0.65090  Biso   1.000  H
  C223     1.0000 0.43286  0.18436  0.73554  Biso   1.000  C
  O50      1.0000 0.54017  0.06955  0.73506  Biso   1.000  O
  H239     1.0000 0.35199  0.29167  0.73609  Biso   1.000  H
  C224     1.0000 0.37000  0.45843  0.73232  Biso   1.000  C
  H240     1.0000 0.37769  0.06299  0.74730  Biso   1.000  H
  H241     1.0000 0.30600  0.13958  0.74529  Biso   1.000  H
  H242     1.0000 0.12719  0.23169  0.66721  Biso   1.000  H
  H243     1.0000 0.15618  0.30573  0.69290  Biso   1.000  H
  H244     1.0000 0.21690  0.28431  0.66181  Biso   1.000  H
  C225     1.0000 0.63000  0.04157  0.73232  Biso   1.000  C
  H245     1.0000 0.33773  0.44062  0.75211  Biso   1.000  H
  H246     1.0000 0.36792  0.52243  0.73011  Biso   1.000  H
  H247     1.0000 0.34329  0.43132  0.71289  Biso   1.000  H
  H248     1.0000 0.66227  0.05938  0.75211  Biso   1.000  H
  H249     1.0000 0.65671  0.06868  0.71289  Biso   1.000  H
  H250     1.0000 0.63208  0.97757  0.73011  Biso   1.000  H
  C226     1.0000 0.30948  0.65772  0.43935  Biso   1.000  C
  C227     1.0000 0.34175  0.57538  0.42889  Biso   1.000  C
  C228     1.0000 0.35902  0.71141  0.46012  Biso   1.000  C
  O51      1.0000 0.22500  0.68008  0.42751  Biso   1.000  O
  C229     1.0000 0.28926  0.51707  0.40491  Biso   1.000  C
  C230     1.0000 0.42522  0.54934  0.44089  Biso   1.000  C
  C231     1.0000 0.44383  0.68744  0.47115  Biso   1.000  C
  H251     1.0000 0.33498  0.76583  0.46711  Biso   1.000  H
  C232     1.0000 0.19829  0.77052  0.42852  Biso   1.000  C
  C233     1.0000 0.30546  0.54030  0.36846  Biso   1.000  C
  H252     1.0000 0.30553  0.45501  0.40861  Biso   1.000  H
  H253     1.0000 0.22587  0.52323  0.40979  Biso   1.000  H
  H254     1.0000 0.44752  0.49331  0.43510  Biso   1.000  H
  C234     1.0000 0.47570  0.60490  0.46120  Biso   1.000  C
  C235     1.0000 0.50000  0.75003  0.49202  Biso   1.000  C
  H255     1.0000 0.19152  0.78899  0.45149  Biso   1.000  H
  H256     1.0000 0.14232  0.77721  0.41700  Biso   1.000  H
  H257     1.0000 0.24287  0.80687  0.41781  Biso   1.000  H
  C236     1.0000 0.37214  0.49987  0.34993  Biso   1.000  C
  C237     1.0000 0.25432  0.60510  0.35257  Biso   1.000  C
  O52      1.0000 0.56012  0.58241  0.47291  Biso   1.000  O
  H258     1.0000 0.46097  0.78498  0.50640  Biso   1.000  H
  C238     1.0000 0.55617  0.81256  0.47115  Biso   1.000  C
  H259     1.0000 0.53903  0.71502  0.50640  Biso   1.000  H
  C239     1.0000 0.38660  0.52276  0.31675  Biso   1.000  C
  O53      1.0000 0.42248  0.43620  0.36658  Biso   1.000  O
  C240     1.0000 0.27092  0.63007  0.31952  Biso   1.000  C
  H260     1.0000 0.20779  0.63241  0.36429  Biso   1.000  H
  C241     1.0000 0.59941  0.50181  0.46137  Biso   1.000  C
  C242     1.0000 0.64098  0.78859  0.46012  Biso   1.000  C
  C243     1.0000 0.52430  0.89510  0.46120  Biso   1.000  C
  C244     1.0000 0.33699  0.58783  0.30109  Biso   1.000  C
  H261     1.0000 0.43112  0.49331  0.30471  Biso   1.000  H
  C245     1.0000 0.49940  0.40467  0.35094  Biso   1.000  C
  O54      1.0000 0.22252  0.69554  0.30300  Biso   1.000  O
  H262     1.0000 0.56152  0.45227  0.46721  Biso   1.000  H
  H263     1.0000 0.65692  0.49418  0.47171  Biso   1.000  H
  H264     1.0000 0.60631  0.50428  0.43739  Biso   1.000  H
  H265     1.0000 0.66502  0.73417  0.46711  Biso   1.000  H
  C246     1.0000 0.69052  0.84228  0.43935  Biso   1.000  C
  C247     1.0000 0.57478  0.95066  0.44089  Biso   1.000  C
  O55      1.0000 0.43988  0.91759  0.47291  Biso   1.000  O
  C248     1.0000 0.35915  0.61528  0.26532  Biso   1.000  C
  H266     1.0000 0.48467  0.38312  0.32889  Biso   1.000  H
  H267     1.0000 0.52450  0.35681  0.36401  Biso   1.000  H
  H268     1.0000 0.54217  0.45240  0.34910  Biso   1.000  H
  C249     1.0000 0.17733  0.75920  0.32173  Biso   1.000  C
  C250     1.0000 0.65825  0.92462  0.42889  Biso   1.000  C
  O56      1.0000 0.77500  0.81992  0.42751  Biso   1.000  O
  H269     1.0000 0.55248  0.00669  0.43510  Biso   1.000  H
  C251     1.0000 0.40059  0.99819  0.46137  Biso   1.000  C
  H270     1.0000 0.37769  0.56299  0.25270  Biso   1.000  H
  H271     1.0000 0.30600  0.63958  0.25471  Biso   1.000  H
  C252     1.0000 0.43286  0.68436  0.26446  Biso   1.000  C
  H272     1.0000 0.12719  0.73169  0.33279  Biso   1.000  H
  H273     1.0000 0.15618  0.80573  0.30710  Biso   1.000  H
  H274     1.0000 0.21690  0.78431  0.33819  Biso   1.000  H
  C253     1.0000 0.71074  0.98293  0.40491  Biso   1.000  C
  C254     1.0000 0.80171  0.72948  0.42852  Biso   1.000  C
  H275     1.0000 0.39369  0.99572  0.43739  Biso   1.000  H
  H276     1.0000 0.43848  0.04773  0.46721  Biso   1.000  H
  H277     1.0000 0.34308  0.00582  0.47171  Biso   1.000  H
  C255     1.0000 0.41177  0.77440  0.26431  Biso   1.000  C
  C256     1.0000 0.52223  0.66026  0.26464  Biso   1.000  C
  C257     1.0000 0.69454  0.95970  0.36846  Biso   1.000  C
  H278     1.0000 0.77413  0.97677  0.40979  Biso   1.000  H
  H279     1.0000 0.69447  0.04499  0.40861  Biso   1.000  H
  H280     1.0000 0.80848  0.71101  0.45149  Biso   1.000  H
  H281     1.0000 0.85768  0.72279  0.41700  Biso   1.000  H
  H282     1.0000 0.75713  0.69313  0.41781  Biso   1.000  H
  C258     1.0000 0.47777  0.83974  0.26464  Biso   1.000  C
  H283     1.0000 0.35199  0.79167  0.26391  Biso   1.000  H
  C259     1.0000 0.58823  0.72560  0.26431  Biso   1.000  C
  O57      1.0000 0.54017  0.56955  0.26494  Biso   1.000  O
  C260     1.0000 0.74568  0.89490  0.35257  Biso   1.000  C
  C261     1.0000 0.62786  0.00013  0.34993  Biso   1.000  C
  C262     1.0000 0.56714  0.81564  0.26446  Biso   1.000  C
  O58      1.0000 0.45983  0.93045  0.26494  Biso   1.000  O
  H284     1.0000 0.64801  0.70833  0.26391  Biso   1.000  H
  C263     1.0000 0.63000  0.54157  0.26768  Biso   1.000  C
  C264     1.0000 0.72908  0.86993  0.31952  Biso   1.000  C
  H285     1.0000 0.79221  0.86759  0.36429  Biso   1.000  H
  C265     1.0000 0.61340  0.97724  0.31675  Biso   1.000  C
  O59      1.0000 0.57752  0.06380  0.36658  Biso   1.000  O
  C266     1.0000 0.64085  0.88472  0.26532  Biso   1.000  C
  C267     1.0000 0.37000  0.95843  0.26768  Biso   1.000  C
  H286     1.0000 0.66227  0.55938  0.24789  Biso   1.000  H
  H287     1.0000 0.63208  0.47757  0.26989  Biso   1.000  H
  H288     1.0000 0.65671  0.56868  0.28711  Biso   1.000  H
  C268     1.0000 0.66301  0.91217  0.30109  Biso   1.000  C
  O60      1.0000 0.77748  0.80446  0.30300  Biso   1.000  O
  H289     1.0000 0.56888  0.00669  0.30471  Biso   1.000  H
  C269     1.0000 0.50060  0.09533  0.35094  Biso   1.000  C
  H290     1.0000 0.62231  0.93701  0.25270  Biso   1.000  H
  H291     1.0000 0.69400  0.86042  0.25471  Biso   1.000  H
  H292     1.0000 0.33773  0.94062  0.24789  Biso   1.000  H
  H293     1.0000 0.34329  0.93132  0.28711  Biso   1.000  H
  H294     1.0000 0.36792  0.02243  0.26989  Biso   1.000  H
  C270     1.0000 0.82267  0.74080  0.32173  Biso   1.000  C
  H295     1.0000 0.51533  0.11688  0.32889  Biso   1.000  H
  H296     1.0000 0.47550  0.14319  0.36401  Biso   1.000  H
  H297     1.0000 0.45783  0.04760  0.34910  Biso   1.000  H
  H298     1.0000 0.87281  0.76831  0.33279  Biso   1.000  H
  H299     1.0000 0.84382  0.69427  0.30710  Biso   1.000  H
  H300     1.0000 0.78310  0.71569  0.33819  Biso   1.000  H
  C271     1.0000 0.13000  0.54157  0.23231  Biso   1.000  C
  H301     1.0000 0.16227  0.55938  0.25209  Biso   1.000  H
  H302     1.0000 0.13208  0.47757  0.23010  Biso   1.000  H
  H303     1.0000 0.15671  0.56868  0.21290  Biso   1.000  H
  O61      1.0000 0.04017  0.56955  0.23505  Biso   1.000  O
  C272     1.0000 0.02223  0.66026  0.23535  Biso   1.000  C
  C273     1.0000 0.08823  0.72560  0.23570  Biso   1.000  C
  C274     1.0000 0.93286  0.68436  0.23555  Biso   1.000  C
  C275     1.0000 0.06714  0.81564  0.23555  Biso   1.000  C
  H304     1.0000 0.14801  0.70833  0.23610  Biso   1.000  H
  C276     1.0000 0.91177  0.77440  0.23570  Biso   1.000  C
  C277     1.0000 0.85915  0.61528  0.23470  Biso   1.000  C
  C278     1.0000 0.14085  0.88472  0.23470  Biso   1.000  C
  C279     1.0000 0.97777  0.83974  0.23535  Biso   1.000  C
  H305     1.0000 0.85199  0.79167  0.23610  Biso   1.000  H
  C280     1.0000 0.83699  0.58783  0.19890  Biso   1.000  C
  H306     1.0000 0.87769  0.56299  0.24729  Biso   1.000  H
  H307     1.0000 0.80600  0.63958  0.24531  Biso   1.000  H
  C281     1.0000 0.16301  0.91217  0.19890  Biso   1.000  C
  H308     1.0000 0.12231  0.93701  0.24729  Biso   1.000  H
  H309     1.0000 0.19400  0.86042  0.24531  Biso   1.000  H
  O62      1.0000 0.95983  0.93045  0.23505  Biso   1.000  O
  C282     1.0000 0.77092  0.63007  0.18050  Biso   1.000  C
  C283     1.0000 0.88660  0.52276  0.18326  Biso   1.000  C
  C284     1.0000 0.22908  0.86993  0.18050  Biso   1.000  C
  C285     1.0000 0.11340  0.97724  0.18326  Biso   1.000  C
  C286     1.0000 0.87000  0.95843  0.23231  Biso   1.000  C
  C287     1.0000 0.75432  0.60510  0.14744  Biso   1.000  C
  O63      1.0000 0.72252  0.69554  0.19701  Biso   1.000  O
  H310     1.0000 0.93112  0.49331  0.19530  Biso   1.000  H
  C288     1.0000 0.87214  0.49987  0.15005  Biso   1.000  C
  C289     1.0000 0.24568  0.89490  0.14744  Biso   1.000  C
  O64      1.0000 0.27748  0.80446  0.19701  Biso   1.000  O
  H311     1.0000 0.06888  0.00669  0.19530  Biso   1.000  H
  C290     1.0000 0.12786  0.00013  0.15005  Biso   1.000  C
  H312     1.0000 0.83773  0.94062  0.25209  Biso   1.000  H
  H313     1.0000 0.84329  0.93132  0.21290  Biso   1.000  H
  H314     1.0000 0.86792  0.02243  0.23010  Biso   1.000  H
  C291     1.0000 0.80546  0.54030  0.13153  Biso   1.000  C
  H315     1.0000 0.70779  0.63241  0.13570  Biso   1.000  H
  C292     1.0000 0.67733  0.75920  0.17829  Biso   1.000  C
  O65      1.0000 0.92248  0.43620  0.13344  Biso   1.000  O
  C293     1.0000 0.19454  0.95970  0.13153  Biso   1.000  C
  H316     1.0000 0.29221  0.86759  0.13570  Biso   1.000  H
  C294     1.0000 0.32267  0.74080  0.17829  Biso   1.000  C
  O66      1.0000 0.07752  0.06380  0.13344  Biso   1.000  O
  C295     1.0000 0.78926  0.51707  0.09510  Biso   1.000  C
  H317     1.0000 0.62719  0.73169  0.16720  Biso   1.000  H
  H318     1.0000 0.65618  0.80573  0.19289  Biso   1.000  H
  H319     1.0000 0.71690  0.78431  0.16179  Biso   1.000  H
  C296     1.0000 0.99940  0.40467  0.14905  Biso   1.000  C
  C297     1.0000 0.21074  0.98293  0.09510  Biso   1.000  C
  H320     1.0000 0.37281  0.76831  0.16720  Biso   1.000  H
  H321     1.0000 0.34382  0.69427  0.19289  Biso   1.000  H
  H322     1.0000 0.28310  0.71569  0.16179  Biso   1.000  H
  C298     1.0000 0.00060  0.09533  0.14905  Biso   1.000  C
  C299     1.0000 0.84175  0.57538  0.07109  Biso   1.000  C
  H323     1.0000 0.80553  0.45501  0.09141  Biso   1.000  H
  H324     1.0000 0.72587  0.52323  0.09020  Biso   1.000  H
  H325     1.0000 0.02450  0.35681  0.13600  Biso   1.000  H
  H326     1.0000 0.04217  0.45240  0.15091  Biso   1.000  H
  H327     1.0000 0.98467  0.38312  0.17110  Biso   1.000  H
  C300     1.0000 0.15825  0.92462  0.07109  Biso   1.000  C
  H328     1.0000 0.27413  0.97677  0.09020  Biso   1.000  H
  H329     1.0000 0.19447  0.04499  0.09141  Biso   1.000  H
  H330     1.0000 0.97550  0.14319  0.13600  Biso   1.000  H
  H331     1.0000 0.95783  0.04760  0.15091  Biso   1.000  H
  H332     1.0000 0.01533  0.11688  0.17110  Biso   1.000  H
  C301     1.0000 0.80948  0.65772  0.06064  Biso   1.000  C
  C302     1.0000 0.92522  0.54934  0.05910  Biso   1.000  C
  C303     1.0000 0.19052  0.84228  0.06064  Biso   1.000  C
  C304     1.0000 0.07478  0.95066  0.05910  Biso   1.000  C
  C305     1.0000 0.85902  0.71141  0.03987  Biso   1.000  C
  O67      1.0000 0.72500  0.68008  0.07250  Biso   1.000  O
  H333     1.0000 0.94752  0.49331  0.06491  Biso   1.000  H
  C306     1.0000 0.97570  0.60490  0.03879  Biso   1.000  C
  C307     1.0000 0.14098  0.78859  0.03987  Biso   1.000  C
  O68      1.0000 0.27500  0.81992  0.07250  Biso   1.000  O
  C308     1.0000 0.02430  0.89510  0.03879  Biso   1.000  C
  H334     1.0000 0.05248  0.00669  0.06491  Biso   1.000  H
  C309     1.0000 0.94383  0.68744  0.02883  Biso   1.000  C
  H335     1.0000 0.83498  0.76583  0.03291  Biso   1.000  H
  C310     1.0000 0.69829  0.77052  0.07147  Biso   1.000  C
  O69      1.0000 0.06012  0.58241  0.02710  Biso   1.000  O
  C311     1.0000 0.05617  0.81256  0.02883  Biso   1.000  C
  H336     1.0000 0.16502  0.73417  0.03291  Biso   1.000  H
  C312     1.0000 0.30171  0.72948  0.07147  Biso   1.000  C
  O70      1.0000 0.93988  0.91759  0.02710  Biso   1.000  O
  C313     1.0000 0.00000  0.75003  0.00797  Biso   1.000  C
  H337     1.0000 0.69152  0.78899  0.04849  Biso   1.000  H
  H338     1.0000 0.64232  0.77721  0.08301  Biso   1.000  H
  H339     1.0000 0.74287  0.80687  0.08220  Biso   1.000  H
  C314     1.0000 0.09941  0.50181  0.03861  Biso   1.000  C
  H340     1.0000 0.30848  0.71101  0.04849  Biso   1.000  H
  H341     1.0000 0.35768  0.72279  0.08301  Biso   1.000  H
  H342     1.0000 0.25713  0.69313  0.08220  Biso   1.000  H
  C315     1.0000 0.90059  0.99819  0.03861  Biso   1.000  C
  H343     1.0000 0.96097  0.78498  0.99359  Biso   1.000  H
  H344     1.0000 0.03903  0.71502  0.99359  Biso   1.000  H
  H345     1.0000 0.06152  0.45227  0.03281  Biso   1.000  H
  H346     1.0000 0.15692  0.49418  0.02831  Biso   1.000  H
  H347     1.0000 0.10631  0.50428  0.06260  Biso   1.000  H
  H348     1.0000 0.89369  0.99572  0.06260  Biso   1.000  H
  H349     1.0000 0.93848  0.04773  0.03281  Biso   1.000  H
  H350     1.0000 0.84308  0.00582  0.02831  Biso   1.000  H
  C316     1.0000 0.13000  0.54157  0.23231  Biso   1.000  C
  H351     1.0000 0.16227  0.55938  0.25209  Biso   1.000  H
  H352     1.0000 0.13208  0.47757  0.23010  Biso   1.000  H
  H353     1.0000 0.15671  0.56868  0.21290  Biso   1.000  H
  O71      1.0000 0.04017  0.56955  0.23505  Biso   1.000  O
  C317     1.0000 0.02223  0.66026  0.23535  Biso   1.000  C
  C318     1.0000 0.08823  0.72560  0.23570  Biso   1.000  C
  C319     1.0000 0.93286  0.68436  0.23555  Biso   1.000  C
  C320     1.0000 0.06714  0.81564  0.23555  Biso   1.000  C
  H354     1.0000 0.14801  0.70833  0.23610  Biso   1.000  H
  C321     1.0000 0.91177  0.77440  0.23570  Biso   1.000  C
  C322     1.0000 0.85915  0.61528  0.23470  Biso   1.000  C
  C323     1.0000 0.14085  0.88472  0.23470  Biso   1.000  C
  C324     1.0000 0.97777  0.83974  0.23535  Biso   1.000  C
  H355     1.0000 0.85199  0.79167  0.23610  Biso   1.000  H
  C325     1.0000 0.83699  0.58783  0.19890  Biso   1.000  C
  H356     1.0000 0.87769  0.56299  0.24729  Biso   1.000  H
  H357     1.0000 0.80600  0.63958  0.24531  Biso   1.000  H
  C326     1.0000 0.16301  0.91217  0.19890  Biso   1.000  C
  H358     1.0000 0.12231  0.93701  0.24729  Biso   1.000  H
  H359     1.0000 0.19400  0.86042  0.24531  Biso   1.000  H
  O72      1.0000 0.95983  0.93045  0.23505  Biso   1.000  O
  C327     1.0000 0.77092  0.63007  0.18050  Biso   1.000  C
  C328     1.0000 0.88660  0.52276  0.18326  Biso   1.000  C
  C329     1.0000 0.22908  0.86993  0.18050  Biso   1.000  C
  C330     1.0000 0.11340  0.97724  0.18326  Biso   1.000  C
  C331     1.0000 0.87000  0.95843  0.23231  Biso   1.000  C
  C332     1.0000 0.75432  0.60510  0.14744  Biso   1.000  C
  O73      1.0000 0.72252  0.69554  0.19701  Biso   1.000  O
  H360     1.0000 0.93112  0.49331  0.19530  Biso   1.000  H
  C333     1.0000 0.87214  0.49987  0.15005  Biso   1.000  C
  C334     1.0000 0.24568  0.89490  0.14744  Biso   1.000  C
  O74      1.0000 0.27748  0.80446  0.19701  Biso   1.000  O
  H361     1.0000 0.06888  0.00669  0.19530  Biso   1.000  H
  C335     1.0000 0.12786  0.00013  0.15005  Biso   1.000  C
  H362     1.0000 0.83773  0.94062  0.25209  Biso   1.000  H
  H363     1.0000 0.84329  0.93132  0.21290  Biso   1.000  H
  H364     1.0000 0.86792  0.02243  0.23010  Biso   1.000  H
  C336     1.0000 0.80546  0.54030  0.13153  Biso   1.000  C
  H365     1.0000 0.70779  0.63241  0.13570  Biso   1.000  H
  C337     1.0000 0.67733  0.75920  0.17829  Biso   1.000  C
  O75      1.0000 0.92248  0.43620  0.13344  Biso   1.000  O
  C338     1.0000 0.19454  0.95970  0.13153  Biso   1.000  C
  H366     1.0000 0.29221  0.86759  0.13570  Biso   1.000  H
  C339     1.0000 0.32267  0.74080  0.17829  Biso   1.000  C
  O76      1.0000 0.07752  0.06380  0.13344  Biso   1.000  O
  C340     1.0000 0.78926  0.51707  0.09510  Biso   1.000  C
  H367     1.0000 0.62719  0.73169  0.16720  Biso   1.000  H
  H368     1.0000 0.65618  0.80573  0.19289  Biso   1.000  H
  H369     1.0000 0.71690  0.78431  0.16179  Biso   1.000  H
  C341     1.0000 0.99940  0.40467  0.14905  Biso   1.000  C
  C342     1.0000 0.21074  0.98293  0.09510  Biso   1.000  C
  H370     1.0000 0.37281  0.76831  0.16720  Biso   1.000  H
  H371     1.0000 0.34382  0.69427  0.19289  Biso   1.000  H
  H372     1.0000 0.28310  0.71569  0.16179  Biso   1.000  H
  C343     1.0000 0.00060  0.09533  0.14905  Biso   1.000  C
  C344     1.0000 0.84175  0.57538  0.07109  Biso   1.000  C
  H373     1.0000 0.80553  0.45501  0.09141  Biso   1.000  H
  H374     1.0000 0.72587  0.52323  0.09020  Biso   1.000  H
  H375     1.0000 0.02450  0.35681  0.13600  Biso   1.000  H
  H376     1.0000 0.04217  0.45240  0.15091  Biso   1.000  H
  H377     1.0000 0.98467  0.38312  0.17110  Biso   1.000  H
  C345     1.0000 0.15825  0.92462  0.07109  Biso   1.000  C
  H378     1.0000 0.27413  0.97677  0.09020  Biso   1.000  H
  H379     1.0000 0.19447  0.04499  0.09141  Biso   1.000  H
  H380     1.0000 0.97550  0.14319  0.13600  Biso   1.000  H
  H381     1.0000 0.95783  0.04760  0.15091  Biso   1.000  H
  H382     1.0000 0.01533  0.11688  0.17110  Biso   1.000  H
  C346     1.0000 0.80948  0.65772  0.06064  Biso   1.000  C
  C347     1.0000 0.92522  0.54934  0.05910  Biso   1.000  C
  C348     1.0000 0.19052  0.84228  0.06064  Biso   1.000  C
  C349     1.0000 0.07478  0.95066  0.05910  Biso   1.000  C
  C350     1.0000 0.85902  0.71141  0.03987  Biso   1.000  C
  O77      1.0000 0.72500  0.68008  0.07250  Biso   1.000  O
  H383     1.0000 0.94752  0.49331  0.06491  Biso   1.000  H
  C351     1.0000 0.97570  0.60490  0.03879  Biso   1.000  C
  C352     1.0000 0.14098  0.78859  0.03987  Biso   1.000  C
  O78      1.0000 0.27500  0.81992  0.07250  Biso   1.000  O
  C353     1.0000 0.02430  0.89510  0.03879  Biso   1.000  C
  H384     1.0000 0.05248  0.00669  0.06491  Biso   1.000  H
  C354     1.0000 0.94383  0.68744  0.02883  Biso   1.000  C
  H385     1.0000 0.83498  0.76583  0.03291  Biso   1.000  H
  C355     1.0000 0.69829  0.77052  0.07147  Biso   1.000  C
  O79      1.0000 0.06012  0.58241  0.02710  Biso   1.000  O
  C356     1.0000 0.05617  0.81256  0.02883  Biso   1.000  C
  H386     1.0000 0.16502  0.73417  0.03291  Biso   1.000  H
  C357     1.0000 0.30171  0.72948  0.07147  Biso   1.000  C
  O80      1.0000 0.93988  0.91759  0.02710  Biso   1.000  O
  C358     1.0000 0.00000  0.75003  0.00797  Biso   1.000  C
  H387     1.0000 0.69152  0.78899  0.04849  Biso   1.000  H
  H388     1.0000 0.64232  0.77721  0.08301  Biso   1.000  H
  H389     1.0000 0.74287  0.80687  0.08220  Biso   1.000  H
  C359     1.0000 0.09941  0.50181  0.03861  Biso   1.000  C
  H390     1.0000 0.30848  0.71101  0.04849  Biso   1.000  H
  H391     1.0000 0.35768  0.72279  0.08301  Biso   1.000  H
  H392     1.0000 0.25713  0.69313  0.08220  Biso   1.000  H
  C360     1.0000 0.90059  0.99819  0.03861  Biso   1.000  C
  H393     1.0000 0.96097  0.78498  0.99359  Biso   1.000  H
  H394     1.0000 0.03903  0.71502  0.99359  Biso   1.000  H
  H395     1.0000 0.06152  0.45227  0.03281  Biso   1.000  H
  H396     1.0000 0.15692  0.49418  0.02831  Biso   1.000  H
  H397     1.0000 0.10631  0.50428  0.06260  Biso   1.000  H
  H398     1.0000 0.89369  0.99572  0.06260  Biso   1.000  H
  H399     1.0000 0.93848  0.04773  0.03281  Biso   1.000  H
  H400     1.0000 0.84308  0.00582  0.02831  Biso   1.000  H
  C361     1.0000 0.14085  0.38472  0.76530  Biso   1.000  C
  C362     1.0000 0.06714  0.31564  0.76445  Biso   1.000  C
  C363     1.0000 0.16301  0.41217  0.80110  Biso   1.000  C
  H401     1.0000 0.12231  0.43701  0.75271  Biso   1.000  H
  H402     1.0000 0.19400  0.36042  0.75469  Biso   1.000  H
  C364     1.0000 0.08823  0.22560  0.76430  Biso   1.000  C
  C365     1.0000 0.97777  0.33974  0.76465  Biso   1.000  C
  C366     1.0000 0.22908  0.36993  0.81950  Biso   1.000  C
  C367     1.0000 0.11340  0.47724  0.81674  Biso   1.000  C
  C368     1.0000 0.02223  0.16026  0.76465  Biso   1.000  C
  H403     1.0000 0.14801  0.20833  0.76390  Biso   1.000  H
  C369     1.0000 0.91177  0.27440  0.76430  Biso   1.000  C
  O81      1.0000 0.95983  0.43045  0.76495  Biso   1.000  O
  C370     1.0000 0.24568  0.39490  0.85256  Biso   1.000  C
  O82      1.0000 0.27748  0.30446  0.80299  Biso   1.000  O
  H404     1.0000 0.06888  0.50669  0.80470  Biso   1.000  H
  C371     1.0000 0.12786  0.50013  0.84995  Biso   1.000  C
  O83      1.0000 0.04017  0.06955  0.76495  Biso   1.000  O
  C372     1.0000 0.93286  0.18436  0.76445  Biso   1.000  C
  H405     1.0000 0.85199  0.29167  0.76390  Biso   1.000  H
  C373     1.0000 0.87000  0.45843  0.76769  Biso   1.000  C
  C374     1.0000 0.19454  0.45970  0.86847  Biso   1.000  C
  H406     1.0000 0.29221  0.36759  0.86430  Biso   1.000  H
  C375     1.0000 0.32267  0.24080  0.82171  Biso   1.000  C
  O84      1.0000 0.07752  0.56380  0.86656  Biso   1.000  O
  C376     1.0000 0.13000  0.04157  0.76769  Biso   1.000  C
  C377     1.0000 0.85915  0.11528  0.76530  Biso   1.000  C
  H407     1.0000 0.83773  0.44062  0.74791  Biso   1.000  H
  H408     1.0000 0.86792  0.52243  0.76990  Biso   1.000  H
  H409     1.0000 0.84329  0.43132  0.78710  Biso   1.000  H
  C378     1.0000 0.21074  0.48293  0.90490  Biso   1.000  C
  H410     1.0000 0.37281  0.26831  0.83280  Biso   1.000  H
  H411     1.0000 0.34382  0.19427  0.80711  Biso   1.000  H
  H412     1.0000 0.28310  0.21569  0.83821  Biso   1.000  H
  C379     1.0000 0.00060  0.59533  0.85095  Biso   1.000  C
  H413     1.0000 0.16227  0.05938  0.74791  Biso   1.000  H
  H414     1.0000 0.15671  0.06868  0.78710  Biso   1.000  H
  H415     1.0000 0.13208  0.97757  0.76990  Biso   1.000  H
  C380     1.0000 0.83699  0.08783  0.80110  Biso   1.000  C
  H416     1.0000 0.87769  0.06299  0.75271  Biso   1.000  H
  H417     1.0000 0.80600  0.13958  0.75469  Biso   1.000  H
  C381     1.0000 0.15825  0.42462  0.92891  Biso   1.000  C
  H418     1.0000 0.19447  0.54499  0.90859  Biso   1.000  H
  H419     1.0000 0.27413  0.47677  0.90980  Biso   1.000  H
  H420     1.0000 0.01533  0.61688  0.82890  Biso   1.000  H
  H421     1.0000 0.97550  0.64319  0.86400  Biso   1.000  H
  H422     1.0000 0.95783  0.54760  0.84909  Biso   1.000  H
  C382     1.0000 0.77092  0.13007  0.81950  Biso   1.000  C
  C383     1.0000 0.88660  0.02276  0.81674  Biso   1.000  C
  C384     1.0000 0.19052  0.34228  0.93936  Biso   1.000  C
  C385     1.0000 0.07478  0.45066  0.94090  Biso   1.000  C
  C386     1.0000 0.75432  0.10510  0.85256  Biso   1.000  C
  O85      1.0000 0.72252  0.19554  0.80299  Biso   1.000  O
  H423     1.0000 0.93112  0.99331  0.80470  Biso   1.000  H
  C387     1.0000 0.87214  0.99987  0.84995  Biso   1.000  C
  C388     1.0000 0.14098  0.28859  0.96013  Biso   1.000  C
  O86      1.0000 0.27500  0.31992  0.92750  Biso   1.000  O
  H424     1.0000 0.05248  0.50669  0.93509  Biso   1.000  H
  C389     1.0000 0.02430  0.39510  0.96121  Biso   1.000  C
  C390     1.0000 0.80546  0.04030  0.86847  Biso   1.000  C
  H425     1.0000 0.70779  0.13241  0.86430  Biso   1.000  H
  C391     1.0000 0.67733  0.25920  0.82171  Biso   1.000  C
  O87      1.0000 0.92248  0.93620  0.86656  Biso   1.000  O
  C392     1.0000 0.05617  0.31256  0.97117  Biso   1.000  C
  H426     1.0000 0.16502  0.23417  0.96709  Biso   1.000  H
  C393     1.0000 0.30171  0.22948  0.92853  Biso   1.000  C
  O88      1.0000 0.93988  0.41759  0.97290  Biso   1.000  O
  C394     1.0000 0.78926  0.01707  0.90490  Biso   1.000  C
  H427     1.0000 0.62719  0.23169  0.83280  Biso   1.000  H
  H428     1.0000 0.65618  0.30573  0.80711  Biso   1.000  H
  H429     1.0000 0.71690  0.28431  0.83821  Biso   1.000  H
  C395     1.0000 0.99940  0.90467  0.85095  Biso   1.000  C
  C396     1.0000 0.00000  0.25003  0.99203  Biso   1.000  C
  H430     1.0000 0.30848  0.21101  0.95151  Biso   1.000  H
  H431     1.0000 0.35768  0.22279  0.91699  Biso   1.000  H
  H432     1.0000 0.25713  0.19313  0.91780  Biso   1.000  H
  C397     1.0000 0.90059  0.49819  0.96139  Biso   1.000  C
  H433     1.0000 0.80553  0.95501  0.90859  Biso   1.000  H
  C398     1.0000 0.84175  0.07538  0.92891  Biso   1.000  C
  H434     1.0000 0.72587  0.02323  0.90980  Biso   1.000  H
  H435     1.0000 0.98467  0.88312  0.82890  Biso   1.000  H
  H436     1.0000 0.02450  0.85681  0.86400  Biso   1.000  H
  H437     1.0000 0.04217  0.95240  0.84909  Biso   1.000  H
  C399     1.0000 0.94383  0.18744  0.97117  Biso   1.000  C
  H438     1.0000 0.96097  0.28498  0.00641  Biso   1.000  H
  H439     1.0000 0.03903  0.21502  0.00641  Biso   1.000  H
  H440     1.0000 0.93848  0.54773  0.96719  Biso   1.000  H
  H441     1.0000 0.84308  0.50582  0.97169  Biso   1.000  H
  H442     1.0000 0.89369  0.49572  0.93740  Biso   1.000  H
  C400     1.0000 0.80948  0.15772  0.93936  Biso   1.000  C
  C401     1.0000 0.92522  0.04934  0.94090  Biso   1.000  C
  C402     1.0000 0.85902  0.21141  0.96013  Biso   1.000  C
  C403     1.0000 0.97570  0.10490  0.96121  Biso   1.000  C
  O89      1.0000 0.72500  0.18008  0.92750  Biso   1.000  O
  H443     1.0000 0.94752  0.99331  0.93509  Biso   1.000  H
  H444     1.0000 0.83498  0.26583  0.96709  Biso   1.000  H
  O90      1.0000 0.06012  0.08241  0.97290  Biso   1.000  O
  C404     1.0000 0.69829  0.27052  0.92853  Biso   1.000  C
  C405     1.0000 0.09941  0.00181  0.96139  Biso   1.000  C
  H445     1.0000 0.69152  0.28899  0.95151  Biso   1.000  H
  H446     1.0000 0.64232  0.27721  0.91699  Biso   1.000  H
  H447     1.0000 0.74287  0.30687  0.91780  Biso   1.000  H
  H448     1.0000 0.10631  0.00428  0.93740  Biso   1.000  H
  H449     1.0000 0.06152  0.95227  0.96719  Biso   1.000  H
  H450     1.0000 0.15692  0.99418  0.97169  Biso   1.000  H
  C406     1.0000 0.14085  0.38472  0.76530  Biso   1.000  C
  C407     1.0000 0.06714  0.31564  0.76445  Biso   1.000  C
  C408     1.0000 0.16301  0.41217  0.80110  Biso   1.000  C
  H451     1.0000 0.12231  0.43701  0.75271  Biso   1.000  H
  H452     1.0000 0.19400  0.36042  0.75469  Biso   1.000  H
  C409     1.0000 0.08823  0.22560  0.76430  Biso   1.000  C
  C410     1.0000 0.97777  0.33974  0.76465  Biso   1.000  C
  C411     1.0000 0.22908  0.36993  0.81950  Biso   1.000  C
  C412     1.0000 0.11340  0.47724  0.81674  Biso   1.000  C
  C413     1.0000 0.02223  0.16026  0.76465  Biso   1.000  C
  H453     1.0000 0.14801  0.20833  0.76390  Biso   1.000  H
  C414     1.0000 0.91177  0.27440  0.76430  Biso   1.000  C
  O91      1.0000 0.95983  0.43045  0.76495  Biso   1.000  O
  C415     1.0000 0.24568  0.39490  0.85256  Biso   1.000  C
  O92      1.0000 0.27748  0.30446  0.80299  Biso   1.000  O
  H454     1.0000 0.06888  0.50669  0.80470  Biso   1.000  H
  C416     1.0000 0.12786  0.50013  0.84995  Biso   1.000  C
  O93      1.0000 0.04017  0.06955  0.76495  Biso   1.000  O
  C417     1.0000 0.93286  0.18436  0.76445  Biso   1.000  C
  H455     1.0000 0.85199  0.29167  0.76390  Biso   1.000  H
  C418     1.0000 0.87000  0.45843  0.76769  Biso   1.000  C
  C419     1.0000 0.19454  0.45970  0.86847  Biso   1.000  C
  H456     1.0000 0.29221  0.36759  0.86430  Biso   1.000  H
  C420     1.0000 0.32267  0.24080  0.82171  Biso   1.000  C
  O94      1.0000 0.07752  0.56380  0.86656  Biso   1.000  O
  C421     1.0000 0.13000  0.04157  0.76769  Biso   1.000  C
  C422     1.0000 0.85915  0.11528  0.76530  Biso   1.000  C
  H457     1.0000 0.83773  0.44062  0.74791  Biso   1.000  H
  H458     1.0000 0.86792  0.52243  0.76990  Biso   1.000  H
  H459     1.0000 0.84329  0.43132  0.78710  Biso   1.000  H
  C423     1.0000 0.21074  0.48293  0.90490  Biso   1.000  C
  H460     1.0000 0.37281  0.26831  0.83280  Biso   1.000  H
  H461     1.0000 0.34382  0.19427  0.80711  Biso   1.000  H
  H462     1.0000 0.28310  0.21569  0.83821  Biso   1.000  H
  C424     1.0000 0.00060  0.59533  0.85095  Biso   1.000  C
  H463     1.0000 0.16227  0.05938  0.74791  Biso   1.000  H
  H464     1.0000 0.15671  0.06868  0.78710  Biso   1.000  H
  H465     1.0000 0.13208  0.97757  0.76990  Biso   1.000  H
  C425     1.0000 0.83699  0.08783  0.80110  Biso   1.000  C
  H466     1.0000 0.87769  0.06299  0.75271  Biso   1.000  H
  H467     1.0000 0.80600  0.13958  0.75469  Biso   1.000  H
  C426     1.0000 0.15825  0.42462  0.92891  Biso   1.000  C
  H468     1.0000 0.19447  0.54499  0.90859  Biso   1.000  H
  H469     1.0000 0.27413  0.47677  0.90980  Biso   1.000  H
  H470     1.0000 0.01533  0.61688  0.82890  Biso   1.000  H
  H471     1.0000 0.97550  0.64319  0.86400  Biso   1.000  H
  H472     1.0000 0.95783  0.54760  0.84909  Biso   1.000  H
  C427     1.0000 0.77092  0.13007  0.81950  Biso   1.000  C
  C428     1.0000 0.88660  0.02276  0.81674  Biso   1.000  C
  C429     1.0000 0.19052  0.34228  0.93936  Biso   1.000  C
  C430     1.0000 0.07478  0.45066  0.94090  Biso   1.000  C
  C431     1.0000 0.75432  0.10510  0.85256  Biso   1.000  C
  O95      1.0000 0.72252  0.19554  0.80299  Biso   1.000  O
  H473     1.0000 0.93112  0.99331  0.80470  Biso   1.000  H
  C432     1.0000 0.87214  0.99987  0.84995  Biso   1.000  C
  C433     1.0000 0.14098  0.28859  0.96013  Biso   1.000  C
  O96      1.0000 0.27500  0.31992  0.92750  Biso   1.000  O
  H474     1.0000 0.05248  0.50669  0.93509  Biso   1.000  H
  C434     1.0000 0.02430  0.39510  0.96121  Biso   1.000  C
  C435     1.0000 0.80546  0.04030  0.86847  Biso   1.000  C
  H475     1.0000 0.70779  0.13241  0.86430  Biso   1.000  H
  C436     1.0000 0.67733  0.25920  0.82171  Biso   1.000  C
  O97      1.0000 0.92248  0.93620  0.86656  Biso   1.000  O
  C437     1.0000 0.05617  0.31256  0.97117  Biso   1.000  C
  H476     1.0000 0.16502  0.23417  0.96709  Biso   1.000  H
  C438     1.0000 0.30171  0.22948  0.92853  Biso   1.000  C
  O98      1.0000 0.93988  0.41759  0.97290  Biso   1.000  O
  C439     1.0000 0.78926  0.01707  0.90490  Biso   1.000  C
  H477     1.0000 0.62719  0.23169  0.83280  Biso   1.000  H
  H478     1.0000 0.65618  0.30573  0.80711  Biso   1.000  H
  H479     1.0000 0.71690  0.28431  0.83821  Biso   1.000  H
  C440     1.0000 0.99940  0.90467  0.85095  Biso   1.000  C
  C441     1.0000 0.00000  0.25003  0.99203  Biso   1.000  C
  H480     1.0000 0.30848  0.21101  0.95151  Biso   1.000  H
  H481     1.0000 0.35768  0.22279  0.91699  Biso   1.000  H
  H482     1.0000 0.25713  0.19313  0.91780  Biso   1.000  H
  C442     1.0000 0.90059  0.49819  0.96139  Biso   1.000  C
  H483     1.0000 0.80553  0.95501  0.90859  Biso   1.000  H
  C443     1.0000 0.84175  0.07538  0.92891  Biso   1.000  C
  H484     1.0000 0.72587  0.02323  0.90980  Biso   1.000  H
  H485     1.0000 0.98467  0.88312  0.82890  Biso   1.000  H
  H486     1.0000 0.02450  0.85681  0.86400  Biso   1.000  H
  H487     1.0000 0.04217  0.95240  0.84909  Biso   1.000  H
  C444     1.0000 0.94383  0.18744  0.97117  Biso   1.000  C
  H488     1.0000 0.96097  0.28498  0.00641  Biso   1.000  H
  H489     1.0000 0.03903  0.21502  0.00641  Biso   1.000  H
  H490     1.0000 0.93848  0.54773  0.96719  Biso   1.000  H
  H491     1.0000 0.84308  0.50582  0.97169  Biso   1.000  H
  H492     1.0000 0.89369  0.49572  0.93740  Biso   1.000  H
  C445     1.0000 0.80948  0.15772  0.93936  Biso   1.000  C
  C446     1.0000 0.92522  0.04934  0.94090  Biso   1.000  C
  C447     1.0000 0.85902  0.21141  0.96013  Biso   1.000  C
  C448     1.0000 0.97570  0.10490  0.96121  Biso   1.000  C
  O99      1.0000 0.72500  0.18008  0.92750  Biso   1.000  O
  H493     1.0000 0.94752  0.99331  0.93509  Biso   1.000  H
  H494     1.0000 0.83498  0.26583  0.96709  Biso   1.000  H
  O100     1.0000 0.06012  0.08241  0.97290  Biso   1.000  O
  C449     1.0000 0.69829  0.27052  0.92853  Biso   1.000  C
  C450     1.0000 0.09941  0.00181  0.96139  Biso   1.000  C
  H495     1.0000 0.69152  0.28899  0.95151  Biso   1.000  H
  H496     1.0000 0.64232  0.27721  0.91699  Biso   1.000  H
  H497     1.0000 0.74287  0.30687  0.91780  Biso   1.000  H
  H498     1.0000 0.10631  0.00428  0.93740  Biso   1.000  H
  H499     1.0000 0.06152  0.95227  0.96719  Biso   1.000  H
  H500     1.0000 0.15692  0.99418  0.97169  Biso   1.000  H
  O101     1.0000 0.33244  0.68992  0.77709  Biso   1.000  O
  C451     1.0000 0.35487  0.77427  0.78878  Biso   1.000  C
  C452     1.0000 0.25177  0.65062  0.78863  Biso   1.000  C
  C453     1.0000 0.43741  0.80613  0.77883  Biso   1.000  C
  C454     1.0000 0.29937  0.82481  0.80912  Biso   1.000  C
  H501     1.0000 0.20230  0.68851  0.78280  Biso   1.000  H
  H502     1.0000 0.24421  0.59312  0.77830  Biso   1.000  H
  H503     1.0000 0.25432  0.64373  0.81259  Biso   1.000  H
  C455     1.0000 0.50000  0.75003  0.75796  Biso   1.000  C
  C456     1.0000 0.46137  0.89102  0.78989  Biso   1.000  C
  C457     1.0000 0.32541  0.90829  0.82111  Biso   1.000  C
  H504     1.0000 0.24327  0.80252  0.81490  Biso   1.000  H
  H505     1.0000 0.46499  0.71101  0.74361  Biso   1.000  H
  H506     1.0000 0.53501  0.78899  0.74361  Biso   1.000  H
  C458     1.0000 0.56259  0.69387  0.77883  Biso   1.000  C
  H507     1.0000 0.51580  0.91498  0.78290  Biso   1.000  H
  C459     1.0000 0.40769  0.94055  0.81063  Biso   1.000  C
  C460     1.0000 0.26704  0.96077  0.84509  Biso   1.000  C
  C461     1.0000 0.53863  0.60898  0.78989  Biso   1.000  C
  C462     1.0000 0.64513  0.72573  0.78878  Biso   1.000  C
  O102     1.0000 0.43011  0.02504  0.82249  Biso   1.000  O
  H508     1.0000 0.20498  0.94450  0.84140  Biso   1.000  H
  C463     1.0000 0.29033  0.94450  0.88152  Biso   1.000  C
  H509     1.0000 0.27320  0.02410  0.84019  Biso   1.000  H
  H510     1.0000 0.48420  0.58502  0.78290  Biso   1.000  H
  C464     1.0000 0.59231  0.55945  0.81063  Biso   1.000  C
  C465     1.0000 0.70063  0.67519  0.80912  Biso   1.000  C
  O103     1.0000 0.66756  0.81008  0.77709  Biso   1.000  O
  C466     1.0000 0.52048  0.05168  0.82149  Biso   1.000  C
  C467     1.0000 0.35507  0.99572  0.89743  Biso   1.000  C
  C468     1.0000 0.24983  0.87783  0.90005  Biso   1.000  C
  C469     1.0000 0.67459  0.59171  0.82111  Biso   1.000  C
  O104     1.0000 0.56989  0.47496  0.82249  Biso   1.000  O
  H511     1.0000 0.75673  0.69748  0.81490  Biso   1.000  H
  C470     1.0000 0.74823  0.84938  0.78863  Biso   1.000  C
  H512     1.0000 0.53903  0.05851  0.79851  Biso   1.000  H
  H513     1.0000 0.52718  0.10771  0.83300  Biso   1.000  H
  H514     1.0000 0.55690  0.00710  0.83220  Biso   1.000  H
  C471     1.0000 0.38010  0.97905  0.93049  Biso   1.000  C
  H515     1.0000 0.38238  0.04217  0.88569  Biso   1.000  H
  C472     1.0000 0.27273  0.86337  0.93326  Biso   1.000  C
  O105     1.0000 0.18624  0.82749  0.88343  Biso   1.000  O
  C473     1.0000 0.73296  0.53923  0.84509  Biso   1.000  C
  C474     1.0000 0.47952  0.44832  0.82149  Biso   1.000  C
  H516     1.0000 0.79770  0.81149  0.78280  Biso   1.000  H
  H517     1.0000 0.75579  0.90688  0.77830  Biso   1.000  H
  H518     1.0000 0.74568  0.85627  0.81259  Biso   1.000  H
  C475     1.0000 0.33786  0.91304  0.94889  Biso   1.000  C
  O106     1.0000 0.44551  0.02745  0.94701  Biso   1.000  O
  H519     1.0000 0.24327  0.81892  0.94530  Biso   1.000  H
  C476     1.0000 0.15471  0.75057  0.89904  Biso   1.000  C
  H520     1.0000 0.79502  0.55550  0.84140  Biso   1.000  H
  H521     1.0000 0.72680  0.47590  0.84019  Biso   1.000  H
  C477     1.0000 0.70967  0.55550  0.88152  Biso   1.000  C
  H522     1.0000 0.46097  0.44149  0.79851  Biso   1.000  H
  H523     1.0000 0.47282  0.39229  0.83300  Biso   1.000  H
  H524     1.0000 0.44310  0.49290  0.83220  Biso   1.000  H
  C478     1.0000 0.36531  0.89082  0.98469  Biso   1.000  C
  C479     1.0000 0.50917  0.07270  0.92828  Biso   1.000  C
  H525     1.0000 0.13308  0.76530  0.92109  Biso   1.000  H
  H526     1.0000 0.10677  0.72553  0.88600  Biso   1.000  H
  H527     1.0000 0.20237  0.70779  0.90090  Biso   1.000  H
  C480     1.0000 0.64493  0.50428  0.89743  Biso   1.000  C
  C481     1.0000 0.75017  0.62217  0.90005  Biso   1.000  C
  H528     1.0000 0.31303  0.87227  0.99731  Biso   1.000  H
  H529     1.0000 0.38961  0.94397  0.99530  Biso   1.000  H
  C482     1.0000 0.43433  0.81718  0.98555  Biso   1.000  C
  H530     1.0000 0.48172  0.12277  0.91719  Biso   1.000  H
  H531     1.0000 0.55570  0.09379  0.94291  Biso   1.000  H
  H532     1.0000 0.53428  0.03307  0.91179  Biso   1.000  H
  H533     1.0000 0.61762  0.45783  0.88569  Biso   1.000  H
  C483     1.0000 0.61990  0.52095  0.93049  Biso   1.000  C
  C484     1.0000 0.72727  0.63663  0.93326  Biso   1.000  C
  O107     1.0000 0.81376  0.67251  0.88343  Biso   1.000  O
  C485     1.0000 0.41023  0.72781  0.98537  Biso   1.000  C
  C486     1.0000 0.52443  0.83820  0.98570  Biso   1.000  C
  C487     1.0000 0.66214  0.58696  0.94889  Biso   1.000  C
  O108     1.0000 0.55449  0.47255  0.94701  Biso   1.000  O
  H534     1.0000 0.75673  0.68108  0.94530  Biso   1.000  H
  C488     1.0000 0.84529  0.74943  0.89904  Biso   1.000  C
  C489     1.0000 0.47557  0.66180  0.98570  Biso   1.000  C
  O109     1.0000 0.31959  0.70987  0.98507  Biso   1.000  O
  C490     1.0000 0.58977  0.77219  0.98537  Biso   1.000  C
  H535     1.0000 0.54171  0.89798  0.98610  Biso   1.000  H
  C491     1.0000 0.63469  0.60918  0.98469  Biso   1.000  C
  C492     1.0000 0.49083  0.42730  0.92828  Biso   1.000  C
  H536     1.0000 0.86692  0.73470  0.92109  Biso   1.000  H
  H537     1.0000 0.89323  0.77447  0.88600  Biso   1.000  H
  H538     1.0000 0.79763  0.79221  0.90090  Biso   1.000  H
  C493     1.0000 0.56567  0.68282  0.98555  Biso   1.000  C
  H539     1.0000 0.45829  0.60202  0.98610  Biso   1.000  H
  C494     1.0000 0.29161  0.62003  0.98230  Biso   1.000  C
  O110     1.0000 0.68041  0.79013  0.98507  Biso   1.000  O
  H540     1.0000 0.68697  0.62773  0.99731  Biso   1.000  H
  H541     1.0000 0.61039  0.55603  0.99530  Biso   1.000  H
  H542     1.0000 0.51828  0.37723  0.91719  Biso   1.000  H
  H543     1.0000 0.44430  0.40621  0.94291  Biso   1.000  H
  H544     1.0000 0.46572  0.46693  0.91179  Biso   1.000  H
  H545     1.0000 0.22761  0.61789  0.98009  Biso   1.000  H
  H546     1.0000 0.31872  0.59332  0.96289  Biso   1.000  H
  H547     1.0000 0.30941  0.58770  0.00211  Biso   1.000  H
  C495     1.0000 0.70839  0.87997  0.98230  Biso   1.000  C
  H548     1.0000 0.77239  0.88211  0.98009  Biso   1.000  H
  H549     1.0000 0.68128  0.90668  0.96289  Biso   1.000  H
  H550     1.0000 0.69059  0.91230  0.00211  Biso   1.000  H
  C496     1.0000 0.50000  0.25003  0.24204  Biso   1.000  C
  C497     1.0000 0.43741  0.30613  0.22117  Biso   1.000  C
  H551     1.0000 0.53501  0.28899  0.25639  Biso   1.000  H
  C498     1.0000 0.56259  0.19387  0.22117  Biso   1.000  C
  H552     1.0000 0.46499  0.21101  0.25639  Biso   1.000  H
  C499     1.0000 0.35487  0.27427  0.21122  Biso   1.000  C
  C500     1.0000 0.46137  0.39102  0.21011  Biso   1.000  C
  C501     1.0000 0.53863  0.10898  0.21011  Biso   1.000  C
  C502     1.0000 0.64513  0.22573  0.21122  Biso   1.000  C
  O111     1.0000 0.33244  0.18992  0.22291  Biso   1.000  O
  C503     1.0000 0.29937  0.32481  0.19088  Biso   1.000  C
  H553     1.0000 0.51580  0.41498  0.21710  Biso   1.000  H
  C504     1.0000 0.40769  0.44055  0.18937  Biso   1.000  C
  H554     1.0000 0.48420  0.08502  0.21710  Biso   1.000  H
  C505     1.0000 0.59231  0.05945  0.18937  Biso   1.000  C
  C506     1.0000 0.70063  0.17519  0.19088  Biso   1.000  C
  O112     1.0000 0.66756  0.31008  0.22291  Biso   1.000  O
  C507     1.0000 0.25177  0.15062  0.21137  Biso   1.000  C
  C508     1.0000 0.32541  0.40829  0.17889  Biso   1.000  C
  H555     1.0000 0.24327  0.30252  0.18510  Biso   1.000  H
  O113     1.0000 0.43011  0.52504  0.17751  Biso   1.000  O
  C509     1.0000 0.67459  0.09171  0.17889  Biso   1.000  C
  O114     1.0000 0.56989  0.97496  0.17751  Biso   1.000  O
  H556     1.0000 0.75673  0.19748  0.18510  Biso   1.000  H
  C510     1.0000 0.74823  0.34938  0.21137  Biso   1.000  C
  H557     1.0000 0.20230  0.18851  0.21720  Biso   1.000  H
  H558     1.0000 0.24421  0.09312  0.22170  Biso   1.000  H
  H559     1.0000 0.25432  0.14373  0.18741  Biso   1.000  H
  C511     1.0000 0.26704  0.46077  0.15491  Biso   1.000  C
  C512     1.0000 0.52048  0.55168  0.17851  Biso   1.000  C
  C513     1.0000 0.73296  0.03923  0.15491  Biso   1.000  C
  C514     1.0000 0.47952  0.94832  0.17851  Biso   1.000  C
  H560     1.0000 0.79770  0.31149  0.21720  Biso   1.000  H
  H561     1.0000 0.75579  0.40688  0.22170  Biso   1.000  H
  H562     1.0000 0.74568  0.35627  0.18741  Biso   1.000  H
  H563     1.0000 0.20498  0.44450  0.15860  Biso   1.000  H
  H564     1.0000 0.27320  0.52410  0.15981  Biso   1.000  H
  C515     1.0000 0.29033  0.44450  0.11848  Biso   1.000  C
  H565     1.0000 0.53903  0.55851  0.20149  Biso   1.000  H
  H566     1.0000 0.52718  0.60771  0.16700  Biso   1.000  H
  H567     1.0000 0.55690  0.50710  0.16780  Biso   1.000  H
  H568     1.0000 0.79502  0.05550  0.15860  Biso   1.000  H
  C516     1.0000 0.70967  0.05550  0.11848  Biso   1.000  C
  H569     1.0000 0.72680  0.97590  0.15981  Biso   1.000  H
  H570     1.0000 0.46097  0.94149  0.20149  Biso   1.000  H
  H571     1.0000 0.47282  0.89229  0.16700  Biso   1.000  H
  H572     1.0000 0.44310  0.99290  0.16780  Biso   1.000  H
  C517     1.0000 0.35507  0.49572  0.10257  Biso   1.000  C
  C518     1.0000 0.24983  0.37783  0.09995  Biso   1.000  C
  C519     1.0000 0.64493  0.00428  0.10257  Biso   1.000  C
  C520     1.0000 0.75017  0.12217  0.09995  Biso   1.000  C
  H573     1.0000 0.38238  0.54217  0.11431  Biso   1.000  H
  C521     1.0000 0.38010  0.47905  0.06951  Biso   1.000  C
  C522     1.0000 0.27273  0.36337  0.06674  Biso   1.000  C
  O115     1.0000 0.18624  0.32749  0.11657  Biso   1.000  O
  C523     1.0000 0.61990  0.02095  0.06951  Biso   1.000  C
  H574     1.0000 0.61762  0.95783  0.11431  Biso   1.000  H
  C524     1.0000 0.72727  0.13663  0.06674  Biso   1.000  C
  O116     1.0000 0.81376  0.17251  0.11657  Biso   1.000  O
  C525     1.0000 0.33786  0.41304  0.05111  Biso   1.000  C
  O117     1.0000 0.44551  0.52745  0.05299  Biso   1.000  O
  H575     1.0000 0.24327  0.31892  0.05470  Biso   1.000  H
  C526     1.0000 0.15471  0.25057  0.10096  Biso   1.000  C
  C527     1.0000 0.66214  0.08696  0.05111  Biso   1.000  C
  O118     1.0000 0.55449  0.97255  0.05299  Biso   1.000  O
  H576     1.0000 0.75673  0.18108  0.05470  Biso   1.000  H
  C528     1.0000 0.84529  0.24943  0.10096  Biso   1.000  C
  C529     1.0000 0.36531  0.39082  0.01531  Biso   1.000  C
  C530     1.0000 0.50917  0.57270  0.07172  Biso   1.000  C
  H577     1.0000 0.13308  0.26530  0.07891  Biso   1.000  H
  H578     1.0000 0.10677  0.22553  0.11400  Biso   1.000  H
  H579     1.0000 0.20237  0.20779  0.09910  Biso   1.000  H
  C531     1.0000 0.63469  0.10918  0.01531  Biso   1.000  C
  C532     1.0000 0.49083  0.92730  0.07172  Biso   1.000  C
  H580     1.0000 0.86692  0.23470  0.07891  Biso   1.000  H
  H581     1.0000 0.89323  0.27447  0.11400  Biso   1.000  H
  H582     1.0000 0.79763  0.29221  0.09910  Biso   1.000  H
  H583     1.0000 0.31303  0.37227  0.00269  Biso   1.000  H
  H584     1.0000 0.38961  0.44397  0.00470  Biso   1.000  H
  C533     1.0000 0.43433  0.31718  0.01445  Biso   1.000  C
  H585     1.0000 0.48172  0.62277  0.08281  Biso   1.000  H
  H586     1.0000 0.55570  0.59379  0.05709  Biso   1.000  H
  H587     1.0000 0.53428  0.53307  0.08821  Biso   1.000  H
  C534     1.0000 0.56567  0.18282  0.01445  Biso   1.000  C
  H588     1.0000 0.68697  0.12773  0.00269  Biso   1.000  H
  H589     1.0000 0.61039  0.05603  0.00470  Biso   1.000  H
  H590     1.0000 0.51828  0.87723  0.08281  Biso   1.000  H
  H591     1.0000 0.44430  0.90621  0.05709  Biso   1.000  H
  H592     1.0000 0.46572  0.96693  0.08821  Biso   1.000  H
  C535     1.0000 0.52443  0.33820  0.01430  Biso   1.000  C
  C536     1.0000 0.41023  0.22781  0.01463  Biso   1.000  C
  C537     1.0000 0.58977  0.27219  0.01463  Biso   1.000  C
  C538     1.0000 0.47557  0.16180  0.01430  Biso   1.000  C
  H593     1.0000 0.54171  0.39798  0.01390  Biso   1.000  H
  O119     1.0000 0.31959  0.20987  0.01493  Biso   1.000  O
  O120     1.0000 0.68041  0.29013  0.01493  Biso   1.000  O
  H594     1.0000 0.45829  0.10202  0.01390  Biso   1.000  H
  C539     1.0000 0.29161  0.12003  0.01770  Biso   1.000  C
  C540     1.0000 0.70839  0.37997  0.01770  Biso   1.000  C
  H595     1.0000 0.22761  0.11789  0.01991  Biso   1.000  H
  H596     1.0000 0.31872  0.09332  0.03711  Biso   1.000  H
  H597     1.0000 0.30941  0.08770  0.99789  Biso   1.000  H
  H598     1.0000 0.77239  0.38211  0.01991  Biso   1.000  H
  H599     1.0000 0.68128  0.40668  0.03711  Biso   1.000  H
  H600     1.0000 0.69059  0.41230  0.99789  Biso   1.000  H
