data_image0
_cell_length_a       25.016
_cell_length_b       25.016
_cell_length_c       25.016
_cell_angle_alpha    90
_cell_angle_beta     90
_cell_angle_gamma    90

_symmetry_space_group_name_H-M    "P 1"
_symmetry_int_tables_number       1

loop_
  _symmetry_equiv_pos_as_xyz
  'x, y, z'

loop_
  _atom_site_label
  _atom_site_occupancy
  _atom_site_fract_x
  _atom_site_fract_y
  _atom_site_fract_z
  _atom_site_thermal_displace_type
  _atom_site_B_iso_or_equiv
  _atom_site_type_symbol
  C1       1.0000 0.38148  0.21998  0.26091  Biso   1.000  C
  C2       1.0000 0.38148  0.27998  0.23909  Biso   1.000  C
  C3       1.0000 0.43040  0.21310  0.29321  Biso   1.000  C
  H1       1.0000 0.34938  0.21350  0.28310  Biso   1.000  H
  H2       1.0000 0.38128  0.19452  0.23069  Biso   1.000  H
  C4       1.0000 0.43040  0.28690  0.20679  Biso   1.000  C
  H3       1.0000 0.34938  0.28650  0.21690  Biso   1.000  H
  H4       1.0000 0.38128  0.30548  0.26931  Biso   1.000  H
  C5       1.0000 0.48189  0.22190  0.26099  Biso   1.000  C
  H5       1.0000 0.43080  0.17649  0.30840  Biso   1.000  H
  H6       1.0000 0.42961  0.23861  0.32351  Biso   1.000  H
  C6       1.0000 0.48189  0.27810  0.23901  Biso   1.000  C
  H7       1.0000 0.43080  0.32351  0.19160  Biso   1.000  H
  H8       1.0000 0.42961  0.26139  0.17649  Biso   1.000  H
  N1       1.0000 0.52598  0.21278  0.29561  Biso   1.000  N
  H9       1.0000 0.48329  0.19579  0.23081  Biso   1.000  H
  N2       1.0000 0.52598  0.28722  0.20439  Biso   1.000  N
  H10      1.0000 0.48329  0.30421  0.26919  Biso   1.000  H
  C7       1.0000 0.55848  0.17409  0.28682  Biso   1.000  C
  C8       1.0000 0.55848  0.32591  0.21318  Biso   1.000  C
  C9       1.0000 0.60297  0.16090  0.32071  Biso   1.000  C
  H11      1.0000 0.55289  0.15278  0.25580  Biso   1.000  H
  C10      1.0000 0.60297  0.33910  0.17929  Biso   1.000  C
  H12      1.0000 0.55289  0.34718  0.24420  Biso   1.000  H
  C11      1.0000 0.63487  0.11701  0.30668  Biso   1.000  C
  C12      1.0000 0.61701  0.19332  0.36509  Biso   1.000  C
  C13      1.0000 0.63487  0.38299  0.19332  Biso   1.000  C
  C14      1.0000 0.61701  0.30668  0.13491  Biso   1.000  C
  H13      1.0000 0.62680  0.09682  0.27558  Biso   1.000  H
  C15      1.0000 0.67929  0.10301  0.33910  Biso   1.000  C
  H14      1.0000 0.59678  0.22442  0.37320  Biso   1.000  H
  C16      1.0000 0.66090  0.17929  0.39699  Biso   1.000  C
  H15      1.0000 0.62680  0.40318  0.22442  Biso   1.000  H
  C17      1.0000 0.67929  0.39699  0.16090  Biso   1.000  C
  H16      1.0000 0.59678  0.27558  0.12680  Biso   1.000  H
  C18      1.0000 0.66090  0.32071  0.10301  Biso   1.000  C
  C19      1.0000 0.69328  0.13491  0.38299  Biso   1.000  C
  C20      1.0000 0.71318  0.05848  0.32591  Biso   1.000  C
  C21      1.0000 0.67409  0.21318  0.44148  Biso   1.000  C
  C22      1.0000 0.69328  0.36509  0.11701  Biso   1.000  C
  C23      1.0000 0.71318  0.44148  0.17409  Biso   1.000  C
  C24      1.0000 0.67409  0.28682  0.05848  Biso   1.000  C
  H17      1.0000 0.72438  0.12680  0.40318  Biso   1.000  H
  N3       1.0000 0.70439  0.02598  0.28722  Biso   1.000  N
  H18      1.0000 0.74420  0.05289  0.34718  Biso   1.000  H
  N4       1.0000 0.71278  0.20439  0.47398  Biso   1.000  N
  H19      1.0000 0.65278  0.24420  0.44711  Biso   1.000  H
  H20      1.0000 0.72438  0.37320  0.09682  Biso   1.000  H
  N5       1.0000 0.70439  0.47398  0.21278  Biso   1.000  N
  H21      1.0000 0.74420  0.44711  0.15278  Biso   1.000  H
  N6       1.0000 0.71278  0.29561  0.02598  Biso   1.000  N
  H22      1.0000 0.65278  0.25580  0.05289  Biso   1.000  H
  C25      1.0000 0.73901  0.98189  0.27810  Biso   1.000  C
  C26      1.0000 0.72190  0.23901  0.51811  Biso   1.000  C
  C27      1.0000 0.73901  0.51811  0.22190  Biso   1.000  C
  C28      1.0000 0.72190  0.26099  0.98189  Biso   1.000  C
  C29      1.0000 0.76099  0.98189  0.22190  Biso   1.000  C
  H23      1.0000 0.76919  0.98329  0.30421  Biso   1.000  H
  C30      1.0000 0.70679  0.93040  0.28690  Biso   1.000  C
  C31      1.0000 0.77810  0.26099  0.51811  Biso   1.000  C
  H24      1.0000 0.69579  0.26919  0.51671  Biso   1.000  H
  C32      1.0000 0.71310  0.20679  0.56960  Biso   1.000  C
  C33      1.0000 0.76099  0.51811  0.27810  Biso   1.000  C
  H25      1.0000 0.76919  0.51671  0.19579  Biso   1.000  H
  C34      1.0000 0.70679  0.56960  0.21310  Biso   1.000  C
  C35      1.0000 0.77810  0.23901  0.98189  Biso   1.000  C
  H26      1.0000 0.69579  0.23081  0.98329  Biso   1.000  H
  C36      1.0000 0.71310  0.29321  0.93040  Biso   1.000  C
  N7       1.0000 0.79557  0.02598  0.21278  Biso   1.000  N
  H27      1.0000 0.73077  0.98329  0.19579  Biso   1.000  H
  C37      1.0000 0.79317  0.93040  0.21310  Biso   1.000  C
  H28      1.0000 0.69160  0.93080  0.32351  Biso   1.000  H
  H29      1.0000 0.67649  0.92961  0.26139  Biso   1.000  H
  C38      1.0000 0.73909  0.88152  0.27998  Biso   1.000  C
  N8       1.0000 0.78718  0.29561  0.47398  Biso   1.000  N
  H30      1.0000 0.80421  0.23081  0.51671  Biso   1.000  H
  C39      1.0000 0.78690  0.29321  0.56960  Biso   1.000  C
  H31      1.0000 0.67649  0.19160  0.56920  Biso   1.000  H
  H32      1.0000 0.73861  0.17649  0.57039  Biso   1.000  H
  C40      1.0000 0.71998  0.23909  0.61848  Biso   1.000  C
  N9       1.0000 0.79557  0.47398  0.28722  Biso   1.000  N
  H33      1.0000 0.73077  0.51671  0.30421  Biso   1.000  H
  C41      1.0000 0.79317  0.56960  0.28690  Biso   1.000  C
  H34      1.0000 0.69160  0.56920  0.17649  Biso   1.000  H
  H35      1.0000 0.67649  0.57039  0.23861  Biso   1.000  H
  C42      1.0000 0.73909  0.61848  0.21998  Biso   1.000  C
  N10      1.0000 0.78718  0.20439  0.02598  Biso   1.000  N
  H36      1.0000 0.80421  0.26919  0.98329  Biso   1.000  H
  C43      1.0000 0.78690  0.20679  0.93040  Biso   1.000  C
  H37      1.0000 0.67649  0.30840  0.93080  Biso   1.000  H
  H38      1.0000 0.73861  0.32351  0.92961  Biso   1.000  H
  C44      1.0000 0.71998  0.26091  0.88152  Biso   1.000  C
  C45      1.0000 0.78678  0.05848  0.17409  Biso   1.000  C
  H39      1.0000 0.80840  0.93080  0.17649  Biso   1.000  H
  H40      1.0000 0.82347  0.92961  0.23861  Biso   1.000  H
  C46      1.0000 0.76087  0.88152  0.21998  Biso   1.000  C
  H41      1.0000 0.71690  0.84942  0.28650  Biso   1.000  H
  H42      1.0000 0.76931  0.88132  0.30548  Biso   1.000  H
  C47      1.0000 0.82587  0.28682  0.44148  Biso   1.000  C
  H43      1.0000 0.82347  0.30840  0.56920  Biso   1.000  H
  H44      1.0000 0.76139  0.32351  0.57039  Biso   1.000  H
  C48      1.0000 0.77998  0.26091  0.61848  Biso   1.000  C
  H45      1.0000 0.71350  0.21690  0.65058  Biso   1.000  H
  H46      1.0000 0.69448  0.26931  0.61868  Biso   1.000  H
  C49      1.0000 0.78678  0.44148  0.32591  Biso   1.000  C
  H47      1.0000 0.80840  0.56920  0.32351  Biso   1.000  H
  H48      1.0000 0.82347  0.57039  0.26139  Biso   1.000  H
  C50      1.0000 0.76087  0.61848  0.27998  Biso   1.000  C
  H49      1.0000 0.71690  0.65058  0.21350  Biso   1.000  H
  H50      1.0000 0.76931  0.61868  0.19452  Biso   1.000  H
  C51      1.0000 0.82587  0.21318  0.05848  Biso   1.000  C
  H51      1.0000 0.82347  0.19160  0.93080  Biso   1.000  H
  H52      1.0000 0.76139  0.17649  0.92961  Biso   1.000  H
  C52      1.0000 0.77998  0.23909  0.88152  Biso   1.000  C
  H53      1.0000 0.71350  0.28310  0.84942  Biso   1.000  H
  H54      1.0000 0.69448  0.23069  0.88132  Biso   1.000  H
  C53      1.0000 0.82067  0.10301  0.16090  Biso   1.000  C
  H55      1.0000 0.75580  0.05289  0.15278  Biso   1.000  H
  H56      1.0000 0.78310  0.84942  0.21350  Biso   1.000  H
  H57      1.0000 0.73069  0.88132  0.19452  Biso   1.000  H
  C54      1.0000 0.83910  0.32071  0.39699  Biso   1.000  C
  H58      1.0000 0.84718  0.25580  0.44711  Biso   1.000  H
  H59      1.0000 0.78650  0.28310  0.65058  Biso   1.000  H
  H60      1.0000 0.80548  0.23069  0.61868  Biso   1.000  H
  C55      1.0000 0.82067  0.39699  0.33910  Biso   1.000  C
  H61      1.0000 0.75580  0.44711  0.34718  Biso   1.000  H
  H62      1.0000 0.78310  0.65058  0.28650  Biso   1.000  H
  H63      1.0000 0.73069  0.61868  0.30548  Biso   1.000  H
  C56      1.0000 0.83910  0.17929  0.10301  Biso   1.000  C
  H64      1.0000 0.84718  0.24420  0.05289  Biso   1.000  H
  H65      1.0000 0.78650  0.21690  0.84942  Biso   1.000  H
  H66      1.0000 0.80548  0.26931  0.88132  Biso   1.000  H
  C57      1.0000 0.80668  0.13491  0.11701  Biso   1.000  C
  C58      1.0000 0.86509  0.11701  0.19332  Biso   1.000  C
  C59      1.0000 0.80668  0.36509  0.38299  Biso   1.000  C
  C60      1.0000 0.88299  0.30668  0.36509  Biso   1.000  C
  C61      1.0000 0.86509  0.38299  0.30668  Biso   1.000  C
  C62      1.0000 0.88299  0.19332  0.13491  Biso   1.000  C
  H67      1.0000 0.77558  0.12680  0.09682  Biso   1.000  H
  C63      1.0000 0.89699  0.16090  0.17929  Biso   1.000  C
  H68      1.0000 0.87320  0.09682  0.22442  Biso   1.000  H
  H69      1.0000 0.77558  0.37320  0.40318  Biso   1.000  H
  C64      1.0000 0.89699  0.33910  0.32071  Biso   1.000  C
  H70      1.0000 0.90318  0.27558  0.37320  Biso   1.000  H
  H71      1.0000 0.87320  0.40318  0.27558  Biso   1.000  H
  H72      1.0000 0.90318  0.22442  0.12680  Biso   1.000  H
  C65      1.0000 0.94148  0.17409  0.21318  Biso   1.000  C
  C66      1.0000 0.94148  0.32591  0.28682  Biso   1.000  C
  N11      1.0000 0.97398  0.21278  0.20439  Biso   1.000  N
  H73      1.0000 0.94707  0.15278  0.24420  Biso   1.000  H
  N12      1.0000 0.97398  0.28722  0.29561  Biso   1.000  N
  H74      1.0000 0.94707  0.34718  0.25580  Biso   1.000  H
  C67      1.0000 0.01807  0.22190  0.23901  Biso   1.000  C
  C68      1.0000 0.01807  0.27810  0.26099  Biso   1.000  C
  H75      1.0000 0.01667  0.19579  0.26919  Biso   1.000  H
  C69      1.0000 0.06960  0.21310  0.20679  Biso   1.000  C
  H76      1.0000 0.01667  0.30421  0.23081  Biso   1.000  H
  C70      1.0000 0.06960  0.28690  0.29321  Biso   1.000  C
  H77      1.0000 0.06920  0.17649  0.19160  Biso   1.000  H
  H78      1.0000 0.07039  0.23861  0.17649  Biso   1.000  H
  C71      1.0000 0.11848  0.21998  0.23909  Biso   1.000  C
  H79      1.0000 0.06920  0.32351  0.30840  Biso   1.000  H
  H80      1.0000 0.07039  0.26139  0.32351  Biso   1.000  H
  C72      1.0000 0.11848  0.27998  0.26091  Biso   1.000  C
  H81      1.0000 0.15058  0.21350  0.21690  Biso   1.000  H
  H82      1.0000 0.11868  0.19452  0.26931  Biso   1.000  H
  H83      1.0000 0.15058  0.28650  0.28310  Biso   1.000  H
  H84      1.0000 0.11868  0.30548  0.23069  Biso   1.000  H
  C73      1.0000 0.26091  0.38148  0.21998  Biso   1.000  C
  C74      1.0000 0.23909  0.38148  0.27998  Biso   1.000  C
  C75      1.0000 0.29321  0.43040  0.21310  Biso   1.000  C
  H85      1.0000 0.28310  0.34938  0.21350  Biso   1.000  H
  H86      1.0000 0.23069  0.38128  0.19452  Biso   1.000  H
  C76      1.0000 0.20679  0.43040  0.28690  Biso   1.000  C
  H87      1.0000 0.21690  0.34938  0.28650  Biso   1.000  H
  H88      1.0000 0.26931  0.38128  0.30548  Biso   1.000  H
  C77      1.0000 0.26099  0.48189  0.22190  Biso   1.000  C
  H89      1.0000 0.30840  0.43080  0.17649  Biso   1.000  H
  H90      1.0000 0.32351  0.42961  0.23861  Biso   1.000  H
  C78      1.0000 0.23901  0.48189  0.27810  Biso   1.000  C
  H91      1.0000 0.19160  0.43080  0.32351  Biso   1.000  H
  H92      1.0000 0.17649  0.42961  0.26139  Biso   1.000  H
  N13      1.0000 0.29561  0.52598  0.21278  Biso   1.000  N
  H93      1.0000 0.23081  0.48329  0.19579  Biso   1.000  H
  N14      1.0000 0.20439  0.52598  0.28722  Biso   1.000  N
  H94      1.0000 0.26919  0.48329  0.30421  Biso   1.000  H
  C79      1.0000 0.28682  0.55848  0.17409  Biso   1.000  C
  C80      1.0000 0.21318  0.55848  0.32591  Biso   1.000  C
  C81      1.0000 0.32071  0.60297  0.16090  Biso   1.000  C
  H95      1.0000 0.25580  0.55289  0.15278  Biso   1.000  H
  C82      1.0000 0.17929  0.60297  0.33910  Biso   1.000  C
  H96      1.0000 0.24420  0.55289  0.34718  Biso   1.000  H
  C83      1.0000 0.30668  0.63487  0.11701  Biso   1.000  C
  C84      1.0000 0.36509  0.61701  0.19332  Biso   1.000  C
  C85      1.0000 0.19332  0.63487  0.38299  Biso   1.000  C
  C86      1.0000 0.13491  0.61701  0.30668  Biso   1.000  C
  H97      1.0000 0.27558  0.62680  0.09682  Biso   1.000  H
  C87      1.0000 0.33910  0.67929  0.10301  Biso   1.000  C
  H98      1.0000 0.37320  0.59678  0.22442  Biso   1.000  H
  C88      1.0000 0.39699  0.66090  0.17929  Biso   1.000  C
  H99      1.0000 0.22442  0.62680  0.40318  Biso   1.000  H
  C89      1.0000 0.16090  0.67929  0.39699  Biso   1.000  C
  H100     1.0000 0.12680  0.59678  0.27558  Biso   1.000  H
  C90      1.0000 0.10301  0.66090  0.32071  Biso   1.000  C
  C91      1.0000 0.38299  0.69328  0.13491  Biso   1.000  C
  C92      1.0000 0.32591  0.71318  0.05848  Biso   1.000  C
  C93      1.0000 0.44148  0.67409  0.21318  Biso   1.000  C
  C94      1.0000 0.11701  0.69328  0.36509  Biso   1.000  C
  C95      1.0000 0.17409  0.71318  0.44148  Biso   1.000  C
  C96      1.0000 0.05848  0.67409  0.28682  Biso   1.000  C
  H101     1.0000 0.40318  0.72438  0.12680  Biso   1.000  H
  N15      1.0000 0.28722  0.70439  0.02598  Biso   1.000  N
  H102     1.0000 0.34718  0.74420  0.05289  Biso   1.000  H
  N16      1.0000 0.47398  0.71278  0.20439  Biso   1.000  N
  H103     1.0000 0.44711  0.65278  0.24420  Biso   1.000  H
  H104     1.0000 0.09682  0.72438  0.37320  Biso   1.000  H
  N17      1.0000 0.21278  0.70439  0.47398  Biso   1.000  N
  H105     1.0000 0.15278  0.74420  0.44711  Biso   1.000  H
  N18      1.0000 0.02598  0.71278  0.29561  Biso   1.000  N
  H106     1.0000 0.05289  0.65278  0.25580  Biso   1.000  H
  C97      1.0000 0.27810  0.73901  0.98189  Biso   1.000  C
  C98      1.0000 0.51811  0.72190  0.23901  Biso   1.000  C
  C99      1.0000 0.22190  0.73901  0.51811  Biso   1.000  C
  C100     1.0000 0.98189  0.72190  0.26099  Biso   1.000  C
  C101     1.0000 0.22190  0.76099  0.98189  Biso   1.000  C
  H107     1.0000 0.30421  0.76919  0.98329  Biso   1.000  H
  C102     1.0000 0.28690  0.70679  0.93040  Biso   1.000  C
  C103     1.0000 0.51811  0.77810  0.26099  Biso   1.000  C
  H108     1.0000 0.51671  0.69579  0.26919  Biso   1.000  H
  C104     1.0000 0.56960  0.71310  0.20679  Biso   1.000  C
  C105     1.0000 0.27810  0.76099  0.51811  Biso   1.000  C
  H109     1.0000 0.19579  0.76919  0.51671  Biso   1.000  H
  C106     1.0000 0.21310  0.70679  0.56960  Biso   1.000  C
  C107     1.0000 0.98189  0.77810  0.23901  Biso   1.000  C
  H110     1.0000 0.98329  0.69579  0.23081  Biso   1.000  H
  C108     1.0000 0.93040  0.71310  0.29321  Biso   1.000  C
  N19      1.0000 0.21278  0.79557  0.02598  Biso   1.000  N
  H111     1.0000 0.19579  0.73077  0.98329  Biso   1.000  H
  C109     1.0000 0.21310  0.79317  0.93040  Biso   1.000  C
  H112     1.0000 0.32351  0.69160  0.93080  Biso   1.000  H
  H113     1.0000 0.26139  0.67649  0.92961  Biso   1.000  H
  C110     1.0000 0.27998  0.73909  0.88152  Biso   1.000  C
  N20      1.0000 0.47398  0.78718  0.29561  Biso   1.000  N
  H114     1.0000 0.51671  0.80421  0.23081  Biso   1.000  H
  C111     1.0000 0.56960  0.78690  0.29321  Biso   1.000  C
  H115     1.0000 0.56920  0.67649  0.19160  Biso   1.000  H
  H116     1.0000 0.57039  0.73861  0.17649  Biso   1.000  H
  C112     1.0000 0.61848  0.71998  0.23909  Biso   1.000  C
  N21      1.0000 0.28722  0.79557  0.47398  Biso   1.000  N
  H117     1.0000 0.30421  0.73077  0.51671  Biso   1.000  H
  C113     1.0000 0.28690  0.79317  0.56960  Biso   1.000  C
  H118     1.0000 0.17649  0.69160  0.56920  Biso   1.000  H
  H119     1.0000 0.23861  0.67649  0.57039  Biso   1.000  H
  C114     1.0000 0.21998  0.73909  0.61848  Biso   1.000  C
  N22      1.0000 0.02598  0.78718  0.20439  Biso   1.000  N
  H120     1.0000 0.98329  0.80421  0.26919  Biso   1.000  H
  C115     1.0000 0.93040  0.78690  0.20679  Biso   1.000  C
  H121     1.0000 0.93080  0.67649  0.30840  Biso   1.000  H
  H122     1.0000 0.92961  0.73861  0.32351  Biso   1.000  H
  C116     1.0000 0.88152  0.71998  0.26091  Biso   1.000  C
  C117     1.0000 0.17409  0.78678  0.05848  Biso   1.000  C
  H123     1.0000 0.17649  0.80840  0.93080  Biso   1.000  H
  H124     1.0000 0.23861  0.82347  0.92961  Biso   1.000  H
  C118     1.0000 0.21998  0.76087  0.88152  Biso   1.000  C
  H125     1.0000 0.28650  0.71690  0.84942  Biso   1.000  H
  H126     1.0000 0.30548  0.76931  0.88132  Biso   1.000  H
  C119     1.0000 0.44148  0.82587  0.28682  Biso   1.000  C
  H127     1.0000 0.56920  0.82347  0.30840  Biso   1.000  H
  H128     1.0000 0.57039  0.76139  0.32351  Biso   1.000  H
  C120     1.0000 0.61848  0.77998  0.26091  Biso   1.000  C
  H129     1.0000 0.65058  0.71350  0.21690  Biso   1.000  H
  H130     1.0000 0.61868  0.69448  0.26931  Biso   1.000  H
  C121     1.0000 0.32591  0.78678  0.44148  Biso   1.000  C
  H131     1.0000 0.32351  0.80840  0.56920  Biso   1.000  H
  H132     1.0000 0.26139  0.82347  0.57039  Biso   1.000  H
  C122     1.0000 0.27998  0.76087  0.61848  Biso   1.000  C
  H133     1.0000 0.21350  0.71690  0.65058  Biso   1.000  H
  H134     1.0000 0.19452  0.76931  0.61868  Biso   1.000  H
  C123     1.0000 0.05848  0.82587  0.21318  Biso   1.000  C
  H135     1.0000 0.93080  0.82347  0.19160  Biso   1.000  H
  H136     1.0000 0.92961  0.76139  0.17649  Biso   1.000  H
  C124     1.0000 0.88152  0.77998  0.23909  Biso   1.000  C
  H137     1.0000 0.84942  0.71350  0.28310  Biso   1.000  H
  H138     1.0000 0.88132  0.69448  0.23069  Biso   1.000  H
  C125     1.0000 0.16090  0.82067  0.10301  Biso   1.000  C
  H139     1.0000 0.15278  0.75580  0.05289  Biso   1.000  H
  H140     1.0000 0.21350  0.78310  0.84942  Biso   1.000  H
  H141     1.0000 0.19452  0.73069  0.88132  Biso   1.000  H
  C126     1.0000 0.39699  0.83910  0.32071  Biso   1.000  C
  H142     1.0000 0.44711  0.84718  0.25580  Biso   1.000  H
  H143     1.0000 0.65058  0.78650  0.28310  Biso   1.000  H
  H144     1.0000 0.61868  0.80548  0.23069  Biso   1.000  H
  C127     1.0000 0.33910  0.82067  0.39699  Biso   1.000  C
  H145     1.0000 0.34718  0.75580  0.44711  Biso   1.000  H
  H146     1.0000 0.28650  0.78310  0.65058  Biso   1.000  H
  H147     1.0000 0.30548  0.73069  0.61868  Biso   1.000  H
  C128     1.0000 0.10301  0.83910  0.17929  Biso   1.000  C
  H148     1.0000 0.05289  0.84718  0.24420  Biso   1.000  H
  H149     1.0000 0.84942  0.78650  0.21690  Biso   1.000  H
  H150     1.0000 0.88132  0.80548  0.26931  Biso   1.000  H
  C129     1.0000 0.19332  0.86509  0.11701  Biso   1.000  C
  C130     1.0000 0.11701  0.80668  0.13491  Biso   1.000  C
  C131     1.0000 0.38299  0.80668  0.36509  Biso   1.000  C
  C132     1.0000 0.36509  0.88299  0.30668  Biso   1.000  C
  C133     1.0000 0.30668  0.86509  0.38299  Biso   1.000  C
  C134     1.0000 0.13491  0.88299  0.19332  Biso   1.000  C
  H151     1.0000 0.22442  0.87320  0.09682  Biso   1.000  H
  C135     1.0000 0.17929  0.89699  0.16090  Biso   1.000  C
  H152     1.0000 0.09682  0.77558  0.12680  Biso   1.000  H
  H153     1.0000 0.40318  0.77558  0.37320  Biso   1.000  H
  H154     1.0000 0.37320  0.90318  0.27558  Biso   1.000  H
  C136     1.0000 0.32071  0.89699  0.33910  Biso   1.000  C
  H155     1.0000 0.27558  0.87320  0.40318  Biso   1.000  H
  H156     1.0000 0.12680  0.90318  0.22442  Biso   1.000  H
  C137     1.0000 0.21318  0.94148  0.17409  Biso   1.000  C
  C138     1.0000 0.28682  0.94148  0.32591  Biso   1.000  C
  N23      1.0000 0.20439  0.97398  0.21278  Biso   1.000  N
  H157     1.0000 0.24420  0.94707  0.15278  Biso   1.000  H
  N24      1.0000 0.29561  0.97398  0.28722  Biso   1.000  N
  H158     1.0000 0.25580  0.94707  0.34718  Biso   1.000  H
  C139     1.0000 0.23901  0.01807  0.22190  Biso   1.000  C
  C140     1.0000 0.26099  0.01807  0.27810  Biso   1.000  C
  H159     1.0000 0.26919  0.01667  0.19579  Biso   1.000  H
  C141     1.0000 0.20679  0.06960  0.21310  Biso   1.000  C
  H160     1.0000 0.23081  0.01667  0.30421  Biso   1.000  H
  C142     1.0000 0.29321  0.06960  0.28690  Biso   1.000  C
  H161     1.0000 0.19160  0.06920  0.17649  Biso   1.000  H
  H162     1.0000 0.17649  0.07039  0.23861  Biso   1.000  H
  C143     1.0000 0.23909  0.11848  0.21998  Biso   1.000  C
  H163     1.0000 0.30840  0.06920  0.32351  Biso   1.000  H
  H164     1.0000 0.32351  0.07039  0.26139  Biso   1.000  H
  C144     1.0000 0.26091  0.11848  0.27998  Biso   1.000  C
  H165     1.0000 0.21690  0.15058  0.21350  Biso   1.000  H
  H166     1.0000 0.26931  0.11868  0.19452  Biso   1.000  H
  H167     1.0000 0.28310  0.15058  0.28650  Biso   1.000  H
  H168     1.0000 0.23069  0.11868  0.30548  Biso   1.000  H
  C145     1.0000 0.21998  0.26091  0.38148  Biso   1.000  C
  C146     1.0000 0.27998  0.23909  0.38148  Biso   1.000  C
  C147     1.0000 0.21310  0.29321  0.43040  Biso   1.000  C
  H169     1.0000 0.21350  0.28310  0.34938  Biso   1.000  H
  H170     1.0000 0.19452  0.23069  0.38128  Biso   1.000  H
  C148     1.0000 0.28690  0.20679  0.43040  Biso   1.000  C
  H171     1.0000 0.28650  0.21690  0.34938  Biso   1.000  H
  H172     1.0000 0.30548  0.26931  0.38128  Biso   1.000  H
  C149     1.0000 0.22190  0.26099  0.48189  Biso   1.000  C
  H173     1.0000 0.17649  0.30840  0.43080  Biso   1.000  H
  H174     1.0000 0.23861  0.32351  0.42961  Biso   1.000  H
  C150     1.0000 0.27810  0.23901  0.48189  Biso   1.000  C
  H175     1.0000 0.32351  0.19160  0.43080  Biso   1.000  H
  H176     1.0000 0.26139  0.17649  0.42961  Biso   1.000  H
  N25      1.0000 0.21278  0.29561  0.52598  Biso   1.000  N
  H177     1.0000 0.19579  0.23081  0.48329  Biso   1.000  H
  N26      1.0000 0.28722  0.20439  0.52598  Biso   1.000  N
  H178     1.0000 0.30421  0.26919  0.48329  Biso   1.000  H
  C151     1.0000 0.17409  0.28682  0.55848  Biso   1.000  C
  C152     1.0000 0.32591  0.21318  0.55848  Biso   1.000  C
  C153     1.0000 0.16090  0.32071  0.60297  Biso   1.000  C
  H179     1.0000 0.15278  0.25580  0.55289  Biso   1.000  H
  C154     1.0000 0.33910  0.17929  0.60297  Biso   1.000  C
  H180     1.0000 0.34718  0.24420  0.55289  Biso   1.000  H
  C155     1.0000 0.19332  0.36509  0.61701  Biso   1.000  C
  C156     1.0000 0.11701  0.30668  0.63487  Biso   1.000  C
  C157     1.0000 0.38299  0.19332  0.63487  Biso   1.000  C
  C158     1.0000 0.30668  0.13491  0.61701  Biso   1.000  C
  H181     1.0000 0.22442  0.37320  0.59678  Biso   1.000  H
  C159     1.0000 0.17929  0.39699  0.66090  Biso   1.000  C
  H182     1.0000 0.09682  0.27558  0.62680  Biso   1.000  H
  C160     1.0000 0.10301  0.33910  0.67929  Biso   1.000  C
  H183     1.0000 0.40318  0.22442  0.62680  Biso   1.000  H
  C161     1.0000 0.39699  0.16090  0.67929  Biso   1.000  C
  H184     1.0000 0.27558  0.12680  0.59678  Biso   1.000  H
  C162     1.0000 0.32071  0.10301  0.66090  Biso   1.000  C
  C163     1.0000 0.13491  0.38299  0.69328  Biso   1.000  C
  C164     1.0000 0.21318  0.44148  0.67409  Biso   1.000  C
  C165     1.0000 0.05848  0.32591  0.71318  Biso   1.000  C
  C166     1.0000 0.36509  0.11701  0.69328  Biso   1.000  C
  C167     1.0000 0.44148  0.17409  0.71318  Biso   1.000  C
  C168     1.0000 0.28682  0.05848  0.67409  Biso   1.000  C
  H185     1.0000 0.12680  0.40318  0.72438  Biso   1.000  H
  N27      1.0000 0.20439  0.47398  0.71278  Biso   1.000  N
  H186     1.0000 0.24420  0.44711  0.65278  Biso   1.000  H
  N28      1.0000 0.02598  0.28722  0.70439  Biso   1.000  N
  H187     1.0000 0.05289  0.34718  0.74420  Biso   1.000  H
  H188     1.0000 0.37320  0.09682  0.72438  Biso   1.000  H
  N29      1.0000 0.47398  0.21278  0.70439  Biso   1.000  N
  H189     1.0000 0.44711  0.15278  0.74420  Biso   1.000  H
  N30      1.0000 0.29561  0.02598  0.71278  Biso   1.000  N
  H190     1.0000 0.25580  0.05289  0.65278  Biso   1.000  H
  C169     1.0000 0.23901  0.51811  0.72190  Biso   1.000  C
  C170     1.0000 0.98189  0.27810  0.73901  Biso   1.000  C
  C171     1.0000 0.51811  0.22190  0.73901  Biso   1.000  C
  C172     1.0000 0.26099  0.98189  0.72190  Biso   1.000  C
  C173     1.0000 0.26099  0.51811  0.77810  Biso   1.000  C
  H191     1.0000 0.26919  0.51671  0.69579  Biso   1.000  H
  C174     1.0000 0.20679  0.56960  0.71310  Biso   1.000  C
  C175     1.0000 0.98189  0.22190  0.76099  Biso   1.000  C
  H192     1.0000 0.98329  0.30421  0.76919  Biso   1.000  H
  C176     1.0000 0.93040  0.28690  0.70679  Biso   1.000  C
  C177     1.0000 0.51811  0.27810  0.76099  Biso   1.000  C
  H193     1.0000 0.51671  0.19579  0.76919  Biso   1.000  H
  C178     1.0000 0.56960  0.21310  0.70679  Biso   1.000  C
  C179     1.0000 0.23901  0.98189  0.77810  Biso   1.000  C
  H194     1.0000 0.23081  0.98329  0.69579  Biso   1.000  H
  C180     1.0000 0.29321  0.93040  0.71310  Biso   1.000  C
  N31      1.0000 0.29561  0.47398  0.78718  Biso   1.000  N
  H195     1.0000 0.23081  0.51671  0.80421  Biso   1.000  H
  C181     1.0000 0.29321  0.56960  0.78690  Biso   1.000  C
  H196     1.0000 0.19160  0.56920  0.67649  Biso   1.000  H
  H197     1.0000 0.17649  0.57039  0.73861  Biso   1.000  H
  C182     1.0000 0.23909  0.61848  0.71998  Biso   1.000  C
  N32      1.0000 0.02598  0.21278  0.79557  Biso   1.000  N
  H198     1.0000 0.98329  0.19579  0.73077  Biso   1.000  H
  C183     1.0000 0.93040  0.21310  0.79317  Biso   1.000  C
  H199     1.0000 0.93080  0.32351  0.69160  Biso   1.000  H
  H200     1.0000 0.92961  0.26139  0.67649  Biso   1.000  H
  C184     1.0000 0.88152  0.27998  0.73909  Biso   1.000  C
  N33      1.0000 0.47398  0.28722  0.79557  Biso   1.000  N
  H201     1.0000 0.51671  0.30421  0.73077  Biso   1.000  H
  C185     1.0000 0.56960  0.28690  0.79317  Biso   1.000  C
  H202     1.0000 0.56920  0.17649  0.69160  Biso   1.000  H
  H203     1.0000 0.57039  0.23861  0.67649  Biso   1.000  H
  C186     1.0000 0.61848  0.21998  0.73909  Biso   1.000  C
  N34      1.0000 0.20439  0.02598  0.78718  Biso   1.000  N
  H204     1.0000 0.26919  0.98329  0.80421  Biso   1.000  H
  C187     1.0000 0.20679  0.93040  0.78690  Biso   1.000  C
  H205     1.0000 0.30840  0.93080  0.67649  Biso   1.000  H
  H206     1.0000 0.32351  0.92961  0.73861  Biso   1.000  H
  C188     1.0000 0.26091  0.88152  0.71998  Biso   1.000  C
  C189     1.0000 0.28682  0.44148  0.82587  Biso   1.000  C
  H207     1.0000 0.30840  0.56920  0.82347  Biso   1.000  H
  H208     1.0000 0.32351  0.57039  0.76139  Biso   1.000  H
  C190     1.0000 0.26091  0.61848  0.77998  Biso   1.000  C
  H209     1.0000 0.21690  0.65058  0.71350  Biso   1.000  H
  H210     1.0000 0.26931  0.61868  0.69448  Biso   1.000  H
  C191     1.0000 0.05848  0.17409  0.78678  Biso   1.000  C
  H211     1.0000 0.93080  0.17649  0.80840  Biso   1.000  H
  H212     1.0000 0.92961  0.23861  0.82347  Biso   1.000  H
  C192     1.0000 0.88152  0.21998  0.76087  Biso   1.000  C
  H213     1.0000 0.84942  0.28650  0.71690  Biso   1.000  H
  H214     1.0000 0.88132  0.30548  0.76931  Biso   1.000  H
  C193     1.0000 0.44148  0.32591  0.78678  Biso   1.000  C
  H215     1.0000 0.56920  0.32351  0.80840  Biso   1.000  H
  H216     1.0000 0.57039  0.26139  0.82347  Biso   1.000  H
  C194     1.0000 0.61848  0.27998  0.76087  Biso   1.000  C
  H217     1.0000 0.65058  0.21350  0.71690  Biso   1.000  H
  H218     1.0000 0.61868  0.19452  0.76931  Biso   1.000  H
  C195     1.0000 0.21318  0.05848  0.82587  Biso   1.000  C
  H219     1.0000 0.19160  0.93080  0.82347  Biso   1.000  H
  H220     1.0000 0.17649  0.92961  0.76139  Biso   1.000  H
  C196     1.0000 0.23909  0.88152  0.77998  Biso   1.000  C
  H221     1.0000 0.28310  0.84942  0.71350  Biso   1.000  H
  H222     1.0000 0.23069  0.88132  0.69448  Biso   1.000  H
  C197     1.0000 0.32071  0.39699  0.83910  Biso   1.000  C
  H223     1.0000 0.25580  0.44711  0.84718  Biso   1.000  H
  H224     1.0000 0.28310  0.65058  0.78650  Biso   1.000  H
  H225     1.0000 0.23069  0.61868  0.80548  Biso   1.000  H
  C198     1.0000 0.10301  0.16090  0.82067  Biso   1.000  C
  H226     1.0000 0.05289  0.15278  0.75580  Biso   1.000  H
  H227     1.0000 0.84942  0.21350  0.78310  Biso   1.000  H
  H228     1.0000 0.88132  0.19452  0.73069  Biso   1.000  H
  C199     1.0000 0.39699  0.33910  0.82067  Biso   1.000  C
  H229     1.0000 0.44711  0.34718  0.75580  Biso   1.000  H
  H230     1.0000 0.65058  0.28650  0.78310  Biso   1.000  H
  H231     1.0000 0.61868  0.30548  0.73069  Biso   1.000  H
  C200     1.0000 0.17929  0.10301  0.83910  Biso   1.000  C
  H232     1.0000 0.24420  0.05289  0.84718  Biso   1.000  H
  H233     1.0000 0.21690  0.84942  0.78650  Biso   1.000  H
  H234     1.0000 0.26931  0.88132  0.80548  Biso   1.000  H
  C201     1.0000 0.36509  0.38299  0.80668  Biso   1.000  C
  C202     1.0000 0.30668  0.36509  0.88299  Biso   1.000  C
  C203     1.0000 0.13491  0.11701  0.80668  Biso   1.000  C
  C204     1.0000 0.11701  0.19332  0.86509  Biso   1.000  C
  C205     1.0000 0.38299  0.30668  0.86509  Biso   1.000  C
  C206     1.0000 0.19332  0.13491  0.88299  Biso   1.000  C
  H235     1.0000 0.37320  0.40318  0.77558  Biso   1.000  H
  C207     1.0000 0.33910  0.32071  0.89699  Biso   1.000  C
  H236     1.0000 0.27558  0.37320  0.90318  Biso   1.000  H
  H237     1.0000 0.12680  0.09682  0.77558  Biso   1.000  H
  C208     1.0000 0.16090  0.17929  0.89699  Biso   1.000  C
  H238     1.0000 0.09682  0.22442  0.87320  Biso   1.000  H
  H239     1.0000 0.40318  0.27558  0.87320  Biso   1.000  H
  H240     1.0000 0.22442  0.12680  0.90318  Biso   1.000  H
  C209     1.0000 0.32591  0.28682  0.94148  Biso   1.000  C
  C210     1.0000 0.17409  0.21318  0.94148  Biso   1.000  C
  N35      1.0000 0.28722  0.29561  0.97398  Biso   1.000  N
  H241     1.0000 0.34718  0.25580  0.94707  Biso   1.000  H
  N36      1.0000 0.21278  0.20439  0.97398  Biso   1.000  N
  H242     1.0000 0.15278  0.24420  0.94707  Biso   1.000  H
  C211     1.0000 0.27810  0.26099  0.01807  Biso   1.000  C
  C212     1.0000 0.22190  0.23901  0.01807  Biso   1.000  C
  H243     1.0000 0.30421  0.23081  0.01667  Biso   1.000  H
  C213     1.0000 0.28690  0.29321  0.06960  Biso   1.000  C
  H244     1.0000 0.19579  0.26919  0.01667  Biso   1.000  H
  C214     1.0000 0.21310  0.20679  0.06960  Biso   1.000  C
  H245     1.0000 0.32351  0.30840  0.06920  Biso   1.000  H
  H246     1.0000 0.26139  0.32351  0.07039  Biso   1.000  H
  C215     1.0000 0.27998  0.26091  0.11848  Biso   1.000  C
  H247     1.0000 0.17649  0.19160  0.06920  Biso   1.000  H
  H248     1.0000 0.23861  0.17649  0.07039  Biso   1.000  H
  C216     1.0000 0.21998  0.23909  0.11848  Biso   1.000  C
  H249     1.0000 0.28650  0.28310  0.15058  Biso   1.000  H
  H250     1.0000 0.30548  0.23069  0.11868  Biso   1.000  H
  H251     1.0000 0.21350  0.21690  0.15058  Biso   1.000  H
  H252     1.0000 0.19452  0.26931  0.11868  Biso   1.000  H
  C217     1.0000 0.35301  0.07071  0.08910  Biso   1.000  C
  C218     1.0000 0.38491  0.05668  0.13299  Biso   1.000  C
  C219     1.0000 0.30848  0.03682  0.07591  Biso   1.000  C
  C220     1.0000 0.36701  0.11509  0.05668  Biso   1.000  C
  C221     1.0000 0.30848  0.03682  0.07587  Biso   1.000  C
  C222     1.0000 0.30848  0.03678  0.07591  Biso   1.000  C
  C223     1.0000 0.30848  0.03678  0.07587  Biso   1.000  C
  C224     1.0000 0.42929  0.08910  0.14699  Biso   1.000  C
  H253     1.0000 0.37680  0.02558  0.15318  Biso   1.000  H
  C225     1.0000 0.35301  0.07067  0.08910  Biso   1.000  C
  N37      1.0000 0.27598  0.04561  0.03722  Biso   1.000  N
  H254     1.0000 0.30289  0.00580  0.09722  Biso   1.000  H
  N38      1.0000 0.27598  0.04561  0.03718  Biso   1.000  N
  H255     1.0000 0.30289  0.00580  0.09718  Biso   1.000  H
  N39      1.0000 0.27598  0.04557  0.03722  Biso   1.000  N
  N40      1.0000 0.27598  0.04557  0.03718  Biso   1.000  N
  C226     1.0000 0.41090  0.14699  0.07071  Biso   1.000  C
  C227     1.0000 0.41090  0.14699  0.07067  Biso   1.000  C
  H256     1.0000 0.34678  0.12320  0.02558  Biso   1.000  H
  C228     1.0000 0.44328  0.13299  0.11509  Biso   1.000  C
  C229     1.0000 0.46318  0.07591  0.19152  Biso   1.000  C
  C230     1.0000 0.46318  0.07591  0.19148  Biso   1.000  C
  C231     1.0000 0.46318  0.07587  0.19152  Biso   1.000  C
  C232     1.0000 0.46318  0.07587  0.19148  Biso   1.000  C
  C233     1.0000 0.23189  0.01099  0.02810  Biso   1.000  C
  C234     1.0000 0.42409  0.19152  0.03682  Biso   1.000  C
  C235     1.0000 0.42409  0.19152  0.03678  Biso   1.000  C
  C236     1.0000 0.42409  0.19148  0.03682  Biso   1.000  C
  C237     1.0000 0.42409  0.19148  0.03678  Biso   1.000  C
  H257     1.0000 0.47438  0.15318  0.12320  Biso   1.000  H
  N41      1.0000 0.45439  0.03722  0.22402  Biso   1.000  N
  H258     1.0000 0.49420  0.09722  0.19711  Biso   1.000  H
  N42      1.0000 0.45439  0.03722  0.22398  Biso   1.000  N
  H259     1.0000 0.49420  0.09722  0.19707  Biso   1.000  H
  N43      1.0000 0.45439  0.03718  0.22402  Biso   1.000  N
  H260     1.0000 0.49420  0.09718  0.19711  Biso   1.000  H
  N44      1.0000 0.45439  0.03718  0.22398  Biso   1.000  N
  H261     1.0000 0.49420  0.09718  0.19707  Biso   1.000  H
  C238     1.0000 0.18040  0.04321  0.03690  Biso   1.000  C
  C239     1.0000 0.18040  0.04317  0.03690  Biso   1.000  C
  C240     1.0000 0.23189  0.98901  0.97190  Biso   1.000  C
  H262     1.0000 0.23329  0.98081  0.05421  Biso   1.000  H
  H263     1.0000 0.23329  0.98077  0.05421  Biso   1.000  H
  N45      1.0000 0.46278  0.22402  0.04561  Biso   1.000  N
  H264     1.0000 0.40278  0.19711  0.00580  Biso   1.000  H
  N46      1.0000 0.46278  0.22402  0.04557  Biso   1.000  N
  N47      1.0000 0.46278  0.22398  0.04561  Biso   1.000  N
  H265     1.0000 0.40278  0.19707  0.00580  Biso   1.000  H
  N48      1.0000 0.46278  0.22398  0.04557  Biso   1.000  N
  C241     1.0000 0.48901  0.02810  0.26811  Biso   1.000  C
  C242     1.0000 0.48901  0.02810  0.26807  Biso   1.000  C
  H266     1.0000 0.18080  0.05840  0.07351  Biso   1.000  H
  H267     1.0000 0.17961  0.07351  0.01139  Biso   1.000  H
  C243     1.0000 0.13152  0.01091  0.02998  Biso   1.000  C
  H268     1.0000 0.18080  0.05840  0.07347  Biso   1.000  H
  H269     1.0000 0.17961  0.07347  0.01139  Biso   1.000  H
  C244     1.0000 0.13152  0.01087  0.02998  Biso   1.000  C
  N49      1.0000 0.27598  0.95439  0.96278  Biso   1.000  N
  C245     1.0000 0.18040  0.95679  0.96310  Biso   1.000  C
  H270     1.0000 0.23329  0.01919  0.94579  Biso   1.000  H
  C246     1.0000 0.47190  0.26811  0.01099  Biso   1.000  C
  C247     1.0000 0.47190  0.26807  0.01099  Biso   1.000  C
  H271     1.0000 0.51919  0.05421  0.26671  Biso   1.000  H
  C248     1.0000 0.45679  0.03690  0.31960  Biso   1.000  C
  H272     1.0000 0.51919  0.05421  0.26667  Biso   1.000  H
  C249     1.0000 0.51099  0.97190  0.26811  Biso   1.000  C
  C250     1.0000 0.51099  0.97190  0.26807  Biso   1.000  C
  H273     1.0000 0.09942  0.03310  0.03650  Biso   1.000  H
  C251     1.0000 0.13152  0.98909  0.97002  Biso   1.000  C
  C252     1.0000 0.13152  0.98909  0.96998  Biso   1.000  C
  H274     1.0000 0.13132  0.98069  0.05548  Biso   1.000  H
  C253     1.0000 0.30848  0.96318  0.92409  Biso   1.000  C
  H275     1.0000 0.18080  0.94160  0.92649  Biso   1.000  H
  H276     1.0000 0.17961  0.92649  0.98861  Biso   1.000  H
  C254     1.0000 0.46310  0.31960  0.04321  Biso   1.000  C
  C255     1.0000 0.46310  0.31960  0.04317  Biso   1.000  C
  C256     1.0000 0.52810  0.26811  0.98901  Biso   1.000  C
  H277     1.0000 0.44579  0.26671  0.98081  Biso   1.000  H
  H278     1.0000 0.44579  0.26671  0.98077  Biso   1.000  H
  C257     1.0000 0.52810  0.26807  0.98901  Biso   1.000  C
  H279     1.0000 0.44579  0.26667  0.98081  Biso   1.000  H
  H280     1.0000 0.44579  0.26667  0.98077  Biso   1.000  H
  H281     1.0000 0.44160  0.07351  0.31920  Biso   1.000  H
  H282     1.0000 0.42649  0.01139  0.32039  Biso   1.000  H
  C258     1.0000 0.48909  0.02998  0.36848  Biso   1.000  C
  H283     1.0000 0.44160  0.07347  0.31920  Biso   1.000  H
  N50      1.0000 0.54561  0.96278  0.22402  Biso   1.000  N
  H284     1.0000 0.48081  0.94579  0.26671  Biso   1.000  H
  C259     1.0000 0.54321  0.96310  0.31960  Biso   1.000  C
  N51      1.0000 0.54561  0.96278  0.22398  Biso   1.000  N
  H285     1.0000 0.48081  0.94579  0.26667  Biso   1.000  H
  H286     1.0000 0.09942  0.96690  0.96350  Biso   1.000  H
  H287     1.0000 0.13132  0.01931  0.94452  Biso   1.000  H
  H288     1.0000 0.13132  0.01931  0.94448  Biso   1.000  H
  C260     1.0000 0.35301  0.92929  0.91090  Biso   1.000  C
  H289     1.0000 0.30289  0.99420  0.90278  Biso   1.000  H
  H290     1.0000 0.42649  0.31920  0.05840  Biso   1.000  H
  H291     1.0000 0.48861  0.32039  0.07351  Biso   1.000  H
  C261     1.0000 0.46998  0.36848  0.01091  Biso   1.000  C
  H292     1.0000 0.48861  0.32039  0.07347  Biso   1.000  H
  C262     1.0000 0.46998  0.36848  0.01087  Biso   1.000  C
  H293     1.0000 0.55421  0.26671  0.01919  Biso   1.000  H
  H294     1.0000 0.55421  0.26667  0.01919  Biso   1.000  H
  N52      1.0000 0.53718  0.22402  0.95439  Biso   1.000  N
  C263     1.0000 0.53690  0.31960  0.95679  Biso   1.000  C
  N53      1.0000 0.53718  0.22398  0.95439  Biso   1.000  N
  H295     1.0000 0.46690  0.03650  0.40058  Biso   1.000  H
  H296     1.0000 0.51931  0.05548  0.36868  Biso   1.000  H
  C264     1.0000 0.51091  0.97002  0.36848  Biso   1.000  C
  C265     1.0000 0.51091  0.96998  0.36848  Biso   1.000  C
  C266     1.0000 0.53678  0.92409  0.19152  Biso   1.000  C
  C267     1.0000 0.53678  0.92409  0.19148  Biso   1.000  C
  H297     1.0000 0.55840  0.92649  0.31920  Biso   1.000  H
  H298     1.0000 0.57351  0.98861  0.32039  Biso   1.000  H
  C268     1.0000 0.38491  0.94332  0.86701  Biso   1.000  C
  C269     1.0000 0.36701  0.88491  0.94332  Biso   1.000  C
  C270     1.0000 0.36701  0.88491  0.94328  Biso   1.000  C
  C271     1.0000 0.38491  0.94328  0.86701  Biso   1.000  C
  C272     1.0000 0.36701  0.88487  0.94332  Biso   1.000  C
  C273     1.0000 0.36701  0.88487  0.94328  Biso   1.000  C
  H299     1.0000 0.46350  0.40058  0.03310  Biso   1.000  H
  C274     1.0000 0.52998  0.36848  0.98909  Biso   1.000  C
  H300     1.0000 0.44448  0.36868  0.98069  Biso   1.000  H
  C275     1.0000 0.57591  0.19152  0.96318  Biso   1.000  C
  C276     1.0000 0.57591  0.19148  0.96318  Biso   1.000  C
  H301     1.0000 0.57351  0.31920  0.94160  Biso   1.000  H
  H302     1.0000 0.51139  0.32039  0.92649  Biso   1.000  H
  H303     1.0000 0.53310  0.96350  0.40058  Biso   1.000  H
  H304     1.0000 0.48069  0.94452  0.36868  Biso   1.000  H
  H305     1.0000 0.48069  0.94448  0.36868  Biso   1.000  H
  C277     1.0000 0.57067  0.91090  0.14699  Biso   1.000  C
  H306     1.0000 0.50580  0.90278  0.19711  Biso   1.000  H
  H307     1.0000 0.50580  0.90278  0.19707  Biso   1.000  H
  H308     1.0000 0.37680  0.97442  0.84682  Biso   1.000  H
  C278     1.0000 0.42929  0.91090  0.85301  Biso   1.000  C
  H309     1.0000 0.37680  0.97442  0.84678  Biso   1.000  H
  C279     1.0000 0.42929  0.91090  0.85297  Biso   1.000  C
  H310     1.0000 0.37680  0.97438  0.84682  Biso   1.000  H
  H311     1.0000 0.37680  0.97438  0.84678  Biso   1.000  H
  H312     1.0000 0.34678  0.87680  0.97442  Biso   1.000  H
  C280     1.0000 0.41090  0.85301  0.92929  Biso   1.000  C
  H313     1.0000 0.34678  0.87680  0.97438  Biso   1.000  H
  C281     1.0000 0.41090  0.85297  0.92929  Biso   1.000  C
  H314     1.0000 0.55548  0.36868  0.01931  Biso   1.000  H
  H315     1.0000 0.53650  0.40058  0.96690  Biso   1.000  H
  C282     1.0000 0.58910  0.14699  0.92929  Biso   1.000  C
  H316     1.0000 0.59718  0.19711  0.99420  Biso   1.000  H
  H317     1.0000 0.59718  0.19707  0.99420  Biso   1.000  H
  C283     1.0000 0.55668  0.86701  0.11509  Biso   1.000  C
  C284     1.0000 0.61509  0.94332  0.13299  Biso   1.000  C
  C285     1.0000 0.61509  0.94328  0.13299  Biso   1.000  C
  C286     1.0000 0.44328  0.86701  0.88491  Biso   1.000  C
  C287     1.0000 0.46318  0.92409  0.80848  Biso   1.000  C
  C288     1.0000 0.44328  0.86701  0.88487  Biso   1.000  C
  C289     1.0000 0.42409  0.80848  0.96318  Biso   1.000  C
  C290     1.0000 0.63299  0.11509  0.94332  Biso   1.000  C
  C291     1.0000 0.55668  0.13299  0.88491  Biso   1.000  C
  C292     1.0000 0.63299  0.11509  0.94328  Biso   1.000  C
  C293     1.0000 0.55668  0.13299  0.88487  Biso   1.000  C
  H318     1.0000 0.52558  0.84682  0.12320  Biso   1.000  H
  C294     1.0000 0.58910  0.85301  0.07071  Biso   1.000  C
  C295     1.0000 0.58910  0.85301  0.07067  Biso   1.000  C
  H319     1.0000 0.52558  0.84678  0.12320  Biso   1.000  H
  C296     1.0000 0.58910  0.85297  0.07071  Biso   1.000  C
  C297     1.0000 0.58910  0.85297  0.07067  Biso   1.000  C
  H320     1.0000 0.62320  0.97442  0.15318  Biso   1.000  H
  C298     1.0000 0.64699  0.92929  0.08910  Biso   1.000  C
  H321     1.0000 0.62320  0.97438  0.15318  Biso   1.000  H
  H322     1.0000 0.47438  0.84682  0.87680  Biso   1.000  H
  H323     1.0000 0.47438  0.84678  0.87680  Biso   1.000  H
  N54      1.0000 0.45439  0.96278  0.77598  Biso   1.000  N
  H324     1.0000 0.49420  0.90278  0.80289  Biso   1.000  H
  N55      1.0000 0.46278  0.77598  0.95439  Biso   1.000  N
  H325     1.0000 0.40278  0.80289  0.99420  Biso   1.000  H
  H326     1.0000 0.65318  0.12320  0.97442  Biso   1.000  H
  C299     1.0000 0.64699  0.07071  0.91090  Biso   1.000  C
  H327     1.0000 0.65318  0.12320  0.97438  Biso   1.000  H
  C300     1.0000 0.64699  0.07067  0.91090  Biso   1.000  C
  H328     1.0000 0.52558  0.15318  0.87680  Biso   1.000  H
  C301     1.0000 0.57067  0.08910  0.85301  Biso   1.000  C
  C302     1.0000 0.57067  0.08910  0.85297  Biso   1.000  C
  C303     1.0000 0.63299  0.88491  0.05668  Biso   1.000  C
  C304     1.0000 0.57591  0.80848  0.03682  Biso   1.000  C
  C305     1.0000 0.57591  0.80848  0.03678  Biso   1.000  C
  C306     1.0000 0.63299  0.88487  0.05668  Biso   1.000  C
  C307     1.0000 0.69148  0.96318  0.07591  Biso   1.000  C
  C308     1.0000 0.69148  0.96318  0.07587  Biso   1.000  C
  C309     1.0000 0.48901  0.97190  0.73189  Biso   1.000  C
  C310     1.0000 0.47190  0.73189  0.98901  Biso   1.000  C
  C311     1.0000 0.61509  0.05668  0.86701  Biso   1.000  C
  C312     1.0000 0.69148  0.03682  0.92409  Biso   1.000  C
  C313     1.0000 0.69148  0.03678  0.92409  Biso   1.000  C
  C314     1.0000 0.53678  0.07591  0.80848  Biso   1.000  C
  C315     1.0000 0.53678  0.07587  0.80848  Biso   1.000  C
  H329     1.0000 0.65318  0.87680  0.02558  Biso   1.000  H
  N56      1.0000 0.53718  0.77598  0.04561  Biso   1.000  N
  H330     1.0000 0.59718  0.80289  0.00580  Biso   1.000  H
  N57      1.0000 0.53718  0.77598  0.04557  Biso   1.000  N
  N58      1.0000 0.72398  0.95439  0.03722  Biso   1.000  N
  H331     1.0000 0.69707  0.99420  0.09722  Biso   1.000  H
  N59      1.0000 0.72398  0.95439  0.03718  Biso   1.000  N
  H332     1.0000 0.69707  0.99420  0.09718  Biso   1.000  H
  C316     1.0000 0.51099  0.02810  0.73189  Biso   1.000  C
  H333     1.0000 0.51919  0.94579  0.73329  Biso   1.000  H
  C317     1.0000 0.45679  0.96310  0.68040  Biso   1.000  C
  C318     1.0000 0.52810  0.73189  0.01099  Biso   1.000  C
  C319     1.0000 0.46310  0.68040  0.95679  Biso   1.000  C
  H334     1.0000 0.44579  0.73329  0.01919  Biso   1.000  H
  H335     1.0000 0.62320  0.02558  0.84682  Biso   1.000  H
  H336     1.0000 0.62320  0.02558  0.84678  Biso   1.000  H
  N60      1.0000 0.72398  0.04561  0.96278  Biso   1.000  N
  H337     1.0000 0.69707  0.00580  0.90278  Biso   1.000  H
  N61      1.0000 0.72398  0.04557  0.96278  Biso   1.000  N
  N62      1.0000 0.54561  0.03722  0.77598  Biso   1.000  N
  H338     1.0000 0.50580  0.09722  0.80289  Biso   1.000  H
  N63      1.0000 0.54561  0.03718  0.77598  Biso   1.000  N
  H339     1.0000 0.50580  0.09718  0.80289  Biso   1.000  H
  C320     1.0000 0.76811  0.98901  0.02810  Biso   1.000  C
  H340     1.0000 0.48081  0.05421  0.73329  Biso   1.000  H
  C321     1.0000 0.54321  0.03690  0.68040  Biso   1.000  C
  H341     1.0000 0.44160  0.92649  0.68080  Biso   1.000  H
  H342     1.0000 0.42649  0.98861  0.67961  Biso   1.000  H
  C322     1.0000 0.48909  0.97002  0.63152  Biso   1.000  C
  C323     1.0000 0.48909  0.97002  0.63148  Biso   1.000  C
  C324     1.0000 0.48909  0.96998  0.63152  Biso   1.000  C
  C325     1.0000 0.48909  0.96998  0.63148  Biso   1.000  C
  H343     1.0000 0.55421  0.73329  0.98081  Biso   1.000  H
  H344     1.0000 0.55421  0.73329  0.98077  Biso   1.000  H
  C326     1.0000 0.53690  0.68040  0.04321  Biso   1.000  C
  C327     1.0000 0.53690  0.68040  0.04317  Biso   1.000  C
  H345     1.0000 0.42649  0.68080  0.94160  Biso   1.000  H
  H346     1.0000 0.48861  0.67961  0.92649  Biso   1.000  H
  C328     1.0000 0.46998  0.63152  0.98909  Biso   1.000  C
  C329     1.0000 0.46998  0.63148  0.98909  Biso   1.000  C
  C330     1.0000 0.76811  0.01099  0.97190  Biso   1.000  C
  H347     1.0000 0.76671  0.01919  0.05421  Biso   1.000  H
  C331     1.0000 0.81960  0.95679  0.03690  Biso   1.000  C
  H348     1.0000 0.55840  0.07351  0.68080  Biso   1.000  H
  H349     1.0000 0.57351  0.01139  0.67961  Biso   1.000  H
  C332     1.0000 0.51091  0.02998  0.63152  Biso   1.000  C
  C333     1.0000 0.51091  0.02998  0.63148  Biso   1.000  C
  H350     1.0000 0.55840  0.07347  0.68080  Biso   1.000  H
  H351     1.0000 0.46690  0.96350  0.59942  Biso   1.000  H
  H352     1.0000 0.51931  0.94452  0.63132  Biso   1.000  H
  H353     1.0000 0.46690  0.96350  0.59938  Biso   1.000  H
  H354     1.0000 0.51931  0.94452  0.63128  Biso   1.000  H
  H355     1.0000 0.51931  0.94448  0.63132  Biso   1.000  H
  H356     1.0000 0.51931  0.94448  0.63128  Biso   1.000  H
  H357     1.0000 0.57351  0.68080  0.05840  Biso   1.000  H
  H358     1.0000 0.51139  0.67961  0.07351  Biso   1.000  H
  C334     1.0000 0.52998  0.63152  0.01091  Biso   1.000  C
  H359     1.0000 0.51139  0.67961  0.07347  Biso   1.000  H
  C335     1.0000 0.52998  0.63152  0.01087  Biso   1.000  C
  C336     1.0000 0.52998  0.63148  0.01091  Biso   1.000  C
  C337     1.0000 0.52998  0.63148  0.01087  Biso   1.000  C
  H360     1.0000 0.46350  0.59942  0.96690  Biso   1.000  H
  H361     1.0000 0.46350  0.59938  0.96690  Biso   1.000  H
  H362     1.0000 0.44448  0.63132  0.01931  Biso   1.000  H
  H363     1.0000 0.44448  0.63128  0.01931  Biso   1.000  H
  H364     1.0000 0.76671  0.98081  0.94579  Biso   1.000  H
  H365     1.0000 0.76671  0.98077  0.94579  Biso   1.000  H
  C338     1.0000 0.81960  0.04321  0.96310  Biso   1.000  C
  C339     1.0000 0.81960  0.04317  0.96310  Biso   1.000  C
  H366     1.0000 0.81920  0.94160  0.07351  Biso   1.000  H
  H367     1.0000 0.82039  0.92649  0.01139  Biso   1.000  H
  C340     1.0000 0.86848  0.98909  0.02998  Biso   1.000  C
  H368     1.0000 0.81920  0.94160  0.07347  Biso   1.000  H
  H369     1.0000 0.53310  0.03650  0.59942  Biso   1.000  H
  H370     1.0000 0.48069  0.05548  0.63132  Biso   1.000  H
  H371     1.0000 0.53310  0.03650  0.59938  Biso   1.000  H
  H372     1.0000 0.48069  0.05548  0.63128  Biso   1.000  H
  H373     1.0000 0.55548  0.63132  0.98069  Biso   1.000  H
  H374     1.0000 0.55548  0.63128  0.98069  Biso   1.000  H
  H375     1.0000 0.53650  0.59942  0.03310  Biso   1.000  H
  H376     1.0000 0.53650  0.59938  0.03310  Biso   1.000  H
  C341     1.0000 0.86848  0.01091  0.97002  Biso   1.000  C
  C342     1.0000 0.86848  0.01091  0.96998  Biso   1.000  C
  C343     1.0000 0.86848  0.01087  0.97002  Biso   1.000  C
  C344     1.0000 0.86848  0.01087  0.96998  Biso   1.000  C
  H377     1.0000 0.81920  0.05840  0.92649  Biso   1.000  H
  H378     1.0000 0.82039  0.07351  0.98861  Biso   1.000  H
  H379     1.0000 0.82039  0.07347  0.98861  Biso   1.000  H
  H380     1.0000 0.86868  0.01931  0.05548  Biso   1.000  H
  H381     1.0000 0.90058  0.96690  0.03650  Biso   1.000  H
  H382     1.0000 0.86868  0.98069  0.94452  Biso   1.000  H
  H383     1.0000 0.86868  0.98069  0.94448  Biso   1.000  H
  H384     1.0000 0.90058  0.03310  0.96350  Biso   1.000  H
  C345     1.0000 0.35301  0.07071  0.08910  Biso   1.000  C
  C346     1.0000 0.38491  0.05668  0.13299  Biso   1.000  C
  C347     1.0000 0.36701  0.11509  0.05668  Biso   1.000  C
  C348     1.0000 0.30848  0.03682  0.07591  Biso   1.000  C
  C349     1.0000 0.30848  0.03682  0.07587  Biso   1.000  C
  C350     1.0000 0.30848  0.03678  0.07591  Biso   1.000  C
  C351     1.0000 0.30848  0.03678  0.07587  Biso   1.000  C
  C352     1.0000 0.42929  0.08910  0.14699  Biso   1.000  C
  H385     1.0000 0.37680  0.02558  0.15318  Biso   1.000  H
  C353     1.0000 0.35301  0.07067  0.08910  Biso   1.000  C
  C354     1.0000 0.41090  0.14699  0.07071  Biso   1.000  C
  C355     1.0000 0.41090  0.14699  0.07067  Biso   1.000  C
  H386     1.0000 0.34678  0.12320  0.02558  Biso   1.000  H
  H387     1.0000 0.30289  0.00580  0.09722  Biso   1.000  H
  H388     1.0000 0.30289  0.00580  0.09718  Biso   1.000  H
  N64      1.0000 0.27598  0.04561  0.03722  Biso   1.000  N
  N65      1.0000 0.27598  0.04561  0.03718  Biso   1.000  N
  N66      1.0000 0.27598  0.04557  0.03722  Biso   1.000  N
  N67      1.0000 0.27598  0.04557  0.03718  Biso   1.000  N
  C356     1.0000 0.44328  0.13299  0.11509  Biso   1.000  C
  C357     1.0000 0.46318  0.07591  0.19152  Biso   1.000  C
  C358     1.0000 0.46318  0.07591  0.19148  Biso   1.000  C
  C359     1.0000 0.46318  0.07587  0.19152  Biso   1.000  C
  C360     1.0000 0.46318  0.07587  0.19148  Biso   1.000  C
  C361     1.0000 0.42409  0.19152  0.03682  Biso   1.000  C
  C362     1.0000 0.42409  0.19152  0.03678  Biso   1.000  C
  C363     1.0000 0.42409  0.19148  0.03682  Biso   1.000  C
  C364     1.0000 0.42409  0.19148  0.03678  Biso   1.000  C
  C365     1.0000 0.23189  0.01099  0.02810  Biso   1.000  C
  H389     1.0000 0.47438  0.15318  0.12320  Biso   1.000  H
  N68      1.0000 0.45439  0.03722  0.22402  Biso   1.000  N
  H390     1.0000 0.49420  0.09722  0.19711  Biso   1.000  H
  N69      1.0000 0.45439  0.03722  0.22398  Biso   1.000  N
  H391     1.0000 0.49420  0.09722  0.19707  Biso   1.000  H
  N70      1.0000 0.45439  0.03718  0.22402  Biso   1.000  N
  H392     1.0000 0.49420  0.09718  0.19711  Biso   1.000  H
  N71      1.0000 0.45439  0.03718  0.22398  Biso   1.000  N
  H393     1.0000 0.49420  0.09718  0.19707  Biso   1.000  H
  H394     1.0000 0.40278  0.19711  0.00580  Biso   1.000  H
  H395     1.0000 0.40278  0.19707  0.00580  Biso   1.000  H
  N72      1.0000 0.46278  0.22402  0.04561  Biso   1.000  N
  N73      1.0000 0.46278  0.22402  0.04557  Biso   1.000  N
  N74      1.0000 0.46278  0.22398  0.04561  Biso   1.000  N
  N75      1.0000 0.46278  0.22398  0.04557  Biso   1.000  N
  C366     1.0000 0.18040  0.04321  0.03690  Biso   1.000  C
  C367     1.0000 0.18040  0.04317  0.03690  Biso   1.000  C
  C368     1.0000 0.23189  0.98901  0.97190  Biso   1.000  C
  H396     1.0000 0.23329  0.98081  0.05421  Biso   1.000  H
  H397     1.0000 0.23329  0.98077  0.05421  Biso   1.000  H
  C369     1.0000 0.48901  0.02810  0.26811  Biso   1.000  C
  C370     1.0000 0.48901  0.02810  0.26807  Biso   1.000  C
  C371     1.0000 0.47190  0.26811  0.01099  Biso   1.000  C
  C372     1.0000 0.47190  0.26807  0.01099  Biso   1.000  C
  H398     1.0000 0.17961  0.07351  0.01139  Biso   1.000  H
  C373     1.0000 0.13152  0.01091  0.02998  Biso   1.000  C
  H399     1.0000 0.18080  0.05840  0.07351  Biso   1.000  H
  H400     1.0000 0.18080  0.05840  0.07347  Biso   1.000  H
  H401     1.0000 0.17961  0.07347  0.01139  Biso   1.000  H
  C374     1.0000 0.13152  0.01087  0.02998  Biso   1.000  C
  N76      1.0000 0.27598  0.95439  0.96278  Biso   1.000  N
  C375     1.0000 0.18040  0.95679  0.96310  Biso   1.000  C
  H402     1.0000 0.23329  0.01919  0.94579  Biso   1.000  H
  C376     1.0000 0.45679  0.03690  0.31960  Biso   1.000  C
  H403     1.0000 0.51919  0.05421  0.26671  Biso   1.000  H
  H404     1.0000 0.51919  0.05421  0.26667  Biso   1.000  H
  C377     1.0000 0.51099  0.97190  0.26811  Biso   1.000  C
  C378     1.0000 0.51099  0.97190  0.26807  Biso   1.000  C
  C379     1.0000 0.46310  0.31960  0.04321  Biso   1.000  C
  C380     1.0000 0.46310  0.31960  0.04317  Biso   1.000  C
  C381     1.0000 0.52810  0.26811  0.98901  Biso   1.000  C
  H405     1.0000 0.44579  0.26671  0.98081  Biso   1.000  H
  H406     1.0000 0.44579  0.26671  0.98077  Biso   1.000  H
  C382     1.0000 0.52810  0.26807  0.98901  Biso   1.000  C
  H407     1.0000 0.44579  0.26667  0.98081  Biso   1.000  H
  H408     1.0000 0.44579  0.26667  0.98077  Biso   1.000  H
  H409     1.0000 0.09942  0.03310  0.03650  Biso   1.000  H
  C383     1.0000 0.13152  0.98909  0.97002  Biso   1.000  C
  C384     1.0000 0.13152  0.98909  0.96998  Biso   1.000  C
  H410     1.0000 0.13132  0.98069  0.05548  Biso   1.000  H
  C385     1.0000 0.30848  0.96318  0.92409  Biso   1.000  C
  H411     1.0000 0.18080  0.94160  0.92649  Biso   1.000  H
  H412     1.0000 0.17961  0.92649  0.98861  Biso   1.000  H
  H413     1.0000 0.44160  0.07351  0.31920  Biso   1.000  H
  H414     1.0000 0.42649  0.01139  0.32039  Biso   1.000  H
  C386     1.0000 0.48909  0.02998  0.36848  Biso   1.000  C
  H415     1.0000 0.44160  0.07347  0.31920  Biso   1.000  H
  N77      1.0000 0.54561  0.96278  0.22402  Biso   1.000  N
  H416     1.0000 0.48081  0.94579  0.26671  Biso   1.000  H
  C387     1.0000 0.54321  0.96310  0.31960  Biso   1.000  C
  N78      1.0000 0.54561  0.96278  0.22398  Biso   1.000  N
  H417     1.0000 0.48081  0.94579  0.26667  Biso   1.000  H
  H418     1.0000 0.42649  0.31920  0.05840  Biso   1.000  H
  H419     1.0000 0.48861  0.32039  0.07351  Biso   1.000  H
  C388     1.0000 0.46998  0.36848  0.01091  Biso   1.000  C
  H420     1.0000 0.48861  0.32039  0.07347  Biso   1.000  H
  C389     1.0000 0.46998  0.36848  0.01087  Biso   1.000  C
  H421     1.0000 0.55421  0.26671  0.01919  Biso   1.000  H
  H422     1.0000 0.55421  0.26667  0.01919  Biso   1.000  H
  N79      1.0000 0.53718  0.22402  0.95439  Biso   1.000  N
  C390     1.0000 0.53690  0.31960  0.95679  Biso   1.000  C
  N80      1.0000 0.53718  0.22398  0.95439  Biso   1.000  N
  H423     1.0000 0.09942  0.96690  0.96350  Biso   1.000  H
  H424     1.0000 0.13132  0.01931  0.94452  Biso   1.000  H
  H425     1.0000 0.13132  0.01931  0.94448  Biso   1.000  H
  C391     1.0000 0.35301  0.92929  0.91090  Biso   1.000  C
  H426     1.0000 0.30289  0.99420  0.90278  Biso   1.000  H
  H427     1.0000 0.46690  0.03650  0.40058  Biso   1.000  H
  H428     1.0000 0.51931  0.05548  0.36868  Biso   1.000  H
  C392     1.0000 0.51091  0.97002  0.36848  Biso   1.000  C
  C393     1.0000 0.51091  0.96998  0.36848  Biso   1.000  C
  C394     1.0000 0.53678  0.92409  0.19152  Biso   1.000  C
  C395     1.0000 0.53678  0.92409  0.19148  Biso   1.000  C
  H429     1.0000 0.55840  0.92649  0.31920  Biso   1.000  H
  H430     1.0000 0.57351  0.98861  0.32039  Biso   1.000  H
  H431     1.0000 0.46350  0.40058  0.03310  Biso   1.000  H
  C396     1.0000 0.52998  0.36848  0.98909  Biso   1.000  C
  H432     1.0000 0.44448  0.36868  0.98069  Biso   1.000  H
  C397     1.0000 0.57591  0.19152  0.96318  Biso   1.000  C
  C398     1.0000 0.57591  0.19148  0.96318  Biso   1.000  C
  H433     1.0000 0.57351  0.31920  0.94160  Biso   1.000  H
  H434     1.0000 0.51139  0.32039  0.92649  Biso   1.000  H
  C399     1.0000 0.38491  0.94332  0.86701  Biso   1.000  C
  C400     1.0000 0.36701  0.88491  0.94332  Biso   1.000  C
  C401     1.0000 0.36701  0.88491  0.94328  Biso   1.000  C
  C402     1.0000 0.38491  0.94328  0.86701  Biso   1.000  C
  C403     1.0000 0.36701  0.88487  0.94332  Biso   1.000  C
  C404     1.0000 0.36701  0.88487  0.94328  Biso   1.000  C
  H435     1.0000 0.53310  0.96350  0.40058  Biso   1.000  H
  H436     1.0000 0.48069  0.94452  0.36868  Biso   1.000  H
  H437     1.0000 0.48069  0.94448  0.36868  Biso   1.000  H
  C405     1.0000 0.57067  0.91090  0.14699  Biso   1.000  C
  H438     1.0000 0.50580  0.90278  0.19711  Biso   1.000  H
  H439     1.0000 0.50580  0.90278  0.19707  Biso   1.000  H
  H440     1.0000 0.55548  0.36868  0.01931  Biso   1.000  H
  H441     1.0000 0.53650  0.40058  0.96690  Biso   1.000  H
  C406     1.0000 0.58910  0.14699  0.92929  Biso   1.000  C
  H442     1.0000 0.59718  0.19711  0.99420  Biso   1.000  H
  H443     1.0000 0.59718  0.19707  0.99420  Biso   1.000  H
  H444     1.0000 0.37680  0.97442  0.84682  Biso   1.000  H
  C407     1.0000 0.42929  0.91090  0.85301  Biso   1.000  C
  H445     1.0000 0.37680  0.97442  0.84678  Biso   1.000  H
  C408     1.0000 0.42929  0.91090  0.85297  Biso   1.000  C
  H446     1.0000 0.37680  0.97438  0.84682  Biso   1.000  H
  H447     1.0000 0.37680  0.97438  0.84678  Biso   1.000  H
  H448     1.0000 0.34678  0.87680  0.97442  Biso   1.000  H
  C409     1.0000 0.41090  0.85301  0.92929  Biso   1.000  C
  H449     1.0000 0.34678  0.87680  0.97438  Biso   1.000  H
  C410     1.0000 0.41090  0.85297  0.92929  Biso   1.000  C
  C411     1.0000 0.55668  0.86701  0.11509  Biso   1.000  C
  C412     1.0000 0.61509  0.94332  0.13299  Biso   1.000  C
  C413     1.0000 0.61509  0.94328  0.13299  Biso   1.000  C
  C414     1.0000 0.63299  0.11509  0.94332  Biso   1.000  C
  C415     1.0000 0.55668  0.13299  0.88491  Biso   1.000  C
  C416     1.0000 0.63299  0.11509  0.94328  Biso   1.000  C
  C417     1.0000 0.55668  0.13299  0.88487  Biso   1.000  C
  C418     1.0000 0.44328  0.86701  0.88491  Biso   1.000  C
  C419     1.0000 0.46318  0.92409  0.80848  Biso   1.000  C
  C420     1.0000 0.44328  0.86701  0.88487  Biso   1.000  C
  C421     1.0000 0.42409  0.80848  0.96318  Biso   1.000  C
  H450     1.0000 0.52558  0.84682  0.12320  Biso   1.000  H
  C422     1.0000 0.58910  0.85301  0.07071  Biso   1.000  C
  C423     1.0000 0.58910  0.85301  0.07067  Biso   1.000  C
  H451     1.0000 0.52558  0.84678  0.12320  Biso   1.000  H
  C424     1.0000 0.58910  0.85297  0.07071  Biso   1.000  C
  C425     1.0000 0.58910  0.85297  0.07067  Biso   1.000  C
  H452     1.0000 0.62320  0.97442  0.15318  Biso   1.000  H
  C426     1.0000 0.64699  0.92929  0.08910  Biso   1.000  C
  H453     1.0000 0.62320  0.97438  0.15318  Biso   1.000  H
  H454     1.0000 0.65318  0.12320  0.97442  Biso   1.000  H
  C427     1.0000 0.64699  0.07071  0.91090  Biso   1.000  C
  H455     1.0000 0.65318  0.12320  0.97438  Biso   1.000  H
  C428     1.0000 0.64699  0.07067  0.91090  Biso   1.000  C
  H456     1.0000 0.52558  0.15318  0.87680  Biso   1.000  H
  C429     1.0000 0.57067  0.08910  0.85301  Biso   1.000  C
  C430     1.0000 0.57067  0.08910  0.85297  Biso   1.000  C
  H457     1.0000 0.47438  0.84682  0.87680  Biso   1.000  H
  H458     1.0000 0.47438  0.84678  0.87680  Biso   1.000  H
  N81      1.0000 0.45439  0.96278  0.77598  Biso   1.000  N
  H459     1.0000 0.49420  0.90278  0.80289  Biso   1.000  H
  N82      1.0000 0.46278  0.77598  0.95439  Biso   1.000  N
  H460     1.0000 0.40278  0.80289  0.99420  Biso   1.000  H
  C431     1.0000 0.63299  0.88491  0.05668  Biso   1.000  C
  C432     1.0000 0.57591  0.80848  0.03682  Biso   1.000  C
  C433     1.0000 0.57591  0.80848  0.03678  Biso   1.000  C
  C434     1.0000 0.63299  0.88487  0.05668  Biso   1.000  C
  C435     1.0000 0.69148  0.96318  0.07591  Biso   1.000  C
  C436     1.0000 0.69148  0.96318  0.07587  Biso   1.000  C
  C437     1.0000 0.61509  0.05668  0.86701  Biso   1.000  C
  C438     1.0000 0.69148  0.03682  0.92409  Biso   1.000  C
  C439     1.0000 0.69148  0.03678  0.92409  Biso   1.000  C
  C440     1.0000 0.53678  0.07591  0.80848  Biso   1.000  C
  C441     1.0000 0.53678  0.07587  0.80848  Biso   1.000  C
  C442     1.0000 0.48901  0.97190  0.73189  Biso   1.000  C
  C443     1.0000 0.47190  0.73189  0.98901  Biso   1.000  C
  H461     1.0000 0.65318  0.87680  0.02558  Biso   1.000  H
  N83      1.0000 0.53718  0.77598  0.04561  Biso   1.000  N
  H462     1.0000 0.59718  0.80289  0.00580  Biso   1.000  H
  N84      1.0000 0.53718  0.77598  0.04557  Biso   1.000  N
  N85      1.0000 0.72398  0.95439  0.03722  Biso   1.000  N
  H463     1.0000 0.69707  0.99420  0.09722  Biso   1.000  H
  N86      1.0000 0.72398  0.95439  0.03718  Biso   1.000  N
  H464     1.0000 0.69707  0.99420  0.09718  Biso   1.000  H
  H465     1.0000 0.62320  0.02558  0.84682  Biso   1.000  H
  H466     1.0000 0.62320  0.02558  0.84678  Biso   1.000  H
  N87      1.0000 0.72398  0.04561  0.96278  Biso   1.000  N
  H467     1.0000 0.69707  0.00580  0.90278  Biso   1.000  H
  N88      1.0000 0.72398  0.04557  0.96278  Biso   1.000  N
  N89      1.0000 0.54561  0.03722  0.77598  Biso   1.000  N
  H468     1.0000 0.50580  0.09722  0.80289  Biso   1.000  H
  N90      1.0000 0.54561  0.03718  0.77598  Biso   1.000  N
  H469     1.0000 0.50580  0.09718  0.80289  Biso   1.000  H
  C444     1.0000 0.51099  0.02810  0.73189  Biso   1.000  C
  H470     1.0000 0.51919  0.94579  0.73329  Biso   1.000  H
  C445     1.0000 0.45679  0.96310  0.68040  Biso   1.000  C
  C446     1.0000 0.52810  0.73189  0.01099  Biso   1.000  C
  C447     1.0000 0.46310  0.68040  0.95679  Biso   1.000  C
  H471     1.0000 0.44579  0.73329  0.01919  Biso   1.000  H
  C448     1.0000 0.76811  0.98901  0.02810  Biso   1.000  C
  C449     1.0000 0.76811  0.01099  0.97190  Biso   1.000  C
  H472     1.0000 0.48081  0.05421  0.73329  Biso   1.000  H
  C450     1.0000 0.54321  0.03690  0.68040  Biso   1.000  C
  H473     1.0000 0.44160  0.92649  0.68080  Biso   1.000  H
  H474     1.0000 0.42649  0.98861  0.67961  Biso   1.000  H
  C451     1.0000 0.48909  0.97002  0.63152  Biso   1.000  C
  C452     1.0000 0.48909  0.97002  0.63148  Biso   1.000  C
  C453     1.0000 0.48909  0.96998  0.63152  Biso   1.000  C
  C454     1.0000 0.48909  0.96998  0.63148  Biso   1.000  C
  H475     1.0000 0.55421  0.73329  0.98081  Biso   1.000  H
  H476     1.0000 0.55421  0.73329  0.98077  Biso   1.000  H
  C455     1.0000 0.53690  0.68040  0.04321  Biso   1.000  C
  C456     1.0000 0.53690  0.68040  0.04317  Biso   1.000  C
  H477     1.0000 0.42649  0.68080  0.94160  Biso   1.000  H
  H478     1.0000 0.48861  0.67961  0.92649  Biso   1.000  H
  C457     1.0000 0.46998  0.63152  0.98909  Biso   1.000  C
  C458     1.0000 0.46998  0.63148  0.98909  Biso   1.000  C
  H479     1.0000 0.76671  0.01919  0.05421  Biso   1.000  H
  C459     1.0000 0.81960  0.95679  0.03690  Biso   1.000  C
  H480     1.0000 0.76671  0.98081  0.94579  Biso   1.000  H
  H481     1.0000 0.76671  0.98077  0.94579  Biso   1.000  H
  C460     1.0000 0.81960  0.04321  0.96310  Biso   1.000  C
  C461     1.0000 0.81960  0.04317  0.96310  Biso   1.000  C
  H482     1.0000 0.55840  0.07351  0.68080  Biso   1.000  H
  H483     1.0000 0.57351  0.01139  0.67961  Biso   1.000  H
  C462     1.0000 0.51091  0.02998  0.63152  Biso   1.000  C
  C463     1.0000 0.51091  0.02998  0.63148  Biso   1.000  C
  H484     1.0000 0.55840  0.07347  0.68080  Biso   1.000  H
  H485     1.0000 0.46690  0.96350  0.59942  Biso   1.000  H
  H486     1.0000 0.51931  0.94452  0.63132  Biso   1.000  H
  H487     1.0000 0.46690  0.96350  0.59938  Biso   1.000  H
  H488     1.0000 0.51931  0.94452  0.63128  Biso   1.000  H
  H489     1.0000 0.51931  0.94448  0.63132  Biso   1.000  H
  H490     1.0000 0.51931  0.94448  0.63128  Biso   1.000  H
  H491     1.0000 0.57351  0.68080  0.05840  Biso   1.000  H
  H492     1.0000 0.51139  0.67961  0.07351  Biso   1.000  H
  C464     1.0000 0.52998  0.63152  0.01091  Biso   1.000  C
  H493     1.0000 0.51139  0.67961  0.07347  Biso   1.000  H
  C465     1.0000 0.52998  0.63152  0.01087  Biso   1.000  C
  C466     1.0000 0.52998  0.63148  0.01091  Biso   1.000  C
  C467     1.0000 0.52998  0.63148  0.01087  Biso   1.000  C
  H494     1.0000 0.46350  0.59942  0.96690  Biso   1.000  H
  H495     1.0000 0.46350  0.59938  0.96690  Biso   1.000  H
  H496     1.0000 0.44448  0.63132  0.01931  Biso   1.000  H
  H497     1.0000 0.44448  0.63128  0.01931  Biso   1.000  H
  H498     1.0000 0.81920  0.94160  0.07351  Biso   1.000  H
  H499     1.0000 0.82039  0.92649  0.01139  Biso   1.000  H
  C468     1.0000 0.86848  0.98909  0.02998  Biso   1.000  C
  H500     1.0000 0.81920  0.94160  0.07347  Biso   1.000  H
  C469     1.0000 0.86848  0.01091  0.97002  Biso   1.000  C
  C470     1.0000 0.86848  0.01091  0.96998  Biso   1.000  C
  C471     1.0000 0.86848  0.01087  0.97002  Biso   1.000  C
  C472     1.0000 0.86848  0.01087  0.96998  Biso   1.000  C
  H501     1.0000 0.81920  0.05840  0.92649  Biso   1.000  H
  H502     1.0000 0.82039  0.07351  0.98861  Biso   1.000  H
  H503     1.0000 0.82039  0.07347  0.98861  Biso   1.000  H
  H504     1.0000 0.53310  0.03650  0.59942  Biso   1.000  H
  H505     1.0000 0.48069  0.05548  0.63132  Biso   1.000  H
  H506     1.0000 0.53310  0.03650  0.59938  Biso   1.000  H
  H507     1.0000 0.48069  0.05548  0.63128  Biso   1.000  H
  H508     1.0000 0.55548  0.63132  0.98069  Biso   1.000  H
  H509     1.0000 0.55548  0.63128  0.98069  Biso   1.000  H
  H510     1.0000 0.53650  0.59942  0.03310  Biso   1.000  H
  H511     1.0000 0.53650  0.59938  0.03310  Biso   1.000  H
  H512     1.0000 0.86868  0.01931  0.05548  Biso   1.000  H
  H513     1.0000 0.90058  0.96690  0.03650  Biso   1.000  H
  H514     1.0000 0.86868  0.98069  0.94452  Biso   1.000  H
  H515     1.0000 0.86868  0.98069  0.94448  Biso   1.000  H
  H516     1.0000 0.90058  0.03310  0.96350  Biso   1.000  H
  C473     1.0000 0.35301  0.07071  0.08910  Biso   1.000  C
  C474     1.0000 0.38491  0.05668  0.13299  Biso   1.000  C
  C475     1.0000 0.36701  0.11509  0.05668  Biso   1.000  C
  C476     1.0000 0.30848  0.03682  0.07591  Biso   1.000  C
  C477     1.0000 0.30848  0.03682  0.07587  Biso   1.000  C
  C478     1.0000 0.30848  0.03678  0.07591  Biso   1.000  C
  C479     1.0000 0.30848  0.03678  0.07587  Biso   1.000  C
  C480     1.0000 0.42929  0.08910  0.14699  Biso   1.000  C
  H517     1.0000 0.37680  0.02558  0.15318  Biso   1.000  H
  C481     1.0000 0.35301  0.07067  0.08910  Biso   1.000  C
  C482     1.0000 0.41090  0.14699  0.07071  Biso   1.000  C
  C483     1.0000 0.41090  0.14699  0.07067  Biso   1.000  C
  H518     1.0000 0.34678  0.12320  0.02558  Biso   1.000  H
  N91      1.0000 0.27598  0.04561  0.03722  Biso   1.000  N
  H519     1.0000 0.30289  0.00580  0.09722  Biso   1.000  H
  N92      1.0000 0.27598  0.04561  0.03718  Biso   1.000  N
  H520     1.0000 0.30289  0.00580  0.09718  Biso   1.000  H
  N93      1.0000 0.27598  0.04557  0.03722  Biso   1.000  N
  N94      1.0000 0.27598  0.04557  0.03718  Biso   1.000  N
  C484     1.0000 0.44328  0.13299  0.11509  Biso   1.000  C
  C485     1.0000 0.46318  0.07591  0.19152  Biso   1.000  C
  C486     1.0000 0.46318  0.07591  0.19148  Biso   1.000  C
  C487     1.0000 0.46318  0.07587  0.19152  Biso   1.000  C
  C488     1.0000 0.46318  0.07587  0.19148  Biso   1.000  C
  C489     1.0000 0.42409  0.19152  0.03682  Biso   1.000  C
  C490     1.0000 0.42409  0.19152  0.03678  Biso   1.000  C
  C491     1.0000 0.42409  0.19148  0.03682  Biso   1.000  C
  C492     1.0000 0.42409  0.19148  0.03678  Biso   1.000  C
  C493     1.0000 0.23189  0.01099  0.02810  Biso   1.000  C
  H521     1.0000 0.47438  0.15318  0.12320  Biso   1.000  H
  N95      1.0000 0.45439  0.03722  0.22402  Biso   1.000  N
  H522     1.0000 0.49420  0.09722  0.19711  Biso   1.000  H
  N96      1.0000 0.45439  0.03722  0.22398  Biso   1.000  N
  H523     1.0000 0.49420  0.09722  0.19707  Biso   1.000  H
  N97      1.0000 0.45439  0.03718  0.22402  Biso   1.000  N
  H524     1.0000 0.49420  0.09718  0.19711  Biso   1.000  H
  N98      1.0000 0.45439  0.03718  0.22398  Biso   1.000  N
  H525     1.0000 0.49420  0.09718  0.19707  Biso   1.000  H
  N99      1.0000 0.46278  0.22402  0.04561  Biso   1.000  N
  H526     1.0000 0.40278  0.19711  0.00580  Biso   1.000  H
  N100     1.0000 0.46278  0.22402  0.04557  Biso   1.000  N
  N101     1.0000 0.46278  0.22398  0.04561  Biso   1.000  N
  H527     1.0000 0.40278  0.19707  0.00580  Biso   1.000  H
  N102     1.0000 0.46278  0.22398  0.04557  Biso   1.000  N
  C494     1.0000 0.23189  0.98901  0.97190  Biso   1.000  C
  H528     1.0000 0.23329  0.98081  0.05421  Biso   1.000  H
  H529     1.0000 0.23329  0.98077  0.05421  Biso   1.000  H
  C495     1.0000 0.18040  0.04321  0.03690  Biso   1.000  C
  C496     1.0000 0.18040  0.04317  0.03690  Biso   1.000  C
  C497     1.0000 0.48901  0.02810  0.26811  Biso   1.000  C
  C498     1.0000 0.48901  0.02810  0.26807  Biso   1.000  C
  C499     1.0000 0.47190  0.26811  0.01099  Biso   1.000  C
  C500     1.0000 0.47190  0.26807  0.01099  Biso   1.000  C
  N103     1.0000 0.27598  0.95439  0.96278  Biso   1.000  N
  C501     1.0000 0.18040  0.95679  0.96310  Biso   1.000  C
  H530     1.0000 0.23329  0.01919  0.94579  Biso   1.000  H
  H531     1.0000 0.18080  0.05840  0.07351  Biso   1.000  H
  H532     1.0000 0.17961  0.07351  0.01139  Biso   1.000  H
  C502     1.0000 0.13152  0.01091  0.02998  Biso   1.000  C
  H533     1.0000 0.18080  0.05840  0.07347  Biso   1.000  H
  H534     1.0000 0.17961  0.07347  0.01139  Biso   1.000  H
  C503     1.0000 0.13152  0.01087  0.02998  Biso   1.000  C
  C504     1.0000 0.45679  0.03690  0.31960  Biso   1.000  C
  C505     1.0000 0.51099  0.97190  0.26811  Biso   1.000  C
  C506     1.0000 0.51099  0.97190  0.26807  Biso   1.000  C
  H535     1.0000 0.51919  0.05421  0.26671  Biso   1.000  H
  H536     1.0000 0.51919  0.05421  0.26667  Biso   1.000  H
  C507     1.0000 0.52810  0.26811  0.98901  Biso   1.000  C
  H537     1.0000 0.44579  0.26671  0.98081  Biso   1.000  H
  H538     1.0000 0.44579  0.26671  0.98077  Biso   1.000  H
  C508     1.0000 0.52810  0.26807  0.98901  Biso   1.000  C
  H539     1.0000 0.44579  0.26667  0.98081  Biso   1.000  H
  H540     1.0000 0.44579  0.26667  0.98077  Biso   1.000  H
  C509     1.0000 0.46310  0.31960  0.04321  Biso   1.000  C
  C510     1.0000 0.46310  0.31960  0.04317  Biso   1.000  C
  C511     1.0000 0.30848  0.96318  0.92409  Biso   1.000  C
  H541     1.0000 0.18080  0.94160  0.92649  Biso   1.000  H
  H542     1.0000 0.17961  0.92649  0.98861  Biso   1.000  H
  C512     1.0000 0.13152  0.98909  0.97002  Biso   1.000  C
  C513     1.0000 0.13152  0.98909  0.96998  Biso   1.000  C
  H543     1.0000 0.09942  0.03310  0.03650  Biso   1.000  H
  H544     1.0000 0.13132  0.98069  0.05548  Biso   1.000  H
  H545     1.0000 0.42649  0.01139  0.32039  Biso   1.000  H
  C514     1.0000 0.48909  0.02998  0.36848  Biso   1.000  C
  H546     1.0000 0.44160  0.07351  0.31920  Biso   1.000  H
  H547     1.0000 0.44160  0.07347  0.31920  Biso   1.000  H
  N104     1.0000 0.54561  0.96278  0.22402  Biso   1.000  N
  H548     1.0000 0.48081  0.94579  0.26671  Biso   1.000  H
  C515     1.0000 0.54321  0.96310  0.31960  Biso   1.000  C
  N105     1.0000 0.54561  0.96278  0.22398  Biso   1.000  N
  H549     1.0000 0.48081  0.94579  0.26667  Biso   1.000  H
  N106     1.0000 0.53718  0.22402  0.95439  Biso   1.000  N
  C516     1.0000 0.53690  0.31960  0.95679  Biso   1.000  C
  N107     1.0000 0.53718  0.22398  0.95439  Biso   1.000  N
  H550     1.0000 0.55421  0.26671  0.01919  Biso   1.000  H
  H551     1.0000 0.55421  0.26667  0.01919  Biso   1.000  H
  H552     1.0000 0.42649  0.31920  0.05840  Biso   1.000  H
  H553     1.0000 0.48861  0.32039  0.07351  Biso   1.000  H
  C517     1.0000 0.46998  0.36848  0.01091  Biso   1.000  C
  H554     1.0000 0.48861  0.32039  0.07347  Biso   1.000  H
  C518     1.0000 0.46998  0.36848  0.01087  Biso   1.000  C
  C519     1.0000 0.35301  0.92929  0.91090  Biso   1.000  C
  H555     1.0000 0.30289  0.99420  0.90278  Biso   1.000  H
  H556     1.0000 0.09942  0.96690  0.96350  Biso   1.000  H
  H557     1.0000 0.13132  0.01931  0.94452  Biso   1.000  H
  H558     1.0000 0.13132  0.01931  0.94448  Biso   1.000  H
  H559     1.0000 0.46690  0.03650  0.40058  Biso   1.000  H
  H560     1.0000 0.51931  0.05548  0.36868  Biso   1.000  H
  C520     1.0000 0.51091  0.97002  0.36848  Biso   1.000  C
  C521     1.0000 0.51091  0.96998  0.36848  Biso   1.000  C
  C522     1.0000 0.53678  0.92409  0.19152  Biso   1.000  C
  C523     1.0000 0.53678  0.92409  0.19148  Biso   1.000  C
  H561     1.0000 0.55840  0.92649  0.31920  Biso   1.000  H
  H562     1.0000 0.57351  0.98861  0.32039  Biso   1.000  H
  C524     1.0000 0.57591  0.19152  0.96318  Biso   1.000  C
  C525     1.0000 0.57591  0.19148  0.96318  Biso   1.000  C
  H563     1.0000 0.57351  0.31920  0.94160  Biso   1.000  H
  H564     1.0000 0.51139  0.32039  0.92649  Biso   1.000  H
  C526     1.0000 0.52998  0.36848  0.98909  Biso   1.000  C
  H565     1.0000 0.46350  0.40058  0.03310  Biso   1.000  H
  H566     1.0000 0.44448  0.36868  0.98069  Biso   1.000  H
  C527     1.0000 0.38491  0.94332  0.86701  Biso   1.000  C
  C528     1.0000 0.36701  0.88491  0.94332  Biso   1.000  C
  C529     1.0000 0.36701  0.88491  0.94328  Biso   1.000  C
  C530     1.0000 0.38491  0.94328  0.86701  Biso   1.000  C
  C531     1.0000 0.36701  0.88487  0.94332  Biso   1.000  C
  C532     1.0000 0.36701  0.88487  0.94328  Biso   1.000  C
  H567     1.0000 0.53310  0.96350  0.40058  Biso   1.000  H
  H568     1.0000 0.48069  0.94452  0.36868  Biso   1.000  H
  H569     1.0000 0.48069  0.94448  0.36868  Biso   1.000  H
  C533     1.0000 0.57067  0.91090  0.14699  Biso   1.000  C
  H570     1.0000 0.50580  0.90278  0.19711  Biso   1.000  H
  H571     1.0000 0.50580  0.90278  0.19707  Biso   1.000  H
  C534     1.0000 0.58910  0.14699  0.92929  Biso   1.000  C
  H572     1.0000 0.59718  0.19711  0.99420  Biso   1.000  H
  H573     1.0000 0.59718  0.19707  0.99420  Biso   1.000  H
  H574     1.0000 0.55548  0.36868  0.01931  Biso   1.000  H
  H575     1.0000 0.53650  0.40058  0.96690  Biso   1.000  H
  H576     1.0000 0.37680  0.97442  0.84682  Biso   1.000  H
  C535     1.0000 0.42929  0.91090  0.85301  Biso   1.000  C
  H577     1.0000 0.37680  0.97442  0.84678  Biso   1.000  H
  C536     1.0000 0.42929  0.91090  0.85297  Biso   1.000  C
  H578     1.0000 0.37680  0.97438  0.84682  Biso   1.000  H
  H579     1.0000 0.37680  0.97438  0.84678  Biso   1.000  H
  H580     1.0000 0.34678  0.87680  0.97442  Biso   1.000  H
  C537     1.0000 0.41090  0.85301  0.92929  Biso   1.000  C
  H581     1.0000 0.34678  0.87680  0.97438  Biso   1.000  H
  C538     1.0000 0.41090  0.85297  0.92929  Biso   1.000  C
  C539     1.0000 0.55668  0.86701  0.11509  Biso   1.000  C
  C540     1.0000 0.61509  0.94332  0.13299  Biso   1.000  C
  C541     1.0000 0.61509  0.94328  0.13299  Biso   1.000  C
  C542     1.0000 0.63299  0.11509  0.94332  Biso   1.000  C
  C543     1.0000 0.55668  0.13299  0.88491  Biso   1.000  C
  C544     1.0000 0.63299  0.11509  0.94328  Biso   1.000  C
  C545     1.0000 0.55668  0.13299  0.88487  Biso   1.000  C
  C546     1.0000 0.44328  0.86701  0.88491  Biso   1.000  C
  C547     1.0000 0.46318  0.92409  0.80848  Biso   1.000  C
  C548     1.0000 0.44328  0.86701  0.88487  Biso   1.000  C
  C549     1.0000 0.42409  0.80848  0.96318  Biso   1.000  C
  H582     1.0000 0.52558  0.84682  0.12320  Biso   1.000  H
  C550     1.0000 0.58910  0.85301  0.07071  Biso   1.000  C
  C551     1.0000 0.58910  0.85301  0.07067  Biso   1.000  C
  H583     1.0000 0.52558  0.84678  0.12320  Biso   1.000  H
  C552     1.0000 0.58910  0.85297  0.07071  Biso   1.000  C
  C553     1.0000 0.58910  0.85297  0.07067  Biso   1.000  C
  H584     1.0000 0.62320  0.97442  0.15318  Biso   1.000  H
  C554     1.0000 0.64699  0.92929  0.08910  Biso   1.000  C
  H585     1.0000 0.62320  0.97438  0.15318  Biso   1.000  H
  H586     1.0000 0.65318  0.12320  0.97442  Biso   1.000  H
  C555     1.0000 0.64699  0.07071  0.91090  Biso   1.000  C
  H587     1.0000 0.65318  0.12320  0.97438  Biso   1.000  H
  C556     1.0000 0.64699  0.07067  0.91090  Biso   1.000  C
  H588     1.0000 0.52558  0.15318  0.87680  Biso   1.000  H
  C557     1.0000 0.57067  0.08910  0.85301  Biso   1.000  C
  C558     1.0000 0.57067  0.08910  0.85297  Biso   1.000  C
  H589     1.0000 0.47438  0.84682  0.87680  Biso   1.000  H
  H590     1.0000 0.47438  0.84678  0.87680  Biso   1.000  H
  N108     1.0000 0.45439  0.96278  0.77598  Biso   1.000  N
  H591     1.0000 0.49420  0.90278  0.80289  Biso   1.000  H
  N109     1.0000 0.46278  0.77598  0.95439  Biso   1.000  N
  H592     1.0000 0.40278  0.80289  0.99420  Biso   1.000  H
  C559     1.0000 0.63299  0.88491  0.05668  Biso   1.000  C
  C560     1.0000 0.57591  0.80848  0.03682  Biso   1.000  C
  C561     1.0000 0.57591  0.80848  0.03678  Biso   1.000  C
  C562     1.0000 0.63299  0.88487  0.05668  Biso   1.000  C
  C563     1.0000 0.69148  0.96318  0.07591  Biso   1.000  C
  C564     1.0000 0.69148  0.96318  0.07587  Biso   1.000  C
  C565     1.0000 0.61509  0.05668  0.86701  Biso   1.000  C
  C566     1.0000 0.69148  0.03682  0.92409  Biso   1.000  C
  C567     1.0000 0.69148  0.03678  0.92409  Biso   1.000  C
  C568     1.0000 0.53678  0.07591  0.80848  Biso   1.000  C
  C569     1.0000 0.53678  0.07587  0.80848  Biso   1.000  C
  C570     1.0000 0.48901  0.97190  0.73189  Biso   1.000  C
  C571     1.0000 0.47190  0.73189  0.98901  Biso   1.000  C
  H593     1.0000 0.65318  0.87680  0.02558  Biso   1.000  H
  N110     1.0000 0.53718  0.77598  0.04561  Biso   1.000  N
  H594     1.0000 0.59718  0.80289  0.00580  Biso   1.000  H
  N111     1.0000 0.53718  0.77598  0.04557  Biso   1.000  N
  N112     1.0000 0.72398  0.95439  0.03722  Biso   1.000  N
  H595     1.0000 0.69707  0.99420  0.09722  Biso   1.000  H
  N113     1.0000 0.72398  0.95439  0.03718  Biso   1.000  N
  H596     1.0000 0.69707  0.99420  0.09718  Biso   1.000  H
  H597     1.0000 0.62320  0.02558  0.84682  Biso   1.000  H
  H598     1.0000 0.62320  0.02558  0.84678  Biso   1.000  H
  N114     1.0000 0.72398  0.04561  0.96278  Biso   1.000  N
  H599     1.0000 0.69707  0.00580  0.90278  Biso   1.000  H
  N115     1.0000 0.72398  0.04557  0.96278  Biso   1.000  N
  N116     1.0000 0.54561  0.03722  0.77598  Biso   1.000  N
  H600     1.0000 0.50580  0.09722  0.80289  Biso   1.000  H
  N117     1.0000 0.54561  0.03718  0.77598  Biso   1.000  N
  H601     1.0000 0.50580  0.09718  0.80289  Biso   1.000  H
  C572     1.0000 0.51099  0.02810  0.73189  Biso   1.000  C
  H602     1.0000 0.51919  0.94579  0.73329  Biso   1.000  H
  C573     1.0000 0.45679  0.96310  0.68040  Biso   1.000  C
  C574     1.0000 0.52810  0.73189  0.01099  Biso   1.000  C
  C575     1.0000 0.46310  0.68040  0.95679  Biso   1.000  C
  H603     1.0000 0.44579  0.73329  0.01919  Biso   1.000  H
  C576     1.0000 0.76811  0.98901  0.02810  Biso   1.000  C
  C577     1.0000 0.76811  0.01099  0.97190  Biso   1.000  C
  H604     1.0000 0.48081  0.05421  0.73329  Biso   1.000  H
  C578     1.0000 0.54321  0.03690  0.68040  Biso   1.000  C
  H605     1.0000 0.44160  0.92649  0.68080  Biso   1.000  H
  H606     1.0000 0.42649  0.98861  0.67961  Biso   1.000  H
  C579     1.0000 0.48909  0.97002  0.63152  Biso   1.000  C
  C580     1.0000 0.48909  0.97002  0.63148  Biso   1.000  C
  C581     1.0000 0.48909  0.96998  0.63152  Biso   1.000  C
  C582     1.0000 0.48909  0.96998  0.63148  Biso   1.000  C
  H607     1.0000 0.55421  0.73329  0.98081  Biso   1.000  H
  H608     1.0000 0.55421  0.73329  0.98077  Biso   1.000  H
  C583     1.0000 0.53690  0.68040  0.04321  Biso   1.000  C
  C584     1.0000 0.53690  0.68040  0.04317  Biso   1.000  C
  H609     1.0000 0.42649  0.68080  0.94160  Biso   1.000  H
  H610     1.0000 0.48861  0.67961  0.92649  Biso   1.000  H
  C585     1.0000 0.46998  0.63152  0.98909  Biso   1.000  C
  C586     1.0000 0.46998  0.63148  0.98909  Biso   1.000  C
  H611     1.0000 0.76671  0.01919  0.05421  Biso   1.000  H
  C587     1.0000 0.81960  0.95679  0.03690  Biso   1.000  C
  H612     1.0000 0.76671  0.98081  0.94579  Biso   1.000  H
  H613     1.0000 0.76671  0.98077  0.94579  Biso   1.000  H
  C588     1.0000 0.81960  0.04321  0.96310  Biso   1.000  C
  C589     1.0000 0.81960  0.04317  0.96310  Biso   1.000  C
  H614     1.0000 0.55840  0.07351  0.68080  Biso   1.000  H
  H615     1.0000 0.57351  0.01139  0.67961  Biso   1.000  H
  C590     1.0000 0.51091  0.02998  0.63152  Biso   1.000  C
  C591     1.0000 0.51091  0.02998  0.63148  Biso   1.000  C
  H616     1.0000 0.55840  0.07347  0.68080  Biso   1.000  H
  H617     1.0000 0.46690  0.96350  0.59942  Biso   1.000  H
  H618     1.0000 0.51931  0.94452  0.63132  Biso   1.000  H
  H619     1.0000 0.46690  0.96350  0.59938  Biso   1.000  H
  H620     1.0000 0.51931  0.94452  0.63128  Biso   1.000  H
  H621     1.0000 0.51931  0.94448  0.63132  Biso   1.000  H
  H622     1.0000 0.51931  0.94448  0.63128  Biso   1.000  H
  H623     1.0000 0.57351  0.68080  0.05840  Biso   1.000  H
  H624     1.0000 0.51139  0.67961  0.07351  Biso   1.000  H
  C592     1.0000 0.52998  0.63152  0.01091  Biso   1.000  C
  H625     1.0000 0.51139  0.67961  0.07347  Biso   1.000  H
  C593     1.0000 0.52998  0.63152  0.01087  Biso   1.000  C
  C594     1.0000 0.52998  0.63148  0.01091  Biso   1.000  C
  C595     1.0000 0.52998  0.63148  0.01087  Biso   1.000  C
  H626     1.0000 0.46350  0.59942  0.96690  Biso   1.000  H
  H627     1.0000 0.46350  0.59938  0.96690  Biso   1.000  H
  H628     1.0000 0.44448  0.63132  0.01931  Biso   1.000  H
  H629     1.0000 0.44448  0.63128  0.01931  Biso   1.000  H
  H630     1.0000 0.81920  0.94160  0.07351  Biso   1.000  H
  H631     1.0000 0.82039  0.92649  0.01139  Biso   1.000  H
  C596     1.0000 0.86848  0.98909  0.02998  Biso   1.000  C
  H632     1.0000 0.81920  0.94160  0.07347  Biso   1.000  H
  C597     1.0000 0.86848  0.01091  0.97002  Biso   1.000  C
  C598     1.0000 0.86848  0.01091  0.96998  Biso   1.000  C
  C599     1.0000 0.86848  0.01087  0.97002  Biso   1.000  C
  C600     1.0000 0.86848  0.01087  0.96998  Biso   1.000  C
  H633     1.0000 0.81920  0.05840  0.92649  Biso   1.000  H
  H634     1.0000 0.82039  0.07351  0.98861  Biso   1.000  H
  H635     1.0000 0.82039  0.07347  0.98861  Biso   1.000  H
  H636     1.0000 0.53310  0.03650  0.59942  Biso   1.000  H
  H637     1.0000 0.48069  0.05548  0.63132  Biso   1.000  H
  H638     1.0000 0.53310  0.03650  0.59938  Biso   1.000  H
  H639     1.0000 0.48069  0.05548  0.63128  Biso   1.000  H
  H640     1.0000 0.55548  0.63132  0.98069  Biso   1.000  H
  H641     1.0000 0.55548  0.63128  0.98069  Biso   1.000  H
  H642     1.0000 0.53650  0.59942  0.03310  Biso   1.000  H
  H643     1.0000 0.53650  0.59938  0.03310  Biso   1.000  H
  H644     1.0000 0.86868  0.01931  0.05548  Biso   1.000  H
  H645     1.0000 0.90058  0.96690  0.03650  Biso   1.000  H
  H646     1.0000 0.86868  0.98069  0.94452  Biso   1.000  H
  H647     1.0000 0.86868  0.98069  0.94448  Biso   1.000  H
  H648     1.0000 0.90058  0.03310  0.96350  Biso   1.000  H
  C601     1.0000 0.35301  0.07071  0.08910  Biso   1.000  C
  C602     1.0000 0.38491  0.05668  0.13299  Biso   1.000  C
  C603     1.0000 0.36701  0.11509  0.05668  Biso   1.000  C
  C604     1.0000 0.30848  0.03682  0.07591  Biso   1.000  C
  C605     1.0000 0.30848  0.03682  0.07587  Biso   1.000  C
  C606     1.0000 0.30848  0.03678  0.07591  Biso   1.000  C
  C607     1.0000 0.30848  0.03678  0.07587  Biso   1.000  C
  C608     1.0000 0.42929  0.08910  0.14699  Biso   1.000  C
  H649     1.0000 0.37680  0.02558  0.15318  Biso   1.000  H
  C609     1.0000 0.35301  0.07067  0.08910  Biso   1.000  C
  C610     1.0000 0.41090  0.14699  0.07071  Biso   1.000  C
  C611     1.0000 0.41090  0.14699  0.07067  Biso   1.000  C
  H650     1.0000 0.34678  0.12320  0.02558  Biso   1.000  H
  N118     1.0000 0.27598  0.04561  0.03722  Biso   1.000  N
  H651     1.0000 0.30289  0.00580  0.09722  Biso   1.000  H
  N119     1.0000 0.27598  0.04561  0.03718  Biso   1.000  N
  H652     1.0000 0.30289  0.00580  0.09718  Biso   1.000  H
  N120     1.0000 0.27598  0.04557  0.03722  Biso   1.000  N
  N121     1.0000 0.27598  0.04557  0.03718  Biso   1.000  N
  C612     1.0000 0.44328  0.13299  0.11509  Biso   1.000  C
  C613     1.0000 0.46318  0.07591  0.19152  Biso   1.000  C
  C614     1.0000 0.46318  0.07591  0.19148  Biso   1.000  C
  C615     1.0000 0.46318  0.07587  0.19152  Biso   1.000  C
  C616     1.0000 0.46318  0.07587  0.19148  Biso   1.000  C
  C617     1.0000 0.42409  0.19152  0.03682  Biso   1.000  C
  C618     1.0000 0.42409  0.19152  0.03678  Biso   1.000  C
  C619     1.0000 0.42409  0.19148  0.03682  Biso   1.000  C
  C620     1.0000 0.42409  0.19148  0.03678  Biso   1.000  C
  C621     1.0000 0.23189  0.01099  0.02810  Biso   1.000  C
  H653     1.0000 0.47438  0.15318  0.12320  Biso   1.000  H
  N122     1.0000 0.45439  0.03722  0.22402  Biso   1.000  N
  H654     1.0000 0.49420  0.09722  0.19711  Biso   1.000  H
  N123     1.0000 0.45439  0.03722  0.22398  Biso   1.000  N
  H655     1.0000 0.49420  0.09722  0.19707  Biso   1.000  H
  N124     1.0000 0.45439  0.03718  0.22402  Biso   1.000  N
  H656     1.0000 0.49420  0.09718  0.19711  Biso   1.000  H
  N125     1.0000 0.45439  0.03718  0.22398  Biso   1.000  N
  H657     1.0000 0.49420  0.09718  0.19707  Biso   1.000  H
  N126     1.0000 0.46278  0.22402  0.04561  Biso   1.000  N
  H658     1.0000 0.40278  0.19711  0.00580  Biso   1.000  H
  N127     1.0000 0.46278  0.22402  0.04557  Biso   1.000  N
  N128     1.0000 0.46278  0.22398  0.04561  Biso   1.000  N
  H659     1.0000 0.40278  0.19707  0.00580  Biso   1.000  H
  N129     1.0000 0.46278  0.22398  0.04557  Biso   1.000  N
  C622     1.0000 0.23189  0.98901  0.97190  Biso   1.000  C
  H660     1.0000 0.23329  0.98081  0.05421  Biso   1.000  H
  H661     1.0000 0.23329  0.98077  0.05421  Biso   1.000  H
  C623     1.0000 0.18040  0.04321  0.03690  Biso   1.000  C
  C624     1.0000 0.18040  0.04317  0.03690  Biso   1.000  C
  C625     1.0000 0.48901  0.02810  0.26811  Biso   1.000  C
  C626     1.0000 0.48901  0.02810  0.26807  Biso   1.000  C
  C627     1.0000 0.47190  0.26811  0.01099  Biso   1.000  C
  C628     1.0000 0.47190  0.26807  0.01099  Biso   1.000  C
  N130     1.0000 0.27598  0.95439  0.96278  Biso   1.000  N
  C629     1.0000 0.18040  0.95679  0.96310  Biso   1.000  C
  H662     1.0000 0.23329  0.01919  0.94579  Biso   1.000  H
  H663     1.0000 0.18080  0.05840  0.07351  Biso   1.000  H
  H664     1.0000 0.17961  0.07351  0.01139  Biso   1.000  H
  C630     1.0000 0.13152  0.01091  0.02998  Biso   1.000  C
  H665     1.0000 0.18080  0.05840  0.07347  Biso   1.000  H
  H666     1.0000 0.17961  0.07347  0.01139  Biso   1.000  H
  C631     1.0000 0.13152  0.01087  0.02998  Biso   1.000  C
  C632     1.0000 0.45679  0.03690  0.31960  Biso   1.000  C
  C633     1.0000 0.51099  0.97190  0.26811  Biso   1.000  C
  C634     1.0000 0.51099  0.97190  0.26807  Biso   1.000  C
  H667     1.0000 0.51919  0.05421  0.26671  Biso   1.000  H
  H668     1.0000 0.51919  0.05421  0.26667  Biso   1.000  H
  C635     1.0000 0.52810  0.26811  0.98901  Biso   1.000  C
  H669     1.0000 0.44579  0.26671  0.98081  Biso   1.000  H
  H670     1.0000 0.44579  0.26671  0.98077  Biso   1.000  H
  C636     1.0000 0.52810  0.26807  0.98901  Biso   1.000  C
  H671     1.0000 0.44579  0.26667  0.98081  Biso   1.000  H
  H672     1.0000 0.44579  0.26667  0.98077  Biso   1.000  H
  C637     1.0000 0.46310  0.31960  0.04321  Biso   1.000  C
  C638     1.0000 0.46310  0.31960  0.04317  Biso   1.000  C
  C639     1.0000 0.30848  0.96318  0.92409  Biso   1.000  C
  H673     1.0000 0.18080  0.94160  0.92649  Biso   1.000  H
  H674     1.0000 0.17961  0.92649  0.98861  Biso   1.000  H
  C640     1.0000 0.13152  0.98909  0.97002  Biso   1.000  C
  C641     1.0000 0.13152  0.98909  0.96998  Biso   1.000  C
  H675     1.0000 0.09942  0.03310  0.03650  Biso   1.000  H
  H676     1.0000 0.13132  0.98069  0.05548  Biso   1.000  H
  H677     1.0000 0.42649  0.01139  0.32039  Biso   1.000  H
  C642     1.0000 0.48909  0.02998  0.36848  Biso   1.000  C
  H678     1.0000 0.44160  0.07351  0.31920  Biso   1.000  H
  H679     1.0000 0.44160  0.07347  0.31920  Biso   1.000  H
  N131     1.0000 0.54561  0.96278  0.22402  Biso   1.000  N
  H680     1.0000 0.48081  0.94579  0.26671  Biso   1.000  H
  C643     1.0000 0.54321  0.96310  0.31960  Biso   1.000  C
  N132     1.0000 0.54561  0.96278  0.22398  Biso   1.000  N
  H681     1.0000 0.48081  0.94579  0.26667  Biso   1.000  H
  N133     1.0000 0.53718  0.22402  0.95439  Biso   1.000  N
  C644     1.0000 0.53690  0.31960  0.95679  Biso   1.000  C
  N134     1.0000 0.53718  0.22398  0.95439  Biso   1.000  N
  H682     1.0000 0.55421  0.26671  0.01919  Biso   1.000  H
  H683     1.0000 0.55421  0.26667  0.01919  Biso   1.000  H
  H684     1.0000 0.42649  0.31920  0.05840  Biso   1.000  H
  H685     1.0000 0.48861  0.32039  0.07351  Biso   1.000  H
  C645     1.0000 0.46998  0.36848  0.01091  Biso   1.000  C
  H686     1.0000 0.48861  0.32039  0.07347  Biso   1.000  H
  C646     1.0000 0.46998  0.36848  0.01087  Biso   1.000  C
  C647     1.0000 0.35301  0.92929  0.91090  Biso   1.000  C
  H687     1.0000 0.30289  0.99420  0.90278  Biso   1.000  H
  H688     1.0000 0.09942  0.96690  0.96350  Biso   1.000  H
  H689     1.0000 0.13132  0.01931  0.94452  Biso   1.000  H
  H690     1.0000 0.13132  0.01931  0.94448  Biso   1.000  H
  H691     1.0000 0.46690  0.03650  0.40058  Biso   1.000  H
  H692     1.0000 0.51931  0.05548  0.36868  Biso   1.000  H
  C648     1.0000 0.51091  0.97002  0.36848  Biso   1.000  C
  C649     1.0000 0.51091  0.96998  0.36848  Biso   1.000  C
  C650     1.0000 0.53678  0.92409  0.19152  Biso   1.000  C
  C651     1.0000 0.53678  0.92409  0.19148  Biso   1.000  C
  H693     1.0000 0.55840  0.92649  0.31920  Biso   1.000  H
  H694     1.0000 0.57351  0.98861  0.32039  Biso   1.000  H
  C652     1.0000 0.57591  0.19152  0.96318  Biso   1.000  C
  C653     1.0000 0.57591  0.19148  0.96318  Biso   1.000  C
  H695     1.0000 0.57351  0.31920  0.94160  Biso   1.000  H
  H696     1.0000 0.51139  0.32039  0.92649  Biso   1.000  H
  C654     1.0000 0.52998  0.36848  0.98909  Biso   1.000  C
  H697     1.0000 0.46350  0.40058  0.03310  Biso   1.000  H
  H698     1.0000 0.44448  0.36868  0.98069  Biso   1.000  H
  C655     1.0000 0.38491  0.94332  0.86701  Biso   1.000  C
  C656     1.0000 0.36701  0.88491  0.94332  Biso   1.000  C
  C657     1.0000 0.36701  0.88491  0.94328  Biso   1.000  C
  C658     1.0000 0.38491  0.94328  0.86701  Biso   1.000  C
  C659     1.0000 0.36701  0.88487  0.94332  Biso   1.000  C
  C660     1.0000 0.36701  0.88487  0.94328  Biso   1.000  C
  H699     1.0000 0.53310  0.96350  0.40058  Biso   1.000  H
  H700     1.0000 0.48069  0.94452  0.36868  Biso   1.000  H
  H701     1.0000 0.48069  0.94448  0.36868  Biso   1.000  H
  C661     1.0000 0.57067  0.91090  0.14699  Biso   1.000  C
  H702     1.0000 0.50580  0.90278  0.19711  Biso   1.000  H
  H703     1.0000 0.50580  0.90278  0.19707  Biso   1.000  H
  C662     1.0000 0.58910  0.14699  0.92929  Biso   1.000  C
  H704     1.0000 0.59718  0.19711  0.99420  Biso   1.000  H
  H705     1.0000 0.59718  0.19707  0.99420  Biso   1.000  H
  H706     1.0000 0.55548  0.36868  0.01931  Biso   1.000  H
  H707     1.0000 0.53650  0.40058  0.96690  Biso   1.000  H
  H708     1.0000 0.37680  0.97442  0.84682  Biso   1.000  H
  C663     1.0000 0.42929  0.91090  0.85301  Biso   1.000  C
  H709     1.0000 0.37680  0.97442  0.84678  Biso   1.000  H
  C664     1.0000 0.42929  0.91090  0.85297  Biso   1.000  C
  H710     1.0000 0.37680  0.97438  0.84682  Biso   1.000  H
  H711     1.0000 0.37680  0.97438  0.84678  Biso   1.000  H
  H712     1.0000 0.34678  0.87680  0.97442  Biso   1.000  H
  C665     1.0000 0.41090  0.85301  0.92929  Biso   1.000  C
  H713     1.0000 0.34678  0.87680  0.97438  Biso   1.000  H
  C666     1.0000 0.41090  0.85297  0.92929  Biso   1.000  C
  C667     1.0000 0.55668  0.86701  0.11509  Biso   1.000  C
  C668     1.0000 0.61509  0.94332  0.13299  Biso   1.000  C
  C669     1.0000 0.61509  0.94328  0.13299  Biso   1.000  C
  C670     1.0000 0.63299  0.11509  0.94332  Biso   1.000  C
  C671     1.0000 0.55668  0.13299  0.88491  Biso   1.000  C
  C672     1.0000 0.63299  0.11509  0.94328  Biso   1.000  C
  C673     1.0000 0.55668  0.13299  0.88487  Biso   1.000  C
  C674     1.0000 0.44328  0.86701  0.88491  Biso   1.000  C
  C675     1.0000 0.46318  0.92409  0.80848  Biso   1.000  C
  C676     1.0000 0.44328  0.86701  0.88487  Biso   1.000  C
  C677     1.0000 0.42409  0.80848  0.96318  Biso   1.000  C
  H714     1.0000 0.52558  0.84682  0.12320  Biso   1.000  H
  C678     1.0000 0.58910  0.85301  0.07071  Biso   1.000  C
  C679     1.0000 0.58910  0.85301  0.07067  Biso   1.000  C
  H715     1.0000 0.52558  0.84678  0.12320  Biso   1.000  H
  C680     1.0000 0.58910  0.85297  0.07071  Biso   1.000  C
  C681     1.0000 0.58910  0.85297  0.07067  Biso   1.000  C
  H716     1.0000 0.62320  0.97442  0.15318  Biso   1.000  H
  C682     1.0000 0.64699  0.92929  0.08910  Biso   1.000  C
  H717     1.0000 0.62320  0.97438  0.15318  Biso   1.000  H
  H718     1.0000 0.65318  0.12320  0.97442  Biso   1.000  H
  C683     1.0000 0.64699  0.07071  0.91090  Biso   1.000  C
  H719     1.0000 0.65318  0.12320  0.97438  Biso   1.000  H
  C684     1.0000 0.64699  0.07067  0.91090  Biso   1.000  C
  H720     1.0000 0.52558  0.15318  0.87680  Biso   1.000  H
  C685     1.0000 0.57067  0.08910  0.85301  Biso   1.000  C
  C686     1.0000 0.57067  0.08910  0.85297  Biso   1.000  C
  H721     1.0000 0.47438  0.84682  0.87680  Biso   1.000  H
  H722     1.0000 0.47438  0.84678  0.87680  Biso   1.000  H
  N135     1.0000 0.45439  0.96278  0.77598  Biso   1.000  N
  H723     1.0000 0.49420  0.90278  0.80289  Biso   1.000  H
  N136     1.0000 0.46278  0.77598  0.95439  Biso   1.000  N
  H724     1.0000 0.40278  0.80289  0.99420  Biso   1.000  H
  C687     1.0000 0.63299  0.88491  0.05668  Biso   1.000  C
  C688     1.0000 0.57591  0.80848  0.03682  Biso   1.000  C
  C689     1.0000 0.57591  0.80848  0.03678  Biso   1.000  C
  C690     1.0000 0.63299  0.88487  0.05668  Biso   1.000  C
  C691     1.0000 0.69148  0.96318  0.07591  Biso   1.000  C
  C692     1.0000 0.69148  0.96318  0.07587  Biso   1.000  C
  C693     1.0000 0.61509  0.05668  0.86701  Biso   1.000  C
  C694     1.0000 0.69148  0.03682  0.92409  Biso   1.000  C
  C695     1.0000 0.69148  0.03678  0.92409  Biso   1.000  C
  C696     1.0000 0.53678  0.07591  0.80848  Biso   1.000  C
  C697     1.0000 0.53678  0.07587  0.80848  Biso   1.000  C
  C698     1.0000 0.48901  0.97190  0.73189  Biso   1.000  C
  C699     1.0000 0.47190  0.73189  0.98901  Biso   1.000  C
  H725     1.0000 0.65318  0.87680  0.02558  Biso   1.000  H
  N137     1.0000 0.53718  0.77598  0.04561  Biso   1.000  N
  H726     1.0000 0.59718  0.80289  0.00580  Biso   1.000  H
  N138     1.0000 0.53718  0.77598  0.04557  Biso   1.000  N
  N139     1.0000 0.72398  0.95439  0.03722  Biso   1.000  N
  H727     1.0000 0.69707  0.99420  0.09722  Biso   1.000  H
  N140     1.0000 0.72398  0.95439  0.03718  Biso   1.000  N
  H728     1.0000 0.69707  0.99420  0.09718  Biso   1.000  H
  H729     1.0000 0.62320  0.02558  0.84682  Biso   1.000  H
  H730     1.0000 0.62320  0.02558  0.84678  Biso   1.000  H
  N141     1.0000 0.72398  0.04561  0.96278  Biso   1.000  N
  H731     1.0000 0.69707  0.00580  0.90278  Biso   1.000  H
  N142     1.0000 0.72398  0.04557  0.96278  Biso   1.000  N
  N143     1.0000 0.54561  0.03722  0.77598  Biso   1.000  N
  H732     1.0000 0.50580  0.09722  0.80289  Biso   1.000  H
  N144     1.0000 0.54561  0.03718  0.77598  Biso   1.000  N
  H733     1.0000 0.50580  0.09718  0.80289  Biso   1.000  H
  C700     1.0000 0.51099  0.02810  0.73189  Biso   1.000  C
  H734     1.0000 0.51919  0.94579  0.73329  Biso   1.000  H
  C701     1.0000 0.45679  0.96310  0.68040  Biso   1.000  C
  C702     1.0000 0.52810  0.73189  0.01099  Biso   1.000  C
  C703     1.0000 0.46310  0.68040  0.95679  Biso   1.000  C
  H735     1.0000 0.44579  0.73329  0.01919  Biso   1.000  H
  C704     1.0000 0.76811  0.98901  0.02810  Biso   1.000  C
  C705     1.0000 0.76811  0.01099  0.97190  Biso   1.000  C
  H736     1.0000 0.48081  0.05421  0.73329  Biso   1.000  H
  C706     1.0000 0.54321  0.03690  0.68040  Biso   1.000  C
  H737     1.0000 0.44160  0.92649  0.68080  Biso   1.000  H
  H738     1.0000 0.42649  0.98861  0.67961  Biso   1.000  H
  C707     1.0000 0.48909  0.97002  0.63152  Biso   1.000  C
  C708     1.0000 0.48909  0.97002  0.63148  Biso   1.000  C
  C709     1.0000 0.48909  0.96998  0.63152  Biso   1.000  C
  C710     1.0000 0.48909  0.96998  0.63148  Biso   1.000  C
  H739     1.0000 0.55421  0.73329  0.98081  Biso   1.000  H
  H740     1.0000 0.55421  0.73329  0.98077  Biso   1.000  H
  C711     1.0000 0.53690  0.68040  0.04321  Biso   1.000  C
  C712     1.0000 0.53690  0.68040  0.04317  Biso   1.000  C
  H741     1.0000 0.42649  0.68080  0.94160  Biso   1.000  H
  H742     1.0000 0.48861  0.67961  0.92649  Biso   1.000  H
  C713     1.0000 0.46998  0.63152  0.98909  Biso   1.000  C
  C714     1.0000 0.46998  0.63148  0.98909  Biso   1.000  C
  H743     1.0000 0.76671  0.01919  0.05421  Biso   1.000  H
  C715     1.0000 0.81960  0.95679  0.03690  Biso   1.000  C
  H744     1.0000 0.76671  0.98081  0.94579  Biso   1.000  H
  H745     1.0000 0.76671  0.98077  0.94579  Biso   1.000  H
  C716     1.0000 0.81960  0.04321  0.96310  Biso   1.000  C
  C717     1.0000 0.81960  0.04317  0.96310  Biso   1.000  C
  H746     1.0000 0.55840  0.07351  0.68080  Biso   1.000  H
  H747     1.0000 0.57351  0.01139  0.67961  Biso   1.000  H
  C718     1.0000 0.51091  0.02998  0.63152  Biso   1.000  C
  C719     1.0000 0.51091  0.02998  0.63148  Biso   1.000  C
  H748     1.0000 0.55840  0.07347  0.68080  Biso   1.000  H
  H749     1.0000 0.46690  0.96350  0.59942  Biso   1.000  H
  H750     1.0000 0.51931  0.94452  0.63132  Biso   1.000  H
  H751     1.0000 0.46690  0.96350  0.59938  Biso   1.000  H
  H752     1.0000 0.51931  0.94452  0.63128  Biso   1.000  H
  H753     1.0000 0.51931  0.94448  0.63132  Biso   1.000  H
  H754     1.0000 0.51931  0.94448  0.63128  Biso   1.000  H
  H755     1.0000 0.57351  0.68080  0.05840  Biso   1.000  H
  H756     1.0000 0.51139  0.67961  0.07351  Biso   1.000  H
  C720     1.0000 0.52998  0.63152  0.01091  Biso   1.000  C
  H757     1.0000 0.51139  0.67961  0.07347  Biso   1.000  H
  C721     1.0000 0.52998  0.63152  0.01087  Biso   1.000  C
  C722     1.0000 0.52998  0.63148  0.01091  Biso   1.000  C
  C723     1.0000 0.52998  0.63148  0.01087  Biso   1.000  C
  H758     1.0000 0.46350  0.59942  0.96690  Biso   1.000  H
  H759     1.0000 0.46350  0.59938  0.96690  Biso   1.000  H
  H760     1.0000 0.44448  0.63132  0.01931  Biso   1.000  H
  H761     1.0000 0.44448  0.63128  0.01931  Biso   1.000  H
  H762     1.0000 0.81920  0.94160  0.07351  Biso   1.000  H
  H763     1.0000 0.82039  0.92649  0.01139  Biso   1.000  H
  C724     1.0000 0.86848  0.98909  0.02998  Biso   1.000  C
  H764     1.0000 0.81920  0.94160  0.07347  Biso   1.000  H
  C725     1.0000 0.86848  0.01091  0.97002  Biso   1.000  C
  C726     1.0000 0.86848  0.01091  0.96998  Biso   1.000  C
  C727     1.0000 0.86848  0.01087  0.97002  Biso   1.000  C
  C728     1.0000 0.86848  0.01087  0.96998  Biso   1.000  C
  H765     1.0000 0.81920  0.05840  0.92649  Biso   1.000  H
  H766     1.0000 0.82039  0.07351  0.98861  Biso   1.000  H
  H767     1.0000 0.82039  0.07347  0.98861  Biso   1.000  H
  H768     1.0000 0.53310  0.03650  0.59942  Biso   1.000  H
  H769     1.0000 0.48069  0.05548  0.63132  Biso   1.000  H
  H770     1.0000 0.53310  0.03650  0.59938  Biso   1.000  H
  H771     1.0000 0.48069  0.05548  0.63128  Biso   1.000  H
  H772     1.0000 0.55548  0.63132  0.98069  Biso   1.000  H
  H773     1.0000 0.55548  0.63128  0.98069  Biso   1.000  H
  H774     1.0000 0.53650  0.59942  0.03310  Biso   1.000  H
  H775     1.0000 0.53650  0.59938  0.03310  Biso   1.000  H
  H776     1.0000 0.86868  0.01931  0.05548  Biso   1.000  H
  H777     1.0000 0.90058  0.96690  0.03650  Biso   1.000  H
  H778     1.0000 0.86868  0.98069  0.94452  Biso   1.000  H
  H779     1.0000 0.86868  0.98069  0.94448  Biso   1.000  H
  H780     1.0000 0.90058  0.03310  0.96350  Biso   1.000  H
  C729     1.0000 0.08910  0.35301  0.07071  Biso   1.000  C
  C730     1.0000 0.13299  0.38491  0.05668  Biso   1.000  C
  C731     1.0000 0.07591  0.30848  0.03682  Biso   1.000  C
  C732     1.0000 0.05668  0.36701  0.11509  Biso   1.000  C
  C733     1.0000 0.07591  0.30848  0.03678  Biso   1.000  C
  C734     1.0000 0.07587  0.30848  0.03682  Biso   1.000  C
  C735     1.0000 0.07587  0.30848  0.03678  Biso   1.000  C
  C736     1.0000 0.14699  0.42929  0.08910  Biso   1.000  C
  H781     1.0000 0.15318  0.37680  0.02558  Biso   1.000  H
  C737     1.0000 0.08910  0.35301  0.07067  Biso   1.000  C
  N145     1.0000 0.03722  0.27598  0.04561  Biso   1.000  N
  H782     1.0000 0.09722  0.30289  0.00580  Biso   1.000  H
  N146     1.0000 0.03722  0.27598  0.04557  Biso   1.000  N
  N147     1.0000 0.03718  0.27598  0.04561  Biso   1.000  N
  H783     1.0000 0.09718  0.30289  0.00580  Biso   1.000  H
  N148     1.0000 0.03718  0.27598  0.04557  Biso   1.000  N
  C738     1.0000 0.07071  0.41090  0.14699  Biso   1.000  C
  C739     1.0000 0.07067  0.41090  0.14699  Biso   1.000  C
  H784     1.0000 0.02558  0.34678  0.12320  Biso   1.000  H
  C740     1.0000 0.11509  0.44328  0.13299  Biso   1.000  C
  C741     1.0000 0.19152  0.46318  0.07591  Biso   1.000  C
  C742     1.0000 0.19152  0.46318  0.07587  Biso   1.000  C
  C743     1.0000 0.19148  0.46318  0.07591  Biso   1.000  C
  C744     1.0000 0.19148  0.46318  0.07587  Biso   1.000  C
  C745     1.0000 0.02810  0.23189  0.01099  Biso   1.000  C
  C746     1.0000 0.03682  0.42409  0.19152  Biso   1.000  C
  C747     1.0000 0.03682  0.42409  0.19148  Biso   1.000  C
  C748     1.0000 0.03678  0.42409  0.19152  Biso   1.000  C
  C749     1.0000 0.03678  0.42409  0.19148  Biso   1.000  C
  H785     1.0000 0.12320  0.47438  0.15318  Biso   1.000  H
  N149     1.0000 0.22402  0.45439  0.03722  Biso   1.000  N
  H786     1.0000 0.19711  0.49420  0.09722  Biso   1.000  H
  N150     1.0000 0.22402  0.45439  0.03718  Biso   1.000  N
  H787     1.0000 0.19711  0.49420  0.09718  Biso   1.000  H
  N151     1.0000 0.22398  0.45439  0.03722  Biso   1.000  N
  H788     1.0000 0.19707  0.49420  0.09722  Biso   1.000  H
  N152     1.0000 0.22398  0.45439  0.03718  Biso   1.000  N
  H789     1.0000 0.19707  0.49420  0.09718  Biso   1.000  H
  C750     1.0000 0.03690  0.18040  0.04321  Biso   1.000  C
  C751     1.0000 0.03690  0.18040  0.04317  Biso   1.000  C
  C752     1.0000 0.97190  0.23189  0.98901  Biso   1.000  C
  H790     1.0000 0.05421  0.23329  0.98081  Biso   1.000  H
  H791     1.0000 0.05421  0.23329  0.98077  Biso   1.000  H
  N153     1.0000 0.04561  0.46278  0.22402  Biso   1.000  N
  H792     1.0000 0.00580  0.40278  0.19711  Biso   1.000  H
  N154     1.0000 0.04561  0.46278  0.22398  Biso   1.000  N
  H793     1.0000 0.00580  0.40278  0.19707  Biso   1.000  H
  N155     1.0000 0.04557  0.46278  0.22402  Biso   1.000  N
  N156     1.0000 0.04557  0.46278  0.22398  Biso   1.000  N
  C753     1.0000 0.26811  0.48901  0.02810  Biso   1.000  C
  C754     1.0000 0.26807  0.48901  0.02810  Biso   1.000  C
  H794     1.0000 0.07351  0.18080  0.05840  Biso   1.000  H
  H795     1.0000 0.01139  0.17961  0.07351  Biso   1.000  H
  C755     1.0000 0.02998  0.13152  0.01091  Biso   1.000  C
  H796     1.0000 0.01139  0.17961  0.07347  Biso   1.000  H
  C756     1.0000 0.02998  0.13152  0.01087  Biso   1.000  C
  H797     1.0000 0.07347  0.18080  0.05840  Biso   1.000  H
  N157     1.0000 0.96278  0.27598  0.95439  Biso   1.000  N
  C757     1.0000 0.96310  0.18040  0.95679  Biso   1.000  C
  H798     1.0000 0.94579  0.23329  0.01919  Biso   1.000  H
  C758     1.0000 0.01099  0.47190  0.26811  Biso   1.000  C
  C759     1.0000 0.01099  0.47190  0.26807  Biso   1.000  C
  H799     1.0000 0.26671  0.51919  0.05421  Biso   1.000  H
  C760     1.0000 0.31960  0.45679  0.03690  Biso   1.000  C
  H800     1.0000 0.26667  0.51919  0.05421  Biso   1.000  H
  C761     1.0000 0.26811  0.51099  0.97190  Biso   1.000  C
  C762     1.0000 0.26807  0.51099  0.97190  Biso   1.000  C
  H801     1.0000 0.03650  0.09942  0.03310  Biso   1.000  H
  C763     1.0000 0.97002  0.13152  0.98909  Biso   1.000  C
  C764     1.0000 0.96998  0.13152  0.98909  Biso   1.000  C
  H802     1.0000 0.05548  0.13132  0.98069  Biso   1.000  H
  C765     1.0000 0.92409  0.30848  0.96318  Biso   1.000  C
  H803     1.0000 0.92649  0.18080  0.94160  Biso   1.000  H
  H804     1.0000 0.98861  0.17961  0.92649  Biso   1.000  H
  C766     1.0000 0.04321  0.46310  0.31960  Biso   1.000  C
  C767     1.0000 0.04317  0.46310  0.31960  Biso   1.000  C
  C768     1.0000 0.98901  0.52810  0.26811  Biso   1.000  C
  H805     1.0000 0.98081  0.44579  0.26671  Biso   1.000  H
  C769     1.0000 0.98901  0.52810  0.26807  Biso   1.000  C
  H806     1.0000 0.98081  0.44579  0.26667  Biso   1.000  H
  H807     1.0000 0.98077  0.44579  0.26671  Biso   1.000  H
  H808     1.0000 0.98077  0.44579  0.26667  Biso   1.000  H
  H809     1.0000 0.31920  0.44160  0.07351  Biso   1.000  H
  H810     1.0000 0.32039  0.42649  0.01139  Biso   1.000  H
  C770     1.0000 0.36848  0.48909  0.02998  Biso   1.000  C
  H811     1.0000 0.31920  0.44160  0.07347  Biso   1.000  H
  N158     1.0000 0.22402  0.54561  0.96278  Biso   1.000  N
  H812     1.0000 0.26671  0.48081  0.94579  Biso   1.000  H
  C771     1.0000 0.31960  0.54321  0.96310  Biso   1.000  C
  N159     1.0000 0.22398  0.54561  0.96278  Biso   1.000  N
  H813     1.0000 0.26667  0.48081  0.94579  Biso   1.000  H
  H814     1.0000 0.96350  0.09942  0.96690  Biso   1.000  H
  H815     1.0000 0.94452  0.13132  0.01931  Biso   1.000  H
  H816     1.0000 0.94448  0.13132  0.01931  Biso   1.000  H
  C772     1.0000 0.91090  0.35301  0.92929  Biso   1.000  C
  H817     1.0000 0.90278  0.30289  0.99420  Biso   1.000  H
  H818     1.0000 0.05840  0.42649  0.31920  Biso   1.000  H
  H819     1.0000 0.07351  0.48861  0.32039  Biso   1.000  H
  C773     1.0000 0.01091  0.46998  0.36848  Biso   1.000  C
  H820     1.0000 0.07347  0.48861  0.32039  Biso   1.000  H
  C774     1.0000 0.01087  0.46998  0.36848  Biso   1.000  C
  H821     1.0000 0.01919  0.55421  0.26671  Biso   1.000  H
  H822     1.0000 0.01919  0.55421  0.26667  Biso   1.000  H
  N160     1.0000 0.95439  0.53718  0.22402  Biso   1.000  N
  C775     1.0000 0.95679  0.53690  0.31960  Biso   1.000  C
  N161     1.0000 0.95439  0.53718  0.22398  Biso   1.000  N
  H823     1.0000 0.40058  0.46690  0.03650  Biso   1.000  H
  H824     1.0000 0.36868  0.51931  0.05548  Biso   1.000  H
  C776     1.0000 0.36848  0.51091  0.97002  Biso   1.000  C
  C777     1.0000 0.36848  0.51091  0.96998  Biso   1.000  C
  C778     1.0000 0.19152  0.53678  0.92409  Biso   1.000  C
  C779     1.0000 0.19148  0.53678  0.92409  Biso   1.000  C
  H825     1.0000 0.31920  0.55840  0.92649  Biso   1.000  H
  H826     1.0000 0.32039  0.57351  0.98861  Biso   1.000  H
  C780     1.0000 0.86701  0.38491  0.94332  Biso   1.000  C
  C781     1.0000 0.94332  0.36701  0.88491  Biso   1.000  C
  C782     1.0000 0.86701  0.38491  0.94328  Biso   1.000  C
  C783     1.0000 0.94332  0.36701  0.88487  Biso   1.000  C
  C784     1.0000 0.94328  0.36701  0.88491  Biso   1.000  C
  C785     1.0000 0.94328  0.36701  0.88487  Biso   1.000  C
  H827     1.0000 0.03310  0.46350  0.40058  Biso   1.000  H
  C786     1.0000 0.98909  0.52998  0.36848  Biso   1.000  C
  H828     1.0000 0.98069  0.44448  0.36868  Biso   1.000  H
  C787     1.0000 0.96318  0.57591  0.19152  Biso   1.000  C
  C788     1.0000 0.96318  0.57591  0.19148  Biso   1.000  C
  H829     1.0000 0.94160  0.57351  0.31920  Biso   1.000  H
  H830     1.0000 0.92649  0.51139  0.32039  Biso   1.000  H
  H831     1.0000 0.40058  0.53310  0.96350  Biso   1.000  H
  H832     1.0000 0.36868  0.48069  0.94452  Biso   1.000  H
  H833     1.0000 0.36868  0.48069  0.94448  Biso   1.000  H
  C789     1.0000 0.14699  0.57067  0.91090  Biso   1.000  C
  H834     1.0000 0.19711  0.50580  0.90278  Biso   1.000  H
  H835     1.0000 0.19707  0.50580  0.90278  Biso   1.000  H
  H836     1.0000 0.84682  0.37680  0.97442  Biso   1.000  H
  C790     1.0000 0.85301  0.42929  0.91090  Biso   1.000  C
  H837     1.0000 0.84682  0.37680  0.97438  Biso   1.000  H
  H838     1.0000 0.84678  0.37680  0.97442  Biso   1.000  H
  C791     1.0000 0.85297  0.42929  0.91090  Biso   1.000  C
  H839     1.0000 0.84678  0.37680  0.97438  Biso   1.000  H
  H840     1.0000 0.97442  0.34678  0.87680  Biso   1.000  H
  C792     1.0000 0.92929  0.41090  0.85301  Biso   1.000  C
  C793     1.0000 0.92929  0.41090  0.85297  Biso   1.000  C
  H841     1.0000 0.97438  0.34678  0.87680  Biso   1.000  H
  H842     1.0000 0.01931  0.55548  0.36868  Biso   1.000  H
  H843     1.0000 0.96690  0.53650  0.40058  Biso   1.000  H
  C794     1.0000 0.92929  0.58910  0.14699  Biso   1.000  C
  H844     1.0000 0.99420  0.59718  0.19711  Biso   1.000  H
  H845     1.0000 0.99420  0.59718  0.19707  Biso   1.000  H
  C795     1.0000 0.11509  0.55668  0.86701  Biso   1.000  C
  C796     1.0000 0.13299  0.61509  0.94332  Biso   1.000  C
  C797     1.0000 0.13299  0.61509  0.94328  Biso   1.000  C
  C798     1.0000 0.88491  0.44328  0.86701  Biso   1.000  C
  C799     1.0000 0.80848  0.46318  0.92409  Biso   1.000  C
  C800     1.0000 0.88487  0.44328  0.86701  Biso   1.000  C
  C801     1.0000 0.96318  0.42409  0.80848  Biso   1.000  C
  C802     1.0000 0.94332  0.63299  0.11509  Biso   1.000  C
  C803     1.0000 0.88491  0.55668  0.13299  Biso   1.000  C
  C804     1.0000 0.94328  0.63299  0.11509  Biso   1.000  C
  C805     1.0000 0.88487  0.55668  0.13299  Biso   1.000  C
  H846     1.0000 0.12320  0.52558  0.84682  Biso   1.000  H
  C806     1.0000 0.07071  0.58910  0.85301  Biso   1.000  C
  H847     1.0000 0.12320  0.52558  0.84678  Biso   1.000  H
  C807     1.0000 0.07071  0.58910  0.85297  Biso   1.000  C
  C808     1.0000 0.07067  0.58910  0.85301  Biso   1.000  C
  C809     1.0000 0.07067  0.58910  0.85297  Biso   1.000  C
  H848     1.0000 0.15318  0.62320  0.97442  Biso   1.000  H
  C810     1.0000 0.08910  0.64699  0.92929  Biso   1.000  C
  H849     1.0000 0.15318  0.62320  0.97438  Biso   1.000  H
  H850     1.0000 0.87680  0.47438  0.84682  Biso   1.000  H
  H851     1.0000 0.87680  0.47438  0.84678  Biso   1.000  H
  N162     1.0000 0.77598  0.45439  0.96278  Biso   1.000  N
  H852     1.0000 0.80289  0.49420  0.90278  Biso   1.000  H
  N163     1.0000 0.95439  0.46278  0.77598  Biso   1.000  N
  H853     1.0000 0.99420  0.40278  0.80289  Biso   1.000  H
  H854     1.0000 0.97442  0.65318  0.12320  Biso   1.000  H
  C811     1.0000 0.91090  0.64699  0.07071  Biso   1.000  C
  C812     1.0000 0.91090  0.64699  0.07067  Biso   1.000  C
  H855     1.0000 0.97438  0.65318  0.12320  Biso   1.000  H
  H856     1.0000 0.87680  0.52558  0.15318  Biso   1.000  H
  C813     1.0000 0.85301  0.57067  0.08910  Biso   1.000  C
  C814     1.0000 0.85297  0.57067  0.08910  Biso   1.000  C
  C815     1.0000 0.05668  0.63299  0.88491  Biso   1.000  C
  C816     1.0000 0.03682  0.57591  0.80848  Biso   1.000  C
  C817     1.0000 0.05668  0.63299  0.88487  Biso   1.000  C
  C818     1.0000 0.03678  0.57591  0.80848  Biso   1.000  C
  C819     1.0000 0.07591  0.69148  0.96318  Biso   1.000  C
  C820     1.0000 0.07587  0.69148  0.96318  Biso   1.000  C
  C821     1.0000 0.73189  0.48901  0.97190  Biso   1.000  C
  C822     1.0000 0.98901  0.47190  0.73189  Biso   1.000  C
  C823     1.0000 0.86701  0.61509  0.05668  Biso   1.000  C
  C824     1.0000 0.92409  0.69148  0.03682  Biso   1.000  C
  C825     1.0000 0.92409  0.69148  0.03678  Biso   1.000  C
  C826     1.0000 0.80848  0.53678  0.07591  Biso   1.000  C
  C827     1.0000 0.80848  0.53678  0.07587  Biso   1.000  C
  H857     1.0000 0.02558  0.65318  0.87680  Biso   1.000  H
  N164     1.0000 0.04561  0.53718  0.77598  Biso   1.000  N
  H858     1.0000 0.00580  0.59718  0.80289  Biso   1.000  H
  N165     1.0000 0.04557  0.53718  0.77598  Biso   1.000  N
  N166     1.0000 0.03722  0.72398  0.95439  Biso   1.000  N
  H859     1.0000 0.09722  0.69707  0.99420  Biso   1.000  H
  N167     1.0000 0.03718  0.72398  0.95439  Biso   1.000  N
  H860     1.0000 0.09718  0.69707  0.99420  Biso   1.000  H
  C828     1.0000 0.73189  0.51099  0.02810  Biso   1.000  C
  H861     1.0000 0.73329  0.51919  0.94579  Biso   1.000  H
  C829     1.0000 0.68040  0.45679  0.96310  Biso   1.000  C
  C830     1.0000 0.01099  0.52810  0.73189  Biso   1.000  C
  C831     1.0000 0.95679  0.46310  0.68040  Biso   1.000  C
  H862     1.0000 0.01919  0.44579  0.73329  Biso   1.000  H
  H863     1.0000 0.84682  0.62320  0.02558  Biso   1.000  H
  H864     1.0000 0.84678  0.62320  0.02558  Biso   1.000  H
  N168     1.0000 0.96278  0.72398  0.04561  Biso   1.000  N
  H865     1.0000 0.90278  0.69707  0.00580  Biso   1.000  H
  N169     1.0000 0.96278  0.72398  0.04557  Biso   1.000  N
  N170     1.0000 0.77598  0.54561  0.03722  Biso   1.000  N
  H866     1.0000 0.80289  0.50580  0.09722  Biso   1.000  H
  N171     1.0000 0.77598  0.54561  0.03718  Biso   1.000  N
  H867     1.0000 0.80289  0.50580  0.09718  Biso   1.000  H
  C832     1.0000 0.02810  0.76811  0.98901  Biso   1.000  C
  H868     1.0000 0.73329  0.48081  0.05421  Biso   1.000  H
  C833     1.0000 0.68040  0.54321  0.03690  Biso   1.000  C
  H869     1.0000 0.68080  0.44160  0.92649  Biso   1.000  H
  H870     1.0000 0.67961  0.42649  0.98861  Biso   1.000  H
  C834     1.0000 0.63152  0.48909  0.97002  Biso   1.000  C
  C835     1.0000 0.63152  0.48909  0.96998  Biso   1.000  C
  C836     1.0000 0.63148  0.48909  0.97002  Biso   1.000  C
  C837     1.0000 0.63148  0.48909  0.96998  Biso   1.000  C
  H871     1.0000 0.98081  0.55421  0.73329  Biso   1.000  H
  H872     1.0000 0.98077  0.55421  0.73329  Biso   1.000  H
  C838     1.0000 0.04321  0.53690  0.68040  Biso   1.000  C
  C839     1.0000 0.04317  0.53690  0.68040  Biso   1.000  C
  H873     1.0000 0.94160  0.42649  0.68080  Biso   1.000  H
  H874     1.0000 0.92649  0.48861  0.67961  Biso   1.000  H
  C840     1.0000 0.98909  0.46998  0.63152  Biso   1.000  C
  C841     1.0000 0.98909  0.46998  0.63148  Biso   1.000  C
  C842     1.0000 0.97190  0.76811  0.01099  Biso   1.000  C
  H875     1.0000 0.05421  0.76671  0.01919  Biso   1.000  H
  C843     1.0000 0.03690  0.81960  0.95679  Biso   1.000  C
  H876     1.0000 0.68080  0.55840  0.07351  Biso   1.000  H
  H877     1.0000 0.67961  0.57351  0.01139  Biso   1.000  H
  C844     1.0000 0.63152  0.51091  0.02998  Biso   1.000  C
  H878     1.0000 0.68080  0.55840  0.07347  Biso   1.000  H
  C845     1.0000 0.63148  0.51091  0.02998  Biso   1.000  C
  H879     1.0000 0.59942  0.46690  0.96350  Biso   1.000  H
  H880     1.0000 0.63132  0.51931  0.94452  Biso   1.000  H
  H881     1.0000 0.63132  0.51931  0.94448  Biso   1.000  H
  H882     1.0000 0.59938  0.46690  0.96350  Biso   1.000  H
  H883     1.0000 0.63128  0.51931  0.94452  Biso   1.000  H
  H884     1.0000 0.63128  0.51931  0.94448  Biso   1.000  H
  H885     1.0000 0.05840  0.57351  0.68080  Biso   1.000  H
  H886     1.0000 0.07351  0.51139  0.67961  Biso   1.000  H
  C846     1.0000 0.01091  0.52998  0.63152  Biso   1.000  C
  C847     1.0000 0.01091  0.52998  0.63148  Biso   1.000  C
  H887     1.0000 0.07347  0.51139  0.67961  Biso   1.000  H
  C848     1.0000 0.01087  0.52998  0.63152  Biso   1.000  C
  C849     1.0000 0.01087  0.52998  0.63148  Biso   1.000  C
  H888     1.0000 0.96690  0.46350  0.59942  Biso   1.000  H
  H889     1.0000 0.96690  0.46350  0.59938  Biso   1.000  H
  H890     1.0000 0.01931  0.44448  0.63132  Biso   1.000  H
  H891     1.0000 0.01931  0.44448  0.63128  Biso   1.000  H
  H892     1.0000 0.94579  0.76671  0.98081  Biso   1.000  H
  H893     1.0000 0.94579  0.76671  0.98077  Biso   1.000  H
  C850     1.0000 0.96310  0.81960  0.04321  Biso   1.000  C
  C851     1.0000 0.96310  0.81960  0.04317  Biso   1.000  C
  H894     1.0000 0.07351  0.81920  0.94160  Biso   1.000  H
  H895     1.0000 0.01139  0.82039  0.92649  Biso   1.000  H
  C852     1.0000 0.02998  0.86848  0.98909  Biso   1.000  C
  H896     1.0000 0.07347  0.81920  0.94160  Biso   1.000  H
  H897     1.0000 0.59942  0.53310  0.03650  Biso   1.000  H
  H898     1.0000 0.63132  0.48069  0.05548  Biso   1.000  H
  H899     1.0000 0.59938  0.53310  0.03650  Biso   1.000  H
  H900     1.0000 0.63128  0.48069  0.05548  Biso   1.000  H
  H901     1.0000 0.98069  0.55548  0.63132  Biso   1.000  H
  H902     1.0000 0.98069  0.55548  0.63128  Biso   1.000  H
  H903     1.0000 0.03310  0.53650  0.59942  Biso   1.000  H
  H904     1.0000 0.03310  0.53650  0.59938  Biso   1.000  H
  H905     1.0000 0.92649  0.81920  0.05840  Biso   1.000  H
  H906     1.0000 0.98861  0.82039  0.07351  Biso   1.000  H
  C853     1.0000 0.97002  0.86848  0.01091  Biso   1.000  C
  H907     1.0000 0.98861  0.82039  0.07347  Biso   1.000  H
  C854     1.0000 0.97002  0.86848  0.01087  Biso   1.000  C
  C855     1.0000 0.96998  0.86848  0.01091  Biso   1.000  C
  C856     1.0000 0.96998  0.86848  0.01087  Biso   1.000  C
  H908     1.0000 0.05548  0.86868  0.01931  Biso   1.000  H
  H909     1.0000 0.03650  0.90058  0.96690  Biso   1.000  H
  H910     1.0000 0.94452  0.86868  0.98069  Biso   1.000  H
  H911     1.0000 0.94448  0.86868  0.98069  Biso   1.000  H
  H912     1.0000 0.96350  0.90058  0.03310  Biso   1.000  H
  C857     1.0000 0.08910  0.35301  0.07071  Biso   1.000  C
  C858     1.0000 0.13299  0.38491  0.05668  Biso   1.000  C
  C859     1.0000 0.05668  0.36701  0.11509  Biso   1.000  C
  C860     1.0000 0.07591  0.30848  0.03682  Biso   1.000  C
  C861     1.0000 0.07591  0.30848  0.03678  Biso   1.000  C
  C862     1.0000 0.07587  0.30848  0.03682  Biso   1.000  C
  C863     1.0000 0.07587  0.30848  0.03678  Biso   1.000  C
  C864     1.0000 0.14699  0.42929  0.08910  Biso   1.000  C
  H913     1.0000 0.15318  0.37680  0.02558  Biso   1.000  H
  C865     1.0000 0.08910  0.35301  0.07067  Biso   1.000  C
  C866     1.0000 0.07071  0.41090  0.14699  Biso   1.000  C
  C867     1.0000 0.07067  0.41090  0.14699  Biso   1.000  C
  H914     1.0000 0.02558  0.34678  0.12320  Biso   1.000  H
  H915     1.0000 0.09722  0.30289  0.00580  Biso   1.000  H
  H916     1.0000 0.09718  0.30289  0.00580  Biso   1.000  H
  N172     1.0000 0.03722  0.27598  0.04561  Biso   1.000  N
  N173     1.0000 0.03722  0.27598  0.04557  Biso   1.000  N
  N174     1.0000 0.03718  0.27598  0.04561  Biso   1.000  N
  N175     1.0000 0.03718  0.27598  0.04557  Biso   1.000  N
  C868     1.0000 0.11509  0.44328  0.13299  Biso   1.000  C
  C869     1.0000 0.19152  0.46318  0.07591  Biso   1.000  C
  C870     1.0000 0.19152  0.46318  0.07587  Biso   1.000  C
  C871     1.0000 0.19148  0.46318  0.07591  Biso   1.000  C
  C872     1.0000 0.19148  0.46318  0.07587  Biso   1.000  C
  C873     1.0000 0.03682  0.42409  0.19152  Biso   1.000  C
  C874     1.0000 0.03682  0.42409  0.19148  Biso   1.000  C
  C875     1.0000 0.03678  0.42409  0.19152  Biso   1.000  C
  C876     1.0000 0.03678  0.42409  0.19148  Biso   1.000  C
  C877     1.0000 0.02810  0.23189  0.01099  Biso   1.000  C
  H917     1.0000 0.12320  0.47438  0.15318  Biso   1.000  H
  N176     1.0000 0.22402  0.45439  0.03722  Biso   1.000  N
  H918     1.0000 0.19711  0.49420  0.09722  Biso   1.000  H
  N177     1.0000 0.22402  0.45439  0.03718  Biso   1.000  N
  H919     1.0000 0.19711  0.49420  0.09718  Biso   1.000  H
  N178     1.0000 0.22398  0.45439  0.03722  Biso   1.000  N
  H920     1.0000 0.19707  0.49420  0.09722  Biso   1.000  H
  N179     1.0000 0.22398  0.45439  0.03718  Biso   1.000  N
  H921     1.0000 0.19707  0.49420  0.09718  Biso   1.000  H
  H922     1.0000 0.00580  0.40278  0.19711  Biso   1.000  H
  H923     1.0000 0.00580  0.40278  0.19707  Biso   1.000  H
  N180     1.0000 0.04561  0.46278  0.22402  Biso   1.000  N
  N181     1.0000 0.04561  0.46278  0.22398  Biso   1.000  N
  N182     1.0000 0.04557  0.46278  0.22402  Biso   1.000  N
  N183     1.0000 0.04557  0.46278  0.22398  Biso   1.000  N
  C878     1.0000 0.03690  0.18040  0.04321  Biso   1.000  C
  C879     1.0000 0.03690  0.18040  0.04317  Biso   1.000  C
  C880     1.0000 0.97190  0.23189  0.98901  Biso   1.000  C
  H924     1.0000 0.05421  0.23329  0.98081  Biso   1.000  H
  H925     1.0000 0.05421  0.23329  0.98077  Biso   1.000  H
  C881     1.0000 0.26811  0.48901  0.02810  Biso   1.000  C
  C882     1.0000 0.26807  0.48901  0.02810  Biso   1.000  C
  C883     1.0000 0.01099  0.47190  0.26811  Biso   1.000  C
  C884     1.0000 0.01099  0.47190  0.26807  Biso   1.000  C
  H926     1.0000 0.07351  0.18080  0.05840  Biso   1.000  H
  H927     1.0000 0.01139  0.17961  0.07351  Biso   1.000  H
  C885     1.0000 0.02998  0.13152  0.01091  Biso   1.000  C
  H928     1.0000 0.07347  0.18080  0.05840  Biso   1.000  H
  H929     1.0000 0.01139  0.17961  0.07347  Biso   1.000  H
  C886     1.0000 0.02998  0.13152  0.01087  Biso   1.000  C
  N184     1.0000 0.96278  0.27598  0.95439  Biso   1.000  N
  C887     1.0000 0.96310  0.18040  0.95679  Biso   1.000  C
  H930     1.0000 0.94579  0.23329  0.01919  Biso   1.000  H
  H931     1.0000 0.26671  0.51919  0.05421  Biso   1.000  H
  C888     1.0000 0.31960  0.45679  0.03690  Biso   1.000  C
  H932     1.0000 0.26667  0.51919  0.05421  Biso   1.000  H
  C889     1.0000 0.26811  0.51099  0.97190  Biso   1.000  C
  C890     1.0000 0.26807  0.51099  0.97190  Biso   1.000  C
  C891     1.0000 0.04321  0.46310  0.31960  Biso   1.000  C
  C892     1.0000 0.04317  0.46310  0.31960  Biso   1.000  C
  C893     1.0000 0.98901  0.52810  0.26811  Biso   1.000  C
  H933     1.0000 0.98081  0.44579  0.26671  Biso   1.000  H
  C894     1.0000 0.98901  0.52810  0.26807  Biso   1.000  C
  H934     1.0000 0.98081  0.44579  0.26667  Biso   1.000  H
  H935     1.0000 0.98077  0.44579  0.26671  Biso   1.000  H
  H936     1.0000 0.98077  0.44579  0.26667  Biso   1.000  H
  H937     1.0000 0.03650  0.09942  0.03310  Biso   1.000  H
  C895     1.0000 0.97002  0.13152  0.98909  Biso   1.000  C
  C896     1.0000 0.96998  0.13152  0.98909  Biso   1.000  C
  H938     1.0000 0.05548  0.13132  0.98069  Biso   1.000  H
  C897     1.0000 0.92409  0.30848  0.96318  Biso   1.000  C
  H939     1.0000 0.92649  0.18080  0.94160  Biso   1.000  H
  H940     1.0000 0.98861  0.17961  0.92649  Biso   1.000  H
  H941     1.0000 0.32039  0.42649  0.01139  Biso   1.000  H
  C898     1.0000 0.36848  0.48909  0.02998  Biso   1.000  C
  H942     1.0000 0.31920  0.44160  0.07351  Biso   1.000  H
  H943     1.0000 0.31920  0.44160  0.07347  Biso   1.000  H
  N185     1.0000 0.22402  0.54561  0.96278  Biso   1.000  N
  H944     1.0000 0.26671  0.48081  0.94579  Biso   1.000  H
  C899     1.0000 0.31960  0.54321  0.96310  Biso   1.000  C
  N186     1.0000 0.22398  0.54561  0.96278  Biso   1.000  N
  H945     1.0000 0.26667  0.48081  0.94579  Biso   1.000  H
  H946     1.0000 0.05840  0.42649  0.31920  Biso   1.000  H
  H947     1.0000 0.07351  0.48861  0.32039  Biso   1.000  H
  C900     1.0000 0.01091  0.46998  0.36848  Biso   1.000  C
  H948     1.0000 0.07347  0.48861  0.32039  Biso   1.000  H
  C901     1.0000 0.01087  0.46998  0.36848  Biso   1.000  C
  H949     1.0000 0.01919  0.55421  0.26671  Biso   1.000  H
  H950     1.0000 0.01919  0.55421  0.26667  Biso   1.000  H
  N187     1.0000 0.95439  0.53718  0.22402  Biso   1.000  N
  C902     1.0000 0.95679  0.53690  0.31960  Biso   1.000  C
  N188     1.0000 0.95439  0.53718  0.22398  Biso   1.000  N
  H951     1.0000 0.96350  0.09942  0.96690  Biso   1.000  H
  H952     1.0000 0.94452  0.13132  0.01931  Biso   1.000  H
  H953     1.0000 0.94448  0.13132  0.01931  Biso   1.000  H
  C903     1.0000 0.91090  0.35301  0.92929  Biso   1.000  C
  H954     1.0000 0.90278  0.30289  0.99420  Biso   1.000  H
  H955     1.0000 0.40058  0.46690  0.03650  Biso   1.000  H
  H956     1.0000 0.36868  0.51931  0.05548  Biso   1.000  H
  C904     1.0000 0.36848  0.51091  0.97002  Biso   1.000  C
  C905     1.0000 0.36848  0.51091  0.96998  Biso   1.000  C
  C906     1.0000 0.19152  0.53678  0.92409  Biso   1.000  C
  C907     1.0000 0.19148  0.53678  0.92409  Biso   1.000  C
  H957     1.0000 0.31920  0.55840  0.92649  Biso   1.000  H
  H958     1.0000 0.32039  0.57351  0.98861  Biso   1.000  H
  H959     1.0000 0.03310  0.46350  0.40058  Biso   1.000  H
  C908     1.0000 0.98909  0.52998  0.36848  Biso   1.000  C
  H960     1.0000 0.98069  0.44448  0.36868  Biso   1.000  H
  C909     1.0000 0.96318  0.57591  0.19152  Biso   1.000  C
  C910     1.0000 0.96318  0.57591  0.19148  Biso   1.000  C
  H961     1.0000 0.94160  0.57351  0.31920  Biso   1.000  H
  H962     1.0000 0.92649  0.51139  0.32039  Biso   1.000  H
  C911     1.0000 0.86701  0.38491  0.94332  Biso   1.000  C
  C912     1.0000 0.94332  0.36701  0.88491  Biso   1.000  C
  C913     1.0000 0.86701  0.38491  0.94328  Biso   1.000  C
  C914     1.0000 0.94332  0.36701  0.88487  Biso   1.000  C
  C915     1.0000 0.94328  0.36701  0.88491  Biso   1.000  C
  C916     1.0000 0.94328  0.36701  0.88487  Biso   1.000  C
  H963     1.0000 0.40058  0.53310  0.96350  Biso   1.000  H
  H964     1.0000 0.36868  0.48069  0.94452  Biso   1.000  H
  H965     1.0000 0.36868  0.48069  0.94448  Biso   1.000  H
  C917     1.0000 0.14699  0.57067  0.91090  Biso   1.000  C
  H966     1.0000 0.19711  0.50580  0.90278  Biso   1.000  H
  H967     1.0000 0.19707  0.50580  0.90278  Biso   1.000  H
  H968     1.0000 0.01931  0.55548  0.36868  Biso   1.000  H
  H969     1.0000 0.96690  0.53650  0.40058  Biso   1.000  H
  C918     1.0000 0.92929  0.58910  0.14699  Biso   1.000  C
  H970     1.0000 0.99420  0.59718  0.19711  Biso   1.000  H
  H971     1.0000 0.99420  0.59718  0.19707  Biso   1.000  H
  H972     1.0000 0.84682  0.37680  0.97442  Biso   1.000  H
  C919     1.0000 0.85301  0.42929  0.91090  Biso   1.000  C
  H973     1.0000 0.84682  0.37680  0.97438  Biso   1.000  H
  H974     1.0000 0.84678  0.37680  0.97442  Biso   1.000  H
  C920     1.0000 0.85297  0.42929  0.91090  Biso   1.000  C
  H975     1.0000 0.84678  0.37680  0.97438  Biso   1.000  H
  H976     1.0000 0.97442  0.34678  0.87680  Biso   1.000  H
  C921     1.0000 0.92929  0.41090  0.85301  Biso   1.000  C
  C922     1.0000 0.92929  0.41090  0.85297  Biso   1.000  C
  H977     1.0000 0.97438  0.34678  0.87680  Biso   1.000  H
  C923     1.0000 0.11509  0.55668  0.86701  Biso   1.000  C
  C924     1.0000 0.13299  0.61509  0.94332  Biso   1.000  C
  C925     1.0000 0.13299  0.61509  0.94328  Biso   1.000  C
  C926     1.0000 0.94332  0.63299  0.11509  Biso   1.000  C
  C927     1.0000 0.88491  0.55668  0.13299  Biso   1.000  C
  C928     1.0000 0.94328  0.63299  0.11509  Biso   1.000  C
  C929     1.0000 0.88487  0.55668  0.13299  Biso   1.000  C
  C930     1.0000 0.88491  0.44328  0.86701  Biso   1.000  C
  C931     1.0000 0.80848  0.46318  0.92409  Biso   1.000  C
  C932     1.0000 0.88487  0.44328  0.86701  Biso   1.000  C
  C933     1.0000 0.96318  0.42409  0.80848  Biso   1.000  C
  H978     1.0000 0.12320  0.52558  0.84682  Biso   1.000  H
  C934     1.0000 0.07071  0.58910  0.85301  Biso   1.000  C
  H979     1.0000 0.12320  0.52558  0.84678  Biso   1.000  H
  C935     1.0000 0.07071  0.58910  0.85297  Biso   1.000  C
  C936     1.0000 0.07067  0.58910  0.85301  Biso   1.000  C
  C937     1.0000 0.07067  0.58910  0.85297  Biso   1.000  C
  H980     1.0000 0.15318  0.62320  0.97442  Biso   1.000  H
  C938     1.0000 0.08910  0.64699  0.92929  Biso   1.000  C
  H981     1.0000 0.15318  0.62320  0.97438  Biso   1.000  H
  H982     1.0000 0.97442  0.65318  0.12320  Biso   1.000  H
  C939     1.0000 0.91090  0.64699  0.07071  Biso   1.000  C
  C940     1.0000 0.91090  0.64699  0.07067  Biso   1.000  C
  H983     1.0000 0.97438  0.65318  0.12320  Biso   1.000  H
  H984     1.0000 0.87680  0.52558  0.15318  Biso   1.000  H
  C941     1.0000 0.85301  0.57067  0.08910  Biso   1.000  C
  C942     1.0000 0.85297  0.57067  0.08910  Biso   1.000  C
  H985     1.0000 0.87680  0.47438  0.84682  Biso   1.000  H
  H986     1.0000 0.87680  0.47438  0.84678  Biso   1.000  H
  N189     1.0000 0.77598  0.45439  0.96278  Biso   1.000  N
  H987     1.0000 0.80289  0.49420  0.90278  Biso   1.000  H
  N190     1.0000 0.95439  0.46278  0.77598  Biso   1.000  N
  H988     1.0000 0.99420  0.40278  0.80289  Biso   1.000  H
  C943     1.0000 0.05668  0.63299  0.88491  Biso   1.000  C
  C944     1.0000 0.03682  0.57591  0.80848  Biso   1.000  C
  C945     1.0000 0.05668  0.63299  0.88487  Biso   1.000  C
  C946     1.0000 0.03678  0.57591  0.80848  Biso   1.000  C
  C947     1.0000 0.07591  0.69148  0.96318  Biso   1.000  C
  C948     1.0000 0.07587  0.69148  0.96318  Biso   1.000  C
  C949     1.0000 0.86701  0.61509  0.05668  Biso   1.000  C
  C950     1.0000 0.92409  0.69148  0.03682  Biso   1.000  C
  C951     1.0000 0.92409  0.69148  0.03678  Biso   1.000  C
  C952     1.0000 0.80848  0.53678  0.07591  Biso   1.000  C
  C953     1.0000 0.80848  0.53678  0.07587  Biso   1.000  C
  C954     1.0000 0.73189  0.48901  0.97190  Biso   1.000  C
  C955     1.0000 0.98901  0.47190  0.73189  Biso   1.000  C
  H989     1.0000 0.02558  0.65318  0.87680  Biso   1.000  H
  N191     1.0000 0.04561  0.53718  0.77598  Biso   1.000  N
  H990     1.0000 0.00580  0.59718  0.80289  Biso   1.000  H
  N192     1.0000 0.04557  0.53718  0.77598  Biso   1.000  N
  N193     1.0000 0.03722  0.72398  0.95439  Biso   1.000  N
  H991     1.0000 0.09722  0.69707  0.99420  Biso   1.000  H
  N194     1.0000 0.03718  0.72398  0.95439  Biso   1.000  N
  H992     1.0000 0.09718  0.69707  0.99420  Biso   1.000  H
  H993     1.0000 0.84682  0.62320  0.02558  Biso   1.000  H
  H994     1.0000 0.84678  0.62320  0.02558  Biso   1.000  H
  N195     1.0000 0.96278  0.72398  0.04561  Biso   1.000  N
  H995     1.0000 0.90278  0.69707  0.00580  Biso   1.000  H
  N196     1.0000 0.96278  0.72398  0.04557  Biso   1.000  N
  N197     1.0000 0.77598  0.54561  0.03722  Biso   1.000  N
  H996     1.0000 0.80289  0.50580  0.09722  Biso   1.000  H
  N198     1.0000 0.77598  0.54561  0.03718  Biso   1.000  N
  H997     1.0000 0.80289  0.50580  0.09718  Biso   1.000  H
  C956     1.0000 0.73189  0.51099  0.02810  Biso   1.000  C
  H998     1.0000 0.73329  0.51919  0.94579  Biso   1.000  H
  C957     1.0000 0.68040  0.45679  0.96310  Biso   1.000  C
  C958     1.0000 0.01099  0.52810  0.73189  Biso   1.000  C
  C959     1.0000 0.95679  0.46310  0.68040  Biso   1.000  C
  H999     1.0000 0.01919  0.44579  0.73329  Biso   1.000  H
  C960     1.0000 0.02810  0.76811  0.98901  Biso   1.000  C
  C961     1.0000 0.97190  0.76811  0.01099  Biso   1.000  C
  H1000    1.0000 0.73329  0.48081  0.05421  Biso   1.000  H
  C962     1.0000 0.68040  0.54321  0.03690  Biso   1.000  C
  H1001    1.0000 0.68080  0.44160  0.92649  Biso   1.000  H
  H1002    1.0000 0.67961  0.42649  0.98861  Biso   1.000  H
  C963     1.0000 0.63152  0.48909  0.97002  Biso   1.000  C
  C964     1.0000 0.63152  0.48909  0.96998  Biso   1.000  C
  C965     1.0000 0.63148  0.48909  0.97002  Biso   1.000  C
  C966     1.0000 0.63148  0.48909  0.96998  Biso   1.000  C
  H1003    1.0000 0.98081  0.55421  0.73329  Biso   1.000  H
  H1004    1.0000 0.98077  0.55421  0.73329  Biso   1.000  H
  C967     1.0000 0.04321  0.53690  0.68040  Biso   1.000  C
  C968     1.0000 0.04317  0.53690  0.68040  Biso   1.000  C
  H1005    1.0000 0.94160  0.42649  0.68080  Biso   1.000  H
  H1006    1.0000 0.92649  0.48861  0.67961  Biso   1.000  H
  C969     1.0000 0.98909  0.46998  0.63152  Biso   1.000  C
  C970     1.0000 0.98909  0.46998  0.63148  Biso   1.000  C
  H1007    1.0000 0.05421  0.76671  0.01919  Biso   1.000  H
  C971     1.0000 0.03690  0.81960  0.95679  Biso   1.000  C
  H1008    1.0000 0.94579  0.76671  0.98081  Biso   1.000  H
  H1009    1.0000 0.94579  0.76671  0.98077  Biso   1.000  H
  C972     1.0000 0.96310  0.81960  0.04321  Biso   1.000  C
  C973     1.0000 0.96310  0.81960  0.04317  Biso   1.000  C
  H1010    1.0000 0.68080  0.55840  0.07351  Biso   1.000  H
  H1011    1.0000 0.67961  0.57351  0.01139  Biso   1.000  H
  C974     1.0000 0.63152  0.51091  0.02998  Biso   1.000  C
  H1012    1.0000 0.68080  0.55840  0.07347  Biso   1.000  H
  C975     1.0000 0.63148  0.51091  0.02998  Biso   1.000  C
  H1013    1.0000 0.59942  0.46690  0.96350  Biso   1.000  H
  H1014    1.0000 0.63132  0.51931  0.94452  Biso   1.000  H
  H1015    1.0000 0.63132  0.51931  0.94448  Biso   1.000  H
  H1016    1.0000 0.59938  0.46690  0.96350  Biso   1.000  H
  H1017    1.0000 0.63128  0.51931  0.94452  Biso   1.000  H
  H1018    1.0000 0.63128  0.51931  0.94448  Biso   1.000  H
  H1019    1.0000 0.05840  0.57351  0.68080  Biso   1.000  H
  H1020    1.0000 0.07351  0.51139  0.67961  Biso   1.000  H
  C976     1.0000 0.01091  0.52998  0.63152  Biso   1.000  C
  C977     1.0000 0.01091  0.52998  0.63148  Biso   1.000  C
  H1021    1.0000 0.07347  0.51139  0.67961  Biso   1.000  H
  C978     1.0000 0.01087  0.52998  0.63152  Biso   1.000  C
  C979     1.0000 0.01087  0.52998  0.63148  Biso   1.000  C
  H1022    1.0000 0.96690  0.46350  0.59942  Biso   1.000  H
  H1023    1.0000 0.96690  0.46350  0.59938  Biso   1.000  H
  H1024    1.0000 0.01931  0.44448  0.63132  Biso   1.000  H
  H1025    1.0000 0.01931  0.44448  0.63128  Biso   1.000  H
  H1026    1.0000 0.07351  0.81920  0.94160  Biso   1.000  H
  H1027    1.0000 0.01139  0.82039  0.92649  Biso   1.000  H
  C980     1.0000 0.02998  0.86848  0.98909  Biso   1.000  C
  H1028    1.0000 0.07347  0.81920  0.94160  Biso   1.000  H
  H1029    1.0000 0.92649  0.81920  0.05840  Biso   1.000  H
  H1030    1.0000 0.98861  0.82039  0.07351  Biso   1.000  H
  C981     1.0000 0.97002  0.86848  0.01091  Biso   1.000  C
  H1031    1.0000 0.98861  0.82039  0.07347  Biso   1.000  H
  C982     1.0000 0.97002  0.86848  0.01087  Biso   1.000  C
  C983     1.0000 0.96998  0.86848  0.01091  Biso   1.000  C
  C984     1.0000 0.96998  0.86848  0.01087  Biso   1.000  C
  H1032    1.0000 0.59942  0.53310  0.03650  Biso   1.000  H
  H1033    1.0000 0.63132  0.48069  0.05548  Biso   1.000  H
  H1034    1.0000 0.59938  0.53310  0.03650  Biso   1.000  H
  H1035    1.0000 0.63128  0.48069  0.05548  Biso   1.000  H
  H1036    1.0000 0.98069  0.55548  0.63132  Biso   1.000  H
  H1037    1.0000 0.98069  0.55548  0.63128  Biso   1.000  H
  H1038    1.0000 0.03310  0.53650  0.59942  Biso   1.000  H
  H1039    1.0000 0.03310  0.53650  0.59938  Biso   1.000  H
  H1040    1.0000 0.05548  0.86868  0.01931  Biso   1.000  H
  H1041    1.0000 0.03650  0.90058  0.96690  Biso   1.000  H
  H1042    1.0000 0.94452  0.86868  0.98069  Biso   1.000  H
  H1043    1.0000 0.94448  0.86868  0.98069  Biso   1.000  H
  H1044    1.0000 0.96350  0.90058  0.03310  Biso   1.000  H
  C985     1.0000 0.08910  0.35301  0.07071  Biso   1.000  C
  C986     1.0000 0.13299  0.38491  0.05668  Biso   1.000  C
  C987     1.0000 0.05668  0.36701  0.11509  Biso   1.000  C
  C988     1.0000 0.07591  0.30848  0.03682  Biso   1.000  C
  C989     1.0000 0.07591  0.30848  0.03678  Biso   1.000  C
  C990     1.0000 0.07587  0.30848  0.03682  Biso   1.000  C
  C991     1.0000 0.07587  0.30848  0.03678  Biso   1.000  C
  C992     1.0000 0.14699  0.42929  0.08910  Biso   1.000  C
  H1045    1.0000 0.15318  0.37680  0.02558  Biso   1.000  H
  C993     1.0000 0.08910  0.35301  0.07067  Biso   1.000  C
  C994     1.0000 0.07071  0.41090  0.14699  Biso   1.000  C
  C995     1.0000 0.07067  0.41090  0.14699  Biso   1.000  C
  H1046    1.0000 0.02558  0.34678  0.12320  Biso   1.000  H
  N199     1.0000 0.03722  0.27598  0.04561  Biso   1.000  N
  H1047    1.0000 0.09722  0.30289  0.00580  Biso   1.000  H
  N200     1.0000 0.03722  0.27598  0.04557  Biso   1.000  N
  N201     1.0000 0.03718  0.27598  0.04561  Biso   1.000  N
  H1048    1.0000 0.09718  0.30289  0.00580  Biso   1.000  H
  N202     1.0000 0.03718  0.27598  0.04557  Biso   1.000  N
  C996     1.0000 0.11509  0.44328  0.13299  Biso   1.000  C
  C997     1.0000 0.19152  0.46318  0.07591  Biso   1.000  C
  C998     1.0000 0.19152  0.46318  0.07587  Biso   1.000  C
  C999     1.0000 0.19148  0.46318  0.07591  Biso   1.000  C
  C1000    1.0000 0.19148  0.46318  0.07587  Biso   1.000  C
  C1001    1.0000 0.03682  0.42409  0.19152  Biso   1.000  C
  C1002    1.0000 0.03682  0.42409  0.19148  Biso   1.000  C
  C1003    1.0000 0.03678  0.42409  0.19152  Biso   1.000  C
  C1004    1.0000 0.03678  0.42409  0.19148  Biso   1.000  C
  C1005    1.0000 0.02810  0.23189  0.01099  Biso   1.000  C
  H1049    1.0000 0.12320  0.47438  0.15318  Biso   1.000  H
  N203     1.0000 0.22402  0.45439  0.03722  Biso   1.000  N
  H1050    1.0000 0.19711  0.49420  0.09722  Biso   1.000  H
  N204     1.0000 0.22402  0.45439  0.03718  Biso   1.000  N
  H1051    1.0000 0.19711  0.49420  0.09718  Biso   1.000  H
  N205     1.0000 0.22398  0.45439  0.03722  Biso   1.000  N
  H1052    1.0000 0.19707  0.49420  0.09722  Biso   1.000  H
  N206     1.0000 0.22398  0.45439  0.03718  Biso   1.000  N
  H1053    1.0000 0.19707  0.49420  0.09718  Biso   1.000  H
  N207     1.0000 0.04561  0.46278  0.22402  Biso   1.000  N
  H1054    1.0000 0.00580  0.40278  0.19711  Biso   1.000  H
  N208     1.0000 0.04561  0.46278  0.22398  Biso   1.000  N
  H1055    1.0000 0.00580  0.40278  0.19707  Biso   1.000  H
  N209     1.0000 0.04557  0.46278  0.22402  Biso   1.000  N
  N210     1.0000 0.04557  0.46278  0.22398  Biso   1.000  N
  C1006    1.0000 0.97190  0.23189  0.98901  Biso   1.000  C
  H1056    1.0000 0.05421  0.23329  0.98081  Biso   1.000  H
  H1057    1.0000 0.05421  0.23329  0.98077  Biso   1.000  H
  C1007    1.0000 0.03690  0.18040  0.04321  Biso   1.000  C
  C1008    1.0000 0.03690  0.18040  0.04317  Biso   1.000  C
  C1009    1.0000 0.26811  0.48901  0.02810  Biso   1.000  C
  C1010    1.0000 0.26807  0.48901  0.02810  Biso   1.000  C
  C1011    1.0000 0.01099  0.47190  0.26811  Biso   1.000  C
  C1012    1.0000 0.01099  0.47190  0.26807  Biso   1.000  C
  N211     1.0000 0.96278  0.27598  0.95439  Biso   1.000  N
  C1013    1.0000 0.96310  0.18040  0.95679  Biso   1.000  C
  H1058    1.0000 0.94579  0.23329  0.01919  Biso   1.000  H
  H1059    1.0000 0.07351  0.18080  0.05840  Biso   1.000  H
  H1060    1.0000 0.01139  0.17961  0.07351  Biso   1.000  H
  C1014    1.0000 0.02998  0.13152  0.01091  Biso   1.000  C
  H1061    1.0000 0.01139  0.17961  0.07347  Biso   1.000  H
  C1015    1.0000 0.02998  0.13152  0.01087  Biso   1.000  C
  H1062    1.0000 0.07347  0.18080  0.05840  Biso   1.000  H
  C1016    1.0000 0.31960  0.45679  0.03690  Biso   1.000  C
  C1017    1.0000 0.26811  0.51099  0.97190  Biso   1.000  C
  C1018    1.0000 0.26807  0.51099  0.97190  Biso   1.000  C
  H1063    1.0000 0.26671  0.51919  0.05421  Biso   1.000  H
  H1064    1.0000 0.26667  0.51919  0.05421  Biso   1.000  H
  C1019    1.0000 0.98901  0.52810  0.26811  Biso   1.000  C
  H1065    1.0000 0.98081  0.44579  0.26671  Biso   1.000  H
  C1020    1.0000 0.98901  0.52810  0.26807  Biso   1.000  C
  H1066    1.0000 0.98081  0.44579  0.26667  Biso   1.000  H
  H1067    1.0000 0.98077  0.44579  0.26671  Biso   1.000  H
  H1068    1.0000 0.98077  0.44579  0.26667  Biso   1.000  H
  C1021    1.0000 0.04321  0.46310  0.31960  Biso   1.000  C
  C1022    1.0000 0.04317  0.46310  0.31960  Biso   1.000  C
  C1023    1.0000 0.92409  0.30848  0.96318  Biso   1.000  C
  H1069    1.0000 0.92649  0.18080  0.94160  Biso   1.000  H
  H1070    1.0000 0.98861  0.17961  0.92649  Biso   1.000  H
  C1024    1.0000 0.97002  0.13152  0.98909  Biso   1.000  C
  C1025    1.0000 0.96998  0.13152  0.98909  Biso   1.000  C
  H1071    1.0000 0.03650  0.09942  0.03310  Biso   1.000  H
  H1072    1.0000 0.05548  0.13132  0.98069  Biso   1.000  H
  H1073    1.0000 0.32039  0.42649  0.01139  Biso   1.000  H
  C1026    1.0000 0.36848  0.48909  0.02998  Biso   1.000  C
  H1074    1.0000 0.31920  0.44160  0.07351  Biso   1.000  H
  H1075    1.0000 0.31920  0.44160  0.07347  Biso   1.000  H
  N212     1.0000 0.22402  0.54561  0.96278  Biso   1.000  N
  H1076    1.0000 0.26671  0.48081  0.94579  Biso   1.000  H
  C1027    1.0000 0.31960  0.54321  0.96310  Biso   1.000  C
  N213     1.0000 0.22398  0.54561  0.96278  Biso   1.000  N
  H1077    1.0000 0.26667  0.48081  0.94579  Biso   1.000  H
  N214     1.0000 0.95439  0.53718  0.22402  Biso   1.000  N
  C1028    1.0000 0.95679  0.53690  0.31960  Biso   1.000  C
  N215     1.0000 0.95439  0.53718  0.22398  Biso   1.000  N
  H1078    1.0000 0.01919  0.55421  0.26671  Biso   1.000  H
  H1079    1.0000 0.01919  0.55421  0.26667  Biso   1.000  H
  H1080    1.0000 0.05840  0.42649  0.31920  Biso   1.000  H
  H1081    1.0000 0.07351  0.48861  0.32039  Biso   1.000  H
  C1029    1.0000 0.01091  0.46998  0.36848  Biso   1.000  C
  H1082    1.0000 0.07347  0.48861  0.32039  Biso   1.000  H
  C1030    1.0000 0.01087  0.46998  0.36848  Biso   1.000  C
  C1031    1.0000 0.91090  0.35301  0.92929  Biso   1.000  C
  H1083    1.0000 0.90278  0.30289  0.99420  Biso   1.000  H
  H1084    1.0000 0.96350  0.09942  0.96690  Biso   1.000  H
  H1085    1.0000 0.94452  0.13132  0.01931  Biso   1.000  H
  H1086    1.0000 0.94448  0.13132  0.01931  Biso   1.000  H
  H1087    1.0000 0.40058  0.46690  0.03650  Biso   1.000  H
  H1088    1.0000 0.36868  0.51931  0.05548  Biso   1.000  H
  C1032    1.0000 0.36848  0.51091  0.97002  Biso   1.000  C
  C1033    1.0000 0.36848  0.51091  0.96998  Biso   1.000  C
  C1034    1.0000 0.19152  0.53678  0.92409  Biso   1.000  C
  C1035    1.0000 0.19148  0.53678  0.92409  Biso   1.000  C
  H1089    1.0000 0.31920  0.55840  0.92649  Biso   1.000  H
  H1090    1.0000 0.32039  0.57351  0.98861  Biso   1.000  H
  C1036    1.0000 0.96318  0.57591  0.19152  Biso   1.000  C
  C1037    1.0000 0.96318  0.57591  0.19148  Biso   1.000  C
  H1091    1.0000 0.94160  0.57351  0.31920  Biso   1.000  H
  H1092    1.0000 0.92649  0.51139  0.32039  Biso   1.000  H
  C1038    1.0000 0.98909  0.52998  0.36848  Biso   1.000  C
  H1093    1.0000 0.03310  0.46350  0.40058  Biso   1.000  H
  H1094    1.0000 0.98069  0.44448  0.36868  Biso   1.000  H
  C1039    1.0000 0.86701  0.38491  0.94332  Biso   1.000  C
  C1040    1.0000 0.94332  0.36701  0.88491  Biso   1.000  C
  C1041    1.0000 0.86701  0.38491  0.94328  Biso   1.000  C
  C1042    1.0000 0.94332  0.36701  0.88487  Biso   1.000  C
  C1043    1.0000 0.94328  0.36701  0.88491  Biso   1.000  C
  C1044    1.0000 0.94328  0.36701  0.88487  Biso   1.000  C
  H1095    1.0000 0.40058  0.53310  0.96350  Biso   1.000  H
  H1096    1.0000 0.36868  0.48069  0.94452  Biso   1.000  H
  H1097    1.0000 0.36868  0.48069  0.94448  Biso   1.000  H
  C1045    1.0000 0.14699  0.57067  0.91090  Biso   1.000  C
  H1098    1.0000 0.19711  0.50580  0.90278  Biso   1.000  H
  H1099    1.0000 0.19707  0.50580  0.90278  Biso   1.000  H
  C1046    1.0000 0.92929  0.58910  0.14699  Biso   1.000  C
  H1100    1.0000 0.99420  0.59718  0.19711  Biso   1.000  H
  H1101    1.0000 0.99420  0.59718  0.19707  Biso   1.000  H
  H1102    1.0000 0.01931  0.55548  0.36868  Biso   1.000  H
  H1103    1.0000 0.96690  0.53650  0.40058  Biso   1.000  H
  H1104    1.0000 0.84682  0.37680  0.97442  Biso   1.000  H
  C1047    1.0000 0.85301  0.42929  0.91090  Biso   1.000  C
  H1105    1.0000 0.84682  0.37680  0.97438  Biso   1.000  H
  H1106    1.0000 0.84678  0.37680  0.97442  Biso   1.000  H
  C1048    1.0000 0.85297  0.42929  0.91090  Biso   1.000  C
  H1107    1.0000 0.84678  0.37680  0.97438  Biso   1.000  H
  H1108    1.0000 0.97442  0.34678  0.87680  Biso   1.000  H
  C1049    1.0000 0.92929  0.41090  0.85301  Biso   1.000  C
  C1050    1.0000 0.92929  0.41090  0.85297  Biso   1.000  C
  H1109    1.0000 0.97438  0.34678  0.87680  Biso   1.000  H
  C1051    1.0000 0.11509  0.55668  0.86701  Biso   1.000  C
  C1052    1.0000 0.13299  0.61509  0.94332  Biso   1.000  C
  C1053    1.0000 0.13299  0.61509  0.94328  Biso   1.000  C
  C1054    1.0000 0.94332  0.63299  0.11509  Biso   1.000  C
  C1055    1.0000 0.88491  0.55668  0.13299  Biso   1.000  C
  C1056    1.0000 0.94328  0.63299  0.11509  Biso   1.000  C
  C1057    1.0000 0.88487  0.55668  0.13299  Biso   1.000  C
  C1058    1.0000 0.88491  0.44328  0.86701  Biso   1.000  C
  C1059    1.0000 0.80848  0.46318  0.92409  Biso   1.000  C
  C1060    1.0000 0.88487  0.44328  0.86701  Biso   1.000  C
  C1061    1.0000 0.96318  0.42409  0.80848  Biso   1.000  C
  H1110    1.0000 0.12320  0.52558  0.84682  Biso   1.000  H
  C1062    1.0000 0.07071  0.58910  0.85301  Biso   1.000  C
  H1111    1.0000 0.12320  0.52558  0.84678  Biso   1.000  H
  C1063    1.0000 0.07071  0.58910  0.85297  Biso   1.000  C
  C1064    1.0000 0.07067  0.58910  0.85301  Biso   1.000  C
  C1065    1.0000 0.07067  0.58910  0.85297  Biso   1.000  C
  H1112    1.0000 0.15318  0.62320  0.97442  Biso   1.000  H
  C1066    1.0000 0.08910  0.64699  0.92929  Biso   1.000  C
  H1113    1.0000 0.15318  0.62320  0.97438  Biso   1.000  H
  H1114    1.0000 0.97442  0.65318  0.12320  Biso   1.000  H
  C1067    1.0000 0.91090  0.64699  0.07071  Biso   1.000  C
  C1068    1.0000 0.91090  0.64699  0.07067  Biso   1.000  C
  H1115    1.0000 0.97438  0.65318  0.12320  Biso   1.000  H
  H1116    1.0000 0.87680  0.52558  0.15318  Biso   1.000  H
  C1069    1.0000 0.85301  0.57067  0.08910  Biso   1.000  C
  C1070    1.0000 0.85297  0.57067  0.08910  Biso   1.000  C
  H1117    1.0000 0.87680  0.47438  0.84682  Biso   1.000  H
  H1118    1.0000 0.87680  0.47438  0.84678  Biso   1.000  H
  N216     1.0000 0.77598  0.45439  0.96278  Biso   1.000  N
  H1119    1.0000 0.80289  0.49420  0.90278  Biso   1.000  H
  N217     1.0000 0.95439  0.46278  0.77598  Biso   1.000  N
  H1120    1.0000 0.99420  0.40278  0.80289  Biso   1.000  H
  C1071    1.0000 0.05668  0.63299  0.88491  Biso   1.000  C
  C1072    1.0000 0.03682  0.57591  0.80848  Biso   1.000  C
  C1073    1.0000 0.05668  0.63299  0.88487  Biso   1.000  C
  C1074    1.0000 0.03678  0.57591  0.80848  Biso   1.000  C
  C1075    1.0000 0.07591  0.69148  0.96318  Biso   1.000  C
  C1076    1.0000 0.07587  0.69148  0.96318  Biso   1.000  C
  C1077    1.0000 0.86701  0.61509  0.05668  Biso   1.000  C
  C1078    1.0000 0.92409  0.69148  0.03682  Biso   1.000  C
  C1079    1.0000 0.92409  0.69148  0.03678  Biso   1.000  C
  C1080    1.0000 0.80848  0.53678  0.07591  Biso   1.000  C
  C1081    1.0000 0.80848  0.53678  0.07587  Biso   1.000  C
  C1082    1.0000 0.73189  0.48901  0.97190  Biso   1.000  C
  C1083    1.0000 0.98901  0.47190  0.73189  Biso   1.000  C
  H1121    1.0000 0.02558  0.65318  0.87680  Biso   1.000  H
  N218     1.0000 0.04561  0.53718  0.77598  Biso   1.000  N
  H1122    1.0000 0.00580  0.59718  0.80289  Biso   1.000  H
  N219     1.0000 0.04557  0.53718  0.77598  Biso   1.000  N
  N220     1.0000 0.03722  0.72398  0.95439  Biso   1.000  N
  H1123    1.0000 0.09722  0.69707  0.99420  Biso   1.000  H
  N221     1.0000 0.03718  0.72398  0.95439  Biso   1.000  N
  H1124    1.0000 0.09718  0.69707  0.99420  Biso   1.000  H
  H1125    1.0000 0.84682  0.62320  0.02558  Biso   1.000  H
  H1126    1.0000 0.84678  0.62320  0.02558  Biso   1.000  H
  N222     1.0000 0.96278  0.72398  0.04561  Biso   1.000  N
  H1127    1.0000 0.90278  0.69707  0.00580  Biso   1.000  H
  N223     1.0000 0.96278  0.72398  0.04557  Biso   1.000  N
  N224     1.0000 0.77598  0.54561  0.03722  Biso   1.000  N
  H1128    1.0000 0.80289  0.50580  0.09722  Biso   1.000  H
  N225     1.0000 0.77598  0.54561  0.03718  Biso   1.000  N
  H1129    1.0000 0.80289  0.50580  0.09718  Biso   1.000  H
  C1084    1.0000 0.73189  0.51099  0.02810  Biso   1.000  C
  H1130    1.0000 0.73329  0.51919  0.94579  Biso   1.000  H
  C1085    1.0000 0.68040  0.45679  0.96310  Biso   1.000  C
  C1086    1.0000 0.01099  0.52810  0.73189  Biso   1.000  C
  C1087    1.0000 0.95679  0.46310  0.68040  Biso   1.000  C
  H1131    1.0000 0.01919  0.44579  0.73329  Biso   1.000  H
  C1088    1.0000 0.02810  0.76811  0.98901  Biso   1.000  C
  C1089    1.0000 0.97190  0.76811  0.01099  Biso   1.000  C
  H1132    1.0000 0.73329  0.48081  0.05421  Biso   1.000  H
  C1090    1.0000 0.68040  0.54321  0.03690  Biso   1.000  C
  H1133    1.0000 0.68080  0.44160  0.92649  Biso   1.000  H
  H1134    1.0000 0.67961  0.42649  0.98861  Biso   1.000  H
  C1091    1.0000 0.63152  0.48909  0.97002  Biso   1.000  C
  C1092    1.0000 0.63152  0.48909  0.96998  Biso   1.000  C
  C1093    1.0000 0.63148  0.48909  0.97002  Biso   1.000  C
  C1094    1.0000 0.63148  0.48909  0.96998  Biso   1.000  C
  H1135    1.0000 0.98081  0.55421  0.73329  Biso   1.000  H
  H1136    1.0000 0.98077  0.55421  0.73329  Biso   1.000  H
  C1095    1.0000 0.04321  0.53690  0.68040  Biso   1.000  C
  C1096    1.0000 0.04317  0.53690  0.68040  Biso   1.000  C
  H1137    1.0000 0.94160  0.42649  0.68080  Biso   1.000  H
  H1138    1.0000 0.92649  0.48861  0.67961  Biso   1.000  H
  C1097    1.0000 0.98909  0.46998  0.63152  Biso   1.000  C
  C1098    1.0000 0.98909  0.46998  0.63148  Biso   1.000  C
  H1139    1.0000 0.05421  0.76671  0.01919  Biso   1.000  H
  C1099    1.0000 0.03690  0.81960  0.95679  Biso   1.000  C
  H1140    1.0000 0.94579  0.76671  0.98081  Biso   1.000  H
  H1141    1.0000 0.94579  0.76671  0.98077  Biso   1.000  H
  C1100    1.0000 0.96310  0.81960  0.04321  Biso   1.000  C
  C1101    1.0000 0.96310  0.81960  0.04317  Biso   1.000  C
  H1142    1.0000 0.68080  0.55840  0.07351  Biso   1.000  H
  H1143    1.0000 0.67961  0.57351  0.01139  Biso   1.000  H
  C1102    1.0000 0.63152  0.51091  0.02998  Biso   1.000  C
  H1144    1.0000 0.68080  0.55840  0.07347  Biso   1.000  H
  C1103    1.0000 0.63148  0.51091  0.02998  Biso   1.000  C
  H1145    1.0000 0.59942  0.46690  0.96350  Biso   1.000  H
  H1146    1.0000 0.63132  0.51931  0.94452  Biso   1.000  H
  H1147    1.0000 0.63132  0.51931  0.94448  Biso   1.000  H
  H1148    1.0000 0.59938  0.46690  0.96350  Biso   1.000  H
  H1149    1.0000 0.63128  0.51931  0.94452  Biso   1.000  H
  H1150    1.0000 0.63128  0.51931  0.94448  Biso   1.000  H
  H1151    1.0000 0.05840  0.57351  0.68080  Biso   1.000  H
  H1152    1.0000 0.07351  0.51139  0.67961  Biso   1.000  H
  C1104    1.0000 0.01091  0.52998  0.63152  Biso   1.000  C
  C1105    1.0000 0.01091  0.52998  0.63148  Biso   1.000  C
  H1153    1.0000 0.07347  0.51139  0.67961  Biso   1.000  H
  C1106    1.0000 0.01087  0.52998  0.63152  Biso   1.000  C
  C1107    1.0000 0.01087  0.52998  0.63148  Biso   1.000  C
  H1154    1.0000 0.96690  0.46350  0.59942  Biso   1.000  H
  H1155    1.0000 0.96690  0.46350  0.59938  Biso   1.000  H
  H1156    1.0000 0.01931  0.44448  0.63132  Biso   1.000  H
  H1157    1.0000 0.01931  0.44448  0.63128  Biso   1.000  H
  H1158    1.0000 0.07351  0.81920  0.94160  Biso   1.000  H
  H1159    1.0000 0.01139  0.82039  0.92649  Biso   1.000  H
  C1108    1.0000 0.02998  0.86848  0.98909  Biso   1.000  C
  H1160    1.0000 0.07347  0.81920  0.94160  Biso   1.000  H
  H1161    1.0000 0.92649  0.81920  0.05840  Biso   1.000  H
  H1162    1.0000 0.98861  0.82039  0.07351  Biso   1.000  H
  C1109    1.0000 0.97002  0.86848  0.01091  Biso   1.000  C
  H1163    1.0000 0.98861  0.82039  0.07347  Biso   1.000  H
  C1110    1.0000 0.97002  0.86848  0.01087  Biso   1.000  C
  C1111    1.0000 0.96998  0.86848  0.01091  Biso   1.000  C
  C1112    1.0000 0.96998  0.86848  0.01087  Biso   1.000  C
  H1164    1.0000 0.59942  0.53310  0.03650  Biso   1.000  H
  H1165    1.0000 0.63132  0.48069  0.05548  Biso   1.000  H
  H1166    1.0000 0.59938  0.53310  0.03650  Biso   1.000  H
  H1167    1.0000 0.63128  0.48069  0.05548  Biso   1.000  H
  H1168    1.0000 0.98069  0.55548  0.63132  Biso   1.000  H
  H1169    1.0000 0.98069  0.55548  0.63128  Biso   1.000  H
  H1170    1.0000 0.03310  0.53650  0.59942  Biso   1.000  H
  H1171    1.0000 0.03310  0.53650  0.59938  Biso   1.000  H
  H1172    1.0000 0.05548  0.86868  0.01931  Biso   1.000  H
  H1173    1.0000 0.03650  0.90058  0.96690  Biso   1.000  H
  H1174    1.0000 0.94452  0.86868  0.98069  Biso   1.000  H
  H1175    1.0000 0.94448  0.86868  0.98069  Biso   1.000  H
  H1176    1.0000 0.96350  0.90058  0.03310  Biso   1.000  H
  C1113    1.0000 0.08910  0.35301  0.07071  Biso   1.000  C
  C1114    1.0000 0.13299  0.38491  0.05668  Biso   1.000  C
  C1115    1.0000 0.05668  0.36701  0.11509  Biso   1.000  C
  C1116    1.0000 0.07591  0.30848  0.03682  Biso   1.000  C
  C1117    1.0000 0.07591  0.30848  0.03678  Biso   1.000  C
  C1118    1.0000 0.07587  0.30848  0.03682  Biso   1.000  C
  C1119    1.0000 0.07587  0.30848  0.03678  Biso   1.000  C
  C1120    1.0000 0.14699  0.42929  0.08910  Biso   1.000  C
  H1177    1.0000 0.15318  0.37680  0.02558  Biso   1.000  H
  C1121    1.0000 0.08910  0.35301  0.07067  Biso   1.000  C
  C1122    1.0000 0.07071  0.41090  0.14699  Biso   1.000  C
  C1123    1.0000 0.07067  0.41090  0.14699  Biso   1.000  C
  H1178    1.0000 0.02558  0.34678  0.12320  Biso   1.000  H
  N226     1.0000 0.03722  0.27598  0.04561  Biso   1.000  N
  H1179    1.0000 0.09722  0.30289  0.00580  Biso   1.000  H
  N227     1.0000 0.03722  0.27598  0.04557  Biso   1.000  N
  N228     1.0000 0.03718  0.27598  0.04561  Biso   1.000  N
  H1180    1.0000 0.09718  0.30289  0.00580  Biso   1.000  H
  N229     1.0000 0.03718  0.27598  0.04557  Biso   1.000  N
  C1124    1.0000 0.11509  0.44328  0.13299  Biso   1.000  C
  C1125    1.0000 0.19152  0.46318  0.07591  Biso   1.000  C
  C1126    1.0000 0.19152  0.46318  0.07587  Biso   1.000  C
  C1127    1.0000 0.19148  0.46318  0.07591  Biso   1.000  C
  C1128    1.0000 0.19148  0.46318  0.07587  Biso   1.000  C
  C1129    1.0000 0.03682  0.42409  0.19152  Biso   1.000  C
  C1130    1.0000 0.03682  0.42409  0.19148  Biso   1.000  C
  C1131    1.0000 0.03678  0.42409  0.19152  Biso   1.000  C
  C1132    1.0000 0.03678  0.42409  0.19148  Biso   1.000  C
  C1133    1.0000 0.02810  0.23189  0.01099  Biso   1.000  C
  H1181    1.0000 0.12320  0.47438  0.15318  Biso   1.000  H
  N230     1.0000 0.22402  0.45439  0.03722  Biso   1.000  N
  H1182    1.0000 0.19711  0.49420  0.09722  Biso   1.000  H
  N231     1.0000 0.22402  0.45439  0.03718  Biso   1.000  N
  H1183    1.0000 0.19711  0.49420  0.09718  Biso   1.000  H
  N232     1.0000 0.22398  0.45439  0.03722  Biso   1.000  N
  H1184    1.0000 0.19707  0.49420  0.09722  Biso   1.000  H
  N233     1.0000 0.22398  0.45439  0.03718  Biso   1.000  N
  H1185    1.0000 0.19707  0.49420  0.09718  Biso   1.000  H
  N234     1.0000 0.04561  0.46278  0.22402  Biso   1.000  N
  H1186    1.0000 0.00580  0.40278  0.19711  Biso   1.000  H
  N235     1.0000 0.04561  0.46278  0.22398  Biso   1.000  N
  H1187    1.0000 0.00580  0.40278  0.19707  Biso   1.000  H
  N236     1.0000 0.04557  0.46278  0.22402  Biso   1.000  N
  N237     1.0000 0.04557  0.46278  0.22398  Biso   1.000  N
  C1134    1.0000 0.97190  0.23189  0.98901  Biso   1.000  C
  H1188    1.0000 0.05421  0.23329  0.98081  Biso   1.000  H
  H1189    1.0000 0.05421  0.23329  0.98077  Biso   1.000  H
  C1135    1.0000 0.03690  0.18040  0.04321  Biso   1.000  C
  C1136    1.0000 0.03690  0.18040  0.04317  Biso   1.000  C
  C1137    1.0000 0.26811  0.48901  0.02810  Biso   1.000  C
  C1138    1.0000 0.26807  0.48901  0.02810  Biso   1.000  C
  C1139    1.0000 0.01099  0.47190  0.26811  Biso   1.000  C
  C1140    1.0000 0.01099  0.47190  0.26807  Biso   1.000  C
  N238     1.0000 0.96278  0.27598  0.95439  Biso   1.000  N
  C1141    1.0000 0.96310  0.18040  0.95679  Biso   1.000  C
  H1190    1.0000 0.94579  0.23329  0.01919  Biso   1.000  H
  H1191    1.0000 0.07351  0.18080  0.05840  Biso   1.000  H
  H1192    1.0000 0.01139  0.17961  0.07351  Biso   1.000  H
  C1142    1.0000 0.02998  0.13152  0.01091  Biso   1.000  C
  H1193    1.0000 0.01139  0.17961  0.07347  Biso   1.000  H
  C1143    1.0000 0.02998  0.13152  0.01087  Biso   1.000  C
  H1194    1.0000 0.07347  0.18080  0.05840  Biso   1.000  H
  C1144    1.0000 0.31960  0.45679  0.03690  Biso   1.000  C
  C1145    1.0000 0.26811  0.51099  0.97190  Biso   1.000  C
  C1146    1.0000 0.26807  0.51099  0.97190  Biso   1.000  C
  H1195    1.0000 0.26671  0.51919  0.05421  Biso   1.000  H
  H1196    1.0000 0.26667  0.51919  0.05421  Biso   1.000  H
  C1147    1.0000 0.98901  0.52810  0.26811  Biso   1.000  C
  H1197    1.0000 0.98081  0.44579  0.26671  Biso   1.000  H
  C1148    1.0000 0.98901  0.52810  0.26807  Biso   1.000  C
  H1198    1.0000 0.98081  0.44579  0.26667  Biso   1.000  H
  H1199    1.0000 0.98077  0.44579  0.26671  Biso   1.000  H
  H1200    1.0000 0.98077  0.44579  0.26667  Biso   1.000  H
  C1149    1.0000 0.04321  0.46310  0.31960  Biso   1.000  C
  C1150    1.0000 0.04317  0.46310  0.31960  Biso   1.000  C
  C1151    1.0000 0.92409  0.30848  0.96318  Biso   1.000  C
  H1201    1.0000 0.92649  0.18080  0.94160  Biso   1.000  H
  H1202    1.0000 0.98861  0.17961  0.92649  Biso   1.000  H
  C1152    1.0000 0.97002  0.13152  0.98909  Biso   1.000  C
  C1153    1.0000 0.96998  0.13152  0.98909  Biso   1.000  C
  H1203    1.0000 0.03650  0.09942  0.03310  Biso   1.000  H
  H1204    1.0000 0.05548  0.13132  0.98069  Biso   1.000  H
  H1205    1.0000 0.32039  0.42649  0.01139  Biso   1.000  H
  C1154    1.0000 0.36848  0.48909  0.02998  Biso   1.000  C
  H1206    1.0000 0.31920  0.44160  0.07351  Biso   1.000  H
  H1207    1.0000 0.31920  0.44160  0.07347  Biso   1.000  H
  N239     1.0000 0.22402  0.54561  0.96278  Biso   1.000  N
  H1208    1.0000 0.26671  0.48081  0.94579  Biso   1.000  H
  C1155    1.0000 0.31960  0.54321  0.96310  Biso   1.000  C
  N240     1.0000 0.22398  0.54561  0.96278  Biso   1.000  N
  H1209    1.0000 0.26667  0.48081  0.94579  Biso   1.000  H
  N241     1.0000 0.95439  0.53718  0.22402  Biso   1.000  N
  C1156    1.0000 0.95679  0.53690  0.31960  Biso   1.000  C
  N242     1.0000 0.95439  0.53718  0.22398  Biso   1.000  N
  H1210    1.0000 0.01919  0.55421  0.26671  Biso   1.000  H
  H1211    1.0000 0.01919  0.55421  0.26667  Biso   1.000  H
  H1212    1.0000 0.05840  0.42649  0.31920  Biso   1.000  H
  H1213    1.0000 0.07351  0.48861  0.32039  Biso   1.000  H
  C1157    1.0000 0.01091  0.46998  0.36848  Biso   1.000  C
  H1214    1.0000 0.07347  0.48861  0.32039  Biso   1.000  H
  C1158    1.0000 0.01087  0.46998  0.36848  Biso   1.000  C
  C1159    1.0000 0.91090  0.35301  0.92929  Biso   1.000  C
  H1215    1.0000 0.90278  0.30289  0.99420  Biso   1.000  H
  H1216    1.0000 0.96350  0.09942  0.96690  Biso   1.000  H
  H1217    1.0000 0.94452  0.13132  0.01931  Biso   1.000  H
  H1218    1.0000 0.94448  0.13132  0.01931  Biso   1.000  H
  H1219    1.0000 0.40058  0.46690  0.03650  Biso   1.000  H
  H1220    1.0000 0.36868  0.51931  0.05548  Biso   1.000  H
  C1160    1.0000 0.36848  0.51091  0.97002  Biso   1.000  C
  C1161    1.0000 0.36848  0.51091  0.96998  Biso   1.000  C
  C1162    1.0000 0.19152  0.53678  0.92409  Biso   1.000  C
  C1163    1.0000 0.19148  0.53678  0.92409  Biso   1.000  C
  H1221    1.0000 0.31920  0.55840  0.92649  Biso   1.000  H
  H1222    1.0000 0.32039  0.57351  0.98861  Biso   1.000  H
  C1164    1.0000 0.96318  0.57591  0.19152  Biso   1.000  C
  C1165    1.0000 0.96318  0.57591  0.19148  Biso   1.000  C
  H1223    1.0000 0.94160  0.57351  0.31920  Biso   1.000  H
  H1224    1.0000 0.92649  0.51139  0.32039  Biso   1.000  H
  C1166    1.0000 0.98909  0.52998  0.36848  Biso   1.000  C
  H1225    1.0000 0.03310  0.46350  0.40058  Biso   1.000  H
  H1226    1.0000 0.98069  0.44448  0.36868  Biso   1.000  H
  C1167    1.0000 0.86701  0.38491  0.94332  Biso   1.000  C
  C1168    1.0000 0.94332  0.36701  0.88491  Biso   1.000  C
  C1169    1.0000 0.86701  0.38491  0.94328  Biso   1.000  C
  C1170    1.0000 0.94332  0.36701  0.88487  Biso   1.000  C
  C1171    1.0000 0.94328  0.36701  0.88491  Biso   1.000  C
  C1172    1.0000 0.94328  0.36701  0.88487  Biso   1.000  C
  H1227    1.0000 0.40058  0.53310  0.96350  Biso   1.000  H
  H1228    1.0000 0.36868  0.48069  0.94452  Biso   1.000  H
  H1229    1.0000 0.36868  0.48069  0.94448  Biso   1.000  H
  C1173    1.0000 0.14699  0.57067  0.91090  Biso   1.000  C
  H1230    1.0000 0.19711  0.50580  0.90278  Biso   1.000  H
  H1231    1.0000 0.19707  0.50580  0.90278  Biso   1.000  H
  C1174    1.0000 0.92929  0.58910  0.14699  Biso   1.000  C
  H1232    1.0000 0.99420  0.59718  0.19711  Biso   1.000  H
  H1233    1.0000 0.99420  0.59718  0.19707  Biso   1.000  H
  H1234    1.0000 0.01931  0.55548  0.36868  Biso   1.000  H
  H1235    1.0000 0.96690  0.53650  0.40058  Biso   1.000  H
  H1236    1.0000 0.84682  0.37680  0.97442  Biso   1.000  H
  C1175    1.0000 0.85301  0.42929  0.91090  Biso   1.000  C
  H1237    1.0000 0.84682  0.37680  0.97438  Biso   1.000  H
  H1238    1.0000 0.84678  0.37680  0.97442  Biso   1.000  H
  C1176    1.0000 0.85297  0.42929  0.91090  Biso   1.000  C
  H1239    1.0000 0.84678  0.37680  0.97438  Biso   1.000  H
  H1240    1.0000 0.97442  0.34678  0.87680  Biso   1.000  H
  C1177    1.0000 0.92929  0.41090  0.85301  Biso   1.000  C
  C1178    1.0000 0.92929  0.41090  0.85297  Biso   1.000  C
  H1241    1.0000 0.97438  0.34678  0.87680  Biso   1.000  H
  C1179    1.0000 0.11509  0.55668  0.86701  Biso   1.000  C
  C1180    1.0000 0.13299  0.61509  0.94332  Biso   1.000  C
  C1181    1.0000 0.13299  0.61509  0.94328  Biso   1.000  C
  C1182    1.0000 0.94332  0.63299  0.11509  Biso   1.000  C
  C1183    1.0000 0.88491  0.55668  0.13299  Biso   1.000  C
  C1184    1.0000 0.94328  0.63299  0.11509  Biso   1.000  C
  C1185    1.0000 0.88487  0.55668  0.13299  Biso   1.000  C
  C1186    1.0000 0.88491  0.44328  0.86701  Biso   1.000  C
  C1187    1.0000 0.80848  0.46318  0.92409  Biso   1.000  C
  C1188    1.0000 0.88487  0.44328  0.86701  Biso   1.000  C
  C1189    1.0000 0.96318  0.42409  0.80848  Biso   1.000  C
  H1242    1.0000 0.12320  0.52558  0.84682  Biso   1.000  H
  C1190    1.0000 0.07071  0.58910  0.85301  Biso   1.000  C
  H1243    1.0000 0.12320  0.52558  0.84678  Biso   1.000  H
  C1191    1.0000 0.07071  0.58910  0.85297  Biso   1.000  C
  C1192    1.0000 0.07067  0.58910  0.85301  Biso   1.000  C
  C1193    1.0000 0.07067  0.58910  0.85297  Biso   1.000  C
  H1244    1.0000 0.15318  0.62320  0.97442  Biso   1.000  H
  C1194    1.0000 0.08910  0.64699  0.92929  Biso   1.000  C
  H1245    1.0000 0.15318  0.62320  0.97438  Biso   1.000  H
  H1246    1.0000 0.97442  0.65318  0.12320  Biso   1.000  H
  C1195    1.0000 0.91090  0.64699  0.07071  Biso   1.000  C
  C1196    1.0000 0.91090  0.64699  0.07067  Biso   1.000  C
  H1247    1.0000 0.97438  0.65318  0.12320  Biso   1.000  H
  H1248    1.0000 0.87680  0.52558  0.15318  Biso   1.000  H
  C1197    1.0000 0.85301  0.57067  0.08910  Biso   1.000  C
  C1198    1.0000 0.85297  0.57067  0.08910  Biso   1.000  C
  H1249    1.0000 0.87680  0.47438  0.84682  Biso   1.000  H
  H1250    1.0000 0.87680  0.47438  0.84678  Biso   1.000  H
  N243     1.0000 0.77598  0.45439  0.96278  Biso   1.000  N
  H1251    1.0000 0.80289  0.49420  0.90278  Biso   1.000  H
  N244     1.0000 0.95439  0.46278  0.77598  Biso   1.000  N
  H1252    1.0000 0.99420  0.40278  0.80289  Biso   1.000  H
  C1199    1.0000 0.05668  0.63299  0.88491  Biso   1.000  C
  C1200    1.0000 0.03682  0.57591  0.80848  Biso   1.000  C
  C1201    1.0000 0.05668  0.63299  0.88487  Biso   1.000  C
  C1202    1.0000 0.03678  0.57591  0.80848  Biso   1.000  C
  C1203    1.0000 0.07591  0.69148  0.96318  Biso   1.000  C
  C1204    1.0000 0.07587  0.69148  0.96318  Biso   1.000  C
  C1205    1.0000 0.86701  0.61509  0.05668  Biso   1.000  C
  C1206    1.0000 0.92409  0.69148  0.03682  Biso   1.000  C
  C1207    1.0000 0.92409  0.69148  0.03678  Biso   1.000  C
  C1208    1.0000 0.80848  0.53678  0.07591  Biso   1.000  C
  C1209    1.0000 0.80848  0.53678  0.07587  Biso   1.000  C
  C1210    1.0000 0.73189  0.48901  0.97190  Biso   1.000  C
  C1211    1.0000 0.98901  0.47190  0.73189  Biso   1.000  C
  H1253    1.0000 0.02558  0.65318  0.87680  Biso   1.000  H
  N245     1.0000 0.04561  0.53718  0.77598  Biso   1.000  N
  H1254    1.0000 0.00580  0.59718  0.80289  Biso   1.000  H
  N246     1.0000 0.04557  0.53718  0.77598  Biso   1.000  N
  N247     1.0000 0.03722  0.72398  0.95439  Biso   1.000  N
  H1255    1.0000 0.09722  0.69707  0.99420  Biso   1.000  H
  N248     1.0000 0.03718  0.72398  0.95439  Biso   1.000  N
  H1256    1.0000 0.09718  0.69707  0.99420  Biso   1.000  H
  H1257    1.0000 0.84682  0.62320  0.02558  Biso   1.000  H
  H1258    1.0000 0.84678  0.62320  0.02558  Biso   1.000  H
  N249     1.0000 0.96278  0.72398  0.04561  Biso   1.000  N
  H1259    1.0000 0.90278  0.69707  0.00580  Biso   1.000  H
  N250     1.0000 0.96278  0.72398  0.04557  Biso   1.000  N
  N251     1.0000 0.77598  0.54561  0.03722  Biso   1.000  N
  H1260    1.0000 0.80289  0.50580  0.09722  Biso   1.000  H
  N252     1.0000 0.77598  0.54561  0.03718  Biso   1.000  N
  H1261    1.0000 0.80289  0.50580  0.09718  Biso   1.000  H
  C1212    1.0000 0.73189  0.51099  0.02810  Biso   1.000  C
  H1262    1.0000 0.73329  0.51919  0.94579  Biso   1.000  H
  C1213    1.0000 0.68040  0.45679  0.96310  Biso   1.000  C
  C1214    1.0000 0.01099  0.52810  0.73189  Biso   1.000  C
  C1215    1.0000 0.95679  0.46310  0.68040  Biso   1.000  C
  H1263    1.0000 0.01919  0.44579  0.73329  Biso   1.000  H
  C1216    1.0000 0.02810  0.76811  0.98901  Biso   1.000  C
  C1217    1.0000 0.97190  0.76811  0.01099  Biso   1.000  C
  H1264    1.0000 0.73329  0.48081  0.05421  Biso   1.000  H
  C1218    1.0000 0.68040  0.54321  0.03690  Biso   1.000  C
  H1265    1.0000 0.68080  0.44160  0.92649  Biso   1.000  H
  H1266    1.0000 0.67961  0.42649  0.98861  Biso   1.000  H
  C1219    1.0000 0.63152  0.48909  0.97002  Biso   1.000  C
  C1220    1.0000 0.63152  0.48909  0.96998  Biso   1.000  C
  C1221    1.0000 0.63148  0.48909  0.97002  Biso   1.000  C
  C1222    1.0000 0.63148  0.48909  0.96998  Biso   1.000  C
  H1267    1.0000 0.98081  0.55421  0.73329  Biso   1.000  H
  H1268    1.0000 0.98077  0.55421  0.73329  Biso   1.000  H
  C1223    1.0000 0.04321  0.53690  0.68040  Biso   1.000  C
  C1224    1.0000 0.04317  0.53690  0.68040  Biso   1.000  C
  H1269    1.0000 0.94160  0.42649  0.68080  Biso   1.000  H
  H1270    1.0000 0.92649  0.48861  0.67961  Biso   1.000  H
  C1225    1.0000 0.98909  0.46998  0.63152  Biso   1.000  C
  C1226    1.0000 0.98909  0.46998  0.63148  Biso   1.000  C
  H1271    1.0000 0.05421  0.76671  0.01919  Biso   1.000  H
  C1227    1.0000 0.03690  0.81960  0.95679  Biso   1.000  C
  H1272    1.0000 0.94579  0.76671  0.98081  Biso   1.000  H
  H1273    1.0000 0.94579  0.76671  0.98077  Biso   1.000  H
  C1228    1.0000 0.96310  0.81960  0.04321  Biso   1.000  C
  C1229    1.0000 0.96310  0.81960  0.04317  Biso   1.000  C
  H1274    1.0000 0.68080  0.55840  0.07351  Biso   1.000  H
  H1275    1.0000 0.67961  0.57351  0.01139  Biso   1.000  H
  C1230    1.0000 0.63152  0.51091  0.02998  Biso   1.000  C
  H1276    1.0000 0.68080  0.55840  0.07347  Biso   1.000  H
  C1231    1.0000 0.63148  0.51091  0.02998  Biso   1.000  C
  H1277    1.0000 0.59942  0.46690  0.96350  Biso   1.000  H
  H1278    1.0000 0.63132  0.51931  0.94452  Biso   1.000  H
  H1279    1.0000 0.63132  0.51931  0.94448  Biso   1.000  H
  H1280    1.0000 0.59938  0.46690  0.96350  Biso   1.000  H
  H1281    1.0000 0.63128  0.51931  0.94452  Biso   1.000  H
  H1282    1.0000 0.63128  0.51931  0.94448  Biso   1.000  H
  H1283    1.0000 0.05840  0.57351  0.68080  Biso   1.000  H
  H1284    1.0000 0.07351  0.51139  0.67961  Biso   1.000  H
  C1232    1.0000 0.01091  0.52998  0.63152  Biso   1.000  C
  C1233    1.0000 0.01091  0.52998  0.63148  Biso   1.000  C
  H1285    1.0000 0.07347  0.51139  0.67961  Biso   1.000  H
  C1234    1.0000 0.01087  0.52998  0.63152  Biso   1.000  C
  C1235    1.0000 0.01087  0.52998  0.63148  Biso   1.000  C
  H1286    1.0000 0.96690  0.46350  0.59942  Biso   1.000  H
  H1287    1.0000 0.96690  0.46350  0.59938  Biso   1.000  H
  H1288    1.0000 0.01931  0.44448  0.63132  Biso   1.000  H
  H1289    1.0000 0.01931  0.44448  0.63128  Biso   1.000  H
  H1290    1.0000 0.07351  0.81920  0.94160  Biso   1.000  H
  H1291    1.0000 0.01139  0.82039  0.92649  Biso   1.000  H
  C1236    1.0000 0.02998  0.86848  0.98909  Biso   1.000  C
  H1292    1.0000 0.07347  0.81920  0.94160  Biso   1.000  H
  H1293    1.0000 0.92649  0.81920  0.05840  Biso   1.000  H
  H1294    1.0000 0.98861  0.82039  0.07351  Biso   1.000  H
  C1237    1.0000 0.97002  0.86848  0.01091  Biso   1.000  C
  H1295    1.0000 0.98861  0.82039  0.07347  Biso   1.000  H
  C1238    1.0000 0.97002  0.86848  0.01087  Biso   1.000  C
  C1239    1.0000 0.96998  0.86848  0.01091  Biso   1.000  C
  C1240    1.0000 0.96998  0.86848  0.01087  Biso   1.000  C
  H1296    1.0000 0.59942  0.53310  0.03650  Biso   1.000  H
  H1297    1.0000 0.63132  0.48069  0.05548  Biso   1.000  H
  H1298    1.0000 0.59938  0.53310  0.03650  Biso   1.000  H
  H1299    1.0000 0.63128  0.48069  0.05548  Biso   1.000  H
  H1300    1.0000 0.98069  0.55548  0.63132  Biso   1.000  H
  H1301    1.0000 0.98069  0.55548  0.63128  Biso   1.000  H
  H1302    1.0000 0.03310  0.53650  0.59942  Biso   1.000  H
  H1303    1.0000 0.03310  0.53650  0.59938  Biso   1.000  H
  H1304    1.0000 0.05548  0.86868  0.01931  Biso   1.000  H
  H1305    1.0000 0.03650  0.90058  0.96690  Biso   1.000  H
  H1306    1.0000 0.94452  0.86868  0.98069  Biso   1.000  H
  H1307    1.0000 0.94448  0.86868  0.98069  Biso   1.000  H
  H1308    1.0000 0.96350  0.90058  0.03310  Biso   1.000  H
  C1241    1.0000 0.07071  0.08910  0.35301  Biso   1.000  C
  C1242    1.0000 0.11509  0.05668  0.36701  Biso   1.000  C
  C1243    1.0000 0.05668  0.13299  0.38491  Biso   1.000  C
  C1244    1.0000 0.03682  0.07591  0.30848  Biso   1.000  C
  C1245    1.0000 0.03682  0.07587  0.30848  Biso   1.000  C
  C1246    1.0000 0.03678  0.07591  0.30848  Biso   1.000  C
  C1247    1.0000 0.03678  0.07587  0.30848  Biso   1.000  C
  C1248    1.0000 0.14699  0.07071  0.41090  Biso   1.000  C
  C1249    1.0000 0.14699  0.07067  0.41090  Biso   1.000  C
  H1309    1.0000 0.12320  0.02558  0.34678  Biso   1.000  H
  C1250    1.0000 0.07067  0.08910  0.35301  Biso   1.000  C
  C1251    1.0000 0.08910  0.14699  0.42929  Biso   1.000  C
  H1310    1.0000 0.02558  0.15318  0.37680  Biso   1.000  H
  N253     1.0000 0.04561  0.03722  0.27598  Biso   1.000  N
  H1311    1.0000 0.00580  0.09722  0.30289  Biso   1.000  H
  N254     1.0000 0.04561  0.03718  0.27598  Biso   1.000  N
  H1312    1.0000 0.00580  0.09718  0.30289  Biso   1.000  H
  N255     1.0000 0.04557  0.03722  0.27598  Biso   1.000  N
  N256     1.0000 0.04557  0.03718  0.27598  Biso   1.000  N
  C1252    1.0000 0.13299  0.11509  0.44328  Biso   1.000  C
  C1253    1.0000 0.19152  0.03682  0.42409  Biso   1.000  C
  C1254    1.0000 0.19152  0.03678  0.42409  Biso   1.000  C
  C1255    1.0000 0.19148  0.03682  0.42409  Biso   1.000  C
  C1256    1.0000 0.19148  0.03678  0.42409  Biso   1.000  C
  C1257    1.0000 0.07591  0.19152  0.46318  Biso   1.000  C
  C1258    1.0000 0.07591  0.19148  0.46318  Biso   1.000  C
  C1259    1.0000 0.07587  0.19152  0.46318  Biso   1.000  C
  C1260    1.0000 0.07587  0.19148  0.46318  Biso   1.000  C
  C1261    1.0000 0.01099  0.02810  0.23189  Biso   1.000  C
  H1313    1.0000 0.15318  0.12320  0.47438  Biso   1.000  H
  N257     1.0000 0.22402  0.04561  0.46278  Biso   1.000  N
  H1314    1.0000 0.19711  0.00580  0.40278  Biso   1.000  H
  N258     1.0000 0.22402  0.04557  0.46278  Biso   1.000  N
  N259     1.0000 0.22398  0.04561  0.46278  Biso   1.000  N
  H1315    1.0000 0.19707  0.00580  0.40278  Biso   1.000  H
  N260     1.0000 0.22398  0.04557  0.46278  Biso   1.000  N
  N261     1.0000 0.03722  0.22402  0.45439  Biso   1.000  N
  H1316    1.0000 0.09722  0.19711  0.49420  Biso   1.000  H
  N262     1.0000 0.03722  0.22398  0.45439  Biso   1.000  N
  H1317    1.0000 0.09722  0.19707  0.49420  Biso   1.000  H
  N263     1.0000 0.03718  0.22402  0.45439  Biso   1.000  N
  H1318    1.0000 0.09718  0.19711  0.49420  Biso   1.000  H
  N264     1.0000 0.03718  0.22398  0.45439  Biso   1.000  N
  H1319    1.0000 0.09718  0.19707  0.49420  Biso   1.000  H
  C1262    1.0000 0.04321  0.03690  0.18040  Biso   1.000  C
  C1263    1.0000 0.04317  0.03690  0.18040  Biso   1.000  C
  C1264    1.0000 0.98901  0.97190  0.23189  Biso   1.000  C
  H1320    1.0000 0.98081  0.05421  0.23329  Biso   1.000  H
  H1321    1.0000 0.98077  0.05421  0.23329  Biso   1.000  H
  C1265    1.0000 0.26811  0.01099  0.47190  Biso   1.000  C
  C1266    1.0000 0.26807  0.01099  0.47190  Biso   1.000  C
  C1267    1.0000 0.02810  0.26811  0.48901  Biso   1.000  C
  C1268    1.0000 0.02810  0.26807  0.48901  Biso   1.000  C
  H1322    1.0000 0.05840  0.07351  0.18080  Biso   1.000  H
  H1323    1.0000 0.07351  0.01139  0.17961  Biso   1.000  H
  C1269    1.0000 0.01091  0.02998  0.13152  Biso   1.000  C
  H1324    1.0000 0.05840  0.07347  0.18080  Biso   1.000  H
  H1325    1.0000 0.07347  0.01139  0.17961  Biso   1.000  H
  C1270    1.0000 0.01087  0.02998  0.13152  Biso   1.000  C
  N265     1.0000 0.95439  0.96278  0.27598  Biso   1.000  N
  C1271    1.0000 0.95679  0.96310  0.18040  Biso   1.000  C
  H1326    1.0000 0.01919  0.94579  0.23329  Biso   1.000  H
  C1272    1.0000 0.31960  0.04321  0.46310  Biso   1.000  C
  C1273    1.0000 0.31960  0.04317  0.46310  Biso   1.000  C
  C1274    1.0000 0.26811  0.98901  0.52810  Biso   1.000  C
  H1327    1.0000 0.26671  0.98081  0.44579  Biso   1.000  H
  H1328    1.0000 0.26671  0.98077  0.44579  Biso   1.000  H
  C1275    1.0000 0.26807  0.98901  0.52810  Biso   1.000  C
  H1329    1.0000 0.26667  0.98081  0.44579  Biso   1.000  H
  H1330    1.0000 0.26667  0.98077  0.44579  Biso   1.000  H
  H1331    1.0000 0.05421  0.26671  0.51919  Biso   1.000  H
  C1276    1.0000 0.03690  0.31960  0.45679  Biso   1.000  C
  H1332    1.0000 0.05421  0.26667  0.51919  Biso   1.000  H
  C1277    1.0000 0.97190  0.26811  0.51099  Biso   1.000  C
  C1278    1.0000 0.97190  0.26807  0.51099  Biso   1.000  C
  H1333    1.0000 0.03310  0.03650  0.09942  Biso   1.000  H
  C1279    1.0000 0.98909  0.97002  0.13152  Biso   1.000  C
  C1280    1.0000 0.98909  0.96998  0.13152  Biso   1.000  C
  H1334    1.0000 0.98069  0.05548  0.13132  Biso   1.000  H
  C1281    1.0000 0.96318  0.92409  0.30848  Biso   1.000  C
  H1335    1.0000 0.94160  0.92649  0.18080  Biso   1.000  H
  H1336    1.0000 0.92649  0.98861  0.17961  Biso   1.000  H
  H1337    1.0000 0.31920  0.05840  0.42649  Biso   1.000  H
  H1338    1.0000 0.32039  0.07351  0.48861  Biso   1.000  H
  C1282    1.0000 0.36848  0.01091  0.46998  Biso   1.000  C
  H1339    1.0000 0.32039  0.07347  0.48861  Biso   1.000  H
  C1283    1.0000 0.36848  0.01087  0.46998  Biso   1.000  C
  H1340    1.0000 0.26671  0.01919  0.55421  Biso   1.000  H
  H1341    1.0000 0.26667  0.01919  0.55421  Biso   1.000  H
  N266     1.0000 0.22402  0.95439  0.53718  Biso   1.000  N
  C1284    1.0000 0.31960  0.95679  0.53690  Biso   1.000  C
  N267     1.0000 0.22398  0.95439  0.53718  Biso   1.000  N
  H1342    1.0000 0.07351  0.31920  0.44160  Biso   1.000  H
  H1343    1.0000 0.01139  0.32039  0.42649  Biso   1.000  H
  C1285    1.0000 0.02998  0.36848  0.48909  Biso   1.000  C
  H1344    1.0000 0.07347  0.31920  0.44160  Biso   1.000  H
  N268     1.0000 0.96278  0.22402  0.54561  Biso   1.000  N
  H1345    1.0000 0.94579  0.26671  0.48081  Biso   1.000  H
  C1286    1.0000 0.96310  0.31960  0.54321  Biso   1.000  C
  N269     1.0000 0.96278  0.22398  0.54561  Biso   1.000  N
  H1346    1.0000 0.94579  0.26667  0.48081  Biso   1.000  H
  H1347    1.0000 0.96690  0.96350  0.09942  Biso   1.000  H
  H1348    1.0000 0.01931  0.94452  0.13132  Biso   1.000  H
  H1349    1.0000 0.01931  0.94448  0.13132  Biso   1.000  H
  C1287    1.0000 0.92929  0.91090  0.35301  Biso   1.000  C
  H1350    1.0000 0.99420  0.90278  0.30289  Biso   1.000  H
  H1351    1.0000 0.40058  0.03310  0.46350  Biso   1.000  H
  C1288    1.0000 0.36848  0.98909  0.52998  Biso   1.000  C
  H1352    1.0000 0.36868  0.98069  0.44448  Biso   1.000  H
  C1289    1.0000 0.19152  0.96318  0.57591  Biso   1.000  C
  C1290    1.0000 0.19148  0.96318  0.57591  Biso   1.000  C
  H1353    1.0000 0.31920  0.94160  0.57351  Biso   1.000  H
  H1354    1.0000 0.32039  0.92649  0.51139  Biso   1.000  H
  H1355    1.0000 0.03650  0.40058  0.46690  Biso   1.000  H
  H1356    1.0000 0.05548  0.36868  0.51931  Biso   1.000  H
  C1291    1.0000 0.97002  0.36848  0.51091  Biso   1.000  C
  C1292    1.0000 0.96998  0.36848  0.51091  Biso   1.000  C
  C1293    1.0000 0.92409  0.19152  0.53678  Biso   1.000  C
  C1294    1.0000 0.92409  0.19148  0.53678  Biso   1.000  C
  H1357    1.0000 0.92649  0.31920  0.55840  Biso   1.000  H
  H1358    1.0000 0.98861  0.32039  0.57351  Biso   1.000  H
  C1295    1.0000 0.94332  0.86701  0.38491  Biso   1.000  C
  C1296    1.0000 0.88491  0.94332  0.36701  Biso   1.000  C
  C1297    1.0000 0.88491  0.94328  0.36701  Biso   1.000  C
  C1298    1.0000 0.94328  0.86701  0.38491  Biso   1.000  C
  C1299    1.0000 0.88487  0.94332  0.36701  Biso   1.000  C
  C1300    1.0000 0.88487  0.94328  0.36701  Biso   1.000  C
  H1359    1.0000 0.36868  0.01931  0.55548  Biso   1.000  H
  H1360    1.0000 0.40058  0.96690  0.53650  Biso   1.000  H
  C1301    1.0000 0.14699  0.92929  0.58910  Biso   1.000  C
  H1361    1.0000 0.19711  0.99420  0.59718  Biso   1.000  H
  H1362    1.0000 0.19707  0.99420  0.59718  Biso   1.000  H
  H1363    1.0000 0.96350  0.40058  0.53310  Biso   1.000  H
  H1364    1.0000 0.94452  0.36868  0.48069  Biso   1.000  H
  H1365    1.0000 0.94448  0.36868  0.48069  Biso   1.000  H
  C1302    1.0000 0.91090  0.14699  0.57067  Biso   1.000  C
  H1366    1.0000 0.90278  0.19711  0.50580  Biso   1.000  H
  H1367    1.0000 0.90278  0.19707  0.50580  Biso   1.000  H
  H1368    1.0000 0.97442  0.84682  0.37680  Biso   1.000  H
  C1303    1.0000 0.91090  0.85301  0.42929  Biso   1.000  C
  H1369    1.0000 0.97442  0.84678  0.37680  Biso   1.000  H
  C1304    1.0000 0.91090  0.85297  0.42929  Biso   1.000  C
  H1370    1.0000 0.97438  0.84682  0.37680  Biso   1.000  H
  H1371    1.0000 0.97438  0.84678  0.37680  Biso   1.000  H
  H1372    1.0000 0.87680  0.97442  0.34678  Biso   1.000  H
  C1305    1.0000 0.85301  0.92929  0.41090  Biso   1.000  C
  H1373    1.0000 0.87680  0.97438  0.34678  Biso   1.000  H
  C1306    1.0000 0.85297  0.92929  0.41090  Biso   1.000  C
  C1307    1.0000 0.11509  0.94332  0.63299  Biso   1.000  C
  C1308    1.0000 0.13299  0.88491  0.55668  Biso   1.000  C
  C1309    1.0000 0.11509  0.94328  0.63299  Biso   1.000  C
  C1310    1.0000 0.13299  0.88487  0.55668  Biso   1.000  C
  C1311    1.0000 0.86701  0.11509  0.55668  Biso   1.000  C
  C1312    1.0000 0.94332  0.13299  0.61509  Biso   1.000  C
  C1313    1.0000 0.94328  0.13299  0.61509  Biso   1.000  C
  C1314    1.0000 0.86701  0.88491  0.44328  Biso   1.000  C
  C1315    1.0000 0.92409  0.80848  0.46318  Biso   1.000  C
  C1316    1.0000 0.86701  0.88487  0.44328  Biso   1.000  C
  C1317    1.0000 0.80848  0.96318  0.42409  Biso   1.000  C
  H1374    1.0000 0.12320  0.97442  0.65318  Biso   1.000  H
  C1318    1.0000 0.07071  0.91090  0.64699  Biso   1.000  C
  H1375    1.0000 0.12320  0.97438  0.65318  Biso   1.000  H
  C1319    1.0000 0.07067  0.91090  0.64699  Biso   1.000  C
  H1376    1.0000 0.15318  0.87680  0.52558  Biso   1.000  H
  C1320    1.0000 0.08910  0.85301  0.57067  Biso   1.000  C
  C1321    1.0000 0.08910  0.85297  0.57067  Biso   1.000  C
  H1377    1.0000 0.84682  0.12320  0.52558  Biso   1.000  H
  C1322    1.0000 0.85301  0.07071  0.58910  Biso   1.000  C
  C1323    1.0000 0.85301  0.07067  0.58910  Biso   1.000  C
  H1378    1.0000 0.84678  0.12320  0.52558  Biso   1.000  H
  C1324    1.0000 0.85297  0.07071  0.58910  Biso   1.000  C
  C1325    1.0000 0.85297  0.07067  0.58910  Biso   1.000  C
  H1379    1.0000 0.97442  0.15318  0.62320  Biso   1.000  H
  C1326    1.0000 0.92929  0.08910  0.64699  Biso   1.000  C
  H1380    1.0000 0.97438  0.15318  0.62320  Biso   1.000  H
  H1381    1.0000 0.84682  0.87680  0.47438  Biso   1.000  H
  H1382    1.0000 0.84678  0.87680  0.47438  Biso   1.000  H
  N270     1.0000 0.96278  0.77598  0.45439  Biso   1.000  N
  H1383    1.0000 0.90278  0.80289  0.49420  Biso   1.000  H
  N271     1.0000 0.77598  0.95439  0.46278  Biso   1.000  N
  H1384    1.0000 0.80289  0.99420  0.40278  Biso   1.000  H
  C1327    1.0000 0.05668  0.86701  0.61509  Biso   1.000  C
  C1328    1.0000 0.03682  0.92409  0.69148  Biso   1.000  C
  C1329    1.0000 0.03678  0.92409  0.69148  Biso   1.000  C
  C1330    1.0000 0.07591  0.80848  0.53678  Biso   1.000  C
  C1331    1.0000 0.07587  0.80848  0.53678  Biso   1.000  C
  C1332    1.0000 0.88491  0.05668  0.63299  Biso   1.000  C
  C1333    1.0000 0.80848  0.03682  0.57591  Biso   1.000  C
  C1334    1.0000 0.80848  0.03678  0.57591  Biso   1.000  C
  C1335    1.0000 0.88487  0.05668  0.63299  Biso   1.000  C
  C1336    1.0000 0.96318  0.07591  0.69148  Biso   1.000  C
  C1337    1.0000 0.96318  0.07587  0.69148  Biso   1.000  C
  C1338    1.0000 0.97190  0.73189  0.48901  Biso   1.000  C
  C1339    1.0000 0.73189  0.98901  0.47190  Biso   1.000  C
  H1385    1.0000 0.02558  0.84682  0.62320  Biso   1.000  H
  H1386    1.0000 0.02558  0.84678  0.62320  Biso   1.000  H
  N272     1.0000 0.04561  0.96278  0.72398  Biso   1.000  N
  H1387    1.0000 0.00580  0.90278  0.69707  Biso   1.000  H
  N273     1.0000 0.04557  0.96278  0.72398  Biso   1.000  N
  N274     1.0000 0.03722  0.77598  0.54561  Biso   1.000  N
  H1388    1.0000 0.09722  0.80289  0.50580  Biso   1.000  H
  N275     1.0000 0.03718  0.77598  0.54561  Biso   1.000  N
  H1389    1.0000 0.09718  0.80289  0.50580  Biso   1.000  H
  H1390    1.0000 0.87680  0.02558  0.65318  Biso   1.000  H
  N276     1.0000 0.77598  0.04561  0.53718  Biso   1.000  N
  H1391    1.0000 0.80289  0.00580  0.59718  Biso   1.000  H
  N277     1.0000 0.77598  0.04557  0.53718  Biso   1.000  N
  N278     1.0000 0.95439  0.03722  0.72398  Biso   1.000  N
  H1392    1.0000 0.99420  0.09722  0.69707  Biso   1.000  H
  N279     1.0000 0.95439  0.03718  0.72398  Biso   1.000  N
  H1393    1.0000 0.99420  0.09718  0.69707  Biso   1.000  H
  C1340    1.0000 0.02810  0.73189  0.51099  Biso   1.000  C
  H1394    1.0000 0.94579  0.73329  0.51919  Biso   1.000  H
  C1341    1.0000 0.96310  0.68040  0.45679  Biso   1.000  C
  C1342    1.0000 0.73189  0.01099  0.52810  Biso   1.000  C
  C1343    1.0000 0.68040  0.95679  0.46310  Biso   1.000  C
  H1395    1.0000 0.73329  0.01919  0.44579  Biso   1.000  H
  C1344    1.0000 0.01099  0.97190  0.76811  Biso   1.000  C
  C1345    1.0000 0.98901  0.02810  0.76811  Biso   1.000  C
  H1396    1.0000 0.05421  0.73329  0.48081  Biso   1.000  H
  C1346    1.0000 0.03690  0.68040  0.54321  Biso   1.000  C
  H1397    1.0000 0.92649  0.68080  0.44160  Biso   1.000  H
  H1398    1.0000 0.98861  0.67961  0.42649  Biso   1.000  H
  C1347    1.0000 0.97002  0.63152  0.48909  Biso   1.000  C
  C1348    1.0000 0.97002  0.63148  0.48909  Biso   1.000  C
  C1349    1.0000 0.96998  0.63152  0.48909  Biso   1.000  C
  C1350    1.0000 0.96998  0.63148  0.48909  Biso   1.000  C
  H1399    1.0000 0.73329  0.98081  0.55421  Biso   1.000  H
  H1400    1.0000 0.73329  0.98077  0.55421  Biso   1.000  H
  C1351    1.0000 0.68040  0.04321  0.53690  Biso   1.000  C
  C1352    1.0000 0.68040  0.04317  0.53690  Biso   1.000  C
  H1401    1.0000 0.68080  0.94160  0.42649  Biso   1.000  H
  H1402    1.0000 0.67961  0.92649  0.48861  Biso   1.000  H
  C1353    1.0000 0.63152  0.98909  0.46998  Biso   1.000  C
  C1354    1.0000 0.63148  0.98909  0.46998  Biso   1.000  C
  H1403    1.0000 0.98081  0.94579  0.76671  Biso   1.000  H
  H1404    1.0000 0.98077  0.94579  0.76671  Biso   1.000  H
  C1355    1.0000 0.04321  0.96310  0.81960  Biso   1.000  C
  C1356    1.0000 0.04317  0.96310  0.81960  Biso   1.000  C
  H1405    1.0000 0.01919  0.05421  0.76671  Biso   1.000  H
  C1357    1.0000 0.95679  0.03690  0.81960  Biso   1.000  C
  H1406    1.0000 0.07351  0.68080  0.55840  Biso   1.000  H
  H1407    1.0000 0.01139  0.67961  0.57351  Biso   1.000  H
  C1358    1.0000 0.02998  0.63152  0.51091  Biso   1.000  C
  C1359    1.0000 0.02998  0.63148  0.51091  Biso   1.000  C
  H1408    1.0000 0.07347  0.68080  0.55840  Biso   1.000  H
  H1409    1.0000 0.96350  0.59942  0.46690  Biso   1.000  H
  H1410    1.0000 0.94452  0.63132  0.51931  Biso   1.000  H
  H1411    1.0000 0.96350  0.59938  0.46690  Biso   1.000  H
  H1412    1.0000 0.94452  0.63128  0.51931  Biso   1.000  H
  H1413    1.0000 0.94448  0.63132  0.51931  Biso   1.000  H
  H1414    1.0000 0.94448  0.63128  0.51931  Biso   1.000  H
  H1415    1.0000 0.68080  0.05840  0.57351  Biso   1.000  H
  H1416    1.0000 0.67961  0.07351  0.51139  Biso   1.000  H
  C1360    1.0000 0.63152  0.01091  0.52998  Biso   1.000  C
  H1417    1.0000 0.67961  0.07347  0.51139  Biso   1.000  H
  C1361    1.0000 0.63152  0.01087  0.52998  Biso   1.000  C
  C1362    1.0000 0.63148  0.01091  0.52998  Biso   1.000  C
  C1363    1.0000 0.63148  0.01087  0.52998  Biso   1.000  C
  H1418    1.0000 0.59942  0.96690  0.46350  Biso   1.000  H
  H1419    1.0000 0.59938  0.96690  0.46350  Biso   1.000  H
  H1420    1.0000 0.63132  0.01931  0.44448  Biso   1.000  H
  H1421    1.0000 0.63128  0.01931  0.44448  Biso   1.000  H
  H1422    1.0000 0.05840  0.92649  0.81920  Biso   1.000  H
  H1423    1.0000 0.07351  0.98861  0.82039  Biso   1.000  H
  C1364    1.0000 0.01091  0.97002  0.86848  Biso   1.000  C
  C1365    1.0000 0.01091  0.96998  0.86848  Biso   1.000  C
  H1424    1.0000 0.07347  0.98861  0.82039  Biso   1.000  H
  C1366    1.0000 0.01087  0.97002  0.86848  Biso   1.000  C
  C1367    1.0000 0.01087  0.96998  0.86848  Biso   1.000  C
  H1425    1.0000 0.94160  0.07351  0.81920  Biso   1.000  H
  H1426    1.0000 0.92649  0.01139  0.82039  Biso   1.000  H
  C1368    1.0000 0.98909  0.02998  0.86848  Biso   1.000  C
  H1427    1.0000 0.94160  0.07347  0.81920  Biso   1.000  H
  H1428    1.0000 0.03650  0.59942  0.53310  Biso   1.000  H
  H1429    1.0000 0.05548  0.63132  0.48069  Biso   1.000  H
  H1430    1.0000 0.03650  0.59938  0.53310  Biso   1.000  H
  H1431    1.0000 0.05548  0.63128  0.48069  Biso   1.000  H
  H1432    1.0000 0.63132  0.98069  0.55548  Biso   1.000  H
  H1433    1.0000 0.63128  0.98069  0.55548  Biso   1.000  H
  H1434    1.0000 0.59942  0.03310  0.53650  Biso   1.000  H
  H1435    1.0000 0.59938  0.03310  0.53650  Biso   1.000  H
  H1436    1.0000 0.98069  0.94452  0.86868  Biso   1.000  H
  H1437    1.0000 0.98069  0.94448  0.86868  Biso   1.000  H
  H1438    1.0000 0.03310  0.96350  0.90058  Biso   1.000  H
  H1439    1.0000 0.01931  0.05548  0.86868  Biso   1.000  H
  H1440    1.0000 0.96690  0.03650  0.90058  Biso   1.000  H
  C1369    1.0000 0.07071  0.08910  0.35301  Biso   1.000  C
  C1370    1.0000 0.11509  0.05668  0.36701  Biso   1.000  C
  C1371    1.0000 0.05668  0.13299  0.38491  Biso   1.000  C
  C1372    1.0000 0.03682  0.07591  0.30848  Biso   1.000  C
  C1373    1.0000 0.03682  0.07587  0.30848  Biso   1.000  C
  C1374    1.0000 0.03678  0.07591  0.30848  Biso   1.000  C
  C1375    1.0000 0.03678  0.07587  0.30848  Biso   1.000  C
  C1376    1.0000 0.14699  0.07071  0.41090  Biso   1.000  C
  C1377    1.0000 0.14699  0.07067  0.41090  Biso   1.000  C
  H1441    1.0000 0.12320  0.02558  0.34678  Biso   1.000  H
  C1378    1.0000 0.07067  0.08910  0.35301  Biso   1.000  C
  C1379    1.0000 0.08910  0.14699  0.42929  Biso   1.000  C
  H1442    1.0000 0.02558  0.15318  0.37680  Biso   1.000  H
  H1443    1.0000 0.00580  0.09722  0.30289  Biso   1.000  H
  H1444    1.0000 0.00580  0.09718  0.30289  Biso   1.000  H
  N280     1.0000 0.04561  0.03722  0.27598  Biso   1.000  N
  N281     1.0000 0.04561  0.03718  0.27598  Biso   1.000  N
  N282     1.0000 0.04557  0.03722  0.27598  Biso   1.000  N
  N283     1.0000 0.04557  0.03718  0.27598  Biso   1.000  N
  C1380    1.0000 0.13299  0.11509  0.44328  Biso   1.000  C
  C1381    1.0000 0.19152  0.03682  0.42409  Biso   1.000  C
  C1382    1.0000 0.19152  0.03678  0.42409  Biso   1.000  C
  C1383    1.0000 0.19148  0.03682  0.42409  Biso   1.000  C
  C1384    1.0000 0.19148  0.03678  0.42409  Biso   1.000  C
  C1385    1.0000 0.07591  0.19152  0.46318  Biso   1.000  C
  C1386    1.0000 0.07591  0.19148  0.46318  Biso   1.000  C
  C1387    1.0000 0.07587  0.19152  0.46318  Biso   1.000  C
  C1388    1.0000 0.07587  0.19148  0.46318  Biso   1.000  C
  C1389    1.0000 0.01099  0.02810  0.23189  Biso   1.000  C
  H1445    1.0000 0.15318  0.12320  0.47438  Biso   1.000  H
  H1446    1.0000 0.19711  0.00580  0.40278  Biso   1.000  H
  H1447    1.0000 0.19707  0.00580  0.40278  Biso   1.000  H
  N284     1.0000 0.22402  0.04561  0.46278  Biso   1.000  N
  N285     1.0000 0.22402  0.04557  0.46278  Biso   1.000  N
  N286     1.0000 0.22398  0.04561  0.46278  Biso   1.000  N
  N287     1.0000 0.22398  0.04557  0.46278  Biso   1.000  N
  N288     1.0000 0.03722  0.22402  0.45439  Biso   1.000  N
  H1448    1.0000 0.09722  0.19711  0.49420  Biso   1.000  H
  N289     1.0000 0.03722  0.22398  0.45439  Biso   1.000  N
  H1449    1.0000 0.09722  0.19707  0.49420  Biso   1.000  H
  N290     1.0000 0.03718  0.22402  0.45439  Biso   1.000  N
  H1450    1.0000 0.09718  0.19711  0.49420  Biso   1.000  H
  N291     1.0000 0.03718  0.22398  0.45439  Biso   1.000  N
  H1451    1.0000 0.09718  0.19707  0.49420  Biso   1.000  H
  C1390    1.0000 0.04321  0.03690  0.18040  Biso   1.000  C
  C1391    1.0000 0.04317  0.03690  0.18040  Biso   1.000  C
  C1392    1.0000 0.98901  0.97190  0.23189  Biso   1.000  C
  H1452    1.0000 0.98081  0.05421  0.23329  Biso   1.000  H
  H1453    1.0000 0.98077  0.05421  0.23329  Biso   1.000  H
  C1393    1.0000 0.26811  0.01099  0.47190  Biso   1.000  C
  C1394    1.0000 0.26807  0.01099  0.47190  Biso   1.000  C
  C1395    1.0000 0.02810  0.26811  0.48901  Biso   1.000  C
  C1396    1.0000 0.02810  0.26807  0.48901  Biso   1.000  C
  H1454    1.0000 0.07351  0.01139  0.17961  Biso   1.000  H
  C1397    1.0000 0.01091  0.02998  0.13152  Biso   1.000  C
  H1455    1.0000 0.05840  0.07351  0.18080  Biso   1.000  H
  H1456    1.0000 0.05840  0.07347  0.18080  Biso   1.000  H
  H1457    1.0000 0.07347  0.01139  0.17961  Biso   1.000  H
  C1398    1.0000 0.01087  0.02998  0.13152  Biso   1.000  C
  N292     1.0000 0.95439  0.96278  0.27598  Biso   1.000  N
  C1399    1.0000 0.95679  0.96310  0.18040  Biso   1.000  C
  H1458    1.0000 0.01919  0.94579  0.23329  Biso   1.000  H
  C1400    1.0000 0.31960  0.04321  0.46310  Biso   1.000  C
  C1401    1.0000 0.31960  0.04317  0.46310  Biso   1.000  C
  C1402    1.0000 0.26811  0.98901  0.52810  Biso   1.000  C
  H1459    1.0000 0.26671  0.98081  0.44579  Biso   1.000  H
  H1460    1.0000 0.26671  0.98077  0.44579  Biso   1.000  H
  C1403    1.0000 0.26807  0.98901  0.52810  Biso   1.000  C
  H1461    1.0000 0.26667  0.98081  0.44579  Biso   1.000  H
  H1462    1.0000 0.26667  0.98077  0.44579  Biso   1.000  H
  C1404    1.0000 0.03690  0.31960  0.45679  Biso   1.000  C
  H1463    1.0000 0.05421  0.26671  0.51919  Biso   1.000  H
  H1464    1.0000 0.05421  0.26667  0.51919  Biso   1.000  H
  C1405    1.0000 0.97190  0.26811  0.51099  Biso   1.000  C
  C1406    1.0000 0.97190  0.26807  0.51099  Biso   1.000  C
  H1465    1.0000 0.03310  0.03650  0.09942  Biso   1.000  H
  C1407    1.0000 0.98909  0.97002  0.13152  Biso   1.000  C
  C1408    1.0000 0.98909  0.96998  0.13152  Biso   1.000  C
  H1466    1.0000 0.98069  0.05548  0.13132  Biso   1.000  H
  C1409    1.0000 0.96318  0.92409  0.30848  Biso   1.000  C
  H1467    1.0000 0.94160  0.92649  0.18080  Biso   1.000  H
  H1468    1.0000 0.92649  0.98861  0.17961  Biso   1.000  H
  H1469    1.0000 0.31920  0.05840  0.42649  Biso   1.000  H
  H1470    1.0000 0.32039  0.07351  0.48861  Biso   1.000  H
  C1410    1.0000 0.36848  0.01091  0.46998  Biso   1.000  C
  H1471    1.0000 0.32039  0.07347  0.48861  Biso   1.000  H
  C1411    1.0000 0.36848  0.01087  0.46998  Biso   1.000  C
  H1472    1.0000 0.26671  0.01919  0.55421  Biso   1.000  H
  H1473    1.0000 0.26667  0.01919  0.55421  Biso   1.000  H
  N293     1.0000 0.22402  0.95439  0.53718  Biso   1.000  N
  C1412    1.0000 0.31960  0.95679  0.53690  Biso   1.000  C
  N294     1.0000 0.22398  0.95439  0.53718  Biso   1.000  N
  H1474    1.0000 0.07351  0.31920  0.44160  Biso   1.000  H
  H1475    1.0000 0.01139  0.32039  0.42649  Biso   1.000  H
  C1413    1.0000 0.02998  0.36848  0.48909  Biso   1.000  C
  H1476    1.0000 0.07347  0.31920  0.44160  Biso   1.000  H
  N295     1.0000 0.96278  0.22402  0.54561  Biso   1.000  N
  H1477    1.0000 0.94579  0.26671  0.48081  Biso   1.000  H
  C1414    1.0000 0.96310  0.31960  0.54321  Biso   1.000  C
  N296     1.0000 0.96278  0.22398  0.54561  Biso   1.000  N
  H1478    1.0000 0.94579  0.26667  0.48081  Biso   1.000  H
  H1479    1.0000 0.96690  0.96350  0.09942  Biso   1.000  H
  H1480    1.0000 0.01931  0.94452  0.13132  Biso   1.000  H
  H1481    1.0000 0.01931  0.94448  0.13132  Biso   1.000  H
  C1415    1.0000 0.92929  0.91090  0.35301  Biso   1.000  C
  H1482    1.0000 0.99420  0.90278  0.30289  Biso   1.000  H
  H1483    1.0000 0.40058  0.03310  0.46350  Biso   1.000  H
  C1416    1.0000 0.36848  0.98909  0.52998  Biso   1.000  C
  H1484    1.0000 0.36868  0.98069  0.44448  Biso   1.000  H
  C1417    1.0000 0.19152  0.96318  0.57591  Biso   1.000  C
  C1418    1.0000 0.19148  0.96318  0.57591  Biso   1.000  C
  H1485    1.0000 0.31920  0.94160  0.57351  Biso   1.000  H
  H1486    1.0000 0.32039  0.92649  0.51139  Biso   1.000  H
  H1487    1.0000 0.03650  0.40058  0.46690  Biso   1.000  H
  H1488    1.0000 0.05548  0.36868  0.51931  Biso   1.000  H
  C1419    1.0000 0.97002  0.36848  0.51091  Biso   1.000  C
  C1420    1.0000 0.96998  0.36848  0.51091  Biso   1.000  C
  C1421    1.0000 0.92409  0.19152  0.53678  Biso   1.000  C
  C1422    1.0000 0.92409  0.19148  0.53678  Biso   1.000  C
  H1489    1.0000 0.92649  0.31920  0.55840  Biso   1.000  H
  H1490    1.0000 0.98861  0.32039  0.57351  Biso   1.000  H
  C1423    1.0000 0.94332  0.86701  0.38491  Biso   1.000  C
  C1424    1.0000 0.88491  0.94332  0.36701  Biso   1.000  C
  C1425    1.0000 0.88491  0.94328  0.36701  Biso   1.000  C
  C1426    1.0000 0.94328  0.86701  0.38491  Biso   1.000  C
  C1427    1.0000 0.88487  0.94332  0.36701  Biso   1.000  C
  C1428    1.0000 0.88487  0.94328  0.36701  Biso   1.000  C
  H1491    1.0000 0.36868  0.01931  0.55548  Biso   1.000  H
  H1492    1.0000 0.40058  0.96690  0.53650  Biso   1.000  H
  C1429    1.0000 0.14699  0.92929  0.58910  Biso   1.000  C
  H1493    1.0000 0.19711  0.99420  0.59718  Biso   1.000  H
  H1494    1.0000 0.19707  0.99420  0.59718  Biso   1.000  H
  H1495    1.0000 0.96350  0.40058  0.53310  Biso   1.000  H
  H1496    1.0000 0.94452  0.36868  0.48069  Biso   1.000  H
  H1497    1.0000 0.94448  0.36868  0.48069  Biso   1.000  H
  C1430    1.0000 0.91090  0.14699  0.57067  Biso   1.000  C
  H1498    1.0000 0.90278  0.19711  0.50580  Biso   1.000  H
  H1499    1.0000 0.90278  0.19707  0.50580  Biso   1.000  H
  H1500    1.0000 0.97442  0.84682  0.37680  Biso   1.000  H
  C1431    1.0000 0.91090  0.85301  0.42929  Biso   1.000  C
  H1501    1.0000 0.97442  0.84678  0.37680  Biso   1.000  H
  C1432    1.0000 0.91090  0.85297  0.42929  Biso   1.000  C
  H1502    1.0000 0.97438  0.84682  0.37680  Biso   1.000  H
  H1503    1.0000 0.97438  0.84678  0.37680  Biso   1.000  H
  H1504    1.0000 0.87680  0.97442  0.34678  Biso   1.000  H
  C1433    1.0000 0.85301  0.92929  0.41090  Biso   1.000  C
  H1505    1.0000 0.87680  0.97438  0.34678  Biso   1.000  H
  C1434    1.0000 0.85297  0.92929  0.41090  Biso   1.000  C
  C1435    1.0000 0.11509  0.94332  0.63299  Biso   1.000  C
  C1436    1.0000 0.13299  0.88491  0.55668  Biso   1.000  C
  C1437    1.0000 0.11509  0.94328  0.63299  Biso   1.000  C
  C1438    1.0000 0.13299  0.88487  0.55668  Biso   1.000  C
  C1439    1.0000 0.86701  0.11509  0.55668  Biso   1.000  C
  C1440    1.0000 0.94332  0.13299  0.61509  Biso   1.000  C
  C1441    1.0000 0.94328  0.13299  0.61509  Biso   1.000  C
  C1442    1.0000 0.86701  0.88491  0.44328  Biso   1.000  C
  C1443    1.0000 0.92409  0.80848  0.46318  Biso   1.000  C
  C1444    1.0000 0.86701  0.88487  0.44328  Biso   1.000  C
  C1445    1.0000 0.80848  0.96318  0.42409  Biso   1.000  C
  H1506    1.0000 0.12320  0.97442  0.65318  Biso   1.000  H
  C1446    1.0000 0.07071  0.91090  0.64699  Biso   1.000  C
  H1507    1.0000 0.12320  0.97438  0.65318  Biso   1.000  H
  C1447    1.0000 0.07067  0.91090  0.64699  Biso   1.000  C
  H1508    1.0000 0.15318  0.87680  0.52558  Biso   1.000  H
  C1448    1.0000 0.08910  0.85301  0.57067  Biso   1.000  C
  C1449    1.0000 0.08910  0.85297  0.57067  Biso   1.000  C
  H1509    1.0000 0.84682  0.12320  0.52558  Biso   1.000  H
  C1450    1.0000 0.85301  0.07071  0.58910  Biso   1.000  C
  C1451    1.0000 0.85301  0.07067  0.58910  Biso   1.000  C
  H1510    1.0000 0.84678  0.12320  0.52558  Biso   1.000  H
  C1452    1.0000 0.85297  0.07071  0.58910  Biso   1.000  C
  C1453    1.0000 0.85297  0.07067  0.58910  Biso   1.000  C
  H1511    1.0000 0.97442  0.15318  0.62320  Biso   1.000  H
  C1454    1.0000 0.92929  0.08910  0.64699  Biso   1.000  C
  H1512    1.0000 0.97438  0.15318  0.62320  Biso   1.000  H
  H1513    1.0000 0.84682  0.87680  0.47438  Biso   1.000  H
  H1514    1.0000 0.84678  0.87680  0.47438  Biso   1.000  H
  N297     1.0000 0.96278  0.77598  0.45439  Biso   1.000  N
  H1515    1.0000 0.90278  0.80289  0.49420  Biso   1.000  H
  N298     1.0000 0.77598  0.95439  0.46278  Biso   1.000  N
  H1516    1.0000 0.80289  0.99420  0.40278  Biso   1.000  H
  C1455    1.0000 0.05668  0.86701  0.61509  Biso   1.000  C
  C1456    1.0000 0.03682  0.92409  0.69148  Biso   1.000  C
  C1457    1.0000 0.03678  0.92409  0.69148  Biso   1.000  C
  C1458    1.0000 0.07591  0.80848  0.53678  Biso   1.000  C
  C1459    1.0000 0.07587  0.80848  0.53678  Biso   1.000  C
  C1460    1.0000 0.88491  0.05668  0.63299  Biso   1.000  C
  C1461    1.0000 0.80848  0.03682  0.57591  Biso   1.000  C
  C1462    1.0000 0.80848  0.03678  0.57591  Biso   1.000  C
  C1463    1.0000 0.88487  0.05668  0.63299  Biso   1.000  C
  C1464    1.0000 0.96318  0.07591  0.69148  Biso   1.000  C
  C1465    1.0000 0.96318  0.07587  0.69148  Biso   1.000  C
  C1466    1.0000 0.97190  0.73189  0.48901  Biso   1.000  C
  C1467    1.0000 0.73189  0.98901  0.47190  Biso   1.000  C
  H1517    1.0000 0.02558  0.84682  0.62320  Biso   1.000  H
  H1518    1.0000 0.02558  0.84678  0.62320  Biso   1.000  H
  N299     1.0000 0.04561  0.96278  0.72398  Biso   1.000  N
  H1519    1.0000 0.00580  0.90278  0.69707  Biso   1.000  H
  N300     1.0000 0.04557  0.96278  0.72398  Biso   1.000  N
  N301     1.0000 0.03722  0.77598  0.54561  Biso   1.000  N
  H1520    1.0000 0.09722  0.80289  0.50580  Biso   1.000  H
  N302     1.0000 0.03718  0.77598  0.54561  Biso   1.000  N
  H1521    1.0000 0.09718  0.80289  0.50580  Biso   1.000  H
  H1522    1.0000 0.87680  0.02558  0.65318  Biso   1.000  H
  N303     1.0000 0.77598  0.04561  0.53718  Biso   1.000  N
  H1523    1.0000 0.80289  0.00580  0.59718  Biso   1.000  H
  N304     1.0000 0.77598  0.04557  0.53718  Biso   1.000  N
  N305     1.0000 0.95439  0.03722  0.72398  Biso   1.000  N
  H1524    1.0000 0.99420  0.09722  0.69707  Biso   1.000  H
  N306     1.0000 0.95439  0.03718  0.72398  Biso   1.000  N
  H1525    1.0000 0.99420  0.09718  0.69707  Biso   1.000  H
  C1468    1.0000 0.02810  0.73189  0.51099  Biso   1.000  C
  H1526    1.0000 0.94579  0.73329  0.51919  Biso   1.000  H
  C1469    1.0000 0.96310  0.68040  0.45679  Biso   1.000  C
  C1470    1.0000 0.73189  0.01099  0.52810  Biso   1.000  C
  C1471    1.0000 0.68040  0.95679  0.46310  Biso   1.000  C
  H1527    1.0000 0.73329  0.01919  0.44579  Biso   1.000  H
  C1472    1.0000 0.01099  0.97190  0.76811  Biso   1.000  C
  C1473    1.0000 0.98901  0.02810  0.76811  Biso   1.000  C
  H1528    1.0000 0.05421  0.73329  0.48081  Biso   1.000  H
  C1474    1.0000 0.03690  0.68040  0.54321  Biso   1.000  C
  H1529    1.0000 0.92649  0.68080  0.44160  Biso   1.000  H
  H1530    1.0000 0.98861  0.67961  0.42649  Biso   1.000  H
  C1475    1.0000 0.97002  0.63152  0.48909  Biso   1.000  C
  C1476    1.0000 0.97002  0.63148  0.48909  Biso   1.000  C
  C1477    1.0000 0.96998  0.63152  0.48909  Biso   1.000  C
  C1478    1.0000 0.96998  0.63148  0.48909  Biso   1.000  C
  H1531    1.0000 0.73329  0.98081  0.55421  Biso   1.000  H
  H1532    1.0000 0.73329  0.98077  0.55421  Biso   1.000  H
  C1479    1.0000 0.68040  0.04321  0.53690  Biso   1.000  C
  C1480    1.0000 0.68040  0.04317  0.53690  Biso   1.000  C
  H1533    1.0000 0.68080  0.94160  0.42649  Biso   1.000  H
  H1534    1.0000 0.67961  0.92649  0.48861  Biso   1.000  H
  C1481    1.0000 0.63152  0.98909  0.46998  Biso   1.000  C
  C1482    1.0000 0.63148  0.98909  0.46998  Biso   1.000  C
  H1535    1.0000 0.98081  0.94579  0.76671  Biso   1.000  H
  H1536    1.0000 0.98077  0.94579  0.76671  Biso   1.000  H
  C1483    1.0000 0.04321  0.96310  0.81960  Biso   1.000  C
  C1484    1.0000 0.04317  0.96310  0.81960  Biso   1.000  C
  H1537    1.0000 0.01919  0.05421  0.76671  Biso   1.000  H
  C1485    1.0000 0.95679  0.03690  0.81960  Biso   1.000  C
  H1538    1.0000 0.07351  0.68080  0.55840  Biso   1.000  H
  H1539    1.0000 0.01139  0.67961  0.57351  Biso   1.000  H
  C1486    1.0000 0.02998  0.63152  0.51091  Biso   1.000  C
  C1487    1.0000 0.02998  0.63148  0.51091  Biso   1.000  C
  H1540    1.0000 0.07347  0.68080  0.55840  Biso   1.000  H
  H1541    1.0000 0.96350  0.59942  0.46690  Biso   1.000  H
  H1542    1.0000 0.94452  0.63132  0.51931  Biso   1.000  H
  H1543    1.0000 0.96350  0.59938  0.46690  Biso   1.000  H
  H1544    1.0000 0.94452  0.63128  0.51931  Biso   1.000  H
  H1545    1.0000 0.94448  0.63132  0.51931  Biso   1.000  H
  H1546    1.0000 0.94448  0.63128  0.51931  Biso   1.000  H
  H1547    1.0000 0.68080  0.05840  0.57351  Biso   1.000  H
  H1548    1.0000 0.67961  0.07351  0.51139  Biso   1.000  H
  C1488    1.0000 0.63152  0.01091  0.52998  Biso   1.000  C
  H1549    1.0000 0.67961  0.07347  0.51139  Biso   1.000  H
  C1489    1.0000 0.63152  0.01087  0.52998  Biso   1.000  C
  C1490    1.0000 0.63148  0.01091  0.52998  Biso   1.000  C
  C1491    1.0000 0.63148  0.01087  0.52998  Biso   1.000  C
  H1550    1.0000 0.59942  0.96690  0.46350  Biso   1.000  H
  H1551    1.0000 0.59938  0.96690  0.46350  Biso   1.000  H
  H1552    1.0000 0.63132  0.01931  0.44448  Biso   1.000  H
  H1553    1.0000 0.63128  0.01931  0.44448  Biso   1.000  H
  H1554    1.0000 0.05840  0.92649  0.81920  Biso   1.000  H
  H1555    1.0000 0.07351  0.98861  0.82039  Biso   1.000  H
  C1492    1.0000 0.01091  0.97002  0.86848  Biso   1.000  C
  C1493    1.0000 0.01091  0.96998  0.86848  Biso   1.000  C
  H1556    1.0000 0.07347  0.98861  0.82039  Biso   1.000  H
  C1494    1.0000 0.01087  0.97002  0.86848  Biso   1.000  C
  C1495    1.0000 0.01087  0.96998  0.86848  Biso   1.000  C
  H1557    1.0000 0.94160  0.07351  0.81920  Biso   1.000  H
  H1558    1.0000 0.92649  0.01139  0.82039  Biso   1.000  H
  C1496    1.0000 0.98909  0.02998  0.86848  Biso   1.000  C
  H1559    1.0000 0.94160  0.07347  0.81920  Biso   1.000  H
  H1560    1.0000 0.03650  0.59942  0.53310  Biso   1.000  H
  H1561    1.0000 0.05548  0.63132  0.48069  Biso   1.000  H
  H1562    1.0000 0.03650  0.59938  0.53310  Biso   1.000  H
  H1563    1.0000 0.05548  0.63128  0.48069  Biso   1.000  H
  H1564    1.0000 0.63132  0.98069  0.55548  Biso   1.000  H
  H1565    1.0000 0.63128  0.98069  0.55548  Biso   1.000  H
  H1566    1.0000 0.59942  0.03310  0.53650  Biso   1.000  H
  H1567    1.0000 0.59938  0.03310  0.53650  Biso   1.000  H
  H1568    1.0000 0.98069  0.94452  0.86868  Biso   1.000  H
  H1569    1.0000 0.98069  0.94448  0.86868  Biso   1.000  H
  H1570    1.0000 0.03310  0.96350  0.90058  Biso   1.000  H
  H1571    1.0000 0.01931  0.05548  0.86868  Biso   1.000  H
  H1572    1.0000 0.96690  0.03650  0.90058  Biso   1.000  H
  C1497    1.0000 0.07071  0.08910  0.35301  Biso   1.000  C
  C1498    1.0000 0.05668  0.13299  0.38491  Biso   1.000  C
  C1499    1.0000 0.11509  0.05668  0.36701  Biso   1.000  C
  C1500    1.0000 0.03682  0.07591  0.30848  Biso   1.000  C
  C1501    1.0000 0.03682  0.07587  0.30848  Biso   1.000  C
  C1502    1.0000 0.03678  0.07591  0.30848  Biso   1.000  C
  C1503    1.0000 0.03678  0.07587  0.30848  Biso   1.000  C
  C1504    1.0000 0.08910  0.14699  0.42929  Biso   1.000  C
  H1573    1.0000 0.02558  0.15318  0.37680  Biso   1.000  H
  C1505    1.0000 0.07067  0.08910  0.35301  Biso   1.000  C
  C1506    1.0000 0.14699  0.07071  0.41090  Biso   1.000  C
  C1507    1.0000 0.14699  0.07067  0.41090  Biso   1.000  C
  H1574    1.0000 0.12320  0.02558  0.34678  Biso   1.000  H
  N307     1.0000 0.04561  0.03722  0.27598  Biso   1.000  N
  H1575    1.0000 0.00580  0.09722  0.30289  Biso   1.000  H
  N308     1.0000 0.04561  0.03718  0.27598  Biso   1.000  N
  H1576    1.0000 0.00580  0.09718  0.30289  Biso   1.000  H
  N309     1.0000 0.04557  0.03722  0.27598  Biso   1.000  N
  N310     1.0000 0.04557  0.03718  0.27598  Biso   1.000  N
  C1508    1.0000 0.13299  0.11509  0.44328  Biso   1.000  C
  C1509    1.0000 0.07591  0.19152  0.46318  Biso   1.000  C
  C1510    1.0000 0.07591  0.19148  0.46318  Biso   1.000  C
  C1511    1.0000 0.07587  0.19152  0.46318  Biso   1.000  C
  C1512    1.0000 0.07587  0.19148  0.46318  Biso   1.000  C
  C1513    1.0000 0.19152  0.03682  0.42409  Biso   1.000  C
  C1514    1.0000 0.19152  0.03678  0.42409  Biso   1.000  C
  C1515    1.0000 0.19148  0.03682  0.42409  Biso   1.000  C
  C1516    1.0000 0.19148  0.03678  0.42409  Biso   1.000  C
  C1517    1.0000 0.01099  0.02810  0.23189  Biso   1.000  C
  H1577    1.0000 0.15318  0.12320  0.47438  Biso   1.000  H
  N311     1.0000 0.03722  0.22402  0.45439  Biso   1.000  N
  H1578    1.0000 0.09722  0.19711  0.49420  Biso   1.000  H
  N312     1.0000 0.03722  0.22398  0.45439  Biso   1.000  N
  H1579    1.0000 0.09722  0.19707  0.49420  Biso   1.000  H
  N313     1.0000 0.03718  0.22402  0.45439  Biso   1.000  N
  H1580    1.0000 0.09718  0.19711  0.49420  Biso   1.000  H
  N314     1.0000 0.03718  0.22398  0.45439  Biso   1.000  N
  H1581    1.0000 0.09718  0.19707  0.49420  Biso   1.000  H
  N315     1.0000 0.22402  0.04561  0.46278  Biso   1.000  N
  H1582    1.0000 0.19711  0.00580  0.40278  Biso   1.000  H
  N316     1.0000 0.22402  0.04557  0.46278  Biso   1.000  N
  N317     1.0000 0.22398  0.04561  0.46278  Biso   1.000  N
  H1583    1.0000 0.19707  0.00580  0.40278  Biso   1.000  H
  N318     1.0000 0.22398  0.04557  0.46278  Biso   1.000  N
  C1518    1.0000 0.98901  0.97190  0.23189  Biso   1.000  C
  H1584    1.0000 0.98081  0.05421  0.23329  Biso   1.000  H
  H1585    1.0000 0.98077  0.05421  0.23329  Biso   1.000  H
  C1519    1.0000 0.04321  0.03690  0.18040  Biso   1.000  C
  C1520    1.0000 0.04317  0.03690  0.18040  Biso   1.000  C
  C1521    1.0000 0.02810  0.26811  0.48901  Biso   1.000  C
  C1522    1.0000 0.02810  0.26807  0.48901  Biso   1.000  C
  C1523    1.0000 0.26811  0.01099  0.47190  Biso   1.000  C
  C1524    1.0000 0.26807  0.01099  0.47190  Biso   1.000  C
  N319     1.0000 0.95439  0.96278  0.27598  Biso   1.000  N
  C1525    1.0000 0.95679  0.96310  0.18040  Biso   1.000  C
  H1586    1.0000 0.01919  0.94579  0.23329  Biso   1.000  H
  H1587    1.0000 0.05840  0.07351  0.18080  Biso   1.000  H
  H1588    1.0000 0.07351  0.01139  0.17961  Biso   1.000  H
  C1526    1.0000 0.01091  0.02998  0.13152  Biso   1.000  C
  H1589    1.0000 0.05840  0.07347  0.18080  Biso   1.000  H
  H1590    1.0000 0.07347  0.01139  0.17961  Biso   1.000  H
  C1527    1.0000 0.01087  0.02998  0.13152  Biso   1.000  C
  C1528    1.0000 0.03690  0.31960  0.45679  Biso   1.000  C
  C1529    1.0000 0.97190  0.26811  0.51099  Biso   1.000  C
  C1530    1.0000 0.97190  0.26807  0.51099  Biso   1.000  C
  H1591    1.0000 0.05421  0.26671  0.51919  Biso   1.000  H
  H1592    1.0000 0.05421  0.26667  0.51919  Biso   1.000  H
  C1531    1.0000 0.26811  0.98901  0.52810  Biso   1.000  C
  H1593    1.0000 0.26671  0.98081  0.44579  Biso   1.000  H
  H1594    1.0000 0.26671  0.98077  0.44579  Biso   1.000  H
  C1532    1.0000 0.26807  0.98901  0.52810  Biso   1.000  C
  H1595    1.0000 0.26667  0.98081  0.44579  Biso   1.000  H
  H1596    1.0000 0.26667  0.98077  0.44579  Biso   1.000  H
  C1533    1.0000 0.31960  0.04321  0.46310  Biso   1.000  C
  C1534    1.0000 0.31960  0.04317  0.46310  Biso   1.000  C
  C1535    1.0000 0.96318  0.92409  0.30848  Biso   1.000  C
  H1597    1.0000 0.94160  0.92649  0.18080  Biso   1.000  H
  H1598    1.0000 0.92649  0.98861  0.17961  Biso   1.000  H
  C1536    1.0000 0.98909  0.97002  0.13152  Biso   1.000  C
  C1537    1.0000 0.98909  0.96998  0.13152  Biso   1.000  C
  H1599    1.0000 0.03310  0.03650  0.09942  Biso   1.000  H
  H1600    1.0000 0.98069  0.05548  0.13132  Biso   1.000  H
  H1601    1.0000 0.01139  0.32039  0.42649  Biso   1.000  H
  C1538    1.0000 0.02998  0.36848  0.48909  Biso   1.000  C
  H1602    1.0000 0.07351  0.31920  0.44160  Biso   1.000  H
  H1603    1.0000 0.07347  0.31920  0.44160  Biso   1.000  H
  N320     1.0000 0.96278  0.22402  0.54561  Biso   1.000  N
  H1604    1.0000 0.94579  0.26671  0.48081  Biso   1.000  H
  C1539    1.0000 0.96310  0.31960  0.54321  Biso   1.000  C
  N321     1.0000 0.96278  0.22398  0.54561  Biso   1.000  N
  H1605    1.0000 0.94579  0.26667  0.48081  Biso   1.000  H
  N322     1.0000 0.22402  0.95439  0.53718  Biso   1.000  N
  C1540    1.0000 0.31960  0.95679  0.53690  Biso   1.000  C
  N323     1.0000 0.22398  0.95439  0.53718  Biso   1.000  N
  H1606    1.0000 0.26671  0.01919  0.55421  Biso   1.000  H
  H1607    1.0000 0.26667  0.01919  0.55421  Biso   1.000  H
  H1608    1.0000 0.31920  0.05840  0.42649  Biso   1.000  H
  H1609    1.0000 0.32039  0.07351  0.48861  Biso   1.000  H
  C1541    1.0000 0.36848  0.01091  0.46998  Biso   1.000  C
  H1610    1.0000 0.32039  0.07347  0.48861  Biso   1.000  H
  C1542    1.0000 0.36848  0.01087  0.46998  Biso   1.000  C
  C1543    1.0000 0.92929  0.91090  0.35301  Biso   1.000  C
  H1611    1.0000 0.99420  0.90278  0.30289  Biso   1.000  H
  H1612    1.0000 0.96690  0.96350  0.09942  Biso   1.000  H
  H1613    1.0000 0.01931  0.94452  0.13132  Biso   1.000  H
  H1614    1.0000 0.01931  0.94448  0.13132  Biso   1.000  H
  H1615    1.0000 0.03650  0.40058  0.46690  Biso   1.000  H
  H1616    1.0000 0.05548  0.36868  0.51931  Biso   1.000  H
  C1544    1.0000 0.97002  0.36848  0.51091  Biso   1.000  C
  C1545    1.0000 0.96998  0.36848  0.51091  Biso   1.000  C
  C1546    1.0000 0.92409  0.19152  0.53678  Biso   1.000  C
  C1547    1.0000 0.92409  0.19148  0.53678  Biso   1.000  C
  H1617    1.0000 0.92649  0.31920  0.55840  Biso   1.000  H
  H1618    1.0000 0.98861  0.32039  0.57351  Biso   1.000  H
  C1548    1.0000 0.19152  0.96318  0.57591  Biso   1.000  C
  C1549    1.0000 0.19148  0.96318  0.57591  Biso   1.000  C
  H1619    1.0000 0.31920  0.94160  0.57351  Biso   1.000  H
  H1620    1.0000 0.32039  0.92649  0.51139  Biso   1.000  H
  C1550    1.0000 0.36848  0.98909  0.52998  Biso   1.000  C
  H1621    1.0000 0.40058  0.03310  0.46350  Biso   1.000  H
  H1622    1.0000 0.36868  0.98069  0.44448  Biso   1.000  H
  C1551    1.0000 0.94332  0.86701  0.38491  Biso   1.000  C
  C1552    1.0000 0.88491  0.94332  0.36701  Biso   1.000  C
  C1553    1.0000 0.88491  0.94328  0.36701  Biso   1.000  C
  C1554    1.0000 0.94328  0.86701  0.38491  Biso   1.000  C
  C1555    1.0000 0.88487  0.94332  0.36701  Biso   1.000  C
  C1556    1.0000 0.88487  0.94328  0.36701  Biso   1.000  C
  H1623    1.0000 0.96350  0.40058  0.53310  Biso   1.000  H
  H1624    1.0000 0.94452  0.36868  0.48069  Biso   1.000  H
  H1625    1.0000 0.94448  0.36868  0.48069  Biso   1.000  H
  C1557    1.0000 0.91090  0.14699  0.57067  Biso   1.000  C
  H1626    1.0000 0.90278  0.19711  0.50580  Biso   1.000  H
  H1627    1.0000 0.90278  0.19707  0.50580  Biso   1.000  H
  C1558    1.0000 0.14699  0.92929  0.58910  Biso   1.000  C
  H1628    1.0000 0.19711  0.99420  0.59718  Biso   1.000  H
  H1629    1.0000 0.19707  0.99420  0.59718  Biso   1.000  H
  H1630    1.0000 0.36868  0.01931  0.55548  Biso   1.000  H
  H1631    1.0000 0.40058  0.96690  0.53650  Biso   1.000  H
  H1632    1.0000 0.97442  0.84682  0.37680  Biso   1.000  H
  C1559    1.0000 0.91090  0.85301  0.42929  Biso   1.000  C
  H1633    1.0000 0.97442  0.84678  0.37680  Biso   1.000  H
  C1560    1.0000 0.91090  0.85297  0.42929  Biso   1.000  C
  H1634    1.0000 0.97438  0.84682  0.37680  Biso   1.000  H
  H1635    1.0000 0.97438  0.84678  0.37680  Biso   1.000  H
  H1636    1.0000 0.87680  0.97442  0.34678  Biso   1.000  H
  C1561    1.0000 0.85301  0.92929  0.41090  Biso   1.000  C
  H1637    1.0000 0.87680  0.97438  0.34678  Biso   1.000  H
  C1562    1.0000 0.85297  0.92929  0.41090  Biso   1.000  C
  C1563    1.0000 0.86701  0.11509  0.55668  Biso   1.000  C
  C1564    1.0000 0.94332  0.13299  0.61509  Biso   1.000  C
  C1565    1.0000 0.94328  0.13299  0.61509  Biso   1.000  C
  C1566    1.0000 0.11509  0.94332  0.63299  Biso   1.000  C
  C1567    1.0000 0.13299  0.88491  0.55668  Biso   1.000  C
  C1568    1.0000 0.11509  0.94328  0.63299  Biso   1.000  C
  C1569    1.0000 0.13299  0.88487  0.55668  Biso   1.000  C
  C1570    1.0000 0.86701  0.88491  0.44328  Biso   1.000  C
  C1571    1.0000 0.92409  0.80848  0.46318  Biso   1.000  C
  C1572    1.0000 0.86701  0.88487  0.44328  Biso   1.000  C
  C1573    1.0000 0.80848  0.96318  0.42409  Biso   1.000  C
  H1638    1.0000 0.84682  0.12320  0.52558  Biso   1.000  H
  C1574    1.0000 0.85301  0.07071  0.58910  Biso   1.000  C
  C1575    1.0000 0.85301  0.07067  0.58910  Biso   1.000  C
  H1639    1.0000 0.84678  0.12320  0.52558  Biso   1.000  H
  C1576    1.0000 0.85297  0.07071  0.58910  Biso   1.000  C
  C1577    1.0000 0.85297  0.07067  0.58910  Biso   1.000  C
  H1640    1.0000 0.97442  0.15318  0.62320  Biso   1.000  H
  C1578    1.0000 0.92929  0.08910  0.64699  Biso   1.000  C
  H1641    1.0000 0.97438  0.15318  0.62320  Biso   1.000  H
  H1642    1.0000 0.12320  0.97442  0.65318  Biso   1.000  H
  C1579    1.0000 0.07071  0.91090  0.64699  Biso   1.000  C
  H1643    1.0000 0.12320  0.97438  0.65318  Biso   1.000  H
  C1580    1.0000 0.07067  0.91090  0.64699  Biso   1.000  C
  H1644    1.0000 0.15318  0.87680  0.52558  Biso   1.000  H
  C1581    1.0000 0.08910  0.85301  0.57067  Biso   1.000  C
  C1582    1.0000 0.08910  0.85297  0.57067  Biso   1.000  C
  H1645    1.0000 0.84682  0.87680  0.47438  Biso   1.000  H
  H1646    1.0000 0.84678  0.87680  0.47438  Biso   1.000  H
  N324     1.0000 0.96278  0.77598  0.45439  Biso   1.000  N
  H1647    1.0000 0.90278  0.80289  0.49420  Biso   1.000  H
  N325     1.0000 0.77598  0.95439  0.46278  Biso   1.000  N
  H1648    1.0000 0.80289  0.99420  0.40278  Biso   1.000  H
  C1583    1.0000 0.88491  0.05668  0.63299  Biso   1.000  C
  C1584    1.0000 0.80848  0.03682  0.57591  Biso   1.000  C
  C1585    1.0000 0.80848  0.03678  0.57591  Biso   1.000  C
  C1586    1.0000 0.88487  0.05668  0.63299  Biso   1.000  C
  C1587    1.0000 0.96318  0.07591  0.69148  Biso   1.000  C
  C1588    1.0000 0.96318  0.07587  0.69148  Biso   1.000  C
  C1589    1.0000 0.05668  0.86701  0.61509  Biso   1.000  C
  C1590    1.0000 0.03682  0.92409  0.69148  Biso   1.000  C
  C1591    1.0000 0.03678  0.92409  0.69148  Biso   1.000  C
  C1592    1.0000 0.07591  0.80848  0.53678  Biso   1.000  C
  C1593    1.0000 0.07587  0.80848  0.53678  Biso   1.000  C
  C1594    1.0000 0.97190  0.73189  0.48901  Biso   1.000  C
  C1595    1.0000 0.73189  0.98901  0.47190  Biso   1.000  C
  H1649    1.0000 0.87680  0.02558  0.65318  Biso   1.000  H
  N326     1.0000 0.77598  0.04561  0.53718  Biso   1.000  N
  H1650    1.0000 0.80289  0.00580  0.59718  Biso   1.000  H
  N327     1.0000 0.77598  0.04557  0.53718  Biso   1.000  N
  N328     1.0000 0.95439  0.03722  0.72398  Biso   1.000  N
  H1651    1.0000 0.99420  0.09722  0.69707  Biso   1.000  H
  N329     1.0000 0.95439  0.03718  0.72398  Biso   1.000  N
  H1652    1.0000 0.99420  0.09718  0.69707  Biso   1.000  H
  H1653    1.0000 0.02558  0.84682  0.62320  Biso   1.000  H
  H1654    1.0000 0.02558  0.84678  0.62320  Biso   1.000  H
  N330     1.0000 0.04561  0.96278  0.72398  Biso   1.000  N
  H1655    1.0000 0.00580  0.90278  0.69707  Biso   1.000  H
  N331     1.0000 0.04557  0.96278  0.72398  Biso   1.000  N
  N332     1.0000 0.03722  0.77598  0.54561  Biso   1.000  N
  H1656    1.0000 0.09722  0.80289  0.50580  Biso   1.000  H
  N333     1.0000 0.03718  0.77598  0.54561  Biso   1.000  N
  H1657    1.0000 0.09718  0.80289  0.50580  Biso   1.000  H
  C1596    1.0000 0.02810  0.73189  0.51099  Biso   1.000  C
  H1658    1.0000 0.94579  0.73329  0.51919  Biso   1.000  H
  C1597    1.0000 0.96310  0.68040  0.45679  Biso   1.000  C
  C1598    1.0000 0.73189  0.01099  0.52810  Biso   1.000  C
  C1599    1.0000 0.68040  0.95679  0.46310  Biso   1.000  C
  H1659    1.0000 0.73329  0.01919  0.44579  Biso   1.000  H
  C1600    1.0000 0.98901  0.02810  0.76811  Biso   1.000  C
  C1601    1.0000 0.01099  0.97190  0.76811  Biso   1.000  C
  H1660    1.0000 0.05421  0.73329  0.48081  Biso   1.000  H
  C1602    1.0000 0.03690  0.68040  0.54321  Biso   1.000  C
  H1661    1.0000 0.92649  0.68080  0.44160  Biso   1.000  H
  H1662    1.0000 0.98861  0.67961  0.42649  Biso   1.000  H
  C1603    1.0000 0.97002  0.63152  0.48909  Biso   1.000  C
  C1604    1.0000 0.97002  0.63148  0.48909  Biso   1.000  C
  C1605    1.0000 0.96998  0.63152  0.48909  Biso   1.000  C
  C1606    1.0000 0.96998  0.63148  0.48909  Biso   1.000  C
  H1663    1.0000 0.73329  0.98081  0.55421  Biso   1.000  H
  H1664    1.0000 0.73329  0.98077  0.55421  Biso   1.000  H
  C1607    1.0000 0.68040  0.04321  0.53690  Biso   1.000  C
  C1608    1.0000 0.68040  0.04317  0.53690  Biso   1.000  C
  H1665    1.0000 0.68080  0.94160  0.42649  Biso   1.000  H
  H1666    1.0000 0.67961  0.92649  0.48861  Biso   1.000  H
  C1609    1.0000 0.63152  0.98909  0.46998  Biso   1.000  C
  C1610    1.0000 0.63148  0.98909  0.46998  Biso   1.000  C
  H1667    1.0000 0.01919  0.05421  0.76671  Biso   1.000  H
  C1611    1.0000 0.95679  0.03690  0.81960  Biso   1.000  C
  H1668    1.0000 0.98081  0.94579  0.76671  Biso   1.000  H
  H1669    1.0000 0.98077  0.94579  0.76671  Biso   1.000  H
  C1612    1.0000 0.04321  0.96310  0.81960  Biso   1.000  C
  C1613    1.0000 0.04317  0.96310  0.81960  Biso   1.000  C
  H1670    1.0000 0.07351  0.68080  0.55840  Biso   1.000  H
  H1671    1.0000 0.01139  0.67961  0.57351  Biso   1.000  H
  C1614    1.0000 0.02998  0.63152  0.51091  Biso   1.000  C
  C1615    1.0000 0.02998  0.63148  0.51091  Biso   1.000  C
  H1672    1.0000 0.07347  0.68080  0.55840  Biso   1.000  H
  H1673    1.0000 0.96350  0.59942  0.46690  Biso   1.000  H
  H1674    1.0000 0.94452  0.63132  0.51931  Biso   1.000  H
  H1675    1.0000 0.96350  0.59938  0.46690  Biso   1.000  H
  H1676    1.0000 0.94452  0.63128  0.51931  Biso   1.000  H
  H1677    1.0000 0.94448  0.63132  0.51931  Biso   1.000  H
  H1678    1.0000 0.94448  0.63128  0.51931  Biso   1.000  H
  H1679    1.0000 0.68080  0.05840  0.57351  Biso   1.000  H
  H1680    1.0000 0.67961  0.07351  0.51139  Biso   1.000  H
  C1616    1.0000 0.63152  0.01091  0.52998  Biso   1.000  C
  H1681    1.0000 0.67961  0.07347  0.51139  Biso   1.000  H
  C1617    1.0000 0.63152  0.01087  0.52998  Biso   1.000  C
  C1618    1.0000 0.63148  0.01091  0.52998  Biso   1.000  C
  C1619    1.0000 0.63148  0.01087  0.52998  Biso   1.000  C
  H1682    1.0000 0.59942  0.96690  0.46350  Biso   1.000  H
  H1683    1.0000 0.59938  0.96690  0.46350  Biso   1.000  H
  H1684    1.0000 0.63132  0.01931  0.44448  Biso   1.000  H
  H1685    1.0000 0.63128  0.01931  0.44448  Biso   1.000  H
  H1686    1.0000 0.94160  0.07351  0.81920  Biso   1.000  H
  H1687    1.0000 0.92649  0.01139  0.82039  Biso   1.000  H
  C1620    1.0000 0.98909  0.02998  0.86848  Biso   1.000  C
  H1688    1.0000 0.94160  0.07347  0.81920  Biso   1.000  H
  H1689    1.0000 0.05840  0.92649  0.81920  Biso   1.000  H
  H1690    1.0000 0.07351  0.98861  0.82039  Biso   1.000  H
  C1621    1.0000 0.01091  0.97002  0.86848  Biso   1.000  C
  C1622    1.0000 0.01091  0.96998  0.86848  Biso   1.000  C
  H1691    1.0000 0.07347  0.98861  0.82039  Biso   1.000  H
  C1623    1.0000 0.01087  0.97002  0.86848  Biso   1.000  C
  C1624    1.0000 0.01087  0.96998  0.86848  Biso   1.000  C
  H1692    1.0000 0.03650  0.59942  0.53310  Biso   1.000  H
  H1693    1.0000 0.05548  0.63132  0.48069  Biso   1.000  H
  H1694    1.0000 0.03650  0.59938  0.53310  Biso   1.000  H
  H1695    1.0000 0.05548  0.63128  0.48069  Biso   1.000  H
  H1696    1.0000 0.63132  0.98069  0.55548  Biso   1.000  H
  H1697    1.0000 0.63128  0.98069  0.55548  Biso   1.000  H
  H1698    1.0000 0.59942  0.03310  0.53650  Biso   1.000  H
  H1699    1.0000 0.59938  0.03310  0.53650  Biso   1.000  H
  H1700    1.0000 0.01931  0.05548  0.86868  Biso   1.000  H
  H1701    1.0000 0.96690  0.03650  0.90058  Biso   1.000  H
  H1702    1.0000 0.98069  0.94452  0.86868  Biso   1.000  H
  H1703    1.0000 0.98069  0.94448  0.86868  Biso   1.000  H
  H1704    1.0000 0.03310  0.96350  0.90058  Biso   1.000  H
  C1625    1.0000 0.07071  0.08910  0.35301  Biso   1.000  C
  C1626    1.0000 0.05668  0.13299  0.38491  Biso   1.000  C
  C1627    1.0000 0.11509  0.05668  0.36701  Biso   1.000  C
  C1628    1.0000 0.03682  0.07591  0.30848  Biso   1.000  C
  C1629    1.0000 0.03682  0.07587  0.30848  Biso   1.000  C
  C1630    1.0000 0.03678  0.07591  0.30848  Biso   1.000  C
  C1631    1.0000 0.03678  0.07587  0.30848  Biso   1.000  C
  C1632    1.0000 0.08910  0.14699  0.42929  Biso   1.000  C
  H1705    1.0000 0.02558  0.15318  0.37680  Biso   1.000  H
  C1633    1.0000 0.07067  0.08910  0.35301  Biso   1.000  C
  C1634    1.0000 0.14699  0.07071  0.41090  Biso   1.000  C
  C1635    1.0000 0.14699  0.07067  0.41090  Biso   1.000  C
  H1706    1.0000 0.12320  0.02558  0.34678  Biso   1.000  H
  N334     1.0000 0.04561  0.03722  0.27598  Biso   1.000  N
  H1707    1.0000 0.00580  0.09722  0.30289  Biso   1.000  H
  N335     1.0000 0.04561  0.03718  0.27598  Biso   1.000  N
  H1708    1.0000 0.00580  0.09718  0.30289  Biso   1.000  H
  N336     1.0000 0.04557  0.03722  0.27598  Biso   1.000  N
  N337     1.0000 0.04557  0.03718  0.27598  Biso   1.000  N
  C1636    1.0000 0.13299  0.11509  0.44328  Biso   1.000  C
  C1637    1.0000 0.07591  0.19152  0.46318  Biso   1.000  C
  C1638    1.0000 0.07591  0.19148  0.46318  Biso   1.000  C
  C1639    1.0000 0.07587  0.19152  0.46318  Biso   1.000  C
  C1640    1.0000 0.07587  0.19148  0.46318  Biso   1.000  C
  C1641    1.0000 0.19152  0.03682  0.42409  Biso   1.000  C
  C1642    1.0000 0.19152  0.03678  0.42409  Biso   1.000  C
  C1643    1.0000 0.19148  0.03682  0.42409  Biso   1.000  C
  C1644    1.0000 0.19148  0.03678  0.42409  Biso   1.000  C
  C1645    1.0000 0.01099  0.02810  0.23189  Biso   1.000  C
  H1709    1.0000 0.15318  0.12320  0.47438  Biso   1.000  H
  N338     1.0000 0.03722  0.22402  0.45439  Biso   1.000  N
  H1710    1.0000 0.09722  0.19711  0.49420  Biso   1.000  H
  N339     1.0000 0.03722  0.22398  0.45439  Biso   1.000  N
  H1711    1.0000 0.09722  0.19707  0.49420  Biso   1.000  H
  N340     1.0000 0.03718  0.22402  0.45439  Biso   1.000  N
  H1712    1.0000 0.09718  0.19711  0.49420  Biso   1.000  H
  N341     1.0000 0.03718  0.22398  0.45439  Biso   1.000  N
  H1713    1.0000 0.09718  0.19707  0.49420  Biso   1.000  H
  N342     1.0000 0.22402  0.04561  0.46278  Biso   1.000  N
  H1714    1.0000 0.19711  0.00580  0.40278  Biso   1.000  H
  N343     1.0000 0.22402  0.04557  0.46278  Biso   1.000  N
  N344     1.0000 0.22398  0.04561  0.46278  Biso   1.000  N
  H1715    1.0000 0.19707  0.00580  0.40278  Biso   1.000  H
  N345     1.0000 0.22398  0.04557  0.46278  Biso   1.000  N
  C1646    1.0000 0.98901  0.97190  0.23189  Biso   1.000  C
  H1716    1.0000 0.98081  0.05421  0.23329  Biso   1.000  H
  H1717    1.0000 0.98077  0.05421  0.23329  Biso   1.000  H
  C1647    1.0000 0.04321  0.03690  0.18040  Biso   1.000  C
  C1648    1.0000 0.04317  0.03690  0.18040  Biso   1.000  C
  C1649    1.0000 0.02810  0.26811  0.48901  Biso   1.000  C
  C1650    1.0000 0.02810  0.26807  0.48901  Biso   1.000  C
  C1651    1.0000 0.26811  0.01099  0.47190  Biso   1.000  C
  C1652    1.0000 0.26807  0.01099  0.47190  Biso   1.000  C
  N346     1.0000 0.95439  0.96278  0.27598  Biso   1.000  N
  C1653    1.0000 0.95679  0.96310  0.18040  Biso   1.000  C
  H1718    1.0000 0.01919  0.94579  0.23329  Biso   1.000  H
  H1719    1.0000 0.05840  0.07351  0.18080  Biso   1.000  H
  H1720    1.0000 0.07351  0.01139  0.17961  Biso   1.000  H
  C1654    1.0000 0.01091  0.02998  0.13152  Biso   1.000  C
  H1721    1.0000 0.05840  0.07347  0.18080  Biso   1.000  H
  H1722    1.0000 0.07347  0.01139  0.17961  Biso   1.000  H
  C1655    1.0000 0.01087  0.02998  0.13152  Biso   1.000  C
  C1656    1.0000 0.03690  0.31960  0.45679  Biso   1.000  C
  C1657    1.0000 0.97190  0.26811  0.51099  Biso   1.000  C
  C1658    1.0000 0.97190  0.26807  0.51099  Biso   1.000  C
  H1723    1.0000 0.05421  0.26671  0.51919  Biso   1.000  H
  H1724    1.0000 0.05421  0.26667  0.51919  Biso   1.000  H
  C1659    1.0000 0.26811  0.98901  0.52810  Biso   1.000  C
  H1725    1.0000 0.26671  0.98081  0.44579  Biso   1.000  H
  H1726    1.0000 0.26671  0.98077  0.44579  Biso   1.000  H
  C1660    1.0000 0.26807  0.98901  0.52810  Biso   1.000  C
  H1727    1.0000 0.26667  0.98081  0.44579  Biso   1.000  H
  H1728    1.0000 0.26667  0.98077  0.44579  Biso   1.000  H
  C1661    1.0000 0.31960  0.04321  0.46310  Biso   1.000  C
  C1662    1.0000 0.31960  0.04317  0.46310  Biso   1.000  C
  C1663    1.0000 0.96318  0.92409  0.30848  Biso   1.000  C
  H1729    1.0000 0.94160  0.92649  0.18080  Biso   1.000  H
  H1730    1.0000 0.92649  0.98861  0.17961  Biso   1.000  H
  C1664    1.0000 0.98909  0.97002  0.13152  Biso   1.000  C
  C1665    1.0000 0.98909  0.96998  0.13152  Biso   1.000  C
  H1731    1.0000 0.03310  0.03650  0.09942  Biso   1.000  H
  H1732    1.0000 0.98069  0.05548  0.13132  Biso   1.000  H
  H1733    1.0000 0.01139  0.32039  0.42649  Biso   1.000  H
  C1666    1.0000 0.02998  0.36848  0.48909  Biso   1.000  C
  H1734    1.0000 0.07351  0.31920  0.44160  Biso   1.000  H
  H1735    1.0000 0.07347  0.31920  0.44160  Biso   1.000  H
  N347     1.0000 0.96278  0.22402  0.54561  Biso   1.000  N
  H1736    1.0000 0.94579  0.26671  0.48081  Biso   1.000  H
  C1667    1.0000 0.96310  0.31960  0.54321  Biso   1.000  C
  N348     1.0000 0.96278  0.22398  0.54561  Biso   1.000  N
  H1737    1.0000 0.94579  0.26667  0.48081  Biso   1.000  H
  N349     1.0000 0.22402  0.95439  0.53718  Biso   1.000  N
  C1668    1.0000 0.31960  0.95679  0.53690  Biso   1.000  C
  N350     1.0000 0.22398  0.95439  0.53718  Biso   1.000  N
  H1738    1.0000 0.26671  0.01919  0.55421  Biso   1.000  H
  H1739    1.0000 0.26667  0.01919  0.55421  Biso   1.000  H
  H1740    1.0000 0.31920  0.05840  0.42649  Biso   1.000  H
  H1741    1.0000 0.32039  0.07351  0.48861  Biso   1.000  H
  C1669    1.0000 0.36848  0.01091  0.46998  Biso   1.000  C
  H1742    1.0000 0.32039  0.07347  0.48861  Biso   1.000  H
  C1670    1.0000 0.36848  0.01087  0.46998  Biso   1.000  C
  C1671    1.0000 0.92929  0.91090  0.35301  Biso   1.000  C
  H1743    1.0000 0.99420  0.90278  0.30289  Biso   1.000  H
  H1744    1.0000 0.96690  0.96350  0.09942  Biso   1.000  H
  H1745    1.0000 0.01931  0.94452  0.13132  Biso   1.000  H
  H1746    1.0000 0.01931  0.94448  0.13132  Biso   1.000  H
  H1747    1.0000 0.03650  0.40058  0.46690  Biso   1.000  H
  H1748    1.0000 0.05548  0.36868  0.51931  Biso   1.000  H
  C1672    1.0000 0.97002  0.36848  0.51091  Biso   1.000  C
  C1673    1.0000 0.96998  0.36848  0.51091  Biso   1.000  C
  C1674    1.0000 0.92409  0.19152  0.53678  Biso   1.000  C
  C1675    1.0000 0.92409  0.19148  0.53678  Biso   1.000  C
  H1749    1.0000 0.92649  0.31920  0.55840  Biso   1.000  H
  H1750    1.0000 0.98861  0.32039  0.57351  Biso   1.000  H
  C1676    1.0000 0.19152  0.96318  0.57591  Biso   1.000  C
  C1677    1.0000 0.19148  0.96318  0.57591  Biso   1.000  C
  H1751    1.0000 0.31920  0.94160  0.57351  Biso   1.000  H
  H1752    1.0000 0.32039  0.92649  0.51139  Biso   1.000  H
  C1678    1.0000 0.36848  0.98909  0.52998  Biso   1.000  C
  H1753    1.0000 0.40058  0.03310  0.46350  Biso   1.000  H
  H1754    1.0000 0.36868  0.98069  0.44448  Biso   1.000  H
  C1679    1.0000 0.94332  0.86701  0.38491  Biso   1.000  C
  C1680    1.0000 0.88491  0.94332  0.36701  Biso   1.000  C
  C1681    1.0000 0.88491  0.94328  0.36701  Biso   1.000  C
  C1682    1.0000 0.94328  0.86701  0.38491  Biso   1.000  C
  C1683    1.0000 0.88487  0.94332  0.36701  Biso   1.000  C
  C1684    1.0000 0.88487  0.94328  0.36701  Biso   1.000  C
  H1755    1.0000 0.96350  0.40058  0.53310  Biso   1.000  H
  H1756    1.0000 0.94452  0.36868  0.48069  Biso   1.000  H
  H1757    1.0000 0.94448  0.36868  0.48069  Biso   1.000  H
  C1685    1.0000 0.91090  0.14699  0.57067  Biso   1.000  C
  H1758    1.0000 0.90278  0.19711  0.50580  Biso   1.000  H
  H1759    1.0000 0.90278  0.19707  0.50580  Biso   1.000  H
  C1686    1.0000 0.14699  0.92929  0.58910  Biso   1.000  C
  H1760    1.0000 0.19711  0.99420  0.59718  Biso   1.000  H
  H1761    1.0000 0.19707  0.99420  0.59718  Biso   1.000  H
  H1762    1.0000 0.36868  0.01931  0.55548  Biso   1.000  H
  H1763    1.0000 0.40058  0.96690  0.53650  Biso   1.000  H
  H1764    1.0000 0.97442  0.84682  0.37680  Biso   1.000  H
  C1687    1.0000 0.91090  0.85301  0.42929  Biso   1.000  C
  H1765    1.0000 0.97442  0.84678  0.37680  Biso   1.000  H
  C1688    1.0000 0.91090  0.85297  0.42929  Biso   1.000  C
  H1766    1.0000 0.97438  0.84682  0.37680  Biso   1.000  H
  H1767    1.0000 0.97438  0.84678  0.37680  Biso   1.000  H
  H1768    1.0000 0.87680  0.97442  0.34678  Biso   1.000  H
  C1689    1.0000 0.85301  0.92929  0.41090  Biso   1.000  C
  H1769    1.0000 0.87680  0.97438  0.34678  Biso   1.000  H
  C1690    1.0000 0.85297  0.92929  0.41090  Biso   1.000  C
  C1691    1.0000 0.86701  0.11509  0.55668  Biso   1.000  C
  C1692    1.0000 0.94332  0.13299  0.61509  Biso   1.000  C
  C1693    1.0000 0.94328  0.13299  0.61509  Biso   1.000  C
  C1694    1.0000 0.11509  0.94332  0.63299  Biso   1.000  C
  C1695    1.0000 0.13299  0.88491  0.55668  Biso   1.000  C
  C1696    1.0000 0.11509  0.94328  0.63299  Biso   1.000  C
  C1697    1.0000 0.13299  0.88487  0.55668  Biso   1.000  C
  C1698    1.0000 0.86701  0.88491  0.44328  Biso   1.000  C
  C1699    1.0000 0.92409  0.80848  0.46318  Biso   1.000  C
  C1700    1.0000 0.86701  0.88487  0.44328  Biso   1.000  C
  C1701    1.0000 0.80848  0.96318  0.42409  Biso   1.000  C
  H1770    1.0000 0.84682  0.12320  0.52558  Biso   1.000  H
  C1702    1.0000 0.85301  0.07071  0.58910  Biso   1.000  C
  C1703    1.0000 0.85301  0.07067  0.58910  Biso   1.000  C
  H1771    1.0000 0.84678  0.12320  0.52558  Biso   1.000  H
  C1704    1.0000 0.85297  0.07071  0.58910  Biso   1.000  C
  C1705    1.0000 0.85297  0.07067  0.58910  Biso   1.000  C
  H1772    1.0000 0.97442  0.15318  0.62320  Biso   1.000  H
  C1706    1.0000 0.92929  0.08910  0.64699  Biso   1.000  C
  H1773    1.0000 0.97438  0.15318  0.62320  Biso   1.000  H
  H1774    1.0000 0.12320  0.97442  0.65318  Biso   1.000  H
  C1707    1.0000 0.07071  0.91090  0.64699  Biso   1.000  C
  H1775    1.0000 0.12320  0.97438  0.65318  Biso   1.000  H
  C1708    1.0000 0.07067  0.91090  0.64699  Biso   1.000  C
  H1776    1.0000 0.15318  0.87680  0.52558  Biso   1.000  H
  C1709    1.0000 0.08910  0.85301  0.57067  Biso   1.000  C
  C1710    1.0000 0.08910  0.85297  0.57067  Biso   1.000  C
  H1777    1.0000 0.84682  0.87680  0.47438  Biso   1.000  H
  H1778    1.0000 0.84678  0.87680  0.47438  Biso   1.000  H
  N351     1.0000 0.96278  0.77598  0.45439  Biso   1.000  N
  H1779    1.0000 0.90278  0.80289  0.49420  Biso   1.000  H
  N352     1.0000 0.77598  0.95439  0.46278  Biso   1.000  N
  H1780    1.0000 0.80289  0.99420  0.40278  Biso   1.000  H
  C1711    1.0000 0.88491  0.05668  0.63299  Biso   1.000  C
  C1712    1.0000 0.80848  0.03682  0.57591  Biso   1.000  C
  C1713    1.0000 0.80848  0.03678  0.57591  Biso   1.000  C
  C1714    1.0000 0.88487  0.05668  0.63299  Biso   1.000  C
  C1715    1.0000 0.96318  0.07591  0.69148  Biso   1.000  C
  C1716    1.0000 0.96318  0.07587  0.69148  Biso   1.000  C
  C1717    1.0000 0.05668  0.86701  0.61509  Biso   1.000  C
  C1718    1.0000 0.03682  0.92409  0.69148  Biso   1.000  C
  C1719    1.0000 0.03678  0.92409  0.69148  Biso   1.000  C
  C1720    1.0000 0.07591  0.80848  0.53678  Biso   1.000  C
  C1721    1.0000 0.07587  0.80848  0.53678  Biso   1.000  C
  C1722    1.0000 0.97190  0.73189  0.48901  Biso   1.000  C
  C1723    1.0000 0.73189  0.98901  0.47190  Biso   1.000  C
  H1781    1.0000 0.87680  0.02558  0.65318  Biso   1.000  H
  N353     1.0000 0.77598  0.04561  0.53718  Biso   1.000  N
  H1782    1.0000 0.80289  0.00580  0.59718  Biso   1.000  H
  N354     1.0000 0.77598  0.04557  0.53718  Biso   1.000  N
  N355     1.0000 0.95439  0.03722  0.72398  Biso   1.000  N
  H1783    1.0000 0.99420  0.09722  0.69707  Biso   1.000  H
  N356     1.0000 0.95439  0.03718  0.72398  Biso   1.000  N
  H1784    1.0000 0.99420  0.09718  0.69707  Biso   1.000  H
  H1785    1.0000 0.02558  0.84682  0.62320  Biso   1.000  H
  H1786    1.0000 0.02558  0.84678  0.62320  Biso   1.000  H
  N357     1.0000 0.04561  0.96278  0.72398  Biso   1.000  N
  H1787    1.0000 0.00580  0.90278  0.69707  Biso   1.000  H
  N358     1.0000 0.04557  0.96278  0.72398  Biso   1.000  N
  N359     1.0000 0.03722  0.77598  0.54561  Biso   1.000  N
  H1788    1.0000 0.09722  0.80289  0.50580  Biso   1.000  H
  N360     1.0000 0.03718  0.77598  0.54561  Biso   1.000  N
  H1789    1.0000 0.09718  0.80289  0.50580  Biso   1.000  H
  C1724    1.0000 0.02810  0.73189  0.51099  Biso   1.000  C
  H1790    1.0000 0.94579  0.73329  0.51919  Biso   1.000  H
  C1725    1.0000 0.96310  0.68040  0.45679  Biso   1.000  C
  C1726    1.0000 0.73189  0.01099  0.52810  Biso   1.000  C
  C1727    1.0000 0.68040  0.95679  0.46310  Biso   1.000  C
  H1791    1.0000 0.73329  0.01919  0.44579  Biso   1.000  H
  C1728    1.0000 0.98901  0.02810  0.76811  Biso   1.000  C
  C1729    1.0000 0.01099  0.97190  0.76811  Biso   1.000  C
  H1792    1.0000 0.05421  0.73329  0.48081  Biso   1.000  H
  C1730    1.0000 0.03690  0.68040  0.54321  Biso   1.000  C
  H1793    1.0000 0.92649  0.68080  0.44160  Biso   1.000  H
  H1794    1.0000 0.98861  0.67961  0.42649  Biso   1.000  H
  C1731    1.0000 0.97002  0.63152  0.48909  Biso   1.000  C
  C1732    1.0000 0.97002  0.63148  0.48909  Biso   1.000  C
  C1733    1.0000 0.96998  0.63152  0.48909  Biso   1.000  C
  C1734    1.0000 0.96998  0.63148  0.48909  Biso   1.000  C
  H1795    1.0000 0.73329  0.98081  0.55421  Biso   1.000  H
  H1796    1.0000 0.73329  0.98077  0.55421  Biso   1.000  H
  C1735    1.0000 0.68040  0.04321  0.53690  Biso   1.000  C
  C1736    1.0000 0.68040  0.04317  0.53690  Biso   1.000  C
  H1797    1.0000 0.68080  0.94160  0.42649  Biso   1.000  H
  H1798    1.0000 0.67961  0.92649  0.48861  Biso   1.000  H
  C1737    1.0000 0.63152  0.98909  0.46998  Biso   1.000  C
  C1738    1.0000 0.63148  0.98909  0.46998  Biso   1.000  C
  H1799    1.0000 0.01919  0.05421  0.76671  Biso   1.000  H
  C1739    1.0000 0.95679  0.03690  0.81960  Biso   1.000  C
  H1800    1.0000 0.98081  0.94579  0.76671  Biso   1.000  H
  H1801    1.0000 0.98077  0.94579  0.76671  Biso   1.000  H
  C1740    1.0000 0.04321  0.96310  0.81960  Biso   1.000  C
  C1741    1.0000 0.04317  0.96310  0.81960  Biso   1.000  C
  H1802    1.0000 0.07351  0.68080  0.55840  Biso   1.000  H
  H1803    1.0000 0.01139  0.67961  0.57351  Biso   1.000  H
  C1742    1.0000 0.02998  0.63152  0.51091  Biso   1.000  C
  C1743    1.0000 0.02998  0.63148  0.51091  Biso   1.000  C
  H1804    1.0000 0.07347  0.68080  0.55840  Biso   1.000  H
  H1805    1.0000 0.96350  0.59942  0.46690  Biso   1.000  H
  H1806    1.0000 0.94452  0.63132  0.51931  Biso   1.000  H
  H1807    1.0000 0.96350  0.59938  0.46690  Biso   1.000  H
  H1808    1.0000 0.94452  0.63128  0.51931  Biso   1.000  H
  H1809    1.0000 0.94448  0.63132  0.51931  Biso   1.000  H
  H1810    1.0000 0.94448  0.63128  0.51931  Biso   1.000  H
  H1811    1.0000 0.68080  0.05840  0.57351  Biso   1.000  H
  H1812    1.0000 0.67961  0.07351  0.51139  Biso   1.000  H
  C1744    1.0000 0.63152  0.01091  0.52998  Biso   1.000  C
  H1813    1.0000 0.67961  0.07347  0.51139  Biso   1.000  H
  C1745    1.0000 0.63152  0.01087  0.52998  Biso   1.000  C
  C1746    1.0000 0.63148  0.01091  0.52998  Biso   1.000  C
  C1747    1.0000 0.63148  0.01087  0.52998  Biso   1.000  C
  H1814    1.0000 0.59942  0.96690  0.46350  Biso   1.000  H
  H1815    1.0000 0.59938  0.96690  0.46350  Biso   1.000  H
  H1816    1.0000 0.63132  0.01931  0.44448  Biso   1.000  H
  H1817    1.0000 0.63128  0.01931  0.44448  Biso   1.000  H
  H1818    1.0000 0.94160  0.07351  0.81920  Biso   1.000  H
  H1819    1.0000 0.92649  0.01139  0.82039  Biso   1.000  H
  C1748    1.0000 0.98909  0.02998  0.86848  Biso   1.000  C
  H1820    1.0000 0.94160  0.07347  0.81920  Biso   1.000  H
  H1821    1.0000 0.05840  0.92649  0.81920  Biso   1.000  H
  H1822    1.0000 0.07351  0.98861  0.82039  Biso   1.000  H
  C1749    1.0000 0.01091  0.97002  0.86848  Biso   1.000  C
  C1750    1.0000 0.01091  0.96998  0.86848  Biso   1.000  C
  H1823    1.0000 0.07347  0.98861  0.82039  Biso   1.000  H
  C1751    1.0000 0.01087  0.97002  0.86848  Biso   1.000  C
  C1752    1.0000 0.01087  0.96998  0.86848  Biso   1.000  C
  H1824    1.0000 0.03650  0.59942  0.53310  Biso   1.000  H
  H1825    1.0000 0.05548  0.63132  0.48069  Biso   1.000  H
  H1826    1.0000 0.03650  0.59938  0.53310  Biso   1.000  H
  H1827    1.0000 0.05548  0.63128  0.48069  Biso   1.000  H
  H1828    1.0000 0.63132  0.98069  0.55548  Biso   1.000  H
  H1829    1.0000 0.63128  0.98069  0.55548  Biso   1.000  H
  H1830    1.0000 0.59942  0.03310  0.53650  Biso   1.000  H
  H1831    1.0000 0.59938  0.03310  0.53650  Biso   1.000  H
  H1832    1.0000 0.01931  0.05548  0.86868  Biso   1.000  H
  H1833    1.0000 0.96690  0.03650  0.90058  Biso   1.000  H
  H1834    1.0000 0.98069  0.94452  0.86868  Biso   1.000  H
  H1835    1.0000 0.98069  0.94448  0.86868  Biso   1.000  H
  H1836    1.0000 0.03310  0.96350  0.90058  Biso   1.000  H
  C1753    1.0000 0.42929  0.41090  0.35301  Biso   1.000  C
  C1754    1.0000 0.38491  0.44328  0.36701  Biso   1.000  C
  C1755    1.0000 0.44328  0.36701  0.38491  Biso   1.000  C
  C1756    1.0000 0.46318  0.42409  0.30848  Biso   1.000  C
  H1837    1.0000 0.37680  0.47438  0.34678  Biso   1.000  H
  C1757    1.0000 0.35301  0.42929  0.41090  Biso   1.000  C
  H1838    1.0000 0.47438  0.34678  0.37680  Biso   1.000  H
  C1758    1.0000 0.41090  0.35301  0.42929  Biso   1.000  C
  N361     1.0000 0.45439  0.46278  0.27598  Biso   1.000  N
  H1839    1.0000 0.49420  0.40278  0.30289  Biso   1.000  H
  C1759    1.0000 0.36701  0.38491  0.44328  Biso   1.000  C
  C1760    1.0000 0.30848  0.46318  0.42409  Biso   1.000  C
  C1761    1.0000 0.42409  0.30848  0.46318  Biso   1.000  C
  C1762    1.0000 0.48901  0.47190  0.23189  Biso   1.000  C
  H1840    1.0000 0.34678  0.37680  0.47438  Biso   1.000  H
  N362     1.0000 0.27598  0.45439  0.46278  Biso   1.000  N
  H1841    1.0000 0.30289  0.49420  0.40278  Biso   1.000  H
  N363     1.0000 0.46278  0.27598  0.45439  Biso   1.000  N
  H1842    1.0000 0.40278  0.30289  0.49420  Biso   1.000  H
  C1763    1.0000 0.51099  0.52810  0.23189  Biso   1.000  C
  H1843    1.0000 0.51919  0.44579  0.23329  Biso   1.000  H
  C1764    1.0000 0.45679  0.46310  0.18040  Biso   1.000  C
  C1765    1.0000 0.23189  0.48901  0.47190  Biso   1.000  C
  C1766    1.0000 0.47190  0.23189  0.48901  Biso   1.000  C
  N364     1.0000 0.54561  0.53718  0.27598  Biso   1.000  N
  H1844    1.0000 0.48081  0.55421  0.23329  Biso   1.000  H
  C1767    1.0000 0.54321  0.53690  0.18040  Biso   1.000  C
  H1845    1.0000 0.44160  0.42649  0.18080  Biso   1.000  H
  H1846    1.0000 0.42649  0.48861  0.17961  Biso   1.000  H
  C1768    1.0000 0.48909  0.46998  0.13152  Biso   1.000  C
  C1769    1.0000 0.23189  0.51099  0.52810  Biso   1.000  C
  H1847    1.0000 0.23329  0.51919  0.44579  Biso   1.000  H
  C1770    1.0000 0.18040  0.45679  0.46310  Biso   1.000  C
  C1771    1.0000 0.52810  0.23189  0.51099  Biso   1.000  C
  H1848    1.0000 0.44579  0.23329  0.51919  Biso   1.000  H
  C1772    1.0000 0.46310  0.18040  0.45679  Biso   1.000  C
  C1773    1.0000 0.53678  0.57591  0.30848  Biso   1.000  C
  H1849    1.0000 0.55840  0.57351  0.18080  Biso   1.000  H
  H1850    1.0000 0.57351  0.51139  0.17961  Biso   1.000  H
  C1774    1.0000 0.51091  0.52998  0.13152  Biso   1.000  C
  H1851    1.0000 0.46690  0.46350  0.09942  Biso   1.000  H
  H1852    1.0000 0.51931  0.44448  0.13132  Biso   1.000  H
  N365     1.0000 0.27598  0.54561  0.53718  Biso   1.000  N
  H1853    1.0000 0.23329  0.48081  0.55421  Biso   1.000  H
  C1775    1.0000 0.18040  0.54321  0.53690  Biso   1.000  C
  H1854    1.0000 0.18080  0.44160  0.42649  Biso   1.000  H
  H1855    1.0000 0.17961  0.42649  0.48861  Biso   1.000  H
  C1776    1.0000 0.13152  0.48909  0.46998  Biso   1.000  C
  N366     1.0000 0.53718  0.27598  0.54561  Biso   1.000  N
  H1856    1.0000 0.55421  0.23329  0.48081  Biso   1.000  H
  C1777    1.0000 0.53690  0.18040  0.54321  Biso   1.000  C
  H1857    1.0000 0.42649  0.18080  0.44160  Biso   1.000  H
  H1858    1.0000 0.48861  0.17961  0.42649  Biso   1.000  H
  C1778    1.0000 0.46998  0.13152  0.48909  Biso   1.000  C
  C1779    1.0000 0.57067  0.58910  0.35301  Biso   1.000  C
  H1859    1.0000 0.50580  0.59718  0.30289  Biso   1.000  H
  H1860    1.0000 0.53310  0.53650  0.09942  Biso   1.000  H
  H1861    1.0000 0.48069  0.55548  0.13132  Biso   1.000  H
  C1780    1.0000 0.30848  0.53678  0.57591  Biso   1.000  C
  H1862    1.0000 0.18080  0.55840  0.57351  Biso   1.000  H
  H1863    1.0000 0.17961  0.57351  0.51139  Biso   1.000  H
  C1781    1.0000 0.13152  0.51091  0.52998  Biso   1.000  C
  H1864    1.0000 0.09942  0.46690  0.46350  Biso   1.000  H
  H1865    1.0000 0.13132  0.51931  0.44448  Biso   1.000  H
  C1782    1.0000 0.57591  0.30848  0.53678  Biso   1.000  C
  H1866    1.0000 0.57351  0.18080  0.55840  Biso   1.000  H
  H1867    1.0000 0.51139  0.17961  0.57351  Biso   1.000  H
  C1783    1.0000 0.52998  0.13152  0.51091  Biso   1.000  C
  H1868    1.0000 0.46350  0.09942  0.46690  Biso   1.000  H
  H1869    1.0000 0.44448  0.13132  0.51931  Biso   1.000  H
  C1784    1.0000 0.61509  0.55668  0.36701  Biso   1.000  C
  C1785    1.0000 0.55668  0.63299  0.38491  Biso   1.000  C
  C1786    1.0000 0.35301  0.57067  0.58910  Biso   1.000  C
  H1870    1.0000 0.30289  0.50580  0.59718  Biso   1.000  H
  H1871    1.0000 0.09942  0.53310  0.53650  Biso   1.000  H
  H1872    1.0000 0.13132  0.48069  0.55548  Biso   1.000  H
  C1787    1.0000 0.58910  0.35301  0.57067  Biso   1.000  C
  H1873    1.0000 0.59718  0.30289  0.50580  Biso   1.000  H
  H1874    1.0000 0.53650  0.09942  0.53310  Biso   1.000  H
  H1875    1.0000 0.55548  0.13132  0.48069  Biso   1.000  H
  H1876    1.0000 0.62320  0.52558  0.34678  Biso   1.000  H
  C1788    1.0000 0.64699  0.57067  0.41090  Biso   1.000  C
  H1877    1.0000 0.52558  0.65318  0.37680  Biso   1.000  H
  C1789    1.0000 0.58910  0.64699  0.42929  Biso   1.000  C
  C1790    1.0000 0.38491  0.55668  0.63299  Biso   1.000  C
  C1791    1.0000 0.36701  0.61509  0.55668  Biso   1.000  C
  C1792    1.0000 0.55668  0.36701  0.61509  Biso   1.000  C
  C1793    1.0000 0.63299  0.38491  0.55668  Biso   1.000  C
  C1794    1.0000 0.63299  0.61509  0.44328  Biso   1.000  C
  C1795    1.0000 0.69148  0.53678  0.42409  Biso   1.000  C
  C1796    1.0000 0.57591  0.69148  0.46318  Biso   1.000  C
  H1878    1.0000 0.37680  0.52558  0.65318  Biso   1.000  H
  C1797    1.0000 0.42929  0.58910  0.64699  Biso   1.000  C
  H1879    1.0000 0.34678  0.62320  0.52558  Biso   1.000  H
  C1798    1.0000 0.41090  0.64699  0.57067  Biso   1.000  C
  H1880    1.0000 0.52558  0.34678  0.62320  Biso   1.000  H
  C1799    1.0000 0.57067  0.41090  0.64699  Biso   1.000  C
  H1881    1.0000 0.65318  0.37680  0.52558  Biso   1.000  H
  C1800    1.0000 0.64699  0.42929  0.58910  Biso   1.000  C
  H1882    1.0000 0.65318  0.62320  0.47438  Biso   1.000  H
  N367     1.0000 0.72398  0.54561  0.46278  Biso   1.000  N
  H1883    1.0000 0.69707  0.50580  0.40278  Biso   1.000  H
  N368     1.0000 0.53718  0.72398  0.45439  Biso   1.000  N
  H1884    1.0000 0.59718  0.69707  0.49420  Biso   1.000  H
  C1801    1.0000 0.44328  0.63299  0.61509  Biso   1.000  C
  C1802    1.0000 0.46318  0.57591  0.69148  Biso   1.000  C
  C1803    1.0000 0.42409  0.69148  0.53678  Biso   1.000  C
  C1804    1.0000 0.61509  0.44328  0.63299  Biso   1.000  C
  C1805    1.0000 0.53678  0.42409  0.69148  Biso   1.000  C
  C1806    1.0000 0.69148  0.46318  0.57591  Biso   1.000  C
  C1807    1.0000 0.76811  0.51099  0.47190  Biso   1.000  C
  C1808    1.0000 0.52810  0.76811  0.48901  Biso   1.000  C
  H1885    1.0000 0.47438  0.65318  0.62320  Biso   1.000  H
  N369     1.0000 0.45439  0.53718  0.72398  Biso   1.000  N
  H1886    1.0000 0.49420  0.59718  0.69707  Biso   1.000  H
  N370     1.0000 0.46278  0.72398  0.54561  Biso   1.000  N
  H1887    1.0000 0.40278  0.69707  0.50580  Biso   1.000  H
  H1888    1.0000 0.62320  0.47438  0.65318  Biso   1.000  H
  N371     1.0000 0.54561  0.46278  0.72398  Biso   1.000  N
  H1889    1.0000 0.50580  0.40278  0.69707  Biso   1.000  H
  N372     1.0000 0.72398  0.45439  0.53718  Biso   1.000  N
  H1890    1.0000 0.69707  0.49420  0.59718  Biso   1.000  H
  C1809    1.0000 0.76811  0.48901  0.52810  Biso   1.000  C
  H1891    1.0000 0.76671  0.48081  0.44579  Biso   1.000  H
  C1810    1.0000 0.81960  0.54321  0.46310  Biso   1.000  C
  C1811    1.0000 0.47190  0.76811  0.51099  Biso   1.000  C
  H1892    1.0000 0.55421  0.76671  0.51919  Biso   1.000  H
  C1812    1.0000 0.53690  0.81960  0.45679  Biso   1.000  C
  C1813    1.0000 0.48901  0.52810  0.76811  Biso   1.000  C
  C1814    1.0000 0.51099  0.47190  0.76811  Biso   1.000  C
  H1893    1.0000 0.76671  0.51919  0.55421  Biso   1.000  H
  C1815    1.0000 0.81960  0.45679  0.53690  Biso   1.000  C
  H1894    1.0000 0.81920  0.55840  0.42649  Biso   1.000  H
  H1895    1.0000 0.82039  0.57351  0.48861  Biso   1.000  H
  C1816    1.0000 0.86848  0.51091  0.46998  Biso   1.000  C
  H1896    1.0000 0.44579  0.76671  0.48081  Biso   1.000  H
  C1817    1.0000 0.46310  0.81960  0.54321  Biso   1.000  C
  H1897    1.0000 0.57351  0.81920  0.44160  Biso   1.000  H
  H1898    1.0000 0.51139  0.82039  0.42649  Biso   1.000  H
  C1818    1.0000 0.52998  0.86848  0.48909  Biso   1.000  C
  H1899    1.0000 0.51919  0.55421  0.76671  Biso   1.000  H
  C1819    1.0000 0.45679  0.53690  0.81960  Biso   1.000  C
  H1900    1.0000 0.48081  0.44579  0.76671  Biso   1.000  H
  C1820    1.0000 0.54321  0.46310  0.81960  Biso   1.000  C
  H1901    1.0000 0.81920  0.44160  0.57351  Biso   1.000  H
  H1902    1.0000 0.82039  0.42649  0.51139  Biso   1.000  H
  C1821    1.0000 0.86848  0.48909  0.52998  Biso   1.000  C
  H1903    1.0000 0.90058  0.53310  0.46350  Biso   1.000  H
  H1904    1.0000 0.86868  0.48069  0.44448  Biso   1.000  H
  H1905    1.0000 0.42649  0.81920  0.55840  Biso   1.000  H
  H1906    1.0000 0.48861  0.82039  0.57351  Biso   1.000  H
  C1822    1.0000 0.46998  0.86848  0.51091  Biso   1.000  C
  H1907    1.0000 0.53650  0.90058  0.46690  Biso   1.000  H
  H1908    1.0000 0.55548  0.86868  0.51931  Biso   1.000  H
  H1909    1.0000 0.44160  0.57351  0.81920  Biso   1.000  H
  H1910    1.0000 0.42649  0.51139  0.82039  Biso   1.000  H
  C1823    1.0000 0.48909  0.52998  0.86848  Biso   1.000  C
  H1911    1.0000 0.55840  0.42649  0.81920  Biso   1.000  H
  H1912    1.0000 0.57351  0.48861  0.82039  Biso   1.000  H
  C1824    1.0000 0.51091  0.46998  0.86848  Biso   1.000  C
  H1913    1.0000 0.90058  0.46690  0.53650  Biso   1.000  H
  H1914    1.0000 0.86868  0.51931  0.55548  Biso   1.000  H
  H1915    1.0000 0.46350  0.90058  0.53310  Biso   1.000  H
  H1916    1.0000 0.44448  0.86868  0.48069  Biso   1.000  H
  H1917    1.0000 0.46690  0.53650  0.90058  Biso   1.000  H
  H1918    1.0000 0.51931  0.55548  0.86868  Biso   1.000  H
  H1919    1.0000 0.53310  0.46350  0.90058  Biso   1.000  H
  H1920    1.0000 0.48069  0.44448  0.86868  Biso   1.000  H
  C1825    1.0000 0.76087  0.38148  0.71998  Biso   1.000  C
  C1826    1.0000 0.79317  0.43040  0.71310  Biso   1.000  C
  C1827    1.0000 0.73909  0.38148  0.77998  Biso   1.000  C
  H1921    1.0000 0.78310  0.34938  0.71350  Biso   1.000  H
  H1922    1.0000 0.73069  0.38128  0.69448  Biso   1.000  H
  C1828    1.0000 0.76099  0.48189  0.72190  Biso   1.000  C
  H1923    1.0000 0.80840  0.43080  0.67649  Biso   1.000  H
  H1924    1.0000 0.82347  0.42961  0.73861  Biso   1.000  H
  C1829    1.0000 0.70679  0.43040  0.78690  Biso   1.000  C
  H1925    1.0000 0.71690  0.34938  0.78650  Biso   1.000  H
  H1926    1.0000 0.76931  0.38128  0.80548  Biso   1.000  H
  N373     1.0000 0.79557  0.52598  0.71278  Biso   1.000  N
  C1830    1.0000 0.73901  0.48189  0.77810  Biso   1.000  C
  H1927    1.0000 0.73077  0.48329  0.69579  Biso   1.000  H
  H1928    1.0000 0.69160  0.43080  0.82347  Biso   1.000  H
  H1929    1.0000 0.67649  0.42961  0.76139  Biso   1.000  H
  C1831    1.0000 0.78678  0.55848  0.67409  Biso   1.000  C
  N374     1.0000 0.70439  0.52598  0.78718  Biso   1.000  N
  H1930    1.0000 0.76919  0.48329  0.80421  Biso   1.000  H
  C1832    1.0000 0.82067  0.60297  0.66090  Biso   1.000  C
  H1931    1.0000 0.75580  0.55289  0.65278  Biso   1.000  H
  C1833    1.0000 0.71318  0.55848  0.82587  Biso   1.000  C
  C1834    1.0000 0.80668  0.63487  0.61701  Biso   1.000  C
  C1835    1.0000 0.86509  0.61701  0.69328  Biso   1.000  C
  C1836    1.0000 0.67929  0.60297  0.83910  Biso   1.000  C
  H1932    1.0000 0.74420  0.55289  0.84718  Biso   1.000  H
  H1933    1.0000 0.77558  0.62680  0.59678  Biso   1.000  H
  C1837    1.0000 0.83910  0.67929  0.60297  Biso   1.000  C
  H1934    1.0000 0.87320  0.59678  0.72438  Biso   1.000  H
  C1838    1.0000 0.89699  0.66090  0.67929  Biso   1.000  C
  C1839    1.0000 0.63487  0.61701  0.80668  Biso   1.000  C
  C1840    1.0000 0.69328  0.63487  0.88299  Biso   1.000  C
  C1841    1.0000 0.88299  0.69328  0.63487  Biso   1.000  C
  C1842    1.0000 0.82587  0.71318  0.55848  Biso   1.000  C
  C1843    1.0000 0.94148  0.67409  0.71318  Biso   1.000  C
  H1935    1.0000 0.62680  0.59678  0.77558  Biso   1.000  H
  C1844    1.0000 0.60297  0.66090  0.82067  Biso   1.000  C
  H1936    1.0000 0.72438  0.62680  0.90318  Biso   1.000  H
  C1845    1.0000 0.66090  0.67929  0.89699  Biso   1.000  C
  H1937    1.0000 0.90318  0.72438  0.62680  Biso   1.000  H
  N375     1.0000 0.78718  0.70439  0.52598  Biso   1.000  N
  H1938    1.0000 0.84718  0.74420  0.55289  Biso   1.000  H
  N376     1.0000 0.97398  0.71278  0.70439  Biso   1.000  N
  H1939    1.0000 0.94707  0.65278  0.74420  Biso   1.000  H
  C1846    1.0000 0.55848  0.67409  0.78678  Biso   1.000  C
  C1847    1.0000 0.61701  0.69328  0.86509  Biso   1.000  C
  C1848    1.0000 0.67409  0.71318  0.94148  Biso   1.000  C
  C1849    1.0000 0.77810  0.73901  0.48189  Biso   1.000  C
  C1850    1.0000 0.01807  0.72190  0.73901  Biso   1.000  C
  N377     1.0000 0.52598  0.71278  0.79557  Biso   1.000  N
  H1940    1.0000 0.55289  0.65278  0.75580  Biso   1.000  H
  H1941    1.0000 0.59678  0.72438  0.87320  Biso   1.000  H
  N378     1.0000 0.71278  0.70439  0.97398  Biso   1.000  N
  H1942    1.0000 0.65278  0.74420  0.94707  Biso   1.000  H
  C1851    1.0000 0.72190  0.76099  0.48189  Biso   1.000  C
  H1943    1.0000 0.80421  0.76919  0.48329  Biso   1.000  H
  C1852    1.0000 0.78690  0.70679  0.43040  Biso   1.000  C
  C1853    1.0000 0.01807  0.77810  0.76099  Biso   1.000  C
  H1944    1.0000 0.01667  0.69579  0.76919  Biso   1.000  H
  C1854    1.0000 0.06960  0.71310  0.70679  Biso   1.000  C
  C1855    1.0000 0.48189  0.72190  0.76099  Biso   1.000  C
  C1856    1.0000 0.72190  0.73901  0.01807  Biso   1.000  C
  N379     1.0000 0.71278  0.79557  0.52598  Biso   1.000  N
  H1945    1.0000 0.69579  0.73077  0.48329  Biso   1.000  H
  C1857    1.0000 0.71310  0.79317  0.43040  Biso   1.000  C
  H1946    1.0000 0.82347  0.69160  0.43080  Biso   1.000  H
  H1947    1.0000 0.76139  0.67649  0.42961  Biso   1.000  H
  C1858    1.0000 0.77998  0.73909  0.38148  Biso   1.000  C
  N380     1.0000 0.97398  0.78718  0.79557  Biso   1.000  N
  H1948    1.0000 0.01667  0.80421  0.73077  Biso   1.000  H
  C1859    1.0000 0.06960  0.78690  0.79317  Biso   1.000  C
  H1949    1.0000 0.06920  0.67649  0.69160  Biso   1.000  H
  H1950    1.0000 0.07039  0.73861  0.67649  Biso   1.000  H
  C1860    1.0000 0.11848  0.71998  0.73909  Biso   1.000  C
  H1951    1.0000 0.48329  0.69579  0.73077  Biso   1.000  H
  C1861    1.0000 0.43040  0.71310  0.79317  Biso   1.000  C
  C1862    1.0000 0.48189  0.77810  0.73901  Biso   1.000  C
  C1863    1.0000 0.77810  0.76099  0.01807  Biso   1.000  C
  H1952    1.0000 0.69579  0.76919  0.01667  Biso   1.000  H
  C1864    1.0000 0.71310  0.70679  0.06960  Biso   1.000  C
  C1865    1.0000 0.67409  0.78678  0.55848  Biso   1.000  C
  H1953    1.0000 0.67649  0.80840  0.43080  Biso   1.000  H
  H1954    1.0000 0.73861  0.82347  0.42961  Biso   1.000  H
  C1866    1.0000 0.71998  0.76087  0.38148  Biso   1.000  C
  H1955    1.0000 0.78650  0.71690  0.34938  Biso   1.000  H
  H1956    1.0000 0.80548  0.76931  0.38128  Biso   1.000  H
  C1867    1.0000 0.94148  0.82587  0.78678  Biso   1.000  C
  H1957    1.0000 0.06920  0.82347  0.80840  Biso   1.000  H
  H1958    1.0000 0.07039  0.76139  0.82347  Biso   1.000  H
  C1868    1.0000 0.11848  0.77998  0.76087  Biso   1.000  C
  H1959    1.0000 0.15058  0.71350  0.71690  Biso   1.000  H
  H1960    1.0000 0.11868  0.69448  0.76931  Biso   1.000  H
  H1961    1.0000 0.43080  0.67649  0.80840  Biso   1.000  H
  H1962    1.0000 0.42961  0.73861  0.82347  Biso   1.000  H
  C1869    1.0000 0.38148  0.71998  0.76087  Biso   1.000  C
  N381     1.0000 0.52598  0.78718  0.70439  Biso   1.000  N
  H1963    1.0000 0.48329  0.80421  0.76919  Biso   1.000  H
  C1870    1.0000 0.43040  0.78690  0.70679  Biso   1.000  C
  N382     1.0000 0.78718  0.79557  0.97398  Biso   1.000  N
  H1964    1.0000 0.80421  0.73077  0.01667  Biso   1.000  H
  C1871    1.0000 0.78690  0.79317  0.06960  Biso   1.000  C
  H1965    1.0000 0.67649  0.69160  0.06920  Biso   1.000  H
  H1966    1.0000 0.73861  0.67649  0.07039  Biso   1.000  H
  C1872    1.0000 0.71998  0.73909  0.11848  Biso   1.000  C
  C1873    1.0000 0.66090  0.82067  0.60297  Biso   1.000  C
  H1967    1.0000 0.65278  0.75580  0.55289  Biso   1.000  H
  H1968    1.0000 0.71350  0.78310  0.34938  Biso   1.000  H
  H1969    1.0000 0.69448  0.73069  0.38128  Biso   1.000  H
  C1874    1.0000 0.89699  0.83910  0.82067  Biso   1.000  C
  H1970    1.0000 0.94707  0.84718  0.75580  Biso   1.000  H
  H1971    1.0000 0.15058  0.78650  0.78310  Biso   1.000  H
  H1972    1.0000 0.11868  0.80548  0.73069  Biso   1.000  H
  H1973    1.0000 0.34938  0.71350  0.78310  Biso   1.000  H
  H1974    1.0000 0.38128  0.69448  0.73069  Biso   1.000  H
  C1875    1.0000 0.38148  0.77998  0.73909  Biso   1.000  C
  C1876    1.0000 0.55848  0.82587  0.71318  Biso   1.000  C
  H1975    1.0000 0.43080  0.82347  0.69160  Biso   1.000  H
  H1976    1.0000 0.42961  0.76139  0.67649  Biso   1.000  H
  C1877    1.0000 0.82587  0.78678  0.94148  Biso   1.000  C
  H1977    1.0000 0.82347  0.80840  0.06920  Biso   1.000  H
  H1978    1.0000 0.76139  0.82347  0.07039  Biso   1.000  H
  C1878    1.0000 0.77998  0.76087  0.11848  Biso   1.000  C
  H1979    1.0000 0.71350  0.71690  0.15058  Biso   1.000  H
  H1980    1.0000 0.69448  0.76931  0.11868  Biso   1.000  H
  C1879    1.0000 0.69328  0.86509  0.61701  Biso   1.000  C
  C1880    1.0000 0.61701  0.80668  0.63487  Biso   1.000  C
  C1881    1.0000 0.88299  0.80668  0.86509  Biso   1.000  C
  C1882    1.0000 0.86509  0.88299  0.80668  Biso   1.000  C
  H1981    1.0000 0.34938  0.78650  0.71690  Biso   1.000  H
  H1982    1.0000 0.38128  0.80548  0.76931  Biso   1.000  H
  C1883    1.0000 0.60297  0.83910  0.67929  Biso   1.000  C
  H1983    1.0000 0.55289  0.84718  0.74420  Biso   1.000  H
  C1884    1.0000 0.83910  0.82067  0.89699  Biso   1.000  C
  H1984    1.0000 0.84718  0.75580  0.94707  Biso   1.000  H
  H1985    1.0000 0.78650  0.78310  0.15058  Biso   1.000  H
  H1986    1.0000 0.80548  0.73069  0.11868  Biso   1.000  H
  H1987    1.0000 0.72438  0.87320  0.59678  Biso   1.000  H
  C1885    1.0000 0.67929  0.89699  0.66090  Biso   1.000  C
  H1988    1.0000 0.59678  0.77558  0.62680  Biso   1.000  H
  H1989    1.0000 0.90318  0.77558  0.87320  Biso   1.000  H
  H1990    1.0000 0.87320  0.90318  0.77558  Biso   1.000  H
  C1886    1.0000 0.82067  0.89699  0.83910  Biso   1.000  C
  C1887    1.0000 0.63487  0.88299  0.69328  Biso   1.000  C
  C1888    1.0000 0.80668  0.86509  0.88299  Biso   1.000  C
  C1889    1.0000 0.71318  0.94148  0.67409  Biso   1.000  C
  C1890    1.0000 0.78678  0.94148  0.82587  Biso   1.000  C
  H1991    1.0000 0.62680  0.90318  0.72438  Biso   1.000  H
  H1992    1.0000 0.77558  0.87320  0.90318  Biso   1.000  H
  N383     1.0000 0.70439  0.97398  0.71278  Biso   1.000  N
  H1993    1.0000 0.74420  0.94707  0.65278  Biso   1.000  H
  N384     1.0000 0.79557  0.97398  0.78718  Biso   1.000  N
  H1994    1.0000 0.75580  0.94707  0.84718  Biso   1.000  H
  C1891    1.0000 0.73901  0.01807  0.72190  Biso   1.000  C
  C1892    1.0000 0.76099  0.01807  0.77810  Biso   1.000  C
  H1995    1.0000 0.76919  0.01667  0.69579  Biso   1.000  H
  C1893    1.0000 0.70679  0.06960  0.71310  Biso   1.000  C
  H1996    1.0000 0.73077  0.01667  0.80421  Biso   1.000  H
  C1894    1.0000 0.79317  0.06960  0.78690  Biso   1.000  C
  H1997    1.0000 0.69160  0.06920  0.67649  Biso   1.000  H
  H1998    1.0000 0.67649  0.07039  0.73861  Biso   1.000  H
  C1895    1.0000 0.73909  0.11848  0.71998  Biso   1.000  C
  H1999    1.0000 0.80840  0.06920  0.82347  Biso   1.000  H
  H2000    1.0000 0.82347  0.07039  0.76139  Biso   1.000  H
  C1896    1.0000 0.76087  0.11848  0.77998  Biso   1.000  C
  H2001    1.0000 0.71690  0.15058  0.71350  Biso   1.000  H
  H2002    1.0000 0.76931  0.11868  0.69448  Biso   1.000  H
  H2003    1.0000 0.78310  0.15058  0.78650  Biso   1.000  H
  H2004    1.0000 0.73069  0.11868  0.80548  Biso   1.000  H
