data_image0
_cell_length_a       44.283
_cell_length_b       31.672
_cell_length_c       37.209
_cell_angle_alpha    90
_cell_angle_beta     105.33
_cell_angle_gamma    90

_symmetry_space_group_name_H-M    "P 1"
_symmetry_int_tables_number       1

loop_
  _symmetry_equiv_pos_as_xyz
  'x, y, z'

loop_
  _atom_site_label
  _atom_site_occupancy
  _atom_site_fract_x
  _atom_site_fract_y
  _atom_site_fract_z
  _atom_site_thermal_displace_type
  _atom_site_B_iso_or_equiv
  _atom_site_type_symbol
  C1       1.0000 0.56210  0.51238  0.45242  Biso   1.000  C
  N1       1.0000 0.54342  0.49946  0.41711  Biso   1.000  N
  N2       1.0000 0.58666  0.48295  0.46822  Biso   1.000  N
  C2       1.0000 0.51574  0.47272  0.41073  Biso   1.000  C
  C3       1.0000 0.54227  0.52479  0.38604  Biso   1.000  C
  C4       1.0000 0.58243  0.44535  0.48811  Biso   1.000  C
  C5       1.0000 0.61860  0.49144  0.47435  Biso   1.000  C
  C6       1.0000 0.50019  0.47859  0.36851  Biso   1.000  C
  N3       1.0000 0.52129  0.42953  0.41499  Biso   1.000  N
  N4       1.0000 0.51713  0.51266  0.35784  Biso   1.000  N
  O1       1.0000 0.56043  0.55320  0.38439  Biso   1.000  O
  N5       1.0000 0.56710  0.41074  0.46565  Biso   1.000  N
  C7       1.0000 0.61480  0.42899  0.50525  Biso   1.000  C
  N6       1.0000 0.63523  0.46047  0.49363  Biso   1.000  N
  O2       1.0000 0.62816  0.52460  0.46189  Biso   1.000  O
  N7       1.0000 0.50689  0.43682  0.35413  Biso   1.000  N
  C8       1.0000 0.51652  0.40882  0.38194  Biso   1.000  C
  C9       1.0000 0.53282  0.40736  0.45013  Biso   1.000  C
  C10      1.0000 0.50679  0.53593  0.32398  Biso   1.000  C
  C11      1.0000 0.58626  0.37743  0.46746  Biso   1.000  C
  N8       1.0000 0.61553  0.38889  0.48616  Biso   1.000  N
  C12      1.0000 0.66746  0.46596  0.51308  Biso   1.000  C
  C13      1.0000 0.49174  0.42306  0.31612  Biso   1.000  C
  O3       1.0000 0.52061  0.37118  0.37826  Biso   1.000  O
  N9       1.0000 0.51428  0.51553  0.29224  Biso   1.000  N
  O4       1.0000 0.57815  0.34261  0.45342  Biso   1.000  O
  C14      1.0000 0.63911  0.35700  0.50235  Biso   1.000  C
  N10      1.0000 0.68740  0.43647  0.50038  Biso   1.000  N
  N11      1.0000 0.50519  0.44052  0.28792  Biso   1.000  N
  C15      1.0000 0.49695  0.48118  0.27156  Biso   1.000  C
  C16      1.0000 0.53309  0.53596  0.27312  Biso   1.000  C
  N12      1.0000 0.66760  0.36439  0.49274  Biso   1.000  N
  C17      1.0000 0.69183  0.39325  0.51470  Biso   1.000  C
  C18      1.0000 0.71263  0.45084  0.48828  Biso   1.000  C
  C19      1.0000 0.51604  0.41431  0.26510  Biso   1.000  C
  C20      1.0000 0.50666  0.48033  0.23475  Biso   1.000  C
  N13      1.0000 0.52940  0.51452  0.24057  Biso   1.000  N
  O5       1.0000 0.55015  0.56630  0.28335  Biso   1.000  O
  C21      1.0000 0.68068  0.33664  0.47195  Biso   1.000  C
  C22      1.0000 0.72167  0.37844  0.50489  Biso   1.000  C
  N14      1.0000 0.73214  0.41756  0.48979  Biso   1.000  N
  O6       1.0000 0.71729  0.48560  0.47956  Biso   1.000  O
  O7       1.0000 0.52103  0.37686  0.26914  Biso   1.000  O
  N15      1.0000 0.52031  0.43834  0.23581  Biso   1.000  N
  C23      1.0000 0.54012  0.53221  0.20931  Biso   1.000  C
  O8       1.0000 0.66638  0.30712  0.45197  Biso   1.000  O
  N16      1.0000 0.71134  0.34557  0.47811  Biso   1.000  N
  C24      1.0000 0.76316  0.42144  0.48664  Biso   1.000  C
  C25      1.0000 0.52465  0.41933  0.20262  Biso   1.000  C
  N17      1.0000 0.56333  0.50641  0.19891  Biso   1.000  N
  C26      1.0000 0.73337  0.31533  0.46891  Biso   1.000  C
  N18      1.0000 0.76785  0.40155  0.45233  Biso   1.000  N
  N19      1.0000 0.55336  0.43123  0.19348  Biso   1.000  N
  C27      1.0000 0.55651  0.47035  0.17472  Biso   1.000  C
  C28      1.0000 0.59419  0.51834  0.20691  Biso   1.000  C
  N20      1.0000 0.74750  0.32985  0.44174  Biso   1.000  N
  C29      1.0000 0.77430  0.35707  0.44904  Biso   1.000  C
  C30      1.0000 0.77536  0.42489  0.42483  Biso   1.000  C
  C31      1.0000 0.57407  0.40121  0.18841  Biso   1.000  C
  C32      1.0000 0.58655  0.46397  0.16246  Biso   1.000  C
  N21      1.0000 0.60888  0.49005  0.18857  Biso   1.000  N
  O9       1.0000 0.60644  0.54758  0.22608  Biso   1.000  O
  C33      1.0000 0.74213  0.31176  0.40750  Biso   1.000  C
  C34      1.0000 0.78524  0.35476  0.41349  Biso   1.000  C
  N22      1.0000 0.78393  0.39846  0.40089  Biso   1.000  N
  O10      1.0000 0.77500  0.46372  0.42263  Biso   1.000  O
  O11      1.0000 0.57578  0.36445  0.19908  Biso   1.000  O
  N23      1.0000 0.59281  0.41810  0.16837  Biso   1.000  N
  C35      1.0000 0.63905  0.50104  0.18370  Biso   1.000  C
  O12      1.0000 0.72080  0.28457  0.39312  Biso   1.000  O
  N24      1.0000 0.76265  0.32736  0.38969  Biso   1.000  N
  C36      1.0000 0.79882  0.41276  0.37330  Biso   1.000  C
  C37      1.0000 0.61490  0.39518  0.15477  Biso   1.000  C
  N25      1.0000 0.66331  0.46959  0.19805  Biso   1.000  N
  C38      1.0000 0.76812  0.30936  0.35636  Biso   1.000  C
  N26      1.0000 0.78032  0.40790  0.33605  Biso   1.000  N
  N27      1.0000 0.64710  0.39881  0.17865  Biso   1.000  N
  C39      1.0000 0.66732  0.43341  0.17726  Biso   1.000  C
  C40      1.0000 0.69051  0.48099  0.22486  Biso   1.000  C
  N28      1.0000 0.75874  0.33613  0.32348  Biso   1.000  N
  C41      1.0000 0.77995  0.36771  0.31559  Biso   1.000  C
  C42      1.0000 0.76711  0.44102  0.31308  Biso   1.000  C
  C43      1.0000 0.66196  0.36452  0.19707  Biso   1.000  C
  C44      1.0000 0.70024  0.41674  0.19872  Biso   1.000  C
  N29      1.0000 0.71208  0.44863  0.22647  Biso   1.000  N
  O13      1.0000 0.69489  0.51244  0.24305  Biso   1.000  O
  C45      1.0000 0.73405  0.32758  0.29450  Biso   1.000  C
  C46      1.0000 0.76177  0.38109  0.27368  Biso   1.000  C
  N30      1.0000 0.75497  0.42482  0.27683  Biso   1.000  N
  O14      1.0000 0.76730  0.47682  0.32270  Biso   1.000  O
  O15      1.0000 0.65137  0.32957  0.19939  Biso   1.000  O
  N31      1.0000 0.69325  0.37655  0.21279  Biso   1.000  N
  C47      1.0000 0.74448  0.45232  0.24567  Biso   1.000  C
  N32      1.0000 0.73437  0.35321  0.26471  Biso   1.000  N
  O16      1.0000 0.71379  0.30109  0.29436  Biso   1.000  O
  C48      1.0000 0.71699  0.34570  0.22756  Biso   1.000  C
  C49      1.0000 0.43788  0.48762  0.54758  Biso   1.000  C
  N33      1.0000 0.41335  0.51705  0.53178  Biso   1.000  N
  N34      1.0000 0.45659  0.50054  0.58289  Biso   1.000  N
  C50      1.0000 0.38139  0.50856  0.52565  Biso   1.000  C
  C51      1.0000 0.41755  0.55465  0.51188  Biso   1.000  C
  C52      1.0000 0.48427  0.52728  0.58927  Biso   1.000  C
  C53      1.0000 0.45773  0.47521  0.61396  Biso   1.000  C
  N35      1.0000 0.36475  0.53953  0.50637  Biso   1.000  N
  O17      1.0000 0.37185  0.47540  0.53811  Biso   1.000  O
  C54      1.0000 0.38520  0.57101  0.49475  Biso   1.000  C
  N36      1.0000 0.43289  0.58926  0.53437  Biso   1.000  N
  N37      1.0000 0.47869  0.57047  0.58501  Biso   1.000  N
  C55      1.0000 0.49979  0.52141  0.63149  Biso   1.000  C
  O18      1.0000 0.43958  0.44680  0.61563  Biso   1.000  O
  N38      1.0000 0.48285  0.48734  0.64216  Biso   1.000  N
  C56      1.0000 0.33254  0.53404  0.48692  Biso   1.000  C
  N39      1.0000 0.38445  0.61111  0.51383  Biso   1.000  N
  C57      1.0000 0.41374  0.62257  0.53253  Biso   1.000  C
  C58      1.0000 0.46718  0.59264  0.54987  Biso   1.000  C
  C59      1.0000 0.48348  0.59118  0.61806  Biso   1.000  C
  N40      1.0000 0.49309  0.56318  0.64587  Biso   1.000  N
  C60      1.0000 0.49320  0.46407  0.67602  Biso   1.000  C
  N41      1.0000 0.31258  0.56353  0.49962  Biso   1.000  N
  C61      1.0000 0.36087  0.64300  0.49764  Biso   1.000  C
  O19      1.0000 0.42183  0.65739  0.54658  Biso   1.000  O
  O20      1.0000 0.47940  0.62882  0.62173  Biso   1.000  O
  C62      1.0000 0.50826  0.57694  0.68388  Biso   1.000  C
  N42      1.0000 0.48570  0.48447  0.70776  Biso   1.000  N
  C63      1.0000 0.30818  0.60675  0.48530  Biso   1.000  C
  C64      1.0000 0.28738  0.54916  0.51172  Biso   1.000  C
  N43      1.0000 0.33241  0.63561  0.50726  Biso   1.000  N
  N44      1.0000 0.49482  0.55948  0.71208  Biso   1.000  N
  C65      1.0000 0.50306  0.51882  0.72844  Biso   1.000  C
  C66      1.0000 0.46692  0.46404  0.72688  Biso   1.000  C
  C67      1.0000 0.27831  0.62156  0.49511  Biso   1.000  C
  O21      1.0000 0.28270  0.51440  0.52044  Biso   1.000  O
  N45      1.0000 0.26787  0.58244  0.51021  Biso   1.000  N
  C68      1.0000 0.31930  0.66336  0.52805  Biso   1.000  C
  C69      1.0000 0.48396  0.58569  0.73490  Biso   1.000  C
  C70      1.0000 0.49335  0.51967  0.76525  Biso   1.000  C
  O22      1.0000 0.44985  0.43370  0.71665  Biso   1.000  O
  N46      1.0000 0.47060  0.48548  0.75942  Biso   1.000  N
  N47      1.0000 0.28864  0.65443  0.52189  Biso   1.000  N
  C71      1.0000 0.23684  0.57856  0.51336  Biso   1.000  C
  O23      1.0000 0.33363  0.69288  0.54803  Biso   1.000  O
  O24      1.0000 0.47896  0.62314  0.73086  Biso   1.000  O
  N48      1.0000 0.47968  0.56166  0.76419  Biso   1.000  N
  C72      1.0000 0.45989  0.46779  0.79069  Biso   1.000  C
  C73      1.0000 0.26664  0.68467  0.53108  Biso   1.000  C
  N49      1.0000 0.23215  0.59845  0.54767  Biso   1.000  N
  C74      1.0000 0.47535  0.58067  0.79738  Biso   1.000  C
  N50      1.0000 0.43668  0.49359  0.80109  Biso   1.000  N
  N51      1.0000 0.25251  0.67015  0.55828  Biso   1.000  N
  C75      1.0000 0.22570  0.64293  0.55095  Biso   1.000  C
  C76      1.0000 0.22465  0.57511  0.57517  Biso   1.000  C
  N52      1.0000 0.44665  0.56877  0.80652  Biso   1.000  N
  C77      1.0000 0.44350  0.52965  0.82527  Biso   1.000  C
  C78      1.0000 0.40582  0.48166  0.79309  Biso   1.000  C
  C79      1.0000 0.25788  0.68824  0.59250  Biso   1.000  C
  C80      1.0000 0.21477  0.64524  0.58651  Biso   1.000  C
  O25      1.0000 0.22500  0.53628  0.57737  Biso   1.000  O
  N53      1.0000 0.21608  0.60154  0.59911  Biso   1.000  N
  C81      1.0000 0.42594  0.59879  0.81159  Biso   1.000  C
  C82      1.0000 0.41343  0.53603  0.83753  Biso   1.000  C
  O26      1.0000 0.39354  0.45242  0.77392  Biso   1.000  O
  N54      1.0000 0.39110  0.50995  0.81142  Biso   1.000  N
  O27      1.0000 0.27918  0.71543  0.60688  Biso   1.000  O
  N55      1.0000 0.23735  0.67264  0.61031  Biso   1.000  N
  C83      1.0000 0.20119  0.58724  0.62672  Biso   1.000  C
  O28      1.0000 0.42420  0.63555  0.80092  Biso   1.000  O
  N56      1.0000 0.40720  0.58190  0.83163  Biso   1.000  N
  C84      1.0000 0.36095  0.49896  0.81630  Biso   1.000  C
  C85      1.0000 0.23189  0.69064  0.64364  Biso   1.000  C
  N57      1.0000 0.21969  0.59210  0.66395  Biso   1.000  N
  C86      1.0000 0.38511  0.60482  0.84523  Biso   1.000  C
  N58      1.0000 0.33670  0.53041  0.80195  Biso   1.000  N
  N59      1.0000 0.24127  0.66387  0.67652  Biso   1.000  N
  C87      1.0000 0.22005  0.63229  0.68441  Biso   1.000  C
  C88      1.0000 0.23290  0.55898  0.68692  Biso   1.000  C
  N60      1.0000 0.35291  0.60119  0.82137  Biso   1.000  N
  C89      1.0000 0.30947  0.51901  0.77514  Biso   1.000  C
  C90      1.0000 0.33269  0.56659  0.82274  Biso   1.000  C
  C91      1.0000 0.26593  0.67242  0.70550  Biso   1.000  C
  C92      1.0000 0.23822  0.61891  0.72632  Biso   1.000  C
  O29      1.0000 0.23270  0.52318  0.67730  Biso   1.000  O
  N61      1.0000 0.24504  0.57518  0.72317  Biso   1.000  N
  C93      1.0000 0.33805  0.63548  0.80295  Biso   1.000  C
  N62      1.0000 0.28793  0.55137  0.77353  Biso   1.000  N
  O30      1.0000 0.30511  0.48756  0.75694  Biso   1.000  O
  C94      1.0000 0.29976  0.58326  0.80128  Biso   1.000  C
  O31      1.0000 0.28622  0.69891  0.70564  Biso   1.000  O
  N63      1.0000 0.26564  0.64679  0.73529  Biso   1.000  N
  C95      1.0000 0.25553  0.54768  0.75432  Biso   1.000  C
  N64      1.0000 0.30675  0.62345  0.78721  Biso   1.000  N
  O32      1.0000 0.34864  0.67043  0.80061  Biso   1.000  O
  C96      1.0000 0.28301  0.65430  0.77244  Biso   1.000  C
  C97      1.0000 0.56560  0.62917  0.52002  Biso   1.000  C
  N65      1.0000 0.55369  0.66901  0.50227  Biso   1.000  N
  N66      1.0000 0.59938  0.62633  0.53067  Biso   1.000  N
  C98      1.0000 0.55695  0.63195  0.55784  Biso   1.000  C
  H1       1.0000 0.55569  0.60429  0.50489  Biso   1.000  H
  C99      1.0000 0.54889  0.67605  0.46278  Biso   1.000  C
  C100     1.0000 0.53875  0.69250  0.52267  Biso   1.000  C
  C101     1.0000 0.61080  0.62146  0.56937  Biso   1.000  C
  C102     1.0000 0.61691  0.61048  0.50497  Biso   1.000  C
  N67      1.0000 0.54204  0.67173  0.55577  Biso   1.000  N
  N68      1.0000 0.58723  0.62869  0.58526  Biso   1.000  N
  H2       1.0000 0.54259  0.60849  0.56060  Biso   1.000  H
  N69      1.0000 0.57853  0.68711  0.45317  Biso   1.000  N
  H3       1.0000 0.54000  0.65020  0.44910  Biso   1.000  H
  H4       1.0000 0.53359  0.69920  0.45470  Biso   1.000  H
  O33      1.0000 0.52521  0.72540  0.51375  Biso   1.000  O
  O34      1.0000 0.63813  0.61250  0.58556  Biso   1.000  O
  N70      1.0000 0.62254  0.64098  0.48053  Biso   1.000  N
  H5       1.0000 0.60500  0.58689  0.49029  Biso   1.000  H
  H6       1.0000 0.63720  0.59911  0.51969  Biso   1.000  H
  C103     1.0000 0.52697  0.68717  0.58317  Biso   1.000  C
  C104     1.0000 0.58927  0.61613  0.62380  Biso   1.000  C
  C105     1.0000 0.58411  0.72493  0.44152  Biso   1.000  C
  C106     1.0000 0.59890  0.65436  0.44637  Biso   1.000  C
  C107     1.0000 0.65193  0.64688  0.47658  Biso   1.000  C
  N71      1.0000 0.54847  0.70065  0.61814  Biso   1.000  N
  H7       1.0000 0.51340  0.71129  0.57241  Biso   1.000  H
  H8       1.0000 0.51329  0.66459  0.58860  Biso   1.000  H
  N72      1.0000 0.58976  0.65136  0.64757  Biso   1.000  N
  H9       1.0000 0.60849  0.59920  0.63349  Biso   1.000  H
  H10      1.0000 0.57111  0.59800  0.62410  Biso   1.000  H
  O35      1.0000 0.57062  0.75840  0.44400  Biso   1.000  O
  N73      1.0000 0.61038  0.72212  0.42720  Biso   1.000  N
  H11      1.0000 0.58699  0.62999  0.43230  Biso   1.000  H
  C108     1.0000 0.61809  0.67808  0.42388  Biso   1.000  C
  N74      1.0000 0.65045  0.66854  0.44400  Biso   1.000  N
  O36      1.0000 0.67699  0.63431  0.49812  Biso   1.000  O
  C109     1.0000 0.55710  0.74201  0.62396  Biso   1.000  C
  C110     1.0000 0.56253  0.67615  0.64963  Biso   1.000  C
  C111     1.0000 0.61461  0.65923  0.67738  Biso   1.000  C
  C112     1.0000 0.61939  0.75616  0.40697  Biso   1.000  C
  H12      1.0000 0.61300  0.66860  0.39730  Biso   1.000  H
  C113     1.0000 0.67630  0.67186  0.42723  Biso   1.000  C
  O37      1.0000 0.54977  0.77040  0.60103  Biso   1.000  O
  N75      1.0000 0.57463  0.74608  0.65938  Biso   1.000  N
  C114     1.0000 0.57532  0.70697  0.68037  Biso   1.000  C
  H13      1.0000 0.54649  0.65762  0.65629  Biso   1.000  H
  N76      1.0000 0.60638  0.69137  0.69781  Biso   1.000  N
  O38      1.0000 0.63960  0.64016  0.68580  Biso   1.000  O
  N77      1.0000 0.65220  0.76970  0.42374  Biso   1.000  N
  H14      1.0000 0.61710  0.74719  0.38091  Biso   1.000  H
  H15      1.0000 0.60519  0.78041  0.40649  Biso   1.000  H
  N78      1.0000 0.69106  0.71281  0.43238  Biso   1.000  N
  H16      1.0000 0.66860  0.66601  0.40019  Biso   1.000  H
  H17      1.0000 0.69211  0.65010  0.43820  Biso   1.000  H
  C115     1.0000 0.57919  0.78760  0.67694  Biso   1.000  C
  H18      1.0000 0.56210  0.70880  0.69831  Biso   1.000  H
  C116     1.0000 0.62655  0.70583  0.73237  Biso   1.000  C
  C117     1.0000 0.65862  0.81138  0.43422  Biso   1.000  C
  C118     1.0000 0.67812  0.75111  0.41223  Biso   1.000  C
  C119     1.0000 0.72093  0.71868  0.45501  Biso   1.000  C
  N79      1.0000 0.61207  0.79847  0.69096  Biso   1.000  N
  H19      1.0000 0.56919  0.78811  0.69781  Biso   1.000  H
  H20      1.0000 0.56870  0.80911  0.65849  Biso   1.000  H
  N80      1.0000 0.64300  0.74416  0.72924  Biso   1.000  N
  H21      1.0000 0.61389  0.71041  0.75031  Biso   1.000  H
  H22      1.0000 0.64210  0.68351  0.74259  Biso   1.000  H
  O39      1.0000 0.63996  0.83667  0.43929  Biso   1.000  O
  N81      1.0000 0.69028  0.81877  0.43748  Biso   1.000  N
  H23      1.0000 0.67270  0.74668  0.38459  Biso   1.000  H
  C120     1.0000 0.70490  0.78359  0.42511  Biso   1.000  C
  N82      1.0000 0.72819  0.76007  0.45364  Biso   1.000  N
  O40      1.0000 0.73822  0.69127  0.47203  Biso   1.000  O
  C121     1.0000 0.62222  0.83579  0.68067  Biso   1.000  C
  C122     1.0000 0.62961  0.78584  0.72735  Biso   1.000  C
  C123     1.0000 0.67499  0.74567  0.73563  Biso   1.000  C
  C124     1.0000 0.70406  0.85978  0.44138  Biso   1.000  C
  H24      1.0000 0.71371  0.79180  0.40401  Biso   1.000  H
  C125     1.0000 0.76000  0.77428  0.46763  Biso   1.000  C
  O41      1.0000 0.60994  0.85703  0.65303  Biso   1.000  O
  N83      1.0000 0.65082  0.84545  0.70500  Biso   1.000  N
  C126     1.0000 0.65787  0.81482  0.73563  Biso   1.000  C
  H25      1.0000 0.61720  0.78950  0.74599  Biso   1.000  H
  N84      1.0000 0.68333  0.78707  0.73457  Biso   1.000  N
  O42      1.0000 0.69274  0.71483  0.73989  Biso   1.000  O
  N85      1.0000 0.72741  0.86805  0.47585  Biso   1.000  N
  H26      1.0000 0.71370  0.86420  0.42051  Biso   1.000  H
  H27      1.0000 0.68710  0.88090  0.43871  Biso   1.000  H
  N86      1.0000 0.76381  0.80980  0.49380  Biso   1.000  N
  H28      1.0000 0.77291  0.75041  0.48031  Biso   1.000  H
  H29      1.0000 0.76809  0.78281  0.44631  Biso   1.000  H
  C127     1.0000 0.66309  0.88712  0.70901  Biso   1.000  C
  H30      1.0000 0.66121  0.82890  0.76040  Biso   1.000  H
  C128     1.0000 0.71612  0.80023  0.75193  Biso   1.000  C
  C129     1.0000 0.72614  0.90061  0.49776  Biso   1.000  C
  C130     1.0000 0.76024  0.85271  0.48081  Biso   1.000  C
  C131     1.0000 0.78177  0.80649  0.52922  Biso   1.000  C
  N87      1.0000 0.69418  0.88962  0.70380  Biso   1.000  N
  H31      1.0000 0.64900  0.90569  0.69059  Biso   1.000  H
  H32      1.0000 0.66361  0.89770  0.73421  Biso   1.000  H
  N88      1.0000 0.72742  0.83083  0.72991  Biso   1.000  N
  H33      1.0000 0.72981  0.77501  0.75550  Biso   1.000  H
  H34      1.0000 0.71740  0.81239  0.77681  Biso   1.000  H
  O43      1.0000 0.70359  0.92290  0.49728  Biso   1.000  O
  N89      1.0000 0.75550  0.90736  0.52094  Biso   1.000  N
  H35      1.0000 0.76800  0.85729  0.45821  Biso   1.000  H
  C132     1.0000 0.77834  0.87800  0.51420  Biso   1.000  C
  N90      1.0000 0.78925  0.84687  0.54279  Biso   1.000  N
  O44      1.0000 0.79018  0.77324  0.54605  Biso   1.000  O
  C133     1.0000 0.70096  0.92037  0.67953  Biso   1.000  C
  C134     1.0000 0.72178  0.87494  0.73106  Biso   1.000  C
  C135     1.0000 0.75236  0.82256  0.71481  Biso   1.000  C
  C136     1.0000 0.76371  0.94146  0.54783  Biso   1.000  C
  H36      1.0000 0.79630  0.89331  0.50851  Biso   1.000  H
  C137     1.0000 0.81372  0.85473  0.57687  Biso   1.000  C
  O45      1.0000 0.68259  0.93982  0.65701  Biso   1.000  O
  N91      1.0000 0.73339  0.92384  0.68959  Biso   1.000  N
  C138     1.0000 0.74875  0.89596  0.71849  Biso   1.000  C
  H37      1.0000 0.72169  0.88419  0.75669  Biso   1.000  H
  N92      1.0000 0.76407  0.85956  0.70723  Biso   1.000  N
  O46      1.0000 0.76236  0.78697  0.71043  Biso   1.000  O
  N93      1.0000 0.76697  0.92959  0.58590  Biso   1.000  N
  H38      1.0000 0.74740  0.96360  0.54100  Biso   1.000  H
  H39      1.0000 0.78369  0.95400  0.54591  Biso   1.000  H
  N94      1.0000 0.80274  0.87007  0.60666  Biso   1.000  N
  H40      1.0000 0.82869  0.87541  0.57149  Biso   1.000  H
  H41      1.0000 0.82530  0.82811  0.58470  Biso   1.000  H
  C139     1.0000 0.74816  0.95403  0.67100  Biso   1.000  C
  H42      1.0000 0.76320  0.91159  0.73950  Biso   1.000  H
  C140     1.0000 0.79422  0.86373  0.69934  Biso   1.000  C
  C141     1.0000 0.74738  0.94459  0.60515  Biso   1.000  C
  C142     1.0000 0.79635  0.91453  0.61023  Biso   1.000  C
  C143     1.0000 0.80121  0.84823  0.63798  Biso   1.000  C
  N95      1.0000 0.76036  0.93587  0.64236  Biso   1.000  N
  H43      1.0000 0.73271  0.97610  0.65980  Biso   1.000  H
  H44      1.0000 0.76550  0.96779  0.68970  Biso   1.000  H
  N96      1.0000 0.79278  0.87355  0.66122  Biso   1.000  N
  H45      1.0000 0.80591  0.83699  0.70600  Biso   1.000  H
  H46      1.0000 0.80619  0.88621  0.71539  Biso   1.000  H
  O47      1.0000 0.72261  0.96252  0.59317  Biso   1.000  O
  H47      1.0000 0.81440  0.93250  0.60819  Biso   1.000  H
  C144     1.0000 0.79095  0.91728  0.64902  Biso   1.000  C
  O48      1.0000 0.80667  0.80895  0.64163  Biso   1.000  O
  H48      1.0000 0.80721  0.93508  0.66610  Biso   1.000  H
  C145     1.0000 0.43440  0.37083  0.47998  Biso   1.000  C
  C146     1.0000 0.44303  0.36805  0.44216  Biso   1.000  C
  N97      1.0000 0.40063  0.37367  0.46933  Biso   1.000  N
  N98      1.0000 0.44629  0.33099  0.49773  Biso   1.000  N
  H49      1.0000 0.44431  0.39571  0.49511  Biso   1.000  H
  N99      1.0000 0.41277  0.37131  0.41474  Biso   1.000  N
  N100     1.0000 0.45796  0.32827  0.44422  Biso   1.000  N
  H50      1.0000 0.45741  0.39151  0.43940  Biso   1.000  H
  C147     1.0000 0.38918  0.37854  0.43062  Biso   1.000  C
  C148     1.0000 0.38310  0.38952  0.49502  Biso   1.000  C
  C149     1.0000 0.46125  0.30750  0.47733  Biso   1.000  C
  C150     1.0000 0.45109  0.32395  0.53722  Biso   1.000  C
  C151     1.0000 0.41074  0.38387  0.37620  Biso   1.000  C
  C152     1.0000 0.47304  0.31283  0.41683  Biso   1.000  C
  O49      1.0000 0.36185  0.38750  0.41443  Biso   1.000  O
  N101     1.0000 0.37744  0.35902  0.51946  Biso   1.000  N
  H51      1.0000 0.39501  0.41311  0.50971  Biso   1.000  H
  H52      1.0000 0.36280  0.40089  0.48031  Biso   1.000  H
  O50      1.0000 0.47479  0.27460  0.48625  Biso   1.000  O
  N102     1.0000 0.42148  0.31289  0.54683  Biso   1.000  N
  H53      1.0000 0.46000  0.34980  0.55090  Biso   1.000  H
  H54      1.0000 0.46639  0.30080  0.54530  Biso   1.000  H
  N103     1.0000 0.41022  0.34864  0.35243  Biso   1.000  N
  H55      1.0000 0.39149  0.40080  0.36650  Biso   1.000  H
  H56      1.0000 0.42890  0.40200  0.37589  Biso   1.000  H
  N104     1.0000 0.45154  0.29935  0.38186  Biso   1.000  N
  H57      1.0000 0.48660  0.28871  0.42759  Biso   1.000  H
  H58      1.0000 0.48669  0.33541  0.41140  Biso   1.000  H
  C153     1.0000 0.40111  0.34564  0.55363  Biso   1.000  C
  C154     1.0000 0.34808  0.35312  0.52342  Biso   1.000  C
  C155     1.0000 0.41589  0.27507  0.55848  Biso   1.000  C
  C156     1.0000 0.38540  0.34077  0.32261  Biso   1.000  C
  C157     1.0000 0.43747  0.32385  0.35037  Biso   1.000  C
  C158     1.0000 0.44288  0.25799  0.37603  Biso   1.000  C
  H59      1.0000 0.41299  0.37001  0.56770  Biso   1.000  H
  C159     1.0000 0.38192  0.32192  0.57612  Biso   1.000  C
  O51      1.0000 0.32302  0.36569  0.50188  Biso   1.000  O
  N105     1.0000 0.34956  0.33146  0.55600  Biso   1.000  N
  O52      1.0000 0.42936  0.24160  0.55600  Biso   1.000  O
  N106     1.0000 0.38963  0.27788  0.57280  Biso   1.000  N
  N107     1.0000 0.39362  0.30863  0.30219  Biso   1.000  N
  O53      1.0000 0.36041  0.35984  0.31420  Biso   1.000  O
  C160     1.0000 0.42466  0.29303  0.31963  Biso   1.000  C
  H60      1.0000 0.45350  0.34238  0.34371  Biso   1.000  H
  N108     1.0000 0.42535  0.25392  0.34062  Biso   1.000  N
  O54      1.0000 0.45023  0.22960  0.39897  Biso   1.000  O
  H61      1.0000 0.38701  0.33140  0.60270  Biso   1.000  H
  C161     1.0000 0.32370  0.32814  0.57277  Biso   1.000  C
  C162     1.0000 0.38062  0.24384  0.59303  Biso   1.000  C
  C163     1.0000 0.37343  0.29417  0.26763  Biso   1.000  C
  H62      1.0000 0.43791  0.29120  0.30171  Biso   1.000  H
  C164     1.0000 0.42082  0.21240  0.32306  Biso   1.000  C
  N109     1.0000 0.30892  0.28719  0.56762  Biso   1.000  N
  H63      1.0000 0.33140  0.33399  0.59980  Biso   1.000  H
  H64      1.0000 0.30789  0.34990  0.56179  Biso   1.000  H
  N110     1.0000 0.34780  0.23030  0.57626  Biso   1.000  N
  H65      1.0000 0.38290  0.25281  0.61909  Biso   1.000  H
  H66      1.0000 0.39481  0.21959  0.59351  Biso   1.000  H
  N111     1.0000 0.35701  0.25584  0.27075  Biso   1.000  N
  H67      1.0000 0.38610  0.28959  0.24971  Biso   1.000  H
  H68      1.0000 0.35791  0.31649  0.25741  Biso   1.000  H
  N112     1.0000 0.38794  0.20153  0.30904  Biso   1.000  N
  H69      1.0000 0.43079  0.21189  0.30219  Biso   1.000  H
  H70      1.0000 0.43131  0.19089  0.34151  Biso   1.000  H
  C165     1.0000 0.27907  0.28132  0.54499  Biso   1.000  C
  C166     1.0000 0.32186  0.24889  0.58777  Biso   1.000  C
  C167     1.0000 0.34137  0.18862  0.56578  Biso   1.000  C
  C168     1.0000 0.32502  0.25433  0.26437  Biso   1.000  C
  C169     1.0000 0.37037  0.21416  0.27265  Biso   1.000  C
  C170     1.0000 0.37776  0.16421  0.31932  Biso   1.000  C
  N113     1.0000 0.27181  0.23993  0.54636  Biso   1.000  N
  O55      1.0000 0.26176  0.30873  0.52796  Biso   1.000  O
  C171     1.0000 0.29511  0.21641  0.57489  Biso   1.000  C
  H71      1.0000 0.32730  0.25332  0.61541  Biso   1.000  H
  N114     1.0000 0.30973  0.18123  0.56252  Biso   1.000  N
  O56      1.0000 0.36002  0.16333  0.56071  Biso   1.000  O
  N115     1.0000 0.31667  0.21293  0.26543  Biso   1.000  N
  O57      1.0000 0.30727  0.28517  0.26011  Biso   1.000  O
  C172     1.0000 0.34213  0.18518  0.26437  Biso   1.000  C
  H72      1.0000 0.38280  0.21050  0.25401  Biso   1.000  H
  N116     1.0000 0.34919  0.15455  0.29500  Biso   1.000  N
  O58      1.0000 0.39004  0.14297  0.34697  Biso   1.000  O
  C173     1.0000 0.24000  0.22572  0.53237  Biso   1.000  C
  H73      1.0000 0.28630  0.20820  0.59601  Biso   1.000  H
  C174     1.0000 0.29594  0.14022  0.55862  Biso   1.000  C
  C175     1.0000 0.28389  0.19977  0.24807  Biso   1.000  C
  H74      1.0000 0.33880  0.17110  0.23960  Biso   1.000  H
  C176     1.0000 0.33691  0.11288  0.29098  Biso   1.000  C
  N117     1.0000 0.23620  0.19020  0.50620  Biso   1.000  N
  H75      1.0000 0.22709  0.24959  0.51969  Biso   1.000  H
  H76      1.0000 0.23189  0.21719  0.55371  Biso   1.000  H
  N118     1.0000 0.27259  0.13195  0.52415  Biso   1.000  N
  H77      1.0000 0.28631  0.13580  0.57949  Biso   1.000  H
  H78      1.0000 0.31291  0.11910  0.56129  Biso   1.000  H
  N119     1.0000 0.27259  0.16917  0.27008  Biso   1.000  N
  H79      1.0000 0.27020  0.22499  0.24450  Biso   1.000  H
  H80      1.0000 0.28261  0.18761  0.22321  Biso   1.000  H
  N120     1.0000 0.30581  0.11038  0.29622  Biso   1.000  N
  H81      1.0000 0.35101  0.09431  0.30940  Biso   1.000  H
  H82      1.0000 0.33640  0.10230  0.26579  Biso   1.000  H
  C177     1.0000 0.21824  0.19351  0.47078  Biso   1.000  C
  C178     1.0000 0.23977  0.14729  0.51921  Biso   1.000  C
  C179     1.0000 0.27387  0.09939  0.50224  Biso   1.000  C
  C180     1.0000 0.27823  0.12506  0.26894  Biso   1.000  C
  C181     1.0000 0.24762  0.17744  0.28519  Biso   1.000  C
  C182     1.0000 0.29904  0.07963  0.32047  Biso   1.000  C
  N121     1.0000 0.21075  0.15313  0.45721  Biso   1.000  N
  O59      1.0000 0.20980  0.22676  0.45395  Biso   1.000  O
  C183     1.0000 0.22166  0.12200  0.48580  Biso   1.000  C
  H83      1.0000 0.23201  0.14271  0.54181  Biso   1.000  H
  N122     1.0000 0.24451  0.09264  0.47906  Biso   1.000  N
  O60      1.0000 0.29642  0.07710  0.50272  Biso   1.000  O
  C184     1.0000 0.25125  0.10404  0.28151  Biso   1.000  C
  H84      1.0000 0.27831  0.11581  0.24330  Biso   1.000  H
  O61      1.0000 0.23762  0.21303  0.28956  Biso   1.000  O
  N123     1.0000 0.23594  0.14044  0.29277  Biso   1.000  N
  N124     1.0000 0.26662  0.07616  0.31041  Biso   1.000  N
  O62      1.0000 0.31739  0.06018  0.34298  Biso   1.000  O
  C185     1.0000 0.18629  0.14527  0.42313  Biso   1.000  C
  H85      1.0000 0.20369  0.10669  0.49151  Biso   1.000  H
  C186     1.0000 0.23631  0.05854  0.45219  Biso   1.000  C
  H86      1.0000 0.23681  0.08841  0.26050  Biso   1.000  H
  C187     1.0000 0.20576  0.13627  0.30068  Biso   1.000  C
  C188     1.0000 0.25184  0.04597  0.32899  Biso   1.000  C
  N125     1.0000 0.19726  0.12993  0.39334  Biso   1.000  N
  H87      1.0000 0.17129  0.12459  0.42851  Biso   1.000  H
  H88      1.0000 0.17470  0.17189  0.41530  Biso   1.000  H
  N126     1.0000 0.23304  0.07041  0.41410  Biso   1.000  N
  H89      1.0000 0.25261  0.03640  0.45899  Biso   1.000  H
  H90      1.0000 0.21629  0.04600  0.45409  Biso   1.000  H
  N127     1.0000 0.20723  0.12645  0.33878  Biso   1.000  N
  H91      1.0000 0.19409  0.16301  0.29399  Biso   1.000  H
  H92      1.0000 0.19379  0.11379  0.28460  Biso   1.000  H
  N128     1.0000 0.23965  0.06413  0.35764  Biso   1.000  N
  H93      1.0000 0.26729  0.02390  0.34020  Biso   1.000  H
  H94      1.0000 0.23450  0.03221  0.31030  Biso   1.000  H
  C189     1.0000 0.19877  0.15177  0.36202  Biso   1.000  C
  C190     1.0000 0.20363  0.08547  0.38977  Biso   1.000  C
  C191     1.0000 0.25263  0.05541  0.39484  Biso   1.000  C
  C192     1.0000 0.20906  0.08272  0.35098  Biso   1.000  C
  O63      1.0000 0.19331  0.19105  0.35837  Biso   1.000  O
  H95      1.0000 0.18561  0.06750  0.39181  Biso   1.000  H
  O64      1.0000 0.27738  0.03748  0.40683  Biso   1.000  O
  H96      1.0000 0.19280  0.06492  0.33390  Biso   1.000  H
  C193     1.0000 0.60300  0.47553  0.65961  Biso   1.000  C
  N129     1.0000 0.61116  0.43227  0.66501  Biso   1.000  N
  N130     1.0000 0.61521  0.50155  0.69079  Biso   1.000  N
  C194     1.0000 0.58843  0.40102  0.65949  Biso   1.000  C
  C195     1.0000 0.63930  0.41545  0.65740  Biso   1.000  C
  C196     1.0000 0.59611  0.52532  0.70542  Biso   1.000  C
  C197     1.0000 0.64678  0.51913  0.70063  Biso   1.000  C
  N131     1.0000 0.60170  0.36313  0.65621  Biso   1.000  N
  O65      1.0000 0.56101  0.40698  0.65975  Biso   1.000  O
  C198     1.0000 0.63382  0.36815  0.65448  Biso   1.000  C
  N132     1.0000 0.66666  0.41958  0.68920  Biso   1.000  N
  H97      1.0000 0.64300  0.42751  0.63411  Biso   1.000  H
  O66      1.0000 0.56784  0.52106  0.70079  Biso   1.000  O
  N133     1.0000 0.61419  0.55560  0.72991  Biso   1.000  N
  N134     1.0000 0.67061  0.48939  0.71835  Biso   1.000  N
  C199     1.0000 0.64667  0.55033  0.73103  Biso   1.000  C
  C200     1.0000 0.58370  0.32647  0.64308  Biso   1.000  C
  N135     1.0000 0.65694  0.35182  0.68795  Biso   1.000  N
  H98      1.0000 0.63720  0.35631  0.63090  Biso   1.000  H
  C201     1.0000 0.67710  0.38188  0.70467  Biso   1.000  C
  C202     1.0000 0.68435  0.45839  0.69826  Biso   1.000  C
  C203     1.0000 0.60110  0.58749  0.74906  Biso   1.000  C
  C204     1.0000 0.68030  0.49447  0.75516  Biso   1.000  C
  N136     1.0000 0.66474  0.52990  0.76441  Biso   1.000  N
  N137     1.0000 0.58666  0.29332  0.67103  Biso   1.000  N
  C205     1.0000 0.66379  0.30683  0.69374  Biso   1.000  C
  O67      1.0000 0.70119  0.37658  0.73028  Biso   1.000  O
  N138     1.0000 0.60417  0.57843  0.78687  Biso   1.000  N
  O68      1.0000 0.70024  0.47436  0.77712  Biso   1.000  O
  C206     1.0000 0.67750  0.55099  0.79961  Biso   1.000  C
  C207     1.0000 0.56242  0.27971  0.68391  Biso   1.000  C
  C208     1.0000 0.61302  0.26500  0.68131  Biso   1.000  C
  N139     1.0000 0.64108  0.28423  0.70631  Biso   1.000  N
  C209     1.0000 0.57799  0.57540  0.80106  Biso   1.000  C
  C210     1.0000 0.63229  0.58809  0.81555  Biso   1.000  C
  N140     1.0000 0.65581  0.55547  0.82271  Biso   1.000  N
  O69      1.0000 0.53627  0.29654  0.67555  Biso   1.000  O
  N141     1.0000 0.57127  0.24646  0.70545  Biso   1.000  N
  C211     1.0000 0.60283  0.23232  0.70600  Biso   1.000  C
  C212     1.0000 0.64807  0.26490  0.74073  Biso   1.000  C
  O70      1.0000 0.55114  0.57126  0.78247  Biso   1.000  O
  N142     1.0000 0.58839  0.57694  0.83882  Biso   1.000  N
  C213     1.0000 0.62169  0.58891  0.85219  Biso   1.000  C
  C214     1.0000 0.66228  0.54124  0.85896  Biso   1.000  C
  C215     1.0000 0.55009  0.21966  0.71877  Biso   1.000  C
  N143     1.0000 0.62573  0.23611  0.74148  Biso   1.000  N
  O71      1.0000 0.67134  0.27311  0.76667  Biso   1.000  O
  C216     1.0000 0.56715  0.58768  0.86083  Biso   1.000  C
  N144     1.0000 0.64185  0.55907  0.87577  Biso   1.000  N
  O72      1.0000 0.68354  0.51746  0.87354  Biso   1.000  O
  N145     1.0000 0.55617  0.21770  0.75800  Biso   1.000  N
  C217     1.0000 0.63005  0.20236  0.76815  Biso   1.000  C
  N146     1.0000 0.56712  0.55551  0.88965  Biso   1.000  N
  C218     1.0000 0.64449  0.55680  0.91397  Biso   1.000  C
  C219     1.0000 0.53400  0.22919  0.77562  Biso   1.000  C
  C220     1.0000 0.57786  0.18780  0.78063  Biso   1.000  C
  N147     1.0000 0.61021  0.20406  0.79231  Biso   1.000  N
  C221     1.0000 0.54435  0.52466  0.88636  Biso   1.000  C
  C222     1.0000 0.58927  0.55257  0.92401  Biso   1.000  C
  N148     1.0000 0.61926  0.53243  0.92378  Biso   1.000  N
  O73      1.0000 0.51021  0.25174  0.76085  Biso   1.000  O
  N149     1.0000 0.54105  0.21413  0.80950  Biso   1.000  N
  C223     1.0000 0.56852  0.18682  0.81781  Biso   1.000  C
  C224     1.0000 0.61990  0.21186  0.83062  Biso   1.000  C
  N150     1.0000 0.54920  0.50461  0.91896  Biso   1.000  N
  O74      1.0000 0.52223  0.52024  0.85846  Biso   1.000  O
  C225     1.0000 0.57509  0.52198  0.94711  Biso   1.000  C
  C226     1.0000 0.62635  0.49981  0.94911  Biso   1.000  C
  C227     1.0000 0.51872  0.21457  0.83252  Biso   1.000  C
  N151     1.0000 0.59546  0.20428  0.84461  Biso   1.000  N
  O75      1.0000 0.64612  0.22430  0.84681  Biso   1.000  O
  C228     1.0000 0.52542  0.47891  0.92782  Biso   1.000  C
  N152     1.0000 0.60086  0.49267  0.96288  Biso   1.000  N
  O76      1.0000 0.65042  0.48083  0.95825  Biso   1.000  O
  N153     1.0000 0.52673  0.24185  0.86398  Biso   1.000  N
  C229     1.0000 0.59747  0.20030  0.88346  Biso   1.000  C
  N154     1.0000 0.53316  0.43524  0.93298  Biso   1.000  N
  C230     1.0000 0.60028  0.46233  0.99044  Biso   1.000  C
  C231     1.0000 0.51165  0.27883  0.86493  Biso   1.000  C
  C232     1.0000 0.54928  0.23140  0.89831  Biso   1.000  C
  N155     1.0000 0.58218  0.23286  0.89809  Biso   1.000  N
  C233     1.0000 0.51637  0.40462  0.91035  Biso   1.000  C
  C234     1.0000 0.55112  0.41772  0.96837  Biso   1.000  C
  N156     1.0000 0.58519  0.42337  0.97651  Biso   1.000  N
  O77      1.0000 0.49115  0.29430  0.83993  Biso   1.000  O
  N157     1.0000 0.52328  0.29569  0.90018  Biso   1.000  N
  C235     1.0000 0.54668  0.26771  0.92378  Biso   1.000  C
  C236     1.0000 0.59823  0.26506  0.92094  Biso   1.000  C
  N158     1.0000 0.52532  0.36613  0.92596  Biso   1.000  N
  O78      1.0000 0.49635  0.41103  0.88070  Biso   1.000  O
  C237     1.0000 0.54772  0.37055  0.96235  Biso   1.000  C
  C238     1.0000 0.60006  0.38693  0.97500  Biso   1.000  C
  C239     1.0000 0.50635  0.32843  0.91545  Biso   1.000  C
  N159     1.0000 0.57773  0.28612  0.93621  Biso   1.000  N
  O79      1.0000 0.62602  0.27239  0.92568  Biso   1.000  O
  N160     1.0000 0.57891  0.35549  0.96338  Biso   1.000  N
  O80      1.0000 0.62917  0.38274  0.98317  Biso   1.000  O
  C240     1.0000 0.58830  0.31188  0.96946  Biso   1.000  C
  C241     1.0000 0.39700  0.52447  0.34039  Biso   1.000  C
  N161     1.0000 0.38477  0.49845  0.30921  Biso   1.000  N
  N162     1.0000 0.38885  0.56773  0.33499  Biso   1.000  N
  C242     1.0000 0.35323  0.48087  0.29937  Biso   1.000  C
  C243     1.0000 0.40388  0.47468  0.29458  Biso   1.000  C
  C244     1.0000 0.36071  0.58455  0.34259  Biso   1.000  C
  C245     1.0000 0.41157  0.59898  0.34050  Biso   1.000  C
  C246     1.0000 0.35334  0.44967  0.26897  Biso   1.000  C
  N163     1.0000 0.32940  0.51061  0.28165  Biso   1.000  N
  N164     1.0000 0.38580  0.44440  0.27011  Biso   1.000  N
  O81      1.0000 0.43216  0.47894  0.29921  Biso   1.000  O
  N165     1.0000 0.33332  0.58042  0.31080  Biso   1.000  N
  C247     1.0000 0.36619  0.63185  0.34552  Biso   1.000  C
  H99      1.0000 0.35701  0.57249  0.36589  Biso   1.000  H
  O82      1.0000 0.43900  0.59302  0.34025  Biso   1.000  O
  N166     1.0000 0.39830  0.63687  0.34379  Biso   1.000  N
  N167     1.0000 0.33526  0.47010  0.23559  Biso   1.000  N
  C248     1.0000 0.31968  0.50553  0.24484  Biso   1.000  C
  C249     1.0000 0.31566  0.54161  0.30174  Biso   1.000  C
  C250     1.0000 0.39890  0.41251  0.25094  Biso   1.000  C
  C251     1.0000 0.32291  0.61812  0.29533  Biso   1.000  C
  N168     1.0000 0.34304  0.64818  0.31205  Biso   1.000  N
  H100     1.0000 0.36280  0.64369  0.36909  Biso   1.000  H
  C252     1.0000 0.41630  0.67353  0.35692  Biso   1.000  C
  C253     1.0000 0.32248  0.44901  0.20039  Biso   1.000  C
  O83      1.0000 0.29974  0.52564  0.22288  Biso   1.000  O
  N169     1.0000 0.39581  0.42157  0.21312  Biso   1.000  N
  O84      1.0000 0.29881  0.62342  0.26972  Biso   1.000  O
  C254     1.0000 0.33622  0.69317  0.30628  Biso   1.000  C
  N170     1.0000 0.41334  0.70668  0.32897  Biso   1.000  N
  N171     1.0000 0.34420  0.44453  0.17729  Biso   1.000  N
  C255     1.0000 0.36769  0.41191  0.18445  Biso   1.000  C
  C256     1.0000 0.42201  0.42460  0.19894  Biso   1.000  C
  N172     1.0000 0.35890  0.71577  0.29369  Biso   1.000  N
  C257     1.0000 0.38699  0.73500  0.31868  Biso   1.000  C
  C258     1.0000 0.43756  0.72029  0.31609  Biso   1.000  C
  C259     1.0000 0.33770  0.45876  0.14103  Biso   1.000  C
  C260     1.0000 0.37832  0.41109  0.14783  Biso   1.000  C
  N173     1.0000 0.41162  0.42306  0.16118  Biso   1.000  N
  O85      1.0000 0.44886  0.42874  0.21753  Biso   1.000  O
  C261     1.0000 0.35191  0.73510  0.25927  Biso   1.000  C
  C262     1.0000 0.39715  0.76768  0.29399  Biso   1.000  C
  O86      1.0000 0.46374  0.70346  0.32445  Biso   1.000  O
  N174     1.0000 0.42871  0.75354  0.29455  Biso   1.000  N
  O87      1.0000 0.31646  0.48254  0.12646  Biso   1.000  O
  N175     1.0000 0.35815  0.44093  0.12423  Biso   1.000  N
  C263     1.0000 0.43285  0.41232  0.13917  Biso   1.000  C
  O88      1.0000 0.32867  0.72689  0.23333  Biso   1.000  O
  N176     1.0000 0.37428  0.76389  0.25852  Biso   1.000  N
  C264     1.0000 0.44991  0.78034  0.28123  Biso   1.000  C
  C265     1.0000 0.35552  0.44320  0.08605  Biso   1.000  C
  N177     1.0000 0.43289  0.44449  0.11035  Biso   1.000  N
  C266     1.0000 0.36993  0.79764  0.23185  Biso   1.000  C
  N178     1.0000 0.44384  0.78230  0.24199  Biso   1.000  N
  N179     1.0000 0.38073  0.46757  0.07624  Biso   1.000  N
  C267     1.0000 0.41073  0.44743  0.07599  Biso   1.000  C
  C268     1.0000 0.45566  0.47534  0.11364  Biso   1.000  C
  N180     1.0000 0.38977  0.79594  0.20769  Biso   1.000  N
  C269     1.0000 0.42215  0.81220  0.21937  Biso   1.000  C
  C270     1.0000 0.46599  0.77081  0.22438  Biso   1.000  C
  C271     1.0000 0.37366  0.50019  0.05088  Biso   1.000  C
  C272     1.0000 0.42491  0.47802  0.05289  Biso   1.000  C
  O89      1.0000 0.47778  0.47976  0.14154  Biso   1.000  O
  N181     1.0000 0.45081  0.49539  0.08104  Biso   1.000  N
  C273     1.0000 0.38010  0.78814  0.16937  Biso   1.000  C
  C274     1.0000 0.43146  0.81318  0.18219  Biso   1.000  C
  O90      1.0000 0.48980  0.74826  0.23915  Biso   1.000  O
  N182     1.0000 0.45896  0.78587  0.19050  Biso   1.000  N
  O91      1.0000 0.34959  0.51917  0.04177  Biso   1.000  O
  N183     1.0000 0.39912  0.50733  0.03712  Biso   1.000  N
  C275     1.0000 0.47456  0.52109  0.07217  Biso   1.000  C
  O92      1.0000 0.35388  0.77570  0.15318  Biso   1.000  O
  N184     1.0000 0.40455  0.79572  0.15541  Biso   1.000  N
  C276     1.0000 0.48128  0.78543  0.16748  Biso   1.000  C
  C277     1.0000 0.39973  0.53767  0.00956  Biso   1.000  C
  N185     1.0000 0.46684  0.56476  0.06702  Biso   1.000  N
  C278     1.0000 0.40253  0.79970  0.11654  Biso   1.000  C
  N186     1.0000 0.47328  0.75815  0.13602  Biso   1.000  N
  N187     1.0000 0.41481  0.57663  0.02349  Biso   1.000  N
  C279     1.0000 0.44889  0.58228  0.03163  Biso   1.000  C
  C280     1.0000 0.48364  0.59538  0.08965  Biso   1.000  C
  N188     1.0000 0.41782  0.76714  0.10191  Biso   1.000  N
  C281     1.0000 0.48835  0.72117  0.13507  Biso   1.000  C
  C282     1.0000 0.45072  0.76860  0.10169  Biso   1.000  C
  C283     1.0000 0.39995  0.61307  0.02500  Biso   1.000  C
  C284     1.0000 0.45228  0.62945  0.03765  Biso   1.000  C
  O93      1.0000 0.50366  0.58897  0.11930  Biso   1.000  O
  N189     1.0000 0.47468  0.63387  0.07404  Biso   1.000  N
  C285     1.0000 0.40177  0.73494  0.07906  Biso   1.000  C
  N190     1.0000 0.47673  0.70431  0.09982  Biso   1.000  N
  O94      1.0000 0.50885  0.70570  0.16007  Biso   1.000  O
  C286     1.0000 0.45333  0.73229  0.07622  Biso   1.000  C
  O95      1.0000 0.37083  0.61726  0.01683  Biso   1.000  O
  N191     1.0000 0.42109  0.64451  0.03662  Biso   1.000  N
  C287     1.0000 0.49366  0.67157  0.08455  Biso   1.000  C
  N192     1.0000 0.42227  0.71388  0.06379  Biso   1.000  N
  O96      1.0000 0.37396  0.72761  0.07432  Biso   1.000  O
  C288     1.0000 0.41170  0.68812  0.03054  Biso   1.000  C
  C289     1.0000 0.54927  0.26860  0.39830  Biso   1.000  C
  N193     1.0000 0.52671  0.25815  0.36397  Biso   1.000  N
  C290     1.0000 0.54666  0.23229  0.42377  Biso   1.000  C
  N194     1.0000 0.58216  0.26714  0.39808  Biso   1.000  N
  C291     1.0000 0.51164  0.22117  0.36494  Biso   1.000  C
  C292     1.0000 0.51871  0.28543  0.33253  Biso   1.000  C
  N195     1.0000 0.52327  0.20431  0.40019  Biso   1.000  N
  N196     1.0000 0.57774  0.21388  0.43620  Biso   1.000  N
  C293     1.0000 0.59824  0.23494  0.42095  Biso   1.000  C
  C294     1.0000 0.59748  0.29970  0.38345  Biso   1.000  C
  O97      1.0000 0.49113  0.20570  0.33992  Biso   1.000  O
  N197     1.0000 0.54103  0.28587  0.30949  Biso   1.000  N
  C295     1.0000 0.50633  0.17157  0.41544  Biso   1.000  C
  C296     1.0000 0.58829  0.18812  0.46947  Biso   1.000  C
  O98      1.0000 0.62603  0.22761  0.42569  Biso   1.000  O
  N198     1.0000 0.59546  0.29572  0.34460  Biso   1.000  N
  C297     1.0000 0.53400  0.27081  0.27560  Biso   1.000  C
  C298     1.0000 0.56853  0.31318  0.31779  Biso   1.000  C
  N199     1.0000 0.52533  0.13387  0.42597  Biso   1.000  N
  N200     1.0000 0.57890  0.14451  0.46337  Biso   1.000  N
  C299     1.0000 0.61991  0.28814  0.33061  Biso   1.000  C
  O99      1.0000 0.51022  0.24826  0.26086  Biso   1.000  O
  N201     1.0000 0.55618  0.28230  0.25802  Biso   1.000  N
  C300     1.0000 0.57784  0.31220  0.28062  Biso   1.000  C
  C301     1.0000 0.51637  0.09538  0.41034  Biso   1.000  C
  C302     1.0000 0.54773  0.12945  0.46234  Biso   1.000  C
  C303     1.0000 0.60005  0.11307  0.47502  Biso   1.000  C
  N202     1.0000 0.61022  0.29594  0.29229  Biso   1.000  N
  O100     1.0000 0.64611  0.27570  0.34683  Biso   1.000  O
  C304     1.0000 0.55008  0.28034  0.21878  Biso   1.000  C
  O101     1.0000 0.49635  0.08897  0.38069  Biso   1.000  O
  N203     1.0000 0.53314  0.06476  0.43297  Biso   1.000  N
  C305     1.0000 0.55112  0.08228  0.46836  Biso   1.000  C
  N204     1.0000 0.58521  0.07663  0.47652  Biso   1.000  N
  O102     1.0000 0.62916  0.11726  0.48318  Biso   1.000  O
  C306     1.0000 0.63006  0.29764  0.26816  Biso   1.000  C
  N205     1.0000 0.57128  0.25354  0.20543  Biso   1.000  N
  C307     1.0000 0.52543  0.02109  0.42781  Biso   1.000  C
  C308     1.0000 0.60029  0.03767  0.49043  Biso   1.000  C
  N206     1.0000 0.62572  0.26389  0.24149  Biso   1.000  N
  C309     1.0000 0.56243  0.22029  0.18392  Biso   1.000  C
  C310     1.0000 0.60284  0.26768  0.20602  Biso   1.000  C
  N207     1.0000 0.54921  0.99539  0.41898  Biso   1.000  N
  N208     1.0000 0.60087  0.00733  0.46287  Biso   1.000  N
  C311     1.0000 0.64808  0.23510  0.24071  Biso   1.000  C
  O103     1.0000 0.53626  0.20346  0.17556  Biso   1.000  O
  N209     1.0000 0.58667  0.20668  0.17102  Biso   1.000  N
  C312     1.0000 0.61302  0.23500  0.18130  Biso   1.000  C
  C313     1.0000 0.54434  0.97534  0.38637  Biso   1.000  C
  C314     1.0000 0.57511  0.97802  0.44712  Biso   1.000  C
  C315     1.0000 0.62636  0.00019  0.44913  Biso   1.000  C
  N210     1.0000 0.64109  0.21577  0.20630  Biso   1.000  N
  O104     1.0000 0.67132  0.22689  0.26666  Biso   1.000  O
  C316     1.0000 0.58369  0.17353  0.14310  Biso   1.000  C
  O105     1.0000 0.52221  0.97976  0.35845  Biso   1.000  O
  N211     1.0000 0.56712  0.94449  0.38963  Biso   1.000  N
  C317     1.0000 0.58928  0.94743  0.42399  Biso   1.000  C
  N212     1.0000 0.61926  0.96757  0.42377  Biso   1.000  N
  O106     1.0000 0.65043  0.01917  0.45824  Biso   1.000  O
  C318     1.0000 0.66377  0.19317  0.19373  Biso   1.000  C
  N213     1.0000 0.60169  0.13687  0.15622  Biso   1.000  N
  C319     1.0000 0.56714  0.91232  0.36082  Biso   1.000  C
  C320     1.0000 0.64447  0.94320  0.41396  Biso   1.000  C
  N214     1.0000 0.65695  0.14818  0.18793  Biso   1.000  N
  C321     1.0000 0.58842  0.09898  0.15951  Biso   1.000  C
  C322     1.0000 0.63380  0.13185  0.15447  Biso   1.000  C
  N215     1.0000 0.58840  0.92306  0.33883  Biso   1.000  N
  N216     1.0000 0.64184  0.94093  0.37578  Biso   1.000  N
  C323     1.0000 0.67710  0.11812  0.20465  Biso   1.000  C
  O107     1.0000 0.56101  0.09302  0.15973  Biso   1.000  O
  N217     1.0000 0.61114  0.06773  0.16500  Biso   1.000  N
  H101     1.0000 0.63719  0.14369  0.13089  Biso   1.000  H
  C324     1.0000 0.63931  0.08455  0.15742  Biso   1.000  C
  C325     1.0000 0.57800  0.92460  0.30104  Biso   1.000  C
  C326     1.0000 0.62169  0.91109  0.35218  Biso   1.000  C
  C327     1.0000 0.66229  0.95876  0.35898  Biso   1.000  C
  N218     1.0000 0.66667  0.08042  0.18919  Biso   1.000  N
  O108     1.0000 0.70118  0.12342  0.23026  Biso   1.000  O
  C328     1.0000 0.60301  0.02447  0.15959  Biso   1.000  C
  H102     1.0000 0.64300  0.07249  0.13409  Biso   1.000  H
  O109     1.0000 0.55113  0.92874  0.28246  Biso   1.000  O
  N219     1.0000 0.60418  0.92157  0.28686  Biso   1.000  N
  C329     1.0000 0.63230  0.91191  0.31556  Biso   1.000  C
  N220     1.0000 0.65579  0.94453  0.32270  Biso   1.000  N
  O110     1.0000 0.68355  0.98254  0.37355  Biso   1.000  O
  C330     1.0000 0.68436  0.04161  0.19827  Biso   1.000  C
  N221     1.0000 0.61522  0.99845  0.19078  Biso   1.000  N
  C331     1.0000 0.60111  0.91251  0.24905  Biso   1.000  C
  C332     1.0000 0.67751  0.94901  0.29960  Biso   1.000  C
  N222     1.0000 0.67059  0.01061  0.21834  Biso   1.000  N
  C333     1.0000 0.59612  0.97468  0.20543  Biso   1.000  C
  C334     1.0000 0.64677  0.98087  0.20064  Biso   1.000  C
  N223     1.0000 0.61420  0.94440  0.22990  Biso   1.000  N
  N224     1.0000 0.66472  0.97010  0.26440  Biso   1.000  N
  C335     1.0000 0.68031  0.00553  0.25518  Biso   1.000  C
  O111     1.0000 0.56783  0.97894  0.20078  Biso   1.000  O
  C336     1.0000 0.64666  0.94967  0.23104  Biso   1.000  C
  O112     1.0000 0.70025  0.02564  0.27711  Biso   1.000  O
  C337     1.0000 0.45072  0.73140  0.60170  Biso   1.000  C
  N225     1.0000 0.41784  0.73286  0.60192  Biso   1.000  N
  N226     1.0000 0.47327  0.74185  0.63603  Biso   1.000  N
  C338     1.0000 0.45332  0.76771  0.57623  Biso   1.000  C
  C339     1.0000 0.40253  0.70030  0.61655  Biso   1.000  C
  C340     1.0000 0.40176  0.76506  0.57904  Biso   1.000  C
  C341     1.0000 0.48834  0.77883  0.63506  Biso   1.000  C
  C342     1.0000 0.48127  0.71457  0.66749  Biso   1.000  C
  N227     1.0000 0.42227  0.78612  0.56380  Biso   1.000  N
  N228     1.0000 0.47674  0.79569  0.59980  Biso   1.000  N
  N229     1.0000 0.40454  0.70428  0.65540  Biso   1.000  N
  O113     1.0000 0.37398  0.77239  0.57433  Biso   1.000  O
  O114     1.0000 0.50887  0.79430  0.66008  Biso   1.000  O
  N230     1.0000 0.45895  0.71413  0.69051  Biso   1.000  N
  C343     1.0000 0.41169  0.81188  0.53053  Biso   1.000  C
  C344     1.0000 0.49365  0.82843  0.58456  Biso   1.000  C
  C345     1.0000 0.43148  0.68682  0.68221  Biso   1.000  C
  C346     1.0000 0.38010  0.71186  0.66939  Biso   1.000  C
  C347     1.0000 0.46600  0.72919  0.72440  Biso   1.000  C
  N231     1.0000 0.42109  0.85549  0.53663  Biso   1.000  N
  N232     1.0000 0.47467  0.86613  0.57403  Biso   1.000  N
  C348     1.0000 0.42214  0.68780  0.71938  Biso   1.000  C
  O115     1.0000 0.35387  0.72430  0.65317  Biso   1.000  O
  N233     1.0000 0.38979  0.70406  0.70770  Biso   1.000  N
  N234     1.0000 0.44383  0.71770  0.74198  Biso   1.000  N
  O116     1.0000 0.48978  0.75174  0.73914  Biso   1.000  O
  C349     1.0000 0.45228  0.87055  0.53766  Biso   1.000  C
  C350     1.0000 0.39996  0.88693  0.52498  Biso   1.000  C
  C351     1.0000 0.48363  0.90462  0.58966  Biso   1.000  C
  C352     1.0000 0.36994  0.70236  0.73184  Biso   1.000  C
  C353     1.0000 0.44990  0.71966  0.78122  Biso   1.000  C
  C354     1.0000 0.44888  0.91772  0.53164  Biso   1.000  C
  O117     1.0000 0.37082  0.88274  0.51682  Biso   1.000  O
  N235     1.0000 0.41480  0.92337  0.52348  Biso   1.000  N
  O118     1.0000 0.50365  0.91103  0.61931  Biso   1.000  O
  N236     1.0000 0.46686  0.93524  0.56703  Biso   1.000  N
  N237     1.0000 0.37427  0.73611  0.75853  Biso   1.000  N
  N238     1.0000 0.42873  0.74646  0.79456  Biso   1.000  N
  C355     1.0000 0.39972  0.96233  0.50957  Biso   1.000  C
  C356     1.0000 0.47458  0.97891  0.57219  Biso   1.000  C
  C357     1.0000 0.39716  0.73232  0.79398  Biso   1.000  C
  C358     1.0000 0.35192  0.76490  0.75929  Biso   1.000  C
  C359     1.0000 0.43757  0.77971  0.81608  Biso   1.000  C
  N239     1.0000 0.39913  0.99267  0.53713  Biso   1.000  N
  N240     1.0000 0.45080  0.00461  0.58102  Biso   1.000  N
  C360     1.0000 0.38698  0.76500  0.81870  Biso   1.000  C
  O119     1.0000 0.32868  0.77311  0.73334  Biso   1.000  O
  N241     1.0000 0.35891  0.78423  0.79370  Biso   1.000  N
  O120     1.0000 0.46373  0.79654  0.82444  Biso   1.000  O
  N242     1.0000 0.41334  0.79332  0.82898  Biso   1.000  N
  C361     1.0000 0.37364  0.99981  0.55087  Biso   1.000  C
  C362     1.0000 0.42490  0.02198  0.55288  Biso   1.000  C
  C363     1.0000 0.45565  0.02466  0.61365  Biso   1.000  C
  C364     1.0000 0.33621  0.80683  0.80627  Biso   1.000  C
  C365     1.0000 0.41629  0.82647  0.85690  Biso   1.000  C
  O121     1.0000 0.34958  0.98083  0.54176  Biso   1.000  O
  N243     1.0000 0.38074  0.03243  0.57623  Biso   1.000  N
  C366     1.0000 0.41073  0.05257  0.57601  Biso   1.000  C
  O122     1.0000 0.47779  0.02024  0.64155  Biso   1.000  O
  N244     1.0000 0.43288  0.05551  0.61037  Biso   1.000  N
  N245     1.0000 0.34305  0.85182  0.81206  Biso   1.000  N
  N246     1.0000 0.39829  0.86313  0.84378  Biso   1.000  N
  C367     1.0000 0.35551  0.05680  0.58604  Biso   1.000  C
  C368     1.0000 0.43287  0.08768  0.63918  Biso   1.000  C
  C369     1.0000 0.36618  0.86815  0.84553  Biso   1.000  C
  C370     1.0000 0.32290  0.88188  0.79534  Biso   1.000  C
  C371     1.0000 0.41156  0.90102  0.84049  Biso   1.000  C
  N247     1.0000 0.35814  0.05907  0.62422  Biso   1.000  N
  N248     1.0000 0.41160  0.07694  0.66117  Biso   1.000  N
  H103     1.0000 0.36279  0.85631  0.86911  Biso   1.000  H
  C372     1.0000 0.36069  0.91545  0.84258  Biso   1.000  C
  O123     1.0000 0.29883  0.87658  0.76974  Biso   1.000  O
  N249     1.0000 0.33334  0.91958  0.81081  Biso   1.000  N
  O124     1.0000 0.43899  0.90698  0.84027  Biso   1.000  O
  N250     1.0000 0.38884  0.93227  0.83500  Biso   1.000  N
  C373     1.0000 0.37831  0.08891  0.64782  Biso   1.000  C
  C374     1.0000 0.33771  0.04124  0.64102  Biso   1.000  C
  C375     1.0000 0.42201  0.07540  0.69895  Biso   1.000  C
  H104     1.0000 0.35700  0.92751  0.86590  Biso   1.000  H
  C376     1.0000 0.31565  0.95839  0.80173  Biso   1.000  C
  C377     1.0000 0.39700  0.97553  0.84041  Biso   1.000  C
  C378     1.0000 0.36770  0.08809  0.68444  Biso   1.000  C
  O125     1.0000 0.31646  0.01746  0.62647  Biso   1.000  O
  N251     1.0000 0.34419  0.05547  0.67730  Biso   1.000  N
  O126     1.0000 0.44885  0.07126  0.71754  Biso   1.000  O
  N252     1.0000 0.39582  0.07843  0.71314  Biso   1.000  N
  N253     1.0000 0.32939  0.98939  0.78166  Biso   1.000  N
  N254     1.0000 0.38479  0.00155  0.80922  Biso   1.000  N
  C379     1.0000 0.32249  0.05099  0.70040  Biso   1.000  C
  C380     1.0000 0.39890  0.08749  0.75095  Biso   1.000  C
  C381     1.0000 0.31969  0.99447  0.74482  Biso   1.000  C
  C382     1.0000 0.35322  0.01913  0.79936  Biso   1.000  C
  C383     1.0000 0.40389  0.02532  0.79456  Biso   1.000  C
  N255     1.0000 0.33528  0.02990  0.73560  Biso   1.000  N
  N256     1.0000 0.38581  0.05560  0.77010  Biso   1.000  N
  O127     1.0000 0.29976  0.97436  0.72289  Biso   1.000  O
  C384     1.0000 0.35333  0.05033  0.76898  Biso   1.000  C
  O128     1.0000 0.43215  0.02106  0.79922  Biso   1.000  O
  O129     1.0000 0.71711  0.53413  0.61588  Biso   1.000  O
  C385     1.0000 0.71763  0.57268  0.61234  Biso   1.000  C
  N257     1.0000 0.71101  0.60176  0.63703  Biso   1.000  N
  N258     1.0000 0.72299  0.59336  0.58241  Biso   1.000  N
  C386     1.0000 0.69729  0.58869  0.66515  Biso   1.000  C
  C387     1.0000 0.70963  0.64420  0.62187  Biso   1.000  C
  C388     1.0000 0.71668  0.64079  0.58470  Biso   1.000  C
  C389     1.0000 0.72513  0.57189  0.54945  Biso   1.000  C
  N259     1.0000 0.71773  0.59453  0.70336  Biso   1.000  N
  H105     1.0000 0.67769  0.60479  0.66270  Biso   1.000  H
  H106     1.0000 0.69169  0.55851  0.66139  Biso   1.000  H
  N260     1.0000 0.73340  0.67144  0.64339  Biso   1.000  N
  H107     1.0000 0.68840  0.65679  0.61900  Biso   1.000  H
  N261     1.0000 0.74351  0.66636  0.58777  Biso   1.000  N
  H108     1.0000 0.69870  0.65029  0.56391  Biso   1.000  H
  N262     1.0000 0.75469  0.57685  0.54078  Biso   1.000  N
  H109     1.0000 0.72141  0.54139  0.55229  Biso   1.000  H
  H110     1.0000 0.70831  0.58241  0.52819  Biso   1.000  H
  C390     1.0000 0.72218  0.63412  0.72066  Biso   1.000  C
  C391     1.0000 0.73355  0.56188  0.72376  Biso   1.000  C
  C392     1.0000 0.73121  0.69055  0.67655  Biso   1.000  C
  C393     1.0000 0.75168  0.68628  0.62207  Biso   1.000  C
  C394     1.0000 0.75395  0.67953  0.55686  Biso   1.000  C
  C395     1.0000 0.76184  0.61310  0.52164  Biso   1.000  C
  C396     1.0000 0.77406  0.54401  0.54078  Biso   1.000  C
  N263     1.0000 0.74217  0.66393  0.70918  Biso   1.000  N
  C397     1.0000 0.74267  0.62266  0.76168  Biso   1.000  C
  H111     1.0000 0.70179  0.64729  0.72119  Biso   1.000  H
  O130     1.0000 0.73360  0.52595  0.71392  Biso   1.000  O
  N264     1.0000 0.74762  0.57751  0.75770  Biso   1.000  N
  H112     1.0000 0.74361  0.71691  0.68031  Biso   1.000  H
  H113     1.0000 0.70910  0.69831  0.67410  Biso   1.000  H
  O131     1.0000 0.77315  0.71325  0.63174  Biso   1.000  O
  N265     1.0000 0.77418  0.64903  0.54588  Biso   1.000  N
  H114     1.0000 0.73549  0.68471  0.53549  Biso   1.000  H
  H115     1.0000 0.76540  0.70649  0.56299  Biso   1.000  H
  H116     1.0000 0.74391  0.62140  0.50021  Biso   1.000  H
  C398     1.0000 0.79111  0.59892  0.50865  Biso   1.000  C
  O132     1.0000 0.77201  0.50871  0.55279  Biso   1.000  O
  N266     1.0000 0.79619  0.55611  0.52320  Biso   1.000  N
  C399     1.0000 0.76952  0.67252  0.73593  Biso   1.000  C
  N267     1.0000 0.77023  0.64846  0.76636  Biso   1.000  N
  H117     1.0000 0.73129  0.62869  0.78099  Biso   1.000  H
  C400     1.0000 0.76062  0.54891  0.78941  Biso   1.000  C
  C401     1.0000 0.80452  0.65840  0.54616  Biso   1.000  C
  N268     1.0000 0.81457  0.62869  0.52604  Biso   1.000  N
  H118     1.0000 0.78691  0.59949  0.48090  Biso   1.000  H
  C402     1.0000 0.81443  0.52630  0.50982  Biso   1.000  C
  O133     1.0000 0.78954  0.69756  0.73223  Biso   1.000  O
  C403     1.0000 0.79148  0.65616  0.80195  Biso   1.000  C
  N269     1.0000 0.79425  0.55285  0.80476  Biso   1.000  N
  H119     1.0000 0.75571  0.51939  0.78110  Biso   1.000  H
  H120     1.0000 0.75021  0.55481  0.80931  Biso   1.000  H
  O134     1.0000 0.81951  0.68799  0.56310  Biso   1.000  O
  C404     1.0000 0.84140  0.63542  0.51149  Biso   1.000  C
  N270     1.0000 0.84761  0.53239  0.52289  Biso   1.000  N
  H121     1.0000 0.80929  0.49770  0.51721  Biso   1.000  H
  H122     1.0000 0.80840  0.52741  0.48229  Biso   1.000  H
  N271     1.0000 0.81526  0.62386  0.81357  Biso   1.000  N
  H123     1.0000 0.80190  0.68370  0.80120  Biso   1.000  H
  H124     1.0000 0.77940  0.65831  0.82079  Biso   1.000  H
  C405     1.0000 0.80914  0.58411  0.83043  Biso   1.000  C
  C406     1.0000 0.81391  0.52055  0.80189  Biso   1.000  C
  N272     1.0000 0.86660  0.60385  0.52401  Biso   1.000  N
  H125     1.0000 0.83439  0.63501  0.48391  Biso   1.000  H
  H126     1.0000 0.85009  0.66380  0.51910  Biso   1.000  H
  C407     1.0000 0.86397  0.56315  0.50748  Biso   1.000  C
  C408     1.0000 0.86752  0.50022  0.54045  Biso   1.000  C
  C409     1.0000 0.84629  0.63482  0.82486  Biso   1.000  C
  C410     1.0000 0.84214  0.56646  0.84673  Biso   1.000  C
  H127     1.0000 0.79799  0.58891  0.85019  Biso   1.000  H
  O135     1.0000 0.80664  0.48813  0.78370  Biso   1.000  O
  N273     1.0000 0.84333  0.52987  0.82310  Biso   1.000  N
  C411     1.0000 0.89684  0.61654  0.53917  Biso   1.000  C
  H128     1.0000 0.85541  0.56501  0.47981  Biso   1.000  H
  C412     1.0000 0.89811  0.54644  0.51793  Biso   1.000  C
  O136     1.0000 0.85913  0.46915  0.55533  Biso   1.000  O
  N274     1.0000 0.89679  0.51080  0.54087  Biso   1.000  N
  O137     1.0000 0.85787  0.66848  0.82006  Biso   1.000  O
  N275     1.0000 0.86289  0.60094  0.84277  Biso   1.000  N
  H129     1.0000 0.84549  0.55810  0.87340  Biso   1.000  H
  C413     1.0000 0.86741  0.49785  0.83422  Biso   1.000  C
  O138     1.0000 0.90521  0.65121  0.55090  Biso   1.000  O
  N276     1.0000 0.91573  0.58335  0.53861  Biso   1.000  N
  H130     1.0000 0.90539  0.53880  0.49550  Biso   1.000  H
  C414     1.0000 0.92290  0.48020  0.55196  Biso   1.000  C
  C415     1.0000 0.89501  0.60274  0.86108  Biso   1.000  C
  N277     1.0000 0.89537  0.50811  0.82427  Biso   1.000  N
  H131     1.0000 0.85921  0.47070  0.82240  Biso   1.000  H
  H132     1.0000 0.87230  0.49400  0.86161  Biso   1.000  H
  C416     1.0000 0.94939  0.58496  0.55073  Biso   1.000  C
  N278     1.0000 0.94467  0.49100  0.58712  Biso   1.000  N
  H133     1.0000 0.93429  0.47919  0.53239  Biso   1.000  H
  H134     1.0000 0.91421  0.45169  0.55391  Biso   1.000  H
  N279     1.0000 0.91485  0.57833  0.84386  Biso   1.000  N
  H135     1.0000 0.90181  0.63261  0.86231  Biso   1.000  H
  H136     1.0000 0.89799  0.59270  0.88700  Biso   1.000  H
  C417     1.0000 0.91988  0.53385  0.84829  Biso   1.000  C
  C418     1.0000 0.90875  0.47941  0.80368  Biso   1.000  C
  N280     1.0000 0.96172  0.56454  0.58540  Biso   1.000  N
  H137     1.0000 0.95619  0.61490  0.55290  Biso   1.000  H
  H138     1.0000 0.95810  0.57151  0.53170  Biso   1.000  H
  C419     1.0000 0.96958  0.52090  0.58896  Biso   1.000  C
  C420     1.0000 0.94872  0.46713  0.61767  Biso   1.000  C
  C421     1.0000 0.93341  0.59592  0.82371  Biso   1.000  C
  C422     1.0000 0.94770  0.52643  0.83143  Biso   1.000  C
  H139     1.0000 0.92470  0.52491  0.87499  Biso   1.000  H
  O139     1.0000 0.89414  0.45065  0.78470  Biso   1.000  O
  N281     1.0000 0.93914  0.49034  0.80864  Biso   1.000  N
  C423     1.0000 0.96971  0.58474  0.61914  Biso   1.000  C
  C424     1.0000 0.98871  0.51670  0.63149  Biso   1.000  C
  H140     1.0000 0.98270  0.51269  0.57191  Biso   1.000  H
  O140     1.0000 0.93174  0.43606  0.62132  Biso   1.000  O
  N282     1.0000 0.97521  0.48150  0.64431  Biso   1.000  N
  O141     1.0000 0.93350  0.63387  0.81641  Biso   1.000  O
  N283     1.0000 0.95092  0.56416  0.81429  Biso   1.000  N
  H141     1.0000 0.96710  0.52040  0.85169  Biso   1.000  H
  C425     1.0000 0.96078  0.46429  0.79465  Biso   1.000  C
  O142     1.0000 0.96459  0.62153  0.62416  Biso   1.000  O
  N284     1.0000 0.98301  0.55626  0.64659  Biso   1.000  N
  H142     1.0000 0.01149  0.51231  0.63400  Biso   1.000  H
  C426     1.0000 0.98842  0.45816  0.67797  Biso   1.000  C
  C427     1.0000 0.97977  0.57575  0.80309  Biso   1.000  C
  N285     1.0000 0.96979  0.48131  0.76374  Biso   1.000  N
  H143     1.0000 0.95090  0.43641  0.78749  Biso   1.000  H
  H144     1.0000 0.97991  0.45959  0.81521  Biso   1.000  H
  C428     1.0000 0.00110  0.57117  0.68318  Biso   1.000  C
  N286     1.0000 0.98317  0.47831  0.71074  Biso   1.000  N
  H145     1.0000 0.97909  0.42950  0.67549  Biso   1.000  H
  H146     1.0000 0.01120  0.45501  0.68120  Biso   1.000  H
  N287     1.0000 0.98154  0.55693  0.76887  Biso   1.000  N
  H147     1.0000 0.99831  0.56700  0.82310  Biso   1.000  H
  H148     1.0000 0.98059  0.60681  0.80070  Biso   1.000  H
  C429     1.0000 0.99291  0.51433  0.76792  Biso   1.000  C
  C430     1.0000 0.96535  0.45990  0.73209  Biso   1.000  C
  N288     1.0000 0.99096  0.55371  0.71319  Biso   1.000  N
  H149     1.0000 0.99949  0.60230  0.68399  Biso   1.000  H
  H150     1.0000 0.02340  0.56391  0.68650  Biso   1.000  H
  C431     1.0000 0.00088  0.51295  0.72927  Biso   1.000  C
  C432     1.0000 0.98220  0.57887  0.73827  Biso   1.000  C
  H151     1.0000 0.01171  0.50859  0.78910  Biso   1.000  H
  O143     1.0000 0.94837  0.42921  0.72200  Biso   1.000  O
  H152     1.0000 0.02380  0.50849  0.73239  Biso   1.000  H
  O144     1.0000 0.97683  0.61755  0.73465  Biso   1.000  O
  O145     1.0000 0.28291  0.46587  0.38414  Biso   1.000  O
  C433     1.0000 0.28238  0.42732  0.38765  Biso   1.000  C
  N289     1.0000 0.28900  0.39824  0.36296  Biso   1.000  N
  N290     1.0000 0.27701  0.40664  0.41758  Biso   1.000  N
  C434     1.0000 0.30271  0.41131  0.33485  Biso   1.000  C
  C435     1.0000 0.29038  0.35580  0.37812  Biso   1.000  C
  C436     1.0000 0.28330  0.35921  0.41530  Biso   1.000  C
  C437     1.0000 0.27487  0.42811  0.45055  Biso   1.000  C
  N291     1.0000 0.28228  0.40547  0.29664  Biso   1.000  N
  H153     1.0000 0.32229  0.39521  0.33730  Biso   1.000  H
  H154     1.0000 0.30831  0.44149  0.33861  Biso   1.000  H
  N292     1.0000 0.26660  0.32856  0.35661  Biso   1.000  N
  H155     1.0000 0.31161  0.34321  0.38099  Biso   1.000  H
  N293     1.0000 0.25647  0.33364  0.41223  Biso   1.000  N
  H156     1.0000 0.30129  0.34971  0.43609  Biso   1.000  H
  N294     1.0000 0.24532  0.42315  0.45924  Biso   1.000  N
  H157     1.0000 0.27860  0.45861  0.44771  Biso   1.000  H
  H158     1.0000 0.29170  0.41759  0.47181  Biso   1.000  H
  C438     1.0000 0.27782  0.36588  0.27934  Biso   1.000  C
  C439     1.0000 0.26646  0.43812  0.27624  Biso   1.000  C
  C440     1.0000 0.26879  0.30945  0.32345  Biso   1.000  C
  C441     1.0000 0.24833  0.31372  0.37793  Biso   1.000  C
  C442     1.0000 0.24606  0.32047  0.44314  Biso   1.000  C
  C443     1.0000 0.23817  0.38690  0.47836  Biso   1.000  C
  C444     1.0000 0.22593  0.45599  0.45924  Biso   1.000  C
  N295     1.0000 0.25784  0.33607  0.29082  Biso   1.000  N
  C445     1.0000 0.25733  0.37734  0.23832  Biso   1.000  C
  H159     1.0000 0.29821  0.35271  0.27881  Biso   1.000  H
  N296     1.0000 0.25239  0.42249  0.24230  Biso   1.000  N
  O146     1.0000 0.26641  0.47405  0.28608  Biso   1.000  O
  H160     1.0000 0.25639  0.28309  0.31969  Biso   1.000  H
  H161     1.0000 0.29090  0.30169  0.32590  Biso   1.000  H
  O147     1.0000 0.22685  0.28675  0.36826  Biso   1.000  O
  N297     1.0000 0.22583  0.35097  0.45412  Biso   1.000  N
  H162     1.0000 0.26449  0.31529  0.46451  Biso   1.000  H
  H163     1.0000 0.23460  0.29351  0.43701  Biso   1.000  H
  H164     1.0000 0.25609  0.37860  0.49979  Biso   1.000  H
  C446     1.0000 0.20889  0.40108  0.49135  Biso   1.000  C
  N298     1.0000 0.20379  0.44389  0.47680  Biso   1.000  N
  O148     1.0000 0.22799  0.49129  0.44721  Biso   1.000  O
  C447     1.0000 0.23049  0.32748  0.26407  Biso   1.000  C
  N299     1.0000 0.22978  0.35154  0.23363  Biso   1.000  N
  H165     1.0000 0.26869  0.37131  0.21900  Biso   1.000  H
  C448     1.0000 0.23938  0.45109  0.21059  Biso   1.000  C
  C449     1.0000 0.19548  0.34160  0.45384  Biso   1.000  C
  N300     1.0000 0.18541  0.37131  0.47396  Biso   1.000  N
  H166     1.0000 0.21310  0.40051  0.51910  Biso   1.000  H
  C450     1.0000 0.18558  0.47370  0.49018  Biso   1.000  C
  O149     1.0000 0.21047  0.30244  0.26777  Biso   1.000  O
  C451     1.0000 0.20853  0.34384  0.19805  Biso   1.000  C
  N301     1.0000 0.20576  0.44715  0.19526  Biso   1.000  N
  H167     1.0000 0.24430  0.48061  0.21889  Biso   1.000  H
  H168     1.0000 0.24980  0.44519  0.19069  Biso   1.000  H
  O150     1.0000 0.18050  0.31201  0.43692  Biso   1.000  O
  C452     1.0000 0.15861  0.36458  0.48850  Biso   1.000  C
  N302     1.0000 0.15239  0.46761  0.47711  Biso   1.000  N
  H169     1.0000 0.19069  0.50230  0.48279  Biso   1.000  H
  H170     1.0000 0.19160  0.47259  0.51771  Biso   1.000  H
  N303     1.0000 0.18472  0.37614  0.18643  Biso   1.000  N
  H171     1.0000 0.19810  0.31630  0.19880  Biso   1.000  H
  H172     1.0000 0.22060  0.34169  0.17921  Biso   1.000  H
  C453     1.0000 0.19087  0.41589  0.16957  Biso   1.000  C
  C454     1.0000 0.18609  0.47945  0.19810  Biso   1.000  C
  N304     1.0000 0.13340  0.39615  0.47599  Biso   1.000  N
  H173     1.0000 0.16559  0.36499  0.51609  Biso   1.000  H
  H174     1.0000 0.14989  0.33620  0.48090  Biso   1.000  H
  C455     1.0000 0.13603  0.43685  0.49252  Biso   1.000  C
  C456     1.0000 0.13248  0.49978  0.45955  Biso   1.000  C
  C457     1.0000 0.15371  0.36518  0.17514  Biso   1.000  C
  C458     1.0000 0.15786  0.43354  0.15327  Biso   1.000  C
  H175     1.0000 0.20201  0.41109  0.14981  Biso   1.000  H
  N305     1.0000 0.15668  0.47013  0.17690  Biso   1.000  N
  O151     1.0000 0.19334  0.51187  0.21630  Biso   1.000  O
  C459     1.0000 0.10316  0.38346  0.46083  Biso   1.000  C
  H176     1.0000 0.14460  0.43499  0.52019  Biso   1.000  H
  C460     1.0000 0.10187  0.45356  0.48207  Biso   1.000  C
  N306     1.0000 0.10321  0.48920  0.45913  Biso   1.000  N
  O152     1.0000 0.14085  0.53085  0.44467  Biso   1.000  O
  O153     1.0000 0.14214  0.33152  0.17996  Biso   1.000  O
  N307     1.0000 0.13711  0.39906  0.15722  Biso   1.000  N
  H177     1.0000 0.15449  0.44190  0.12660  Biso   1.000  H
  C461     1.0000 0.13260  0.50215  0.16578  Biso   1.000  C
  O154     1.0000 0.09480  0.34879  0.44910  Biso   1.000  O
  N308     1.0000 0.08427  0.41665  0.46139  Biso   1.000  N
  H178     1.0000 0.09459  0.46120  0.50450  Biso   1.000  H
  C462     1.0000 0.07711  0.51980  0.44804  Biso   1.000  C
  C463     1.0000 0.10500  0.39726  0.13892  Biso   1.000  C
  N309     1.0000 0.10464  0.49189  0.17573  Biso   1.000  N
  H179     1.0000 0.14080  0.52930  0.17759  Biso   1.000  H
  H180     1.0000 0.12769  0.50600  0.13839  Biso   1.000  H
  C464     1.0000 0.05062  0.41504  0.44927  Biso   1.000  C
  N310     1.0000 0.05534  0.50900  0.41287  Biso   1.000  N
  H181     1.0000 0.06569  0.52081  0.46760  Biso   1.000  H
  H182     1.0000 0.08580  0.54831  0.44609  Biso   1.000  H
  N311     1.0000 0.08516  0.42167  0.15614  Biso   1.000  N
  H183     1.0000 0.09820  0.36739  0.13769  Biso   1.000  H
  H184     1.0000 0.10199  0.40730  0.11300  Biso   1.000  H
  C465     1.0000 0.08011  0.46615  0.15171  Biso   1.000  C
  C466     1.0000 0.09124  0.52059  0.19632  Biso   1.000  C
  N312     1.0000 0.03829  0.43546  0.41460  Biso   1.000  N
  H185     1.0000 0.04379  0.38510  0.44709  Biso   1.000  H
  H186     1.0000 0.04191  0.42849  0.46830  Biso   1.000  H
  C467     1.0000 0.03043  0.47910  0.41103  Biso   1.000  C
  C468     1.0000 0.05126  0.53287  0.38233  Biso   1.000  C
  C469     1.0000 0.06660  0.40408  0.17629  Biso   1.000  C
  C470     1.0000 0.05228  0.47357  0.16857  Biso   1.000  C
  H187     1.0000 0.07531  0.47509  0.12501  Biso   1.000  H
  N313     1.0000 0.06087  0.50966  0.19136  Biso   1.000  N
  O155     1.0000 0.10586  0.54935  0.21530  Biso   1.000  O
  C471     1.0000 0.03027  0.41526  0.38085  Biso   1.000  C
  C472     1.0000 0.01129  0.48330  0.36851  Biso   1.000  C
  H188     1.0000 0.01730  0.48731  0.42809  Biso   1.000  H
  N314     1.0000 0.02480  0.51850  0.35569  Biso   1.000  N
  O156     1.0000 0.06827  0.56394  0.37868  Biso   1.000  O
  O157     1.0000 0.06650  0.36613  0.18359  Biso   1.000  O
  N315     1.0000 0.04909  0.43584  0.18570  Biso   1.000  N
  H189     1.0000 0.03290  0.47960  0.14831  Biso   1.000  H
  C473     1.0000 0.03923  0.53571  0.20535  Biso   1.000  C
  N316     1.0000 0.01700  0.44374  0.35343  Biso   1.000  N
  O158     1.0000 0.03539  0.37847  0.37584  Biso   1.000  O
  H190     1.0000 0.98849  0.48769  0.36600  Biso   1.000  H
  C474     1.0000 0.01158  0.54184  0.32203  Biso   1.000  C
  C475     1.0000 0.02021  0.42425  0.19691  Biso   1.000  C
  N317     1.0000 0.03022  0.51869  0.23625  Biso   1.000  N
  H191     1.0000 0.04911  0.56359  0.21251  Biso   1.000  H
  H192     1.0000 0.02010  0.54041  0.18481  Biso   1.000  H
  C476     1.0000 0.99891  0.42883  0.31682  Biso   1.000  C
  N318     1.0000 0.01683  0.52169  0.28926  Biso   1.000  N
  H193     1.0000 0.02089  0.57050  0.32451  Biso   1.000  H
  H194     1.0000 0.98880  0.54499  0.31880  Biso   1.000  H
  N319     1.0000 0.01846  0.44307  0.23113  Biso   1.000  N
  H195     1.0000 0.00170  0.43300  0.17690  Biso   1.000  H
  H196     1.0000 0.01941  0.39319  0.19930  Biso   1.000  H
  C477     1.0000 0.00709  0.48567  0.23207  Biso   1.000  C
  C478     1.0000 0.03463  0.54010  0.26791  Biso   1.000  C
  N320     1.0000 0.00904  0.44629  0.28680  Biso   1.000  N
  H197     1.0000 0.00051  0.39770  0.31601  Biso   1.000  H
  H198     1.0000 0.97660  0.43609  0.31350  Biso   1.000  H
  C479     1.0000 0.99912  0.48705  0.27073  Biso   1.000  C
  C480     1.0000 0.01781  0.42113  0.26172  Biso   1.000  C
  H199     1.0000 0.98829  0.49141  0.21090  Biso   1.000  H
  O159     1.0000 0.05164  0.57079  0.27800  Biso   1.000  O
  H200     1.0000 0.97621  0.49151  0.26760  Biso   1.000  H
  O160     1.0000 0.02318  0.38245  0.26535  Biso   1.000  O
  O161     1.0000 0.72882  0.29360  0.55081  Biso   1.000  O
  C481     1.0000 0.74311  0.26399  0.57071  Biso   1.000  C
  N321     1.0000 0.73480  0.22323  0.56784  Biso   1.000  N
  N322     1.0000 0.76946  0.26958  0.59925  Biso   1.000  N
  C482     1.0000 0.70508  0.20905  0.54499  Biso   1.000  C
  C483     1.0000 0.75406  0.19800  0.59824  Biso   1.000  C
  C484     1.0000 0.77700  0.22964  0.61945  Biso   1.000  C
  C485     1.0000 0.78192  0.30993  0.61162  Biso   1.000  C
  N323     1.0000 0.70787  0.17675  0.51910  Biso   1.000  N
  N324     1.0000 0.77335  0.16677  0.58626  Biso   1.000  N
  N325     1.0000 0.80739  0.21337  0.61884  Biso   1.000  N
  N326     1.0000 0.81277  0.31634  0.60655  Biso   1.000  N
  C486     1.0000 0.69718  0.18272  0.48065  Biso   1.000  C
  C487     1.0000 0.71091  0.13248  0.52852  Biso   1.000  C
  C488     1.0000 0.76246  0.12377  0.57843  Biso   1.000  C
  C489     1.0000 0.80429  0.17312  0.60111  Biso   1.000  C
  C490     1.0000 0.83577  0.22515  0.64303  Biso   1.000  C
  C491     1.0000 0.84116  0.30484  0.63238  Biso   1.000  C
  C492     1.0000 0.81637  0.33986  0.57823  Biso   1.000  C
  N327     1.0000 0.69205  0.14398  0.46465  Biso   1.000  N
  O162     1.0000 0.69226  0.21716  0.46501  Biso   1.000  O
  C493     1.0000 0.69899  0.10984  0.49043  Biso   1.000  C
  N328     1.0000 0.74334  0.11831  0.54075  Biso   1.000  N
  O163     1.0000 0.82571  0.14966  0.59913  Biso   1.000  O
  N329     1.0000 0.85096  0.26010  0.63007  Biso   1.000  N
  C494     1.0000 0.86556  0.32751  0.61842  Biso   1.000  C
  O164     1.0000 0.79665  0.35277  0.55109  Biso   1.000  O
  N330     1.0000 0.84887  0.34450  0.58041  Biso   1.000  N
  C495     1.0000 0.67254  0.13883  0.42675  Biso   1.000  C
  N331     1.0000 0.72442  0.08279  0.48859  Biso   1.000  N
  C496     1.0000 0.74958  0.08717  0.51852  Biso   1.000  C
  C497     1.0000 0.88059  0.25966  0.62196  Biso   1.000  C
  N332     1.0000 0.88839  0.29742  0.61608  Biso   1.000  N
  C498     1.0000 0.85957  0.37948  0.56411  Biso   1.000  C
  N333     1.0000 0.68991  0.12405  0.40106  Biso   1.000  N
  C499     1.0000 0.72130  0.04995  0.46248  Biso   1.000  C
  O165     1.0000 0.77413  0.06586  0.52342  Biso   1.000  O
  C500     1.0000 0.92016  0.30683  0.61251  Biso   1.000  C
  N334     1.0000 0.87981  0.36559  0.54251  Biso   1.000  N
  C501     1.0000 0.69567  0.08017  0.39741  Biso   1.000  C
  C502     1.0000 0.69369  0.14792  0.37191  Biso   1.000  C
  N335     1.0000 0.72271  0.06289  0.42508  Biso   1.000  N
  N336     1.0000 0.91883  0.31580  0.57339  Biso   1.000  N
  C503     1.0000 0.91310  0.35612  0.55694  Biso   1.000  C
  C504     1.0000 0.87357  0.37459  0.50483  Biso   1.000  C
  C505     1.0000 0.70629  0.07818  0.36051  Biso   1.000  C
  O166     1.0000 0.68837  0.18641  0.36678  Biso   1.000  O
  N337     1.0000 0.70417  0.12200  0.34822  Biso   1.000  N
  C506     1.0000 0.74710  0.05298  0.41067  Biso   1.000  C
  C507     1.0000 0.93224  0.28988  0.55385  Biso   1.000  C
  C508     1.0000 0.92690  0.35293  0.52462  Biso   1.000  C
  O167     1.0000 0.84828  0.38823  0.48371  Biso   1.000  O
  N338     1.0000 0.89995  0.36739  0.49316  Biso   1.000  N
  N339     1.0000 0.73800  0.06207  0.37266  Biso   1.000  N
  C509     1.0000 0.70918  0.13428  0.31328  Biso   1.000  C
  O168     1.0000 0.77119  0.03565  0.42692  Biso   1.000  O
  O169     1.0000 0.94169  0.25429  0.56282  Biso   1.000  O
  N340     1.0000 0.93564  0.31308  0.52119  Biso   1.000  N
  C510     1.0000 0.90169  0.37835  0.45487  Biso   1.000  C
  C511     1.0000 0.75556  0.04600  0.34831  Biso   1.000  C
  N341     1.0000 0.74102  0.13962  0.31325  Biso   1.000  N
  C512     1.0000 0.95780  0.29843  0.50149  Biso   1.000  C
  N342     1.0000 0.90476  0.34204  0.43350  Biso   1.000  N
  N343     1.0000 0.77329  0.07729  0.33602  Biso   1.000  N
  C513     1.0000 0.75915  0.10482  0.30397  Biso   1.000  C
  C514     1.0000 0.75330  0.17776  0.30957  Biso   1.000  C
  N344     1.0000 0.94207  0.28808  0.46309  Biso   1.000  N
  C515     1.0000 0.88397  0.33699  0.39916  Biso   1.000  C
  C516     1.0000 0.93430  0.32192  0.43444  Biso   1.000  C
  C517     1.0000 0.80500  0.08029  0.34741  Biso   1.000  C
  C518     1.0000 0.78906  0.12790  0.29826  Biso   1.000  C
  O170     1.0000 0.74139  0.21236  0.31319  Biso   1.000  O
  N345     1.0000 0.78202  0.17242  0.30252  Biso   1.000  N
  C519     1.0000 0.94111  0.25057  0.44782  Biso   1.000  C
  N346     1.0000 0.89594  0.30851  0.37874  Biso   1.000  N
  O171     1.0000 0.85910  0.35501  0.38704  Biso   1.000  O
  C520     1.0000 0.92697  0.29689  0.39757  Biso   1.000  C
  O172     1.0000 0.82212  0.05888  0.37085  Biso   1.000  O
  N347     1.0000 0.81464  0.11174  0.32841  Biso   1.000  N
  C521     1.0000 0.79636  0.20599  0.28669  Biso   1.000  C
  N348     1.0000 0.92987  0.25189  0.41092  Biso   1.000  N
  O173     1.0000 0.94613  0.21672  0.46602  Biso   1.000  O
  C522     1.0000 0.88388  0.30216  0.33869  Biso   1.000  C
  C523     1.0000 0.84724  0.11692  0.32941  Biso   1.000  C
  N349     1.0000 0.82766  0.21798  0.30954  Biso   1.000  N
  C524     1.0000 0.92961  0.21729  0.38710  Biso   1.000  C
  N350     1.0000 0.86773  0.26203  0.32863  Biso   1.000  N
  N351     1.0000 0.85986  0.15828  0.33814  Biso   1.000  N
  C525     1.0000 0.85512  0.19112  0.31161  Biso   1.000  C
  C526     1.0000 0.83577  0.25751  0.31698  Biso   1.000  C
  N352     1.0000 0.89705  0.20422  0.36494  Biso   1.000  N
  C527     1.0000 0.88252  0.22180  0.32799  Biso   1.000  C
  C528     1.0000 0.88544  0.16639  0.36932  Biso   1.000  C
  O174     1.0000 0.81722  0.28827  0.31147  Biso   1.000  O
  O175     1.0000 0.89416  0.14221  0.39504  Biso   1.000  O
  O176     1.0000 0.27116  0.70640  0.44918  Biso   1.000  O
  C529     1.0000 0.25687  0.73601  0.42929  Biso   1.000  C
  N353     1.0000 0.23055  0.73042  0.40075  Biso   1.000  N
  N354     1.0000 0.26521  0.77677  0.43216  Biso   1.000  N
  C530     1.0000 0.21809  0.69007  0.38838  Biso   1.000  C
  C531     1.0000 0.22299  0.77036  0.38055  Biso   1.000  C
  C532     1.0000 0.24595  0.80200  0.40178  Biso   1.000  C
  C533     1.0000 0.29490  0.79095  0.45501  Biso   1.000  C
  N355     1.0000 0.18724  0.68366  0.39345  Biso   1.000  N
  N356     1.0000 0.19262  0.78663  0.38116  Biso   1.000  N
  N357     1.0000 0.22666  0.83323  0.41374  Biso   1.000  N
  N358     1.0000 0.29211  0.82325  0.48090  Biso   1.000  N
  C534     1.0000 0.18364  0.66014  0.42176  Biso   1.000  C
  C535     1.0000 0.15885  0.69516  0.36762  Biso   1.000  C
  C536     1.0000 0.16423  0.77485  0.35697  Biso   1.000  C
  C537     1.0000 0.19572  0.82688  0.39888  Biso   1.000  C
  C538     1.0000 0.23752  0.87623  0.42157  Biso   1.000  C
  C539     1.0000 0.28907  0.86752  0.47148  Biso   1.000  C
  C540     1.0000 0.30282  0.81728  0.51935  Biso   1.000  C
  O177     1.0000 0.20333  0.64723  0.44893  Biso   1.000  O
  N359     1.0000 0.15111  0.65550  0.41959  Biso   1.000  N
  C541     1.0000 0.13445  0.67249  0.38158  Biso   1.000  C
  N360     1.0000 0.14904  0.73990  0.36993  Biso   1.000  N
  O178     1.0000 0.17427  0.85034  0.40086  Biso   1.000  O
  N361     1.0000 0.25664  0.88169  0.45924  Biso   1.000  N
  C542     1.0000 0.30101  0.89016  0.50957  Biso   1.000  C
  O179     1.0000 0.30774  0.78284  0.53499  Biso   1.000  O
  N362     1.0000 0.30796  0.85602  0.53535  Biso   1.000  N
  C543     1.0000 0.14044  0.62052  0.43589  Biso   1.000  C
  N363     1.0000 0.11162  0.70258  0.38392  Biso   1.000  N
  C544     1.0000 0.11941  0.74034  0.37804  Biso   1.000  C
  C545     1.0000 0.25040  0.91283  0.48148  Biso   1.000  C
  N364     1.0000 0.27559  0.91721  0.51141  Biso   1.000  N
  C546     1.0000 0.32747  0.86117  0.57325  Biso   1.000  C
  N365     1.0000 0.12019  0.63441  0.45749  Biso   1.000  N
  C547     1.0000 0.07985  0.69317  0.38749  Biso   1.000  C
  O180     1.0000 0.22587  0.93414  0.47658  Biso   1.000  O
  C548     1.0000 0.27870  0.95005  0.53752  Biso   1.000  C
  N366     1.0000 0.31009  0.87595  0.59894  Biso   1.000  N
  C549     1.0000 0.08691  0.64388  0.44305  Biso   1.000  C
  C550     1.0000 0.12642  0.62541  0.49519  Biso   1.000  C
  N367     1.0000 0.08118  0.68420  0.42661  Biso   1.000  N
  N368     1.0000 0.27730  0.93711  0.57492  Biso   1.000  N
  C551     1.0000 0.30431  0.91983  0.60259  Biso   1.000  C
  C552     1.0000 0.30629  0.85208  0.62809  Biso   1.000  C
  C553     1.0000 0.07308  0.64707  0.47538  Biso   1.000  C
  O181     1.0000 0.15173  0.61177  0.51629  Biso   1.000  O
  N369     1.0000 0.10006  0.63261  0.50684  Biso   1.000  N
  C554     1.0000 0.06777  0.71012  0.44615  Biso   1.000  C
  C555     1.0000 0.25291  0.94702  0.58935  Biso   1.000  C
  C556     1.0000 0.29372  0.92182  0.63949  Biso   1.000  C
  O182     1.0000 0.31164  0.81359  0.63324  Biso   1.000  O
  N370     1.0000 0.29584  0.87800  0.65178  Biso   1.000  N
  N371     1.0000 0.06436  0.68692  0.47881  Biso   1.000  N
  C557     1.0000 0.09831  0.62165  0.54513  Biso   1.000  C
  O183     1.0000 0.05832  0.74571  0.43717  Biso   1.000  O
  O184     1.0000 0.22879  0.96435  0.57308  Biso   1.000  O
  N372     1.0000 0.26200  0.93793  0.62734  Biso   1.000  N
  C558     1.0000 0.29082  0.86572  0.68672  Biso   1.000  C
  C559     1.0000 0.04218  0.70157  0.49851  Biso   1.000  C
  N373     1.0000 0.09525  0.65796  0.56650  Biso   1.000  N
  C560     1.0000 0.24445  0.95400  0.65169  Biso   1.000  C
  N374     1.0000 0.25899  0.86038  0.68675  Biso   1.000  N
  N375     1.0000 0.05794  0.71192  0.53691  Biso   1.000  N
  C561     1.0000 0.06570  0.67808  0.56556  Biso   1.000  C
  C562     1.0000 0.11604  0.66301  0.60083  Biso   1.000  C
  N376     1.0000 0.22672  0.92271  0.66398  Biso   1.000  N
  C563     1.0000 0.24671  0.82224  0.69043  Biso   1.000  C
  C564     1.0000 0.24086  0.89518  0.69603  Biso   1.000  C
  C565     1.0000 0.05889  0.74943  0.55218  Biso   1.000  C
  C566     1.0000 0.07303  0.70311  0.60242  Biso   1.000  C
  O185     1.0000 0.14091  0.64499  0.61296  Biso   1.000  O
  N377     1.0000 0.10407  0.69149  0.62126  Biso   1.000  N
  C567     1.0000 0.19499  0.91971  0.65258  Biso   1.000  C
  N378     1.0000 0.21799  0.82758  0.69748  Biso   1.000  N
  O186     1.0000 0.25862  0.78764  0.68680  Biso   1.000  O
  C568     1.0000 0.21094  0.87210  0.70174  Biso   1.000  C
  O187     1.0000 0.05388  0.78328  0.53398  Biso   1.000  O
  N379     1.0000 0.07014  0.74811  0.58910  Biso   1.000  N
  C569     1.0000 0.11613  0.69784  0.66131  Biso   1.000  C
  N380     1.0000 0.18534  0.88826  0.67159  Biso   1.000  N
  O188     1.0000 0.17788  0.94112  0.62915  Biso   1.000  O
  C570     1.0000 0.20362  0.79401  0.71330  Biso   1.000  C
  C571     1.0000 0.07039  0.78271  0.61290  Biso   1.000  C
  N381     1.0000 0.13228  0.73797  0.67139  Biso   1.000  N
  C572     1.0000 0.15274  0.88308  0.67059  Biso   1.000  C
  N382     1.0000 0.17235  0.78202  0.69045  Biso   1.000  N
  N383     1.0000 0.10293  0.79578  0.63506  Biso   1.000  N
  C573     1.0000 0.11749  0.77820  0.67201  Biso   1.000  C
  C574     1.0000 0.16424  0.74249  0.68301  Biso   1.000  C
  N384     1.0000 0.14012  0.84172  0.66186  Biso   1.000  N
  C575     1.0000 0.14488  0.80888  0.68839  Biso   1.000  C
  C576     1.0000 0.11456  0.83361  0.63068  Biso   1.000  C
  O189     1.0000 0.18278  0.71173  0.68853  Biso   1.000  O
  O190     1.0000 0.10582  0.85779  0.60496  Biso   1.000  O
  O191     1.0000 0.65136  0.17043  0.69940  Biso   1.000  O
  C577     1.0000 0.66195  0.13548  0.69706  Biso   1.000  C
  N385     1.0000 0.64711  0.10119  0.67864  Biso   1.000  N
  N386     1.0000 0.69324  0.12345  0.71278  Biso   1.000  N
  C578     1.0000 0.61489  0.10482  0.65476  Biso   1.000  C
  C579     1.0000 0.66730  0.06659  0.67725  Biso   1.000  C
  C580     1.0000 0.70023  0.08326  0.69870  Biso   1.000  C
  C581     1.0000 0.71698  0.15430  0.72754  Biso   1.000  C
  N387     1.0000 0.59280  0.08190  0.66838  Biso   1.000  N
  N388     1.0000 0.66330  0.03041  0.69806  Biso   1.000  N
  N389     1.0000 0.71206  0.05137  0.72646  Biso   1.000  N
  N390     1.0000 0.73436  0.14679  0.76472  Biso   1.000  N
  C582     1.0000 0.57406  0.09879  0.68839  Biso   1.000  C
  C583     1.0000 0.58657  0.03603  0.66248  Biso   1.000  C
  C584     1.0000 0.63904  0.99896  0.68368  Biso   1.000  C
  C585     1.0000 0.69053  0.01901  0.72487  Biso   1.000  C
  C586     1.0000 0.74447  0.04768  0.74569  Biso   1.000  C
  C587     1.0000 0.73406  0.17242  0.79448  Biso   1.000  C
  C588     1.0000 0.76178  0.11891  0.77366  Biso   1.000  C
  N391     1.0000 0.55334  0.06877  0.69346  Biso   1.000  N
  O192     1.0000 0.57579  0.13555  0.69907  Biso   1.000  O
  C589     1.0000 0.55652  0.02965  0.67471  Biso   1.000  C
  N392     1.0000 0.60890  0.00995  0.68859  Biso   1.000  N
  O193     1.0000 0.69491  0.98756  0.74307  Biso   1.000  O
  N393     1.0000 0.75496  0.07518  0.77684  Biso   1.000  N
  O194     1.0000 0.71380  0.19891  0.79434  Biso   1.000  O
  N394     1.0000 0.75875  0.16387  0.82349  Biso   1.000  N
  C590     1.0000 0.77994  0.13229  0.81560  Biso   1.000  C
  C591     1.0000 0.52464  0.08067  0.70260  Biso   1.000  C
  N395     1.0000 0.56332  0.99359  0.69893  Biso   1.000  N
  C592     1.0000 0.59420  0.98166  0.70690  Biso   1.000  C
  C593     1.0000 0.76710  0.05898  0.81310  Biso   1.000  C
  C594     1.0000 0.76811  0.19064  0.85637  Biso   1.000  C
  N396     1.0000 0.78031  0.09210  0.83606  Biso   1.000  N
  N397     1.0000 0.52032  0.06166  0.73579  Biso   1.000  N
  C595     1.0000 0.54011  0.96779  0.70932  Biso   1.000  C
  O195     1.0000 0.60645  0.95242  0.72607  Biso   1.000  O
  O196     1.0000 0.76730  0.02318  0.82271  Biso   1.000  O
  N398     1.0000 0.76265  0.17264  0.88970  Biso   1.000  N
  C596     1.0000 0.79881  0.08724  0.87329  Biso   1.000  C
  C597     1.0000 0.51603  0.08569  0.76508  Biso   1.000  C
  C598     1.0000 0.50667  0.01967  0.73476  Biso   1.000  C
  N399     1.0000 0.52939  0.98548  0.74056  Biso   1.000  N
  C599     1.0000 0.74212  0.18824  0.90748  Biso   1.000  C
  C600     1.0000 0.78523  0.14524  0.91350  Biso   1.000  C
  N400     1.0000 0.78392  0.10154  0.90090  Biso   1.000  N
  O197     1.0000 0.52104  0.12314  0.76912  Biso   1.000  O
  N401     1.0000 0.50518  0.05948  0.78793  Biso   1.000  N
  C601     1.0000 0.49694  0.01882  0.77155  Biso   1.000  C
  C602     1.0000 0.53308  0.96404  0.77311  Biso   1.000  C
  O198     1.0000 0.72082  0.21543  0.89313  Biso   1.000  O
  N402     1.0000 0.74749  0.17015  0.94173  Biso   1.000  N
  C603     1.0000 0.77429  0.14293  0.94903  Biso   1.000  C
  C604     1.0000 0.77535  0.07511  0.92484  Biso   1.000  C
  C605     1.0000 0.49174  0.07694  0.81613  Biso   1.000  C
  N403     1.0000 0.51430  0.98447  0.79225  Biso   1.000  N
  O199     1.0000 0.55015  0.93370  0.78336  Biso   1.000  O
  C606     1.0000 0.73336  0.18467  0.96893  Biso   1.000  C
  N404     1.0000 0.76784  0.09845  0.95235  Biso   1.000  N
  O200     1.0000 0.77500  0.03628  0.92264  Biso   1.000  O
  N405     1.0000 0.50691  0.06318  0.85414  Biso   1.000  N
  C607     1.0000 0.50680  0.96407  0.82399  Biso   1.000  C
  N406     1.0000 0.71136  0.15443  0.97812  Biso   1.000  N
  C608     1.0000 0.76315  0.07856  0.98662  Biso   1.000  C
  C609     1.0000 0.51654  0.09118  0.88195  Biso   1.000  C
  C610     1.0000 0.50021  0.02141  0.86849  Biso   1.000  C
  N407     1.0000 0.51715  0.98734  0.85785  Biso   1.000  N
  C611     1.0000 0.68069  0.16336  0.97194  Biso   1.000  C
  C612     1.0000 0.72169  0.12156  0.00490  Biso   1.000  C
  N408     1.0000 0.73215  0.08244  0.98980  Biso   1.000  N
  O201     1.0000 0.52060  0.12882  0.87828  Biso   1.000  O
  N409     1.0000 0.52130  0.07047  0.91498  Biso   1.000  N
  C613     1.0000 0.51573  0.02728  0.91074  Biso   1.000  C
  C614     1.0000 0.54227  0.97521  0.88605  Biso   1.000  C
  N410     1.0000 0.66759  0.13561  0.99275  Biso   1.000  N
  O202     1.0000 0.66637  0.19288  0.95198  Biso   1.000  O
  C615     1.0000 0.69182  0.10675  0.01471  Biso   1.000  C
  C616     1.0000 0.71262  0.04916  0.98829  Biso   1.000  C
  C617     1.0000 0.53281  0.09264  0.95012  Biso   1.000  C
  N411     1.0000 0.54341  0.00054  0.91712  Biso   1.000  N
  O203     1.0000 0.56041  0.94680  0.88438  Biso   1.000  O
  C618     1.0000 0.63912  0.14300  0.00234  Biso   1.000  C
  N412     1.0000 0.68741  0.06353  0.00036  Biso   1.000  N
  O204     1.0000 0.71730  0.01440  0.97954  Biso   1.000  O
  N413     1.0000 0.56711  0.08926  0.96564  Biso   1.000  N
  C619     1.0000 0.56211  0.98762  0.95240  Biso   1.000  C
  N414     1.0000 0.61554  0.11111  0.98615  Biso   1.000  N
  C620     1.0000 0.66745  0.03404  0.01307  Biso   1.000  C
  C621     1.0000 0.58626  0.12257  0.96748  Biso   1.000  C
  C622     1.0000 0.58245  0.05465  0.98813  Biso   1.000  C
  N415     1.0000 0.58665  0.01705  0.96823  Biso   1.000  N
  C623     1.0000 0.61479  0.07101  0.00524  Biso   1.000  C
  N416     1.0000 0.63524  0.03953  0.99362  Biso   1.000  N
  O205     1.0000 0.57816  0.15739  0.95340  Biso   1.000  O
  C624     1.0000 0.61861  0.00856  0.97433  Biso   1.000  C
  O206     1.0000 0.62815  0.97540  0.96188  Biso   1.000  O
  C625     1.0000 0.70920  0.36572  0.81329  Biso   1.000  C
  N417     1.0000 0.70416  0.37800  0.84824  Biso   1.000  N
  N418     1.0000 0.74101  0.36038  0.81326  Biso   1.000  N
  C626     1.0000 0.70628  0.42182  0.86052  Biso   1.000  C
  C627     1.0000 0.69370  0.35208  0.87192  Biso   1.000  C
  C628     1.0000 0.75916  0.39518  0.80398  Biso   1.000  C
  C629     1.0000 0.75329  0.32224  0.80956  Biso   1.000  C
  N419     1.0000 0.73799  0.43793  0.87265  Biso   1.000  N
  C630     1.0000 0.69569  0.41983  0.89742  Biso   1.000  C
  O207     1.0000 0.68836  0.31359  0.86677  Biso   1.000  O
  N420     1.0000 0.68990  0.37595  0.90107  Biso   1.000  N
  N421     1.0000 0.77328  0.42271  0.83603  Biso   1.000  N
  C631     1.0000 0.78905  0.37210  0.79824  Biso   1.000  C
  O208     1.0000 0.74138  0.28764  0.81318  Biso   1.000  O
  N422     1.0000 0.78203  0.32758  0.80251  Biso   1.000  N
  C632     1.0000 0.74709  0.44702  0.91066  Biso   1.000  C
  C633     1.0000 0.75555  0.45400  0.84829  Biso   1.000  C
  N423     1.0000 0.72270  0.43711  0.92509  Biso   1.000  N
  C634     1.0000 0.67253  0.36117  0.92674  Biso   1.000  C
  C635     1.0000 0.80501  0.41971  0.84740  Biso   1.000  C
  N424     1.0000 0.81466  0.38826  0.82842  Biso   1.000  N
  C636     1.0000 0.79638  0.29401  0.78671  Biso   1.000  C
  O209     1.0000 0.77121  0.46435  0.92693  Biso   1.000  O
  C637     1.0000 0.72130  0.45005  0.96249  Biso   1.000  C
  N425     1.0000 0.69206  0.35602  0.96466  Biso   1.000  N
  O210     1.0000 0.82214  0.44112  0.87086  Biso   1.000  O
  C638     1.0000 0.84725  0.38308  0.82940  Biso   1.000  C
  N426     1.0000 0.82767  0.28202  0.80953  Biso   1.000  N
  N427     1.0000 0.72441  0.41721  0.98860  Biso   1.000  N
  C639     1.0000 0.69899  0.39016  0.99044  Biso   1.000  C
  C640     1.0000 0.69717  0.31728  0.98063  Biso   1.000  C
  N428     1.0000 0.85987  0.34172  0.83812  Biso   1.000  N
  C641     1.0000 0.85512  0.30888  0.81162  Biso   1.000  C
  C642     1.0000 0.83578  0.24249  0.81697  Biso   1.000  C
  C643     1.0000 0.74959  0.41283  0.01850  Biso   1.000  C
  C644     1.0000 0.71093  0.36752  0.02853  Biso   1.000  C
  O211     1.0000 0.69226  0.28284  0.96503  Biso   1.000  O
  N429     1.0000 0.70789  0.32325  0.01911  Biso   1.000  N
  C645     1.0000 0.88543  0.33361  0.86930  Biso   1.000  C
  C646     1.0000 0.88251  0.27820  0.82800  Biso   1.000  C
  O212     1.0000 0.81721  0.21173  0.81148  Biso   1.000  O
  N430     1.0000 0.86772  0.23797  0.82862  Biso   1.000  N
  O213     1.0000 0.77415  0.43414  0.02341  Biso   1.000  O
  N431     1.0000 0.74336  0.38169  0.04074  Biso   1.000  N
  C647     1.0000 0.70509  0.29095  0.04497  Biso   1.000  C
  O214     1.0000 0.89418  0.35779  0.89505  Biso   1.000  O
  N432     1.0000 0.89707  0.29578  0.86496  Biso   1.000  N
  C648     1.0000 0.88387  0.19784  0.83871  Biso   1.000  C
  C649     1.0000 0.76248  0.37623  0.07844  Biso   1.000  C
  N433     1.0000 0.73479  0.27677  0.06785  Biso   1.000  N
  C650     1.0000 0.92960  0.28271  0.88708  Biso   1.000  C
  N434     1.0000 0.89595  0.19149  0.87875  Biso   1.000  N
  N435     1.0000 0.77334  0.33323  0.08627  Biso   1.000  N
  C651     1.0000 0.75405  0.30200  0.09823  Biso   1.000  C
  C652     1.0000 0.74313  0.23601  0.07072  Biso   1.000  C
  N436     1.0000 0.92986  0.24811  0.91091  Biso   1.000  N
  C653     1.0000 0.92696  0.20311  0.89756  Biso   1.000  C
  C654     1.0000 0.88398  0.16301  0.89915  Biso   1.000  C
  C655     1.0000 0.80428  0.32688  0.10110  Biso   1.000  C
  C656     1.0000 0.77701  0.27036  0.11943  Biso   1.000  C
  O215     1.0000 0.72883  0.20640  0.05080  Biso   1.000  O
  N437     1.0000 0.76945  0.23042  0.09926  Biso   1.000  N
  C657     1.0000 0.94110  0.24943  0.94780  Biso   1.000  C
  C658     1.0000 0.93430  0.17808  0.93446  Biso   1.000  C
  O216     1.0000 0.85909  0.14499  0.88703  Biso   1.000  O
  N438     1.0000 0.90477  0.15796  0.93348  Biso   1.000  N
  O217     1.0000 0.82573  0.35034  0.09915  Biso   1.000  O
  N439     1.0000 0.80738  0.28663  0.11885  Biso   1.000  N
  C659     1.0000 0.78191  0.19007  0.11163  Biso   1.000  C
  O218     1.0000 0.94614  0.28328  0.96603  Biso   1.000  O
  N440     1.0000 0.94208  0.21192  0.96307  Biso   1.000  N
  C660     1.0000 0.90168  0.12165  0.95485  Biso   1.000  C
  C661     1.0000 0.83579  0.27485  0.14304  Biso   1.000  C
  N441     1.0000 0.81276  0.18366  0.10653  Biso   1.000  N
  C662     1.0000 0.95782  0.20157  0.00150  Biso   1.000  C
  N442     1.0000 0.89994  0.13261  0.99317  Biso   1.000  N
  N443     1.0000 0.85095  0.23990  0.13005  Biso   1.000  N
  C663     1.0000 0.84114  0.19516  0.13237  Biso   1.000  C
  C664     1.0000 0.81636  0.16014  0.07825  Biso   1.000  C
  N444     1.0000 0.93566  0.18692  0.02120  Biso   1.000  N
  C665     1.0000 0.92691  0.14707  0.02463  Biso   1.000  C
  C666     1.0000 0.87358  0.12541  0.00482  Biso   1.000  C
  C667     1.0000 0.88059  0.24034  0.12197  Biso   1.000  C
  C668     1.0000 0.86555  0.17249  0.11840  Biso   1.000  C
  O219     1.0000 0.79666  0.14723  0.05108  Biso   1.000  O
  N445     1.0000 0.84889  0.15550  0.08042  Biso   1.000  N
  C669     1.0000 0.93223  0.21012  0.05384  Biso   1.000  C
  C670     1.0000 0.91309  0.14388  0.05693  Biso   1.000  C
  O220     1.0000 0.84827  0.11177  0.98372  Biso   1.000  O
  N446     1.0000 0.87980  0.13441  0.04249  Biso   1.000  N
  N447     1.0000 0.88838  0.20258  0.11609  Biso   1.000  N
  C671     1.0000 0.85956  0.12052  0.06409  Biso   1.000  C
  O221     1.0000 0.94168  0.24571  0.06284  Biso   1.000  O
  N448     1.0000 0.91882  0.18420  0.07340  Biso   1.000  N
  C672     1.0000 0.92015  0.19317  0.11252  Biso   1.000  C
  O222     1.0000 0.34862  0.82957  0.30060  Biso   1.000  O
  C673     1.0000 0.33803  0.86452  0.30294  Biso   1.000  C
  N449     1.0000 0.30677  0.87655  0.28722  Biso   1.000  N
  N450     1.0000 0.35290  0.89881  0.32136  Biso   1.000  N
  C674     1.0000 0.28300  0.84570  0.27245  Biso   1.000  C
  C675     1.0000 0.29975  0.91674  0.30130  Biso   1.000  C
  C676     1.0000 0.33270  0.93341  0.32275  Biso   1.000  C
  C677     1.0000 0.38510  0.89518  0.34524  Biso   1.000  C
  N451     1.0000 0.26562  0.85321  0.23528  Biso   1.000  N
  N452     1.0000 0.28794  0.94863  0.27354  Biso   1.000  N
  N453     1.0000 0.33668  0.96959  0.30194  Biso   1.000  N
  N454     1.0000 0.40720  0.91810  0.33161  Biso   1.000  N
  C678     1.0000 0.26594  0.82758  0.20552  Biso   1.000  C
  C679     1.0000 0.23823  0.88109  0.22633  Biso   1.000  C
  C680     1.0000 0.25553  0.95232  0.25431  Biso   1.000  C
  C681     1.0000 0.30948  0.98099  0.27513  Biso   1.000  C
  C682     1.0000 0.36094  0.00104  0.31632  Biso   1.000  C
  C683     1.0000 0.42595  0.90121  0.31161  Biso   1.000  C
  C684     1.0000 0.41344  0.96397  0.33752  Biso   1.000  C
  O223     1.0000 0.28621  0.80109  0.20566  Biso   1.000  O
  N455     1.0000 0.24125  0.83613  0.17651  Biso   1.000  N
  C685     1.0000 0.22004  0.86771  0.18439  Biso   1.000  C
  N456     1.0000 0.24504  0.92482  0.22316  Biso   1.000  N
  O224     1.0000 0.30509  0.01244  0.25693  Biso   1.000  O
  N457     1.0000 0.39111  0.99005  0.31141  Biso   1.000  N
  O225     1.0000 0.42421  0.86445  0.30093  Biso   1.000  O
  N458     1.0000 0.44666  0.93123  0.30653  Biso   1.000  N
  C686     1.0000 0.44349  0.97035  0.32529  Biso   1.000  C
  C687     1.0000 0.23189  0.80936  0.14363  Biso   1.000  C
  N459     1.0000 0.21967  0.90790  0.16394  Biso   1.000  N
  C688     1.0000 0.23288  0.94102  0.18690  Biso   1.000  C
  C689     1.0000 0.40581  0.01834  0.29310  Biso   1.000  C
  C690     1.0000 0.47536  0.91933  0.29739  Biso   1.000  C
  N460     1.0000 0.43666  0.00641  0.30107  Biso   1.000  N
  N461     1.0000 0.23734  0.82736  0.11030  Biso   1.000  N
  C691     1.0000 0.20117  0.91276  0.12671  Biso   1.000  C
  O226     1.0000 0.23271  0.97682  0.17729  Biso   1.000  O
  O227     1.0000 0.39355  0.04758  0.27393  Biso   1.000  O
  N462     1.0000 0.47969  0.93834  0.26420  Biso   1.000  N
  C692     1.0000 0.45987  0.03221  0.29068  Biso   1.000  C
  C693     1.0000 0.25789  0.81176  0.09252  Biso   1.000  C
  C694     1.0000 0.21478  0.85476  0.08650  Biso   1.000  C
  N463     1.0000 0.21608  0.89846  0.09909  Biso   1.000  N
  C695     1.0000 0.48395  0.91431  0.23492  Biso   1.000  C
  C696     1.0000 0.49334  0.98033  0.26526  Biso   1.000  C
  N464     1.0000 0.47061  0.01452  0.25944  Biso   1.000  N
  O228     1.0000 0.27919  0.78457  0.10687  Biso   1.000  O
  N465     1.0000 0.25252  0.82985  0.05827  Biso   1.000  N
  C697     1.0000 0.22569  0.85707  0.05097  Biso   1.000  C
  C698     1.0000 0.22465  0.92489  0.07516  Biso   1.000  C
  O229     1.0000 0.47897  0.87686  0.23088  Biso   1.000  O
  N466     1.0000 0.49480  0.94052  0.21207  Biso   1.000  N
  C699     1.0000 0.50307  0.98118  0.22845  Biso   1.000  C
  C700     1.0000 0.46693  0.03596  0.22689  Biso   1.000  C
  C701     1.0000 0.26662  0.81533  0.03107  Biso   1.000  C
  N467     1.0000 0.23214  0.90155  0.04765  Biso   1.000  N
  O230     1.0000 0.22501  0.96372  0.07736  Biso   1.000  O
  C702     1.0000 0.50825  0.92306  0.18389  Biso   1.000  C
  N468     1.0000 0.48571  0.01553  0.20775  Biso   1.000  N
  O231     1.0000 0.44986  0.06630  0.21664  Biso   1.000  O
  N469     1.0000 0.28865  0.84557  0.02188  Biso   1.000  N
  C703     1.0000 0.23683  0.92144  0.01338  Biso   1.000  C
  N470     1.0000 0.49310  0.93682  0.14588  Biso   1.000  N
  C704     1.0000 0.49320  0.03593  0.17601  Biso   1.000  C
  C705     1.0000 0.31931  0.83664  0.02806  Biso   1.000  C
  C706     1.0000 0.27832  0.87844  0.99512  Biso   1.000  C
  N471     1.0000 0.26785  0.91756  0.01020  Biso   1.000  N
  C707     1.0000 0.48346  0.90882  0.11804  Biso   1.000  C
  C708     1.0000 0.49980  0.97859  0.13150  Biso   1.000  C
  N472     1.0000 0.48286  0.01266  0.14215  Biso   1.000  N
  O232     1.0000 0.33361  0.80712  0.04801  Biso   1.000  O
  N473     1.0000 0.33242  0.86439  0.00727  Biso   1.000  N
  C709     1.0000 0.30818  0.89325  0.98529  Biso   1.000  C
  C710     1.0000 0.28738  0.95084  0.01170  Biso   1.000  C
  N474     1.0000 0.47870  0.92953  0.08502  Biso   1.000  N
  O233     1.0000 0.47940  0.87118  0.12172  Biso   1.000  O
  C711     1.0000 0.48425  0.97272  0.08926  Biso   1.000  C
  C712     1.0000 0.45774  0.02479  0.11395  Biso   1.000  C
  C713     1.0000 0.36088  0.85700  0.99766  Biso   1.000  C
  N475     1.0000 0.31259  0.93647  0.99964  Biso   1.000  N
  O234     1.0000 0.28271  0.98560  0.02045  Biso   1.000  O
  C714     1.0000 0.46717  0.90736  0.04988  Biso   1.000  C
  N476     1.0000 0.45658  0.99946  0.08290  Biso   1.000  N
  O235     1.0000 0.43959  0.05320  0.11562  Biso   1.000  O
  N477     1.0000 0.38446  0.88889  0.01385  Biso   1.000  N
  C715     1.0000 0.33255  0.96596  0.98693  Biso   1.000  C
  N478     1.0000 0.43290  0.91074  0.03436  Biso   1.000  N
  C716     1.0000 0.43789  0.01238  0.04760  Biso   1.000  C
  C717     1.0000 0.41375  0.87743  0.03252  Biso   1.000  C
  C718     1.0000 0.38521  0.92899  0.99476  Biso   1.000  C
  N479     1.0000 0.36476  0.96047  0.00638  Biso   1.000  N
  C719     1.0000 0.41756  0.94535  0.01187  Biso   1.000  C
  N480     1.0000 0.41333  0.98295  0.03177  Biso   1.000  N
  O236     1.0000 0.42184  0.84261  0.04659  Biso   1.000  O
  C720     1.0000 0.38140  0.99144  0.02567  Biso   1.000  C
  O237     1.0000 0.37186  0.02460  0.03812  Biso   1.000  O
  C721     1.0000 0.29080  0.63428  0.18671  Biso   1.000  C
  N481     1.0000 0.29585  0.62200  0.15176  Biso   1.000  N
  N482     1.0000 0.25900  0.63962  0.18676  Biso   1.000  N
  C722     1.0000 0.29370  0.57818  0.13947  Biso   1.000  C
  C723     1.0000 0.30630  0.64792  0.12808  Biso   1.000  C
  C724     1.0000 0.24085  0.60482  0.19604  Biso   1.000  C
  C725     1.0000 0.24672  0.67776  0.19044  Biso   1.000  C
  N483     1.0000 0.26201  0.56207  0.12735  Biso   1.000  N
  C726     1.0000 0.30432  0.58017  0.10258  Biso   1.000  C
  N484     1.0000 0.31008  0.62405  0.09893  Biso   1.000  N
  O238     1.0000 0.31162  0.68641  0.13323  Biso   1.000  O
  N485     1.0000 0.22670  0.57729  0.16397  Biso   1.000  N
  C727     1.0000 0.21093  0.62790  0.20176  Biso   1.000  C
  N486     1.0000 0.21798  0.67242  0.19749  Biso   1.000  N
  O239     1.0000 0.25863  0.71236  0.18682  Biso   1.000  O
  C728     1.0000 0.24446  0.54600  0.15171  Biso   1.000  C
  C729     1.0000 0.25289  0.55298  0.08934  Biso   1.000  C
  N487     1.0000 0.27728  0.56289  0.07491  Biso   1.000  N
  C730     1.0000 0.32748  0.63883  0.07326  Biso   1.000  C
  C731     1.0000 0.19500  0.58029  0.15260  Biso   1.000  C
  N488     1.0000 0.18535  0.61174  0.17158  Biso   1.000  N
  C732     1.0000 0.20363  0.70599  0.21329  Biso   1.000  C
  O240     1.0000 0.22880  0.53565  0.07307  Biso   1.000  O
  C733     1.0000 0.27871  0.54995  0.03751  Biso   1.000  C
  N489     1.0000 0.30795  0.64398  0.03536  Biso   1.000  N
  O241     1.0000 0.17786  0.55888  0.12913  Biso   1.000  O
  C734     1.0000 0.15275  0.61692  0.17060  Biso   1.000  C
  N490     1.0000 0.17234  0.71798  0.19047  Biso   1.000  N
  N491     1.0000 0.27559  0.58279  0.01140  Biso   1.000  N
  C735     1.0000 0.30100  0.60984  0.00956  Biso   1.000  C
  C736     1.0000 0.30284  0.68272  0.01937  Biso   1.000  C
  N492     1.0000 0.14013  0.65828  0.16188  Biso   1.000  N
  C737     1.0000 0.14487  0.69112  0.18838  Biso   1.000  C
  C738     1.0000 0.16423  0.75751  0.18303  Biso   1.000  C
  C739     1.0000 0.25041  0.58717  0.98150  Biso   1.000  C
  C740     1.0000 0.28909  0.63248  0.97149  Biso   1.000  C
  N493     1.0000 0.29212  0.67675  0.98088  Biso   1.000  N
  O242     1.0000 0.30775  0.71716  0.03497  Biso   1.000  O
  C741     1.0000 0.11455  0.66639  0.13070  Biso   1.000  C
  C742     1.0000 0.11749  0.72180  0.17199  Biso   1.000  C
  N494     1.0000 0.13226  0.76203  0.17138  Biso   1.000  N
  O243     1.0000 0.18279  0.78827  0.18852  Biso   1.000  O
  O244     1.0000 0.22586  0.56586  0.97659  Biso   1.000  O
  N495     1.0000 0.25665  0.61831  0.95926  Biso   1.000  N
  C743     1.0000 0.29491  0.70905  0.95502  Biso   1.000  C
  O245     1.0000 0.10583  0.64221  0.10495  Biso   1.000  O
  N496     1.0000 0.10294  0.70422  0.13504  Biso   1.000  N
  C744     1.0000 0.11611  0.80216  0.16129  Biso   1.000  C
  C745     1.0000 0.23753  0.62377  0.92158  Biso   1.000  C
  N497     1.0000 0.26521  0.72323  0.93214  Biso   1.000  N
  C746     1.0000 0.07041  0.71729  0.11292  Biso   1.000  C
  N498     1.0000 0.10405  0.80851  0.12125  Biso   1.000  N
  N499     1.0000 0.22664  0.66677  0.91372  Biso   1.000  N
  C747     1.0000 0.24596  0.69800  0.90177  Biso   1.000  C
  C748     1.0000 0.25688  0.76399  0.92930  Biso   1.000  C
  N500     1.0000 0.07015  0.75189  0.08909  Biso   1.000  N
  C749     1.0000 0.07302  0.79689  0.10244  Biso   1.000  C
  C750     1.0000 0.11603  0.83699  0.10085  Biso   1.000  C
  C751     1.0000 0.19573  0.67312  0.89890  Biso   1.000  C
  C752     1.0000 0.22300  0.72964  0.88056  Biso   1.000  C
  O246     1.0000 0.27117  0.79360  0.94920  Biso   1.000  O
  N501     1.0000 0.23055  0.76958  0.90074  Biso   1.000  N
  C753     1.0000 0.05890  0.75057  0.05219  Biso   1.000  C
  C754     1.0000 0.06571  0.82192  0.06554  Biso   1.000  C
  N502     1.0000 0.09524  0.84204  0.06652  Biso   1.000  N
  O247     1.0000 0.14090  0.85501  0.11297  Biso   1.000  O
  O248     1.0000 0.17428  0.64966  0.90085  Biso   1.000  O
  N503     1.0000 0.19260  0.71337  0.88115  Biso   1.000  N
  C755     1.0000 0.21808  0.80993  0.88839  Biso   1.000  C
  O249     1.0000 0.05386  0.71672  0.03397  Biso   1.000  O
  N504     1.0000 0.05793  0.78808  0.03692  Biso   1.000  N
  C756     1.0000 0.09832  0.87835  0.04514  Biso   1.000  C
  C757     1.0000 0.16421  0.72515  0.85696  Biso   1.000  C
  N505     1.0000 0.18725  0.81634  0.89347  Biso   1.000  N
  C758     1.0000 0.04219  0.79843  0.99850  Biso   1.000  C
  N506     1.0000 0.10006  0.86739  0.00683  Biso   1.000  N
  N507     1.0000 0.14903  0.76010  0.86995  Biso   1.000  N
  C759     1.0000 0.15886  0.80484  0.86763  Biso   1.000  C
  C760     1.0000 0.18364  0.83986  0.92175  Biso   1.000  C
  N508     1.0000 0.06434  0.81308  0.97879  Biso   1.000  N
  C761     1.0000 0.07309  0.85293  0.97537  Biso   1.000  C
  C762     1.0000 0.12643  0.87459  0.99518  Biso   1.000  C
  C763     1.0000 0.11942  0.75966  0.87803  Biso   1.000  C
  C764     1.0000 0.13446  0.82751  0.88159  Biso   1.000  C
  O250     1.0000 0.20334  0.85277  0.94892  Biso   1.000  O
  N509     1.0000 0.15112  0.84450  0.91958  Biso   1.000  N
  C765     1.0000 0.06778  0.78988  0.94616  Biso   1.000  C
  C766     1.0000 0.08689  0.85612  0.94307  Biso   1.000  C
  N510     1.0000 0.12018  0.86559  0.95750  Biso   1.000  N
  O251     1.0000 0.15171  0.88823  0.01630  Biso   1.000  O
  N511     1.0000 0.11160  0.79742  0.88391  Biso   1.000  N
  C767     1.0000 0.14045  0.87948  0.93591  Biso   1.000  C
  O252     1.0000 0.05833  0.75429  0.93716  Biso   1.000  O
  N512     1.0000 0.08118  0.81580  0.92660  Biso   1.000  N
  C768     1.0000 0.07983  0.80683  0.88747  Biso   1.000  C
  C769     1.0000 0.62962  0.71416  0.22734  Biso   1.000  C
  N513     1.0000 0.61205  0.70153  0.19097  Biso   1.000  N
  C770     1.0000 0.65788  0.68518  0.23564  Biso   1.000  C
  N514     1.0000 0.64298  0.75584  0.22923  Biso   1.000  N
  H201     1.0000 0.61721  0.71050  0.24601  Biso   1.000  H
  C771     1.0000 0.62223  0.66421  0.18066  Biso   1.000  C
  C772     1.0000 0.57917  0.71240  0.17693  Biso   1.000  C
  N515     1.0000 0.65083  0.65455  0.20502  Biso   1.000  N
  N516     1.0000 0.68332  0.71293  0.23458  Biso   1.000  N
  H202     1.0000 0.66119  0.67110  0.26039  Biso   1.000  H
  C773     1.0000 0.67500  0.75433  0.23564  Biso   1.000  C
  C774     1.0000 0.62656  0.79417  0.23238  Biso   1.000  C
  O253     1.0000 0.60995  0.64297  0.15304  Biso   1.000  O
  N517     1.0000 0.57464  0.75392  0.15937  Biso   1.000  N
  H203     1.0000 0.56920  0.71189  0.19780  Biso   1.000  H
  H204     1.0000 0.56871  0.69089  0.15851  Biso   1.000  H
  C775     1.0000 0.66310  0.61288  0.20903  Biso   1.000  C
  C776     1.0000 0.71613  0.69977  0.25194  Biso   1.000  C
  O254     1.0000 0.69274  0.78517  0.23988  Biso   1.000  O
  N518     1.0000 0.60639  0.80863  0.19780  Biso   1.000  N
  H205     1.0000 0.61390  0.78959  0.25030  Biso   1.000  H
  H206     1.0000 0.64211  0.81649  0.24261  Biso   1.000  H
  C777     1.0000 0.55711  0.75799  0.12395  Biso   1.000  C
  C778     1.0000 0.57533  0.79303  0.18038  Biso   1.000  C
  N519     1.0000 0.69419  0.61038  0.20379  Biso   1.000  N
  H207     1.0000 0.64901  0.59431  0.19061  Biso   1.000  H
  H208     1.0000 0.66359  0.60230  0.23419  Biso   1.000  H
  N520     1.0000 0.72743  0.66917  0.22990  Biso   1.000  N
  H209     1.0000 0.72980  0.72499  0.25551  Biso   1.000  H
  H210     1.0000 0.71741  0.68761  0.27680  Biso   1.000  H
  C779     1.0000 0.61459  0.84077  0.17737  Biso   1.000  C
  O255     1.0000 0.54975  0.72960  0.10102  Biso   1.000  O
  N521     1.0000 0.54847  0.79935  0.11813  Biso   1.000  N
  H211     1.0000 0.56211  0.79120  0.19830  Biso   1.000  H
  C780     1.0000 0.56251  0.82385  0.14962  Biso   1.000  C
  C781     1.0000 0.70095  0.57963  0.17955  Biso   1.000  C
  C782     1.0000 0.72176  0.62506  0.23104  Biso   1.000  C
  C783     1.0000 0.75237  0.67744  0.21480  Biso   1.000  C
  N522     1.0000 0.58977  0.84864  0.14758  Biso   1.000  N
  O256     1.0000 0.63958  0.85984  0.18579  Biso   1.000  O
  C784     1.0000 0.52697  0.81283  0.08315  Biso   1.000  C
  H212     1.0000 0.54650  0.84238  0.15630  Biso   1.000  H
  O257     1.0000 0.68260  0.56018  0.15703  Biso   1.000  O
  N523     1.0000 0.73339  0.57616  0.18958  Biso   1.000  N
  C785     1.0000 0.74876  0.60404  0.21848  Biso   1.000  C
  H213     1.0000 0.72171  0.61581  0.25671  Biso   1.000  H
  N524     1.0000 0.76408  0.64044  0.20724  Biso   1.000  N
  O258     1.0000 0.76237  0.71303  0.21042  Biso   1.000  O
  C786     1.0000 0.58925  0.88387  0.12381  Biso   1.000  C
  N525     1.0000 0.54205  0.82827  0.05576  Biso   1.000  N
  H214     1.0000 0.51341  0.78871  0.07240  Biso   1.000  H
  H215     1.0000 0.51330  0.83541  0.08859  Biso   1.000  H
  C787     1.0000 0.74814  0.54597  0.17099  Biso   1.000  C
  H216     1.0000 0.76320  0.58841  0.23949  Biso   1.000  H
  C788     1.0000 0.79423  0.63627  0.19933  Biso   1.000  C
  N526     1.0000 0.58724  0.87131  0.08524  Biso   1.000  N
  H217     1.0000 0.60850  0.90080  0.13351  Biso   1.000  H
  H218     1.0000 0.57109  0.90200  0.12409  Biso   1.000  H
  C789     1.0000 0.53874  0.80750  0.02268  Biso   1.000  C
  C790     1.0000 0.55696  0.86805  0.05782  Biso   1.000  C
  N527     1.0000 0.76034  0.56413  0.14234  Biso   1.000  N
  H219     1.0000 0.73269  0.52390  0.15979  Biso   1.000  H
  H220     1.0000 0.76551  0.53221  0.18969  Biso   1.000  H
  N528     1.0000 0.79279  0.62645  0.16124  Biso   1.000  N
  H221     1.0000 0.80589  0.66301  0.20599  Biso   1.000  H
  H222     1.0000 0.80620  0.61379  0.21541  Biso   1.000  H
  C791     1.0000 0.61081  0.87854  0.06939  Biso   1.000  C
  O259     1.0000 0.52522  0.77460  0.01374  Biso   1.000  O
  N529     1.0000 0.55370  0.83099  0.00229  Biso   1.000  N
  H223     1.0000 0.54261  0.89151  0.06061  Biso   1.000  H
  C792     1.0000 0.56561  0.87083  0.02004  Biso   1.000  C
  C793     1.0000 0.74739  0.55541  0.10517  Biso   1.000  C
  C794     1.0000 0.79094  0.58272  0.14903  Biso   1.000  C
  C795     1.0000 0.80122  0.65177  0.13800  Biso   1.000  C
  N530     1.0000 0.59937  0.87367  0.03068  Biso   1.000  N
  O260     1.0000 0.63814  0.88750  0.08555  Biso   1.000  O
  C796     1.0000 0.54890  0.82395  0.96277  Biso   1.000  C
  H224     1.0000 0.55570  0.89571  0.00490  Biso   1.000  H
  O261     1.0000 0.72261  0.53748  0.09316  Biso   1.000  O
  N531     1.0000 0.76696  0.57041  0.08591  Biso   1.000  N
  C797     1.0000 0.79636  0.58547  0.11021  Biso   1.000  C
  H225     1.0000 0.80720  0.56492  0.16611  Biso   1.000  H
  N532     1.0000 0.80275  0.62993  0.10667  Biso   1.000  N
  O262     1.0000 0.80668  0.69105  0.14162  Biso   1.000  O
  C798     1.0000 0.61691  0.88952  0.00496  Biso   1.000  C
  N533     1.0000 0.57853  0.81289  0.95316  Biso   1.000  N
  H226     1.0000 0.54001  0.84980  0.94909  Biso   1.000  H
  H227     1.0000 0.53360  0.80080  0.95469  Biso   1.000  H
  C799     1.0000 0.76371  0.55854  0.04782  Biso   1.000  C
  H228     1.0000 0.81441  0.56750  0.10821  Biso   1.000  H
  C800     1.0000 0.81370  0.64527  0.07686  Biso   1.000  C
  H229     1.0000 0.63719  0.90089  0.01970  Biso   1.000  H
  N534     1.0000 0.62255  0.85902  0.98052  Biso   1.000  N
  H230     1.0000 0.60501  0.91311  0.99030  Biso   1.000  H
  C801     1.0000 0.58410  0.77507  0.94154  Biso   1.000  C
  C802     1.0000 0.59888  0.84564  0.94636  Biso   1.000  C
  N535     1.0000 0.75548  0.59264  0.02093  Biso   1.000  N
  H231     1.0000 0.74740  0.53640  0.04099  Biso   1.000  H
  H232     1.0000 0.78370  0.54600  0.04590  Biso   1.000  H
  N536     1.0000 0.78927  0.65313  0.04280  Biso   1.000  N
  H233     1.0000 0.82870  0.62459  0.07151  Biso   1.000  H
  H234     1.0000 0.82531  0.67189  0.08469  Biso   1.000  H
  C803     1.0000 0.65194  0.85312  0.97659  Biso   1.000  C
  O263     1.0000 0.57063  0.74160  0.94402  Biso   1.000  O
  N537     1.0000 0.61037  0.77788  0.92721  Biso   1.000  N
  H235     1.0000 0.58700  0.87001  0.93231  Biso   1.000  H
  C804     1.0000 0.61809  0.82192  0.92387  Biso   1.000  C
  C805     1.0000 0.77832  0.62200  0.01418  Biso   1.000  C
  C806     1.0000 0.72613  0.59939  0.99777  Biso   1.000  C
  C807     1.0000 0.78176  0.69351  0.02923  Biso   1.000  C
  N538     1.0000 0.65043  0.83146  0.94399  Biso   1.000  N
  O264     1.0000 0.67697  0.86569  0.99811  Biso   1.000  O
  C808     1.0000 0.61940  0.74384  0.90695  Biso   1.000  C
  H236     1.0000 0.61301  0.83140  0.89731  Biso   1.000  H
  H237     1.0000 0.79630  0.60669  0.00850  Biso   1.000  H
  C809     1.0000 0.76025  0.64729  0.98080  Biso   1.000  C
  O265     1.0000 0.70357  0.57710  0.99730  Biso   1.000  O
  N539     1.0000 0.72740  0.63195  0.97584  Biso   1.000  N
  N540     1.0000 0.76379  0.69020  0.99379  Biso   1.000  N
  O266     1.0000 0.79019  0.72676  0.04606  Biso   1.000  O
  C810     1.0000 0.67631  0.82814  0.92721  Biso   1.000  C
  N541     1.0000 0.65221  0.73030  0.92373  Biso   1.000  N
  H238     1.0000 0.61711  0.75281  0.88090  Biso   1.000  H
  H239     1.0000 0.60520  0.71959  0.90651  Biso   1.000  H
  H240     1.0000 0.76801  0.64271  0.95820  Biso   1.000  H
  C811     1.0000 0.70405  0.64022  0.94137  Biso   1.000  C
  C812     1.0000 0.75999  0.72572  0.96765  Biso   1.000  C
  N542     1.0000 0.69107  0.78719  0.93237  Biso   1.000  N
  H241     1.0000 0.66859  0.83399  0.90021  Biso   1.000  H
  H242     1.0000 0.69209  0.84990  0.93819  Biso   1.000  H
  C813     1.0000 0.65863  0.68862  0.93423  Biso   1.000  C
  C814     1.0000 0.67813  0.74889  0.91222  Biso   1.000  C
  N543     1.0000 0.69028  0.68123  0.93747  Biso   1.000  N
  H243     1.0000 0.71370  0.63580  0.92050  Biso   1.000  H
  H244     1.0000 0.68710  0.61910  0.93869  Biso   1.000  H
  N544     1.0000 0.72818  0.73993  0.95363  Biso   1.000  N
  H245     1.0000 0.77290  0.74959  0.98030  Biso   1.000  H
  H246     1.0000 0.76810  0.71719  0.94630  Biso   1.000  H
  C815     1.0000 0.72094  0.78132  0.95502  Biso   1.000  C
  O267     1.0000 0.63997  0.66333  0.93928  Biso   1.000  O
  C816     1.0000 0.70491  0.71641  0.92512  Biso   1.000  C
  H247     1.0000 0.67269  0.75332  0.88460  Biso   1.000  H
  O268     1.0000 0.73823  0.80873  0.97205  Biso   1.000  O
  H248     1.0000 0.71370  0.70820  0.90400  Biso   1.000  H
  C817     1.0000 0.37039  0.28584  0.77266  Biso   1.000  C
  C818     1.0000 0.34212  0.31482  0.76436  Biso   1.000  C
  N545     1.0000 0.35700  0.24416  0.77077  Biso   1.000  N
  N546     1.0000 0.38793  0.29847  0.80903  Biso   1.000  N
  H249     1.0000 0.38279  0.28950  0.75399  Biso   1.000  H
  N547     1.0000 0.31666  0.28707  0.76544  Biso   1.000  N
  N548     1.0000 0.34917  0.34545  0.79498  Biso   1.000  N
  H250     1.0000 0.33879  0.32890  0.73961  Biso   1.000  H
  C819     1.0000 0.32500  0.24567  0.76436  Biso   1.000  C
  C820     1.0000 0.37344  0.20583  0.76762  Biso   1.000  C
  C821     1.0000 0.37778  0.33579  0.81934  Biso   1.000  C
  C822     1.0000 0.42081  0.28760  0.82307  Biso   1.000  C
  C823     1.0000 0.28387  0.30023  0.74805  Biso   1.000  C
  C824     1.0000 0.33690  0.38712  0.79097  Biso   1.000  C
  O269     1.0000 0.30726  0.21483  0.76012  Biso   1.000  O
  N549     1.0000 0.39361  0.19137  0.80220  Biso   1.000  N
  H251     1.0000 0.38611  0.21041  0.74970  Biso   1.000  H
  H252     1.0000 0.35789  0.18351  0.75739  Biso   1.000  H
  O270     1.0000 0.39005  0.35703  0.84695  Biso   1.000  O
  N550     1.0000 0.42537  0.24608  0.84063  Biso   1.000  N
  H253     1.0000 0.43081  0.28811  0.80220  Biso   1.000  H
  H254     1.0000 0.43129  0.30911  0.84149  Biso   1.000  H
  N551     1.0000 0.27258  0.33083  0.77010  Biso   1.000  N
  H255     1.0000 0.27019  0.27501  0.74449  Biso   1.000  H
  H256     1.0000 0.28260  0.31239  0.72320  Biso   1.000  H
  N552     1.0000 0.30582  0.38962  0.79621  Biso   1.000  N
  H257     1.0000 0.35100  0.40569  0.80939  Biso   1.000  H
  H258     1.0000 0.33639  0.39770  0.76581  Biso   1.000  H
  C825     1.0000 0.42467  0.20697  0.81962  Biso   1.000  C
  C826     1.0000 0.38539  0.15923  0.82263  Biso   1.000  C
  C827     1.0000 0.44290  0.24201  0.87605  Biso   1.000  C
  C828     1.0000 0.27824  0.37494  0.76895  Biso   1.000  C
  C829     1.0000 0.24764  0.32256  0.78520  Biso   1.000  C
  C830     1.0000 0.29903  0.42037  0.82045  Biso   1.000  C
  H259     1.0000 0.43790  0.20880  0.80170  Biso   1.000  H
  C831     1.0000 0.43749  0.17615  0.85038  Biso   1.000  C
  O271     1.0000 0.36042  0.14016  0.81421  Biso   1.000  O
  N553     1.0000 0.41023  0.15136  0.85242  Biso   1.000  N
  O272     1.0000 0.45025  0.27040  0.89898  Biso   1.000  O
  N554     1.0000 0.45153  0.20065  0.88187  Biso   1.000  N
  C832     1.0000 0.25125  0.39596  0.78152  Biso   1.000  C
  H260     1.0000 0.27830  0.38419  0.74329  Biso   1.000  H
  O273     1.0000 0.23764  0.28697  0.78958  Biso   1.000  O
  N555     1.0000 0.23593  0.35956  0.79275  Biso   1.000  N
  N556     1.0000 0.26661  0.42384  0.81042  Biso   1.000  N
  O274     1.0000 0.31740  0.43982  0.84297  Biso   1.000  O
  H261     1.0000 0.45351  0.15762  0.84369  Biso   1.000  H
  C833     1.0000 0.41073  0.11613  0.87619  Biso   1.000  C
  C834     1.0000 0.47303  0.18717  0.91684  Biso   1.000  C
  H262     1.0000 0.23680  0.41159  0.76051  Biso   1.000  H
  C835     1.0000 0.20578  0.36373  0.80067  Biso   1.000  C
  C836     1.0000 0.25186  0.45403  0.82901  Biso   1.000  C
  N557     1.0000 0.41277  0.12869  0.91475  Biso   1.000  N
  H263     1.0000 0.39150  0.09920  0.86649  Biso   1.000  H
  H264     1.0000 0.42891  0.09800  0.87591  Biso   1.000  H
  N558     1.0000 0.45796  0.17173  0.94424  Biso   1.000  N
  H265     1.0000 0.48660  0.21129  0.92760  Biso   1.000  H
  H266     1.0000 0.48671  0.16459  0.91141  Biso   1.000  H
  N559     1.0000 0.20721  0.37355  0.83876  Biso   1.000  N
  H267     1.0000 0.19411  0.33699  0.79401  Biso   1.000  H
  H268     1.0000 0.19380  0.38621  0.78459  Biso   1.000  H
  N560     1.0000 0.23966  0.43587  0.85765  Biso   1.000  N
  H269     1.0000 0.26731  0.47610  0.84021  Biso   1.000  H
  H270     1.0000 0.23450  0.46779  0.81031  Biso   1.000  H
  C837     1.0000 0.44305  0.13195  0.94217  Biso   1.000  C
  C838     1.0000 0.38919  0.12146  0.93061  Biso   1.000  C
  C839     1.0000 0.46124  0.19250  0.97731  Biso   1.000  C
  C840     1.0000 0.20907  0.41728  0.85097  Biso   1.000  C
  C841     1.0000 0.19878  0.34823  0.86200  Biso   1.000  C
  C842     1.0000 0.25262  0.44459  0.89483  Biso   1.000  C
  H271     1.0000 0.45740  0.10849  0.93939  Biso   1.000  H
  C843     1.0000 0.43439  0.12917  0.97996  Biso   1.000  C
  O275     1.0000 0.36187  0.11250  0.91445  Biso   1.000  O
  N561     1.0000 0.40064  0.12633  0.96932  Biso   1.000  N
  O276     1.0000 0.47479  0.22540  0.98626  Biso   1.000  O
  N562     1.0000 0.44631  0.16901  0.99771  Biso   1.000  N
  C844     1.0000 0.20365  0.41453  0.88979  Biso   1.000  C
  H272     1.0000 0.19279  0.43508  0.83391  Biso   1.000  H
  O277     1.0000 0.19333  0.30895  0.85838  Biso   1.000  O
  N563     1.0000 0.19725  0.37007  0.89332  Biso   1.000  N
  O278     1.0000 0.27739  0.46252  0.90684  Biso   1.000  O
  N564     1.0000 0.23303  0.42959  0.91411  Biso   1.000  N
  H273     1.0000 0.44430  0.10429  0.99509  Biso   1.000  H
  C845     1.0000 0.38309  0.11048  0.99504  Biso   1.000  C
  C846     1.0000 0.45111  0.17605  0.03723  Biso   1.000  C
  H274     1.0000 0.18560  0.43250  0.89179  Biso   1.000  H
  C847     1.0000 0.18628  0.35473  0.92314  Biso   1.000  C
  C848     1.0000 0.23629  0.44146  0.95218  Biso   1.000  C
  H275     1.0000 0.36279  0.09911  0.98030  Biso   1.000  H
  N565     1.0000 0.37746  0.14098  0.01948  Biso   1.000  N
  H276     1.0000 0.39500  0.08689  0.00970  Biso   1.000  H
  N566     1.0000 0.42147  0.18711  0.04684  Biso   1.000  N
  H277     1.0000 0.46000  0.15020  0.05091  Biso   1.000  H
  H278     1.0000 0.46641  0.19920  0.04531  Biso   1.000  H
  N567     1.0000 0.21074  0.34687  0.95719  Biso   1.000  N
  H279     1.0000 0.17130  0.37541  0.92849  Biso   1.000  H
  H280     1.0000 0.17470  0.32811  0.91531  Biso   1.000  H
  N568     1.0000 0.24450  0.40736  0.97907  Biso   1.000  N
  H281     1.0000 0.25260  0.46360  0.95901  Biso   1.000  H
  H282     1.0000 0.21631  0.45400  0.95410  Biso   1.000  H
  C849     1.0000 0.40110  0.15436  0.05364  Biso   1.000  C
  C850     1.0000 0.34807  0.14688  0.02341  Biso   1.000  C
  C851     1.0000 0.41588  0.22493  0.05846  Biso   1.000  C
  C852     1.0000 0.22168  0.37800  0.98581  Biso   1.000  C
  C853     1.0000 0.21825  0.30649  0.97077  Biso   1.000  C
  C854     1.0000 0.27388  0.40061  0.00223  Biso   1.000  C
  H283     1.0000 0.41300  0.12999  0.06769  Biso   1.000  H
  C855     1.0000 0.38191  0.17808  0.07613  Biso   1.000  C
  O279     1.0000 0.32301  0.13431  0.00189  Biso   1.000  O
  N569     1.0000 0.34955  0.16854  0.05601  Biso   1.000  N
  O280     1.0000 0.42937  0.25840  0.05598  Biso   1.000  O
  N570     1.0000 0.38964  0.22212  0.07281  Biso   1.000  N
  H284     1.0000 0.20370  0.39331  0.99150  Biso   1.000  H
  C856     1.0000 0.23976  0.35271  0.01920  Biso   1.000  C
  O281     1.0000 0.20981  0.27324  0.95393  Biso   1.000  O
  N571     1.0000 0.23619  0.30980  0.00621  Biso   1.000  N
  O282     1.0000 0.29641  0.42290  0.00270  Biso   1.000  O
  N572     1.0000 0.27259  0.36805  0.02416  Biso   1.000  N
  H285     1.0000 0.38700  0.16860  0.10269  Biso   1.000  H
  C857     1.0000 0.32370  0.17186  0.07279  Biso   1.000  C
  C858     1.0000 0.38061  0.25616  0.09305  Biso   1.000  C
  H286     1.0000 0.23199  0.35729  0.04180  Biso   1.000  H
  C859     1.0000 0.23999  0.27428  0.03235  Biso   1.000  C
  C860     1.0000 0.29596  0.35978  0.05863  Biso   1.000  C
  N573     1.0000 0.30893  0.21281  0.06763  Biso   1.000  N
  H287     1.0000 0.33139  0.16601  0.09979  Biso   1.000  H
  H288     1.0000 0.30791  0.15010  0.06181  Biso   1.000  H
  N574     1.0000 0.34780  0.26970  0.07627  Biso   1.000  N
  H289     1.0000 0.38290  0.24719  0.11910  Biso   1.000  H
  H290     1.0000 0.39480  0.28041  0.09349  Biso   1.000  H
  N575     1.0000 0.27181  0.26007  0.04637  Biso   1.000  N
  H291     1.0000 0.22711  0.25041  0.01970  Biso   1.000  H
  H292     1.0000 0.23191  0.28281  0.05370  Biso   1.000  H
  N576     1.0000 0.30972  0.31877  0.06253  Biso   1.000  N
  H293     1.0000 0.28630  0.36420  0.07950  Biso   1.000  H
  H294     1.0000 0.31290  0.38090  0.06130  Biso   1.000  H
  C861     1.0000 0.27907  0.21868  0.04500  Biso   1.000  C
  C862     1.0000 0.32188  0.25111  0.08778  Biso   1.000  C
  C863     1.0000 0.34138  0.31138  0.06576  Biso   1.000  C
  C864     1.0000 0.29510  0.28359  0.07488  Biso   1.000  C
  O283     1.0000 0.26177  0.19127  0.02795  Biso   1.000  O
  H295     1.0000 0.32729  0.24668  0.11539  Biso   1.000  H
  O284     1.0000 0.36004  0.33667  0.06072  Biso   1.000  O
  H296     1.0000 0.28631  0.29180  0.09600  Biso   1.000  H
  O285     1.0000 0.84888  0.72004  0.66532  Biso   1.000  O
  C865     1.0000 0.87601  0.70880  0.68092  Biso   1.000  C
  N577     1.0000 0.88873  0.70232  0.71774  Biso   1.000  N
  N578     1.0000 0.89889  0.69961  0.66211  Biso   1.000  N
  C866     1.0000 0.87073  0.70119  0.74315  Biso   1.000  C
  C867     1.0000 0.91998  0.68609  0.72707  Biso   1.000  C
  C868     1.0000 0.92687  0.68303  0.68694  Biso   1.000  C
  C869     1.0000 0.89327  0.69598  0.62299  Biso   1.000  C
  N579     1.0000 0.87704  0.73535  0.77074  Biso   1.000  N
  N580     1.0000 0.94440  0.71612  0.74652  Biso   1.000  N
  N581     1.0000 0.95456  0.71072  0.69143  Biso   1.000  N
  N582     1.0000 0.90771  0.72904  0.60710  Biso   1.000  N
  C870     1.0000 0.85572  0.76471  0.77194  Biso   1.000  C
  C871     1.0000 0.90210  0.73368  0.80518  Biso   1.000  C
  C872     1.0000 0.95193  0.72057  0.78643  Biso   1.000  C
  C873     1.0000 0.96483  0.72692  0.72629  Biso   1.000  C
  C874     1.0000 0.97375  0.71034  0.66621  Biso   1.000  C
  C875     1.0000 0.89019  0.75991  0.58453  Biso   1.000  C
  C876     1.0000 0.93867  0.72550  0.60304  Biso   1.000  C
  O286     1.0000 0.83187  0.77359  0.74744  Biso   1.000  O
  N583     1.0000 0.86469  0.78533  0.80552  Biso   1.000  N
  N584     1.0000 0.93151  0.74738  0.79964  Biso   1.000  N
  C877     1.0000 0.89297  0.76677  0.82862  Biso   1.000  C
  O287     1.0000 0.98786  0.74927  0.73724  Biso   1.000  O
  N585     1.0000 0.96288  0.73674  0.63425  Biso   1.000  N
  O288     1.0000 0.86228  0.76749  0.58119  Biso   1.000  O
  N586     1.0000 0.90941  0.77987  0.56586  Biso   1.000  N
  H297     1.0000 0.94241  0.69711  0.59331  Biso   1.000  H
  C878     1.0000 0.93991  0.76083  0.57464  Biso   1.000  C
  C879     1.0000 0.84302  0.80898  0.82079  Biso   1.000  C
  C880     1.0000 0.94188  0.78126  0.82109  Biso   1.000  C
  N587     1.0000 0.91984  0.79632  0.83737  Biso   1.000  N
  C881     1.0000 0.97948  0.77169  0.62945  Biso   1.000  C
  C882     1.0000 0.89680  0.80642  0.53418  Biso   1.000  C
  N588     1.0000 0.96489  0.78877  0.59501  Biso   1.000  N
  H298     1.0000 0.94470  0.74899  0.55190  Biso   1.000  H
  N589     1.0000 0.85160  0.85302  0.82600  Biso   1.000  N
  O289     1.0000 0.96811  0.79815  0.82483  Biso   1.000  O
  C883     1.0000 0.92581  0.82666  0.86819  Biso   1.000  C
  O290     1.0000 0.00244  0.78685  0.65088  Biso   1.000  O
  N590     1.0000 0.90551  0.84914  0.53813  Biso   1.000  N
  H299     1.0000 0.87370  0.80481  0.52810  Biso   1.000  H
  H300     1.0000 0.90329  0.79480  0.51269  Biso   1.000  H
  C884     1.0000 0.97926  0.82050  0.57765  Biso   1.000  C
  C885     1.0000 0.83012  0.88501  0.81223  Biso   1.000  C
  C886     1.0000 0.87575  0.86777  0.86000  Biso   1.000  C
  N591     1.0000 0.90718  0.86338  0.85710  Biso   1.000  N
  C887     1.0000 0.88403  0.88027  0.52989  Biso   1.000  C
  C888     1.0000 0.93598  0.86468  0.53602  Biso   1.000  C
  N592     1.0000 0.96099  0.85956  0.57035  Biso   1.000  N
  H301     1.0000 0.98191  0.80930  0.55380  Biso   1.000  H
  H302     1.0000 0.00030  0.82691  0.59390  Biso   1.000  H
  O291     1.0000 0.80585  0.88094  0.78846  Biso   1.000  O
  N593     1.0000 0.84141  0.92246  0.83065  Biso   1.000  N
  C889     1.0000 0.87071  0.91674  0.85955  Biso   1.000  C
  C890     1.0000 0.91987  0.90171  0.85272  Biso   1.000  C
  O292     1.0000 0.85535  0.87648  0.52409  Biso   1.000  O
  N594     1.0000 0.89932  0.91803  0.52966  Biso   1.000  N
  H303     1.0000 0.94199  0.85271  0.51400  Biso   1.000  H
  C891     1.0000 0.93193  0.91305  0.53304  Biso   1.000  C
  C892     1.0000 0.96989  0.89672  0.58743  Biso   1.000  C
  C893     1.0000 0.82120  0.96000  0.82483  Biso   1.000  C
  N595     1.0000 0.89802  0.93300  0.85205  Biso   1.000  N
  O293     1.0000 0.94680  0.90850  0.85300  Biso   1.000  O
  C894     1.0000 0.88164  0.95801  0.51788  Biso   1.000  C
  N596     1.0000 0.95227  0.92770  0.56767  Biso   1.000  N
  H304     1.0000 0.93801  0.92470  0.51099  Biso   1.000  H
  O294     1.0000 0.99150  0.90187  0.61577  Biso   1.000  O
  N597     1.0000 0.83443  0.99252  0.80482  Biso   1.000  N
  C895     1.0000 0.90524  0.97629  0.85754  Biso   1.000  C
  N598     1.0000 0.88413  0.98658  0.54661  Biso   1.000  N
  H305     1.0000 0.85930  0.95109  0.50709  Biso   1.000  H
  H306     1.0000 0.88950  0.97139  0.49809  Biso   1.000  H
  C896     1.0000 0.96038  0.97212  0.57458  Biso   1.000  C
  C897     1.0000 0.82104  0.99710  0.76700  Biso   1.000  C
  C898     1.0000 0.86005  0.01917  0.81867  Biso   1.000  C
  N599     1.0000 0.89089  0.00212  0.82575  Biso   1.000  N
  C899     1.0000 0.86063  0.99365  0.56430  Biso   1.000  C
  C900     1.0000 0.90994  0.01566  0.56071  Biso   1.000  C
  N600     1.0000 0.93740  0.99687  0.58604  Biso   1.000  N
  H307     1.0000 0.96370  0.98459  0.55151  Biso   1.000  H
  H308     1.0000 0.98040  0.97401  0.59409  Biso   1.000  H
  O295     1.0000 0.80038  0.97679  0.74758  Biso   1.000  O
  N601     1.0000 0.83693  0.03148  0.75661  Biso   1.000  N
  C901     1.0000 0.85831  0.05181  0.78796  Biso   1.000  C
  C902     1.0000 0.90854  0.02381  0.80613  Biso   1.000  C
  O296     1.0000 0.83587  0.97471  0.55717  Biso   1.000  O
  N602     1.0000 0.86897  0.02624  0.58763  Biso   1.000  N
  H309     1.0000 0.91571  0.03069  0.53981  Biso   1.000  H
  C903     1.0000 0.89817  0.04648  0.58540  Biso   1.000  C
  C904     1.0000 0.94530  0.01737  0.61873  Biso   1.000  C
  C905     1.0000 0.82210  0.05159  0.72083  Biso   1.000  C
  N603     1.0000 0.88991  0.05374  0.78517  Biso   1.000  N
  H310     1.0000 0.85039  0.07979  0.79401  Biso   1.000  H
  O297     1.0000 0.93575  0.01819  0.80925  Biso   1.000  O
  C906     1.0000 0.84528  0.04944  0.60064  Biso   1.000  C
  N604     1.0000 0.92300  0.04768  0.62054  Biso   1.000  N
  H311     1.0000 0.89419  0.07511  0.57369  Biso   1.000  H
  O298     1.0000 0.96926  0.01159  0.64459  Biso   1.000  O
  N605     1.0000 0.84252  0.05380  0.69586  Biso   1.000  N
  H312     1.0000 0.81560  0.08061  0.72551  Biso   1.000  H
  H313     1.0000 0.80301  0.03562  0.70840  Biso   1.000  H
  C907     1.0000 0.90144  0.08676  0.76550  Biso   1.000  C
  N606     1.0000 0.85296  0.05342  0.64130  Biso   1.000  N
  H314     1.0000 0.84301  0.07799  0.58949  Biso   1.000  H
  H315     1.0000 0.82489  0.03479  0.59181  Biso   1.000  H
  C908     1.0000 0.92579  0.08017  0.64659  Biso   1.000  C
  C909     1.0000 0.83413  0.03656  0.66041  Biso   1.000  C
  C910     1.0000 0.86616  0.08702  0.69918  Biso   1.000  C
  N607     1.0000 0.89548  0.07884  0.72557  Biso   1.000  N
  H316     1.0000 0.89140  0.11379  0.76921  Biso   1.000  H
  H317     1.0000 0.92430  0.08989  0.77640  Biso   1.000  H
  C911     1.0000 0.87395  0.08462  0.66167  Biso   1.000  C
  N608     1.0000 0.90672  0.07353  0.67195  Biso   1.000  N
  H318     1.0000 0.94800  0.08260  0.66100  Biso   1.000  H
  H319     1.0000 0.91970  0.10719  0.63330  Biso   1.000  H
  O299     1.0000 0.81206  0.01291  0.64899  Biso   1.000  O
  H320     1.0000 0.85770  0.11540  0.70319  Biso   1.000  H
  C912     1.0000 0.91917  0.07347  0.70871  Biso   1.000  C
  H321     1.0000 0.87050  0.11250  0.64860  Biso   1.000  H
  O300     1.0000 0.94706  0.06889  0.72515  Biso   1.000  O
  O301     1.0000 0.15110  0.27996  0.33468  Biso   1.000  O
  C913     1.0000 0.12399  0.29120  0.31907  Biso   1.000  C
  N609     1.0000 0.11128  0.29768  0.28226  Biso   1.000  N
  N610     1.0000 0.10110  0.30039  0.33791  Biso   1.000  N
  C914     1.0000 0.12927  0.29881  0.25685  Biso   1.000  C
  C915     1.0000 0.08003  0.31391  0.27293  Biso   1.000  C
  C916     1.0000 0.07313  0.31697  0.31305  Biso   1.000  C
  C917     1.0000 0.10674  0.30402  0.37701  Biso   1.000  C
  N611     1.0000 0.12294  0.26465  0.22926  Biso   1.000  N
  N612     1.0000 0.05561  0.28388  0.25348  Biso   1.000  N
  N613     1.0000 0.04545  0.28928  0.30857  Biso   1.000  N
  N614     1.0000 0.09229  0.27096  0.39289  Biso   1.000  N
  C918     1.0000 0.14429  0.23529  0.22806  Biso   1.000  C
  C919     1.0000 0.09788  0.26632  0.19482  Biso   1.000  C
  C920     1.0000 0.04805  0.27943  0.21357  Biso   1.000  C
  C921     1.0000 0.03517  0.27308  0.27371  Biso   1.000  C
  C922     1.0000 0.02623  0.28966  0.33379  Biso   1.000  C
  C923     1.0000 0.10982  0.24009  0.41547  Biso   1.000  C
  C924     1.0000 0.06133  0.27450  0.39696  Biso   1.000  C
  O302     1.0000 0.16813  0.22641  0.25256  Biso   1.000  O
  N615     1.0000 0.13532  0.21467  0.19448  Biso   1.000  N
  C925     1.0000 0.10701  0.23323  0.17138  Biso   1.000  C
  N616     1.0000 0.06849  0.25262  0.20036  Biso   1.000  N
  O303     1.0000 0.01212  0.25073  0.26276  Biso   1.000  O
  N617     1.0000 0.03710  0.26326  0.36575  Biso   1.000  N
  O304     1.0000 0.13773  0.23251  0.41881  Biso   1.000  O
  N618     1.0000 0.09060  0.22013  0.43416  Biso   1.000  N
  H322     1.0000 0.05760  0.30289  0.40669  Biso   1.000  H
  C926     1.0000 0.06010  0.23917  0.42536  Biso   1.000  C
  C927     1.0000 0.15699  0.19102  0.17921  Biso   1.000  C
  N619     1.0000 0.08016  0.20368  0.16263  Biso   1.000  N
  C928     1.0000 0.05810  0.21874  0.17890  Biso   1.000  C
  C929     1.0000 0.02053  0.22831  0.37054  Biso   1.000  C
  C930     1.0000 0.10319  0.19358  0.46582  Biso   1.000  C
  N620     1.0000 0.03509  0.21123  0.40499  Biso   1.000  N
  H323     1.0000 0.05530  0.25101  0.44810  Biso   1.000  H
  N621     1.0000 0.14838  0.14698  0.17400  Biso   1.000  N
  C931     1.0000 0.07420  0.17334  0.13181  Biso   1.000  C
  O305     1.0000 0.03189  0.20185  0.17517  Biso   1.000  O
  O306     1.0000 0.99755  0.21315  0.34914  Biso   1.000  O
  N622     1.0000 0.09449  0.15086  0.46186  Biso   1.000  N
  H324     1.0000 0.12630  0.19519  0.47190  Biso   1.000  H
  H325     1.0000 0.09669  0.20520  0.48731  Biso   1.000  H
  C932     1.0000 0.02075  0.17950  0.42235  Biso   1.000  C
  C933     1.0000 0.16989  0.11499  0.18777  Biso   1.000  C
  C934     1.0000 0.12425  0.13223  0.14000  Biso   1.000  C
  N623     1.0000 0.09283  0.13662  0.14290  Biso   1.000  N
  C935     1.0000 0.11597  0.11973  0.47011  Biso   1.000  C
  C936     1.0000 0.06403  0.13532  0.46398  Biso   1.000  C
  N624     1.0000 0.03899  0.14044  0.42965  Biso   1.000  N
  H326     1.0000 0.01810  0.19070  0.44620  Biso   1.000  H
  H327     1.0000 0.99970  0.17309  0.40610  Biso   1.000  H
  O307     1.0000 0.19416  0.11906  0.21154  Biso   1.000  O
  N625     1.0000 0.15857  0.07754  0.16935  Biso   1.000  N
  C937     1.0000 0.12927  0.08326  0.14045  Biso   1.000  C
  C938     1.0000 0.08015  0.09829  0.14730  Biso   1.000  C
  O308     1.0000 0.14465  0.12352  0.47591  Biso   1.000  O
  N626     1.0000 0.10069  0.08197  0.47033  Biso   1.000  N
  H328     1.0000 0.05801  0.14729  0.48600  Biso   1.000  H
  C939     1.0000 0.06808  0.08695  0.46696  Biso   1.000  C
  C940     1.0000 0.03011  0.10328  0.41257  Biso   1.000  C
  C941     1.0000 0.17881  0.04000  0.17517  Biso   1.000  C
  N627     1.0000 0.10199  0.06700  0.14794  Biso   1.000  N
  O309     1.0000 0.05320  0.09150  0.14700  Biso   1.000  O
  C942     1.0000 0.11837  0.04199  0.48212  Biso   1.000  C
  N628     1.0000 0.04774  0.07230  0.43232  Biso   1.000  N
  H329     1.0000 0.06200  0.07530  0.48901  Biso   1.000  H
  O310     1.0000 0.00851  0.09813  0.38423  Biso   1.000  O
  N629     1.0000 0.16557  0.00748  0.19518  Biso   1.000  N
  C943     1.0000 0.09476  0.02371  0.14245  Biso   1.000  C
  N630     1.0000 0.11585  0.01342  0.45339  Biso   1.000  N
  H330     1.0000 0.14071  0.04891  0.49291  Biso   1.000  H
  H331     1.0000 0.11050  0.02861  0.50191  Biso   1.000  H
  C944     1.0000 0.03963  0.02788  0.42541  Biso   1.000  C
  C945     1.0000 0.17894  0.00290  0.23299  Biso   1.000  C
  C946     1.0000 0.13996  0.98083  0.18133  Biso   1.000  C
  N631     1.0000 0.10912  0.99788  0.17425  Biso   1.000  N
  C947     1.0000 0.13938  0.00635  0.43570  Biso   1.000  C
  C948     1.0000 0.09007  0.98434  0.43929  Biso   1.000  C
  N632     1.0000 0.06260  0.00313  0.41396  Biso   1.000  N
  H332     1.0000 0.03629  0.01541  0.44849  Biso   1.000  H
  H333     1.0000 0.01960  0.02599  0.40591  Biso   1.000  H
  O311     1.0000 0.19960  0.02321  0.25242  Biso   1.000  O
  N633     1.0000 0.16307  0.96852  0.24339  Biso   1.000  N
  C949     1.0000 0.14170  0.94819  0.21204  Biso   1.000  C
  C950     1.0000 0.09146  0.97619  0.19387  Biso   1.000  C
  N634     1.0000 0.13101  0.97376  0.41237  Biso   1.000  N
  O312     1.0000 0.16413  0.02529  0.44283  Biso   1.000  O
  C951     1.0000 0.10183  0.95352  0.41460  Biso   1.000  C
  H334     1.0000 0.08430  0.96931  0.46019  Biso   1.000  H
  C952     1.0000 0.05471  0.98263  0.38127  Biso   1.000  C
  C953     1.0000 0.17791  0.94841  0.27917  Biso   1.000  C
  N635     1.0000 0.11009  0.94626  0.21482  Biso   1.000  N
  H335     1.0000 0.14959  0.92021  0.20599  Biso   1.000  H
  O313     1.0000 0.06426  0.98181  0.19075  Biso   1.000  O
  C954     1.0000 0.15472  0.95056  0.39936  Biso   1.000  C
  N636     1.0000 0.07698  0.95232  0.37946  Biso   1.000  N
  H336     1.0000 0.10581  0.92489  0.42631  Biso   1.000  H
  O314     1.0000 0.03074  0.98841  0.35541  Biso   1.000  O
  N637     1.0000 0.15748  0.94620  0.30414  Biso   1.000  N
  H337     1.0000 0.18439  0.91939  0.27449  Biso   1.000  H
  H338     1.0000 0.19699  0.96438  0.29160  Biso   1.000  H
  C955     1.0000 0.09857  0.91324  0.23450  Biso   1.000  C
  N638     1.0000 0.14705  0.94658  0.35870  Biso   1.000  N
  H339     1.0000 0.15700  0.92201  0.41050  Biso   1.000  H
  H340     1.0000 0.17509  0.96521  0.40819  Biso   1.000  H
  C956     1.0000 0.07419  0.91983  0.35341  Biso   1.000  C
  C957     1.0000 0.16588  0.96344  0.33958  Biso   1.000  C
  C958     1.0000 0.13385  0.91298  0.30082  Biso   1.000  C
  N639     1.0000 0.10452  0.92116  0.27443  Biso   1.000  N
  H341     1.0000 0.10861  0.88621  0.23079  Biso   1.000  H
  H342     1.0000 0.07571  0.91011  0.22360  Biso   1.000  H
  C959     1.0000 0.12606  0.91538  0.33833  Biso   1.000  C
  N640     1.0000 0.09327  0.92647  0.32805  Biso   1.000  N
  H343     1.0000 0.05200  0.91740  0.33900  Biso   1.000  H
  H344     1.0000 0.08031  0.89281  0.36670  Biso   1.000  H
  O315     1.0000 0.18795  0.98709  0.35101  Biso   1.000  O
  H345     1.0000 0.14231  0.88460  0.29681  Biso   1.000  H
  C960     1.0000 0.08083  0.92653  0.29129  Biso   1.000  C
  H346     1.0000 0.12950  0.88750  0.35140  Biso   1.000  H
  O316     1.0000 0.05293  0.93111  0.27485  Biso   1.000  O
  C961     1.0000 0.82120  0.54000  0.32481  Biso   1.000  C
  N641     1.0000 0.83442  0.50748  0.30483  Biso   1.000  N
  N642     1.0000 0.84142  0.57754  0.33064  Biso   1.000  N
  C962     1.0000 0.82105  0.50290  0.26699  Biso   1.000  C
  C963     1.0000 0.86003  0.48083  0.31866  Biso   1.000  C
  C964     1.0000 0.83010  0.61499  0.31222  Biso   1.000  C
  C965     1.0000 0.87072  0.58326  0.35956  Biso   1.000  C
  O317     1.0000 0.80039  0.52321  0.24760  Biso   1.000  O
  N643     1.0000 0.83695  0.46852  0.25662  Biso   1.000  N
  C966     1.0000 0.85830  0.44819  0.28797  Biso   1.000  C
  N644     1.0000 0.89090  0.49788  0.32576  Biso   1.000  N
  O318     1.0000 0.80583  0.61906  0.28845  Biso   1.000  O
  N645     1.0000 0.85162  0.64698  0.32601  Biso   1.000  N
  N646     1.0000 0.89803  0.56700  0.35207  Biso   1.000  N
  C967     1.0000 0.87577  0.63223  0.36001  Biso   1.000  C
  C968     1.0000 0.82209  0.44841  0.22084  Biso   1.000  C
  N647     1.0000 0.88992  0.44626  0.28516  Biso   1.000  N
  H347     1.0000 0.85040  0.42021  0.29399  Biso   1.000  H
  C969     1.0000 0.90853  0.47619  0.30614  Biso   1.000  C
  C970     1.0000 0.90525  0.52371  0.35753  Biso   1.000  C
  C971     1.0000 0.84301  0.69102  0.32080  Biso   1.000  C
  C972     1.0000 0.91985  0.59829  0.35271  Biso   1.000  C
  N648     1.0000 0.90716  0.63662  0.35708  Biso   1.000  N
  N649     1.0000 0.84250  0.44620  0.19585  Biso   1.000  N
  H348     1.0000 0.81560  0.41939  0.22550  Biso   1.000  H
  H349     1.0000 0.80299  0.46438  0.20839  Biso   1.000  H
  C973     1.0000 0.90142  0.41324  0.26549  Biso   1.000  C
  O319     1.0000 0.93576  0.48181  0.30927  Biso   1.000  O
  N650     1.0000 0.86468  0.71467  0.30553  Biso   1.000  N
  O320     1.0000 0.94681  0.59150  0.35299  Biso   1.000  O
  C974     1.0000 0.92580  0.67334  0.36820  Biso   1.000  C
  C975     1.0000 0.83413  0.46344  0.16040  Biso   1.000  C
  C976     1.0000 0.86617  0.41298  0.19919  Biso   1.000  C
  N651     1.0000 0.89547  0.42116  0.22558  Biso   1.000  N
  H350     1.0000 0.89141  0.38621  0.26919  Biso   1.000  H
  H351     1.0000 0.92431  0.41011  0.27641  Biso   1.000  H
  C977     1.0000 0.85571  0.73529  0.27195  Biso   1.000  C
  C978     1.0000 0.89298  0.73323  0.32863  Biso   1.000  C
  N652     1.0000 0.91985  0.70368  0.33738  Biso   1.000  N
  O321     1.0000 0.81207  0.48709  0.14900  Biso   1.000  O
  N653     1.0000 0.85297  0.44658  0.14131  Biso   1.000  N
  C979     1.0000 0.87394  0.41538  0.16168  Biso   1.000  C
  H352     1.0000 0.85771  0.38460  0.20320  Biso   1.000  H
  C980     1.0000 0.91916  0.42653  0.20872  Biso   1.000  C
  O322     1.0000 0.83186  0.72641  0.24746  Biso   1.000  O
  N654     1.0000 0.87705  0.76465  0.27075  Biso   1.000  N
  C981     1.0000 0.90211  0.76632  0.30517  Biso   1.000  C
  C982     1.0000 0.94189  0.71874  0.32111  Biso   1.000  C
  C983     1.0000 0.84527  0.45056  0.10065  Biso   1.000  C
  N655     1.0000 0.90673  0.42647  0.17197  Biso   1.000  N
  H353     1.0000 0.87051  0.38750  0.14861  Biso   1.000  H
  O323     1.0000 0.94706  0.43111  0.22514  Biso   1.000  O
  C984     1.0000 0.87074  0.79881  0.24314  Biso   1.000  C
  N656     1.0000 0.93152  0.75262  0.29962  Biso   1.000  N
  O324     1.0000 0.96810  0.70185  0.32484  Biso   1.000  O
  N657     1.0000 0.86898  0.47376  0.08764  Biso   1.000  N
  H354     1.0000 0.84300  0.42201  0.08951  Biso   1.000  H
  H355     1.0000 0.82490  0.46521  0.09179  Biso   1.000  H
  C985     1.0000 0.92580  0.41983  0.14661  Biso   1.000  C
  N658     1.0000 0.88872  0.79768  0.21775  Biso   1.000  N
  C986     1.0000 0.95194  0.77943  0.28644  Biso   1.000  C
  C987     1.0000 0.86062  0.50635  0.06432  Biso   1.000  C
  C988     1.0000 0.89815  0.45352  0.08538  Biso   1.000  C
  N659     1.0000 0.92301  0.45232  0.12052  Biso   1.000  N
  H356     1.0000 0.94799  0.41740  0.16099  Biso   1.000  H
  H357     1.0000 0.91970  0.39281  0.13329  Biso   1.000  H
  C989     1.0000 0.87599  0.79120  0.18091  Biso   1.000  C
  C990     1.0000 0.91996  0.81391  0.22706  Biso   1.000  C
  N660     1.0000 0.94439  0.78388  0.24654  Biso   1.000  N
  O325     1.0000 0.83586  0.52529  0.05718  Biso   1.000  O
  N661     1.0000 0.88414  0.51342  0.04659  Biso   1.000  N
  C991     1.0000 0.90993  0.48434  0.06072  Biso   1.000  C
  H358     1.0000 0.89420  0.42489  0.07371  Biso   1.000  H
  C992     1.0000 0.94530  0.48263  0.11871  Biso   1.000  C
  O326     1.0000 0.84889  0.77996  0.16533  Biso   1.000  O
  N662     1.0000 0.89889  0.80039  0.16210  Biso   1.000  N
  C993     1.0000 0.92688  0.81697  0.18696  Biso   1.000  C
  C994     1.0000 0.96484  0.77308  0.22631  Biso   1.000  C
  C995     1.0000 0.88165  0.54199  0.01789  Biso   1.000  C
  N663     1.0000 0.93739  0.50313  0.08605  Biso   1.000  N
  H359     1.0000 0.91569  0.46931  0.03979  Biso   1.000  H
  O327     1.0000 0.96928  0.48841  0.14460  Biso   1.000  O
  C996     1.0000 0.89326  0.80402  0.12300  Biso   1.000  C
  N664     1.0000 0.95454  0.78928  0.19142  Biso   1.000  N
  O328     1.0000 0.98787  0.75073  0.23726  Biso   1.000  O
  N665     1.0000 0.89931  0.58197  0.02968  Biso   1.000  N
  H360     1.0000 0.85931  0.54891  0.00711  Biso   1.000  H
  H361     1.0000 0.88949  0.52861  0.99811  Biso   1.000  H
  C997     1.0000 0.96037  0.52788  0.07460  Biso   1.000  C
  N666     1.0000 0.90772  0.77096  0.10709  Biso   1.000  N
  C998     1.0000 0.97376  0.78966  0.16620  Biso   1.000  C
  C999     1.0000 0.88402  0.61973  0.02990  Biso   1.000  C
  C1000    1.0000 0.93194  0.58695  0.03305  Biso   1.000  C
  N667     1.0000 0.95226  0.57230  0.06769  Biso   1.000  N
  H362     1.0000 0.96370  0.51541  0.05150  Biso   1.000  H
  H363     1.0000 0.98039  0.52599  0.09411  Biso   1.000  H
  C1001    1.0000 0.89019  0.74009  0.08452  Biso   1.000  C
  C1002    1.0000 0.93866  0.77450  0.10302  Biso   1.000  C
  N668     1.0000 0.96289  0.76326  0.13426  Biso   1.000  N
  O329     1.0000 0.85536  0.62352  0.02408  Biso   1.000  O
  N669     1.0000 0.90549  0.65086  0.03812  Biso   1.000  N
  C1003    1.0000 0.93597  0.63532  0.03603  Biso   1.000  C
  H364     1.0000 0.93800  0.57530  0.01101  Biso   1.000  H
  C1004    1.0000 0.96987  0.60328  0.08742  Biso   1.000  C
  N670     1.0000 0.90942  0.72013  0.06585  Biso   1.000  N
  O330     1.0000 0.86229  0.73251  0.08120  Biso   1.000  O
  C1005    1.0000 0.93989  0.73917  0.07463  Biso   1.000  C
  H365     1.0000 0.94239  0.80289  0.09330  Biso   1.000  H
  C1006    1.0000 0.97946  0.72831  0.12944  Biso   1.000  C
  C1007    1.0000 0.89681  0.69358  0.03419  Biso   1.000  C
  N671     1.0000 0.96100  0.64044  0.07034  Biso   1.000  N
  H366     1.0000 0.94200  0.64729  0.01399  Biso   1.000  H
  O331     1.0000 0.99151  0.59813  0.11579  Biso   1.000  O
  N672     1.0000 0.96490  0.71123  0.09503  Biso   1.000  N
  H367     1.0000 0.94471  0.75101  0.05189  Biso   1.000  H
  O332     1.0000 0.00244  0.71315  0.15087  Biso   1.000  O
  H368     1.0000 0.87371  0.69519  0.02809  Biso   1.000  H
  H369     1.0000 0.90330  0.70520  0.01271  Biso   1.000  H
  C1008    1.0000 0.97926  0.67950  0.07764  Biso   1.000  C
  H370     1.0000 0.98190  0.69070  0.05381  Biso   1.000  H
  H371     1.0000 0.00031  0.67309  0.09391  Biso   1.000  H
  C1009    1.0000 0.17880  0.46000  0.67518  Biso   1.000  C
  N673     1.0000 0.15859  0.42246  0.66936  Biso   1.000  N
  N674     1.0000 0.16556  0.49252  0.69516  Biso   1.000  N
  C1010    1.0000 0.12928  0.41674  0.64043  Biso   1.000  C
  C1011    1.0000 0.16988  0.38501  0.68778  Biso   1.000  C
  C1012    1.0000 0.17896  0.49710  0.73301  Biso   1.000  C
  C1013    1.0000 0.13995  0.51917  0.68134  Biso   1.000  C
  C1014    1.0000 0.12424  0.36777  0.63999  Biso   1.000  C
  N675     1.0000 0.10198  0.43300  0.64793  Biso   1.000  N
  N676     1.0000 0.14840  0.35302  0.67401  Biso   1.000  N
  O333     1.0000 0.19415  0.38094  0.71155  Biso   1.000  O
  O334     1.0000 0.19962  0.47679  0.75240  Biso   1.000  O
  N677     1.0000 0.16306  0.53148  0.74337  Biso   1.000  N
  N678     1.0000 0.10911  0.50212  0.67424  Biso   1.000  N
  C1015    1.0000 0.14169  0.55181  0.71202  Biso   1.000  C
  N679     1.0000 0.09282  0.36338  0.64291  Biso   1.000  N
  C1016    1.0000 0.08013  0.40171  0.64729  Biso   1.000  C
  C1017    1.0000 0.09476  0.47629  0.64247  Biso   1.000  C
  C1018    1.0000 0.15700  0.30898  0.67920  Biso   1.000  C
  C1019    1.0000 0.17792  0.55159  0.77918  Biso   1.000  C
  C1020    1.0000 0.09145  0.52381  0.69385  Biso   1.000  C
  N680     1.0000 0.11009  0.55374  0.71484  Biso   1.000  N
  H372     1.0000 0.14961  0.57979  0.70600  Biso   1.000  H
  C1021    1.0000 0.07421  0.32666  0.63182  Biso   1.000  C
  O335     1.0000 0.05320  0.40850  0.64701  Biso   1.000  O
  N681     1.0000 0.13533  0.28533  0.69447  Biso   1.000  N
  N682     1.0000 0.15750  0.55380  0.80415  Biso   1.000  N
  H373     1.0000 0.18440  0.58061  0.77450  Biso   1.000  H
  H374     1.0000 0.19701  0.53562  0.79161  Biso   1.000  H
  O336     1.0000 0.06424  0.51819  0.69073  Biso   1.000  O
  C1022    1.0000 0.09856  0.58676  0.73451  Biso   1.000  C
  N683     1.0000 0.08015  0.29632  0.66262  Biso   1.000  N
  C1023    1.0000 0.14428  0.26471  0.72805  Biso   1.000  C
  C1024    1.0000 0.10702  0.26677  0.67137  Biso   1.000  C
  C1025    1.0000 0.16587  0.53656  0.83960  Biso   1.000  C
  C1026    1.0000 0.13384  0.58702  0.80081  Biso   1.000  C
  N684     1.0000 0.10451  0.57884  0.77442  Biso   1.000  N
  H375     1.0000 0.10860  0.61379  0.73081  Biso   1.000  H
  H376     1.0000 0.07570  0.58989  0.72359  Biso   1.000  H
  C1027    1.0000 0.05811  0.28126  0.67889  Biso   1.000  C
  O337     1.0000 0.16812  0.27359  0.75254  Biso   1.000  O
  N685     1.0000 0.12295  0.23535  0.72924  Biso   1.000  N
  C1028    1.0000 0.09790  0.23368  0.69483  Biso   1.000  C
  O338     1.0000 0.18794  0.51291  0.85102  Biso   1.000  O
  N686     1.0000 0.14704  0.55342  0.85871  Biso   1.000  N
  C1029    1.0000 0.12605  0.58462  0.83834  Biso   1.000  C
  H377     1.0000 0.14230  0.61540  0.79679  Biso   1.000  H
  C1030    1.0000 0.08082  0.57347  0.79128  Biso   1.000  C
  O339     1.0000 0.03188  0.29815  0.67516  Biso   1.000  O
  N687     1.0000 0.06849  0.24738  0.70037  Biso   1.000  N
  C1031    1.0000 0.12927  0.20119  0.75686  Biso   1.000  C
  C1032    1.0000 0.15471  0.54944  0.89934  Biso   1.000  C
  N688     1.0000 0.09328  0.57353  0.82803  Biso   1.000  N
  H378     1.0000 0.12950  0.61250  0.85141  Biso   1.000  H
  O340     1.0000 0.05294  0.56889  0.77486  Biso   1.000  O
  C1033    1.0000 0.04806  0.22057  0.71356  Biso   1.000  C
  N689     1.0000 0.11129  0.20232  0.78225  Biso   1.000  N
  N690     1.0000 0.13102  0.52624  0.91236  Biso   1.000  N
  H379     1.0000 0.15701  0.57799  0.91049  Biso   1.000  H
  H380     1.0000 0.17511  0.53479  0.90820  Biso   1.000  H
  C1034    1.0000 0.07420  0.58017  0.85339  Biso   1.000  C
  N691     1.0000 0.05562  0.21612  0.75346  Biso   1.000  N
  C1035    1.0000 0.12401  0.20880  0.81909  Biso   1.000  C
  C1036    1.0000 0.08002  0.18609  0.77294  Biso   1.000  C
  C1037    1.0000 0.13939  0.49365  0.93568  Biso   1.000  C
  C1038    1.0000 0.10185  0.54648  0.91461  Biso   1.000  C
  N692     1.0000 0.07700  0.54768  0.87947  Biso   1.000  N
  H381     1.0000 0.05200  0.58260  0.83901  Biso   1.000  H
  H382     1.0000 0.08030  0.60719  0.86671  Biso   1.000  H
  C1039    1.0000 0.03516  0.22692  0.77369  Biso   1.000  C
  O341     1.0000 0.15112  0.22004  0.83469  Biso   1.000  O
  N693     1.0000 0.10111  0.19961  0.83790  Biso   1.000  N
  C1040    1.0000 0.07312  0.18303  0.81304  Biso   1.000  C
  O342     1.0000 0.16413  0.47471  0.94284  Biso   1.000  O
  N694     1.0000 0.11587  0.48658  0.95340  Biso   1.000  N
  C1041    1.0000 0.09008  0.51566  0.93928  Biso   1.000  C
  H383     1.0000 0.10580  0.57511  0.92629  Biso   1.000  H
  C1042    1.0000 0.05470  0.51737  0.88129  Biso   1.000  C
  O343     1.0000 0.01213  0.24927  0.76274  Biso   1.000  O
  N695     1.0000 0.04546  0.21072  0.80858  Biso   1.000  N
  C1043    1.0000 0.10673  0.19598  0.87702  Biso   1.000  C
  C1044    1.0000 0.11836  0.45801  0.98211  Biso   1.000  C
  N696     1.0000 0.06259  0.49687  0.91395  Biso   1.000  N
  H384     1.0000 0.08429  0.53069  0.96020  Biso   1.000  H
  O344     1.0000 0.03073  0.51159  0.85540  Biso   1.000  O
  C1045    1.0000 0.02625  0.21034  0.83380  Biso   1.000  C
  N697     1.0000 0.09229  0.22904  0.89291  Biso   1.000  N
  N698     1.0000 0.10068  0.41803  0.97032  Biso   1.000  N
  H385     1.0000 0.14069  0.45109  0.99289  Biso   1.000  H
  H386     1.0000 0.11049  0.47139  0.00189  Biso   1.000  H
  C1046    1.0000 0.03962  0.47212  0.92540  Biso   1.000  C
  N699     1.0000 0.03712  0.23674  0.86576  Biso   1.000  N
  C1047    1.0000 0.10981  0.25991  0.91548  Biso   1.000  C
  C1048    1.0000 0.06135  0.22550  0.89697  Biso   1.000  C
  C1049    1.0000 0.11596  0.38027  0.97010  Biso   1.000  C
  C1050    1.0000 0.06806  0.41305  0.96695  Biso   1.000  C
  N700     1.0000 0.04775  0.42770  0.93231  Biso   1.000  N
  H387     1.0000 0.03630  0.48459  0.94850  Biso   1.000  H
  H388     1.0000 0.01959  0.47401  0.90589  Biso   1.000  H
  C1051    1.0000 0.02052  0.27169  0.87056  Biso   1.000  C
  O345     1.0000 0.13772  0.26749  0.91882  Biso   1.000  O
  N701     1.0000 0.09059  0.27987  0.93415  Biso   1.000  N
  H389     1.0000 0.05759  0.19711  0.90670  Biso   1.000  H
  C1052    1.0000 0.06009  0.26083  0.92537  Biso   1.000  C
  N702     1.0000 0.09451  0.34914  0.96188  Biso   1.000  N
  O346     1.0000 0.14465  0.37648  0.97592  Biso   1.000  O
  C1053    1.0000 0.06404  0.36468  0.96397  Biso   1.000  C
  H390     1.0000 0.06201  0.42470  0.98899  Biso   1.000  H
  C1054    1.0000 0.03013  0.39672  0.91258  Biso   1.000  C
  N703     1.0000 0.03510  0.28877  0.90497  Biso   1.000  N
  O347     1.0000 0.99756  0.28685  0.84913  Biso   1.000  O
  C1055    1.0000 0.10320  0.30642  0.96581  Biso   1.000  C
  H391     1.0000 0.05530  0.24899  0.94811  Biso   1.000  H
  N704     1.0000 0.03901  0.35956  0.92966  Biso   1.000  N
  H392     1.0000 0.05800  0.35271  0.98601  Biso   1.000  H
  O348     1.0000 0.00850  0.40187  0.88421  Biso   1.000  O
  C1056    1.0000 0.02074  0.32050  0.92236  Biso   1.000  C
  H393     1.0000 0.12630  0.30481  0.97191  Biso   1.000  H
  H394     1.0000 0.09670  0.29480  0.98729  Biso   1.000  H
  H395     1.0000 0.01811  0.30930  0.94619  Biso   1.000  H
  H396     1.0000 0.99969  0.32691  0.90609  Biso   1.000  H
  C1057    1.0000 0.74266  0.87734  0.26170  Biso   1.000  C
  C1058    1.0000 0.72216  0.86588  0.22065  Biso   1.000  C
  N705     1.0000 0.77021  0.85154  0.26635  Biso   1.000  N
  N706     1.0000 0.74760  0.92249  0.25771  Biso   1.000  N
  H397     1.0000 0.73130  0.87131  0.28101  Biso   1.000  H
  N707     1.0000 0.74218  0.83607  0.20920  Biso   1.000  N
  N708     1.0000 0.71773  0.90547  0.20334  Biso   1.000  N
  H398     1.0000 0.70181  0.85271  0.22121  Biso   1.000  H
  C1059    1.0000 0.76950  0.82748  0.23592  Biso   1.000  C
  C1060    1.0000 0.79146  0.84384  0.30194  Biso   1.000  C
  C1061    1.0000 0.73354  0.93812  0.22377  Biso   1.000  C
  C1062    1.0000 0.76060  0.95109  0.28940  Biso   1.000  C
  C1063    1.0000 0.73123  0.80945  0.17656  Biso   1.000  C
  C1064    1.0000 0.69728  0.91131  0.16514  Biso   1.000  C
  O349     1.0000 0.78952  0.80244  0.23221  Biso   1.000  O
  N709     1.0000 0.81527  0.87614  0.31356  Biso   1.000  N
  H399     1.0000 0.80191  0.81630  0.30121  Biso   1.000  H
  H400     1.0000 0.77939  0.84169  0.32080  Biso   1.000  H
  O350     1.0000 0.73361  0.97405  0.21393  Biso   1.000  O
  N710     1.0000 0.79423  0.94715  0.30475  Biso   1.000  N
  H401     1.0000 0.75569  0.98061  0.28109  Biso   1.000  H
  H402     1.0000 0.75019  0.94519  0.30929  Biso   1.000  H
  N711     1.0000 0.73339  0.82856  0.14340  Biso   1.000  N
  H403     1.0000 0.74360  0.78309  0.18030  Biso   1.000  H
  H404     1.0000 0.70909  0.80169  0.17411  Biso   1.000  H
  N712     1.0000 0.71099  0.89824  0.13702  Biso   1.000  N
  H405     1.0000 0.67770  0.89521  0.16271  Biso   1.000  H
  H406     1.0000 0.69170  0.94149  0.16140  Biso   1.000  H
  C1065    1.0000 0.84630  0.86518  0.32484  Biso   1.000  C
  C1066    1.0000 0.80915  0.91589  0.33042  Biso   1.000  C
  C1067    1.0000 0.81389  0.97945  0.30188  Biso   1.000  C
  C1068    1.0000 0.75169  0.81372  0.12208  Biso   1.000  C
  C1069    1.0000 0.70961  0.85580  0.12186  Biso   1.000  C
  C1070    1.0000 0.71763  0.92732  0.11233  Biso   1.000  C
  O351     1.0000 0.85786  0.83152  0.32005  Biso   1.000  O
  N713     1.0000 0.86291  0.89906  0.34279  Biso   1.000  N
  C1071    1.0000 0.84215  0.93354  0.34675  Biso   1.000  C
  H407     1.0000 0.79800  0.91109  0.35020  Biso   1.000  H
  N714     1.0000 0.84332  0.97013  0.32311  Biso   1.000  N
  O352     1.0000 0.80665  0.01187  0.28371  Biso   1.000  O
  O353     1.0000 0.77314  0.78675  0.13175  Biso   1.000  O
  N715     1.0000 0.74352  0.83364  0.08778  Biso   1.000  N
  H408     1.0000 0.68840  0.84321  0.11899  Biso   1.000  H
  C1072    1.0000 0.71669  0.85921  0.08469  Biso   1.000  C
  N716     1.0000 0.72301  0.90664  0.08243  Biso   1.000  N
  O354     1.0000 0.71709  0.96587  0.11587  Biso   1.000  O
  C1073    1.0000 0.89501  0.89726  0.36107  Biso   1.000  C
  H409     1.0000 0.84550  0.94190  0.37339  Biso   1.000  H
  C1074    1.0000 0.86740  0.00215  0.33423  Biso   1.000  C
  C1075    1.0000 0.75393  0.82047  0.05685  Biso   1.000  C
  H410     1.0000 0.69870  0.84971  0.06390  Biso   1.000  H
  C1076    1.0000 0.72514  0.92811  0.04944  Biso   1.000  C
  N717     1.0000 0.91483  0.92167  0.34385  Biso   1.000  N
  H411     1.0000 0.90179  0.86739  0.36230  Biso   1.000  H
  H412     1.0000 0.89800  0.90730  0.38701  Biso   1.000  H
  N718     1.0000 0.89536  0.99189  0.32429  Biso   1.000  N
  H413     1.0000 0.85919  0.02930  0.32239  Biso   1.000  H
  H414     1.0000 0.87230  0.00600  0.36160  Biso   1.000  H
  N719     1.0000 0.77417  0.85097  0.04590  Biso   1.000  N
  H415     1.0000 0.73550  0.81529  0.03550  Biso   1.000  H
  H416     1.0000 0.76539  0.79351  0.06301  Biso   1.000  H
  N720     1.0000 0.75469  0.92315  0.04077  Biso   1.000  N
  H417     1.0000 0.72140  0.95861  0.05231  Biso   1.000  H
  H418     1.0000 0.70829  0.91759  0.02820  Biso   1.000  H
  C1077    1.0000 0.93340  0.90408  0.32373  Biso   1.000  C
  C1078    1.0000 0.91988  0.96615  0.34828  Biso   1.000  C
  C1079    1.0000 0.90875  0.02059  0.30366  Biso   1.000  C
  C1080    1.0000 0.80451  0.84160  0.04615  Biso   1.000  C
  C1081    1.0000 0.76182  0.88690  0.02162  Biso   1.000  C
  C1082    1.0000 0.77407  0.95599  0.04077  Biso   1.000  C
  O355     1.0000 0.93351  0.86613  0.31640  Biso   1.000  O
  N721     1.0000 0.95091  0.93584  0.31431  Biso   1.000  N
  C1083    1.0000 0.94771  0.97357  0.33145  Biso   1.000  C
  H419     1.0000 0.92471  0.97509  0.37500  Biso   1.000  H
  N722     1.0000 0.93912  0.00966  0.30862  Biso   1.000  N
  O356     1.0000 0.89412  0.04935  0.28469  Biso   1.000  O
  O357     1.0000 0.81952  0.81201  0.06309  Biso   1.000  O
  N723     1.0000 0.81458  0.87131  0.02603  Biso   1.000  N
  H420     1.0000 0.74390  0.87860  0.00020  Biso   1.000  H
  C1084    1.0000 0.79109  0.90108  0.00864  Biso   1.000  C
  N724     1.0000 0.79620  0.94389  0.02319  Biso   1.000  N
  O358     1.0000 0.77202  0.99129  0.05278  Biso   1.000  O
  C1085    1.0000 0.97978  0.92425  0.30311  Biso   1.000  C
  H421     1.0000 0.96709  0.97960  0.35171  Biso   1.000  H
  C1086    1.0000 0.96079  0.03571  0.29466  Biso   1.000  C
  C1087    1.0000 0.84138  0.86458  0.01148  Biso   1.000  C
  H422     1.0000 0.78690  0.90051  0.98091  Biso   1.000  H
  C1088    1.0000 0.81444  0.97370  0.00984  Biso   1.000  C
  N725     1.0000 0.98153  0.94307  0.26889  Biso   1.000  N
  H423     1.0000 0.99829  0.93300  0.32309  Biso   1.000  H
  H424     1.0000 0.98061  0.89319  0.30071  Biso   1.000  H
  N726     1.0000 0.96980  0.01869  0.26376  Biso   1.000  N
  H425     1.0000 0.95089  0.06359  0.28750  Biso   1.000  H
  H426     1.0000 0.97990  0.04041  0.31520  Biso   1.000  H
  N727     1.0000 0.86661  0.89615  0.02399  Biso   1.000  N
  H427     1.0000 0.85010  0.83620  0.01909  Biso   1.000  H
  H428     1.0000 0.83440  0.86499  0.98389  Biso   1.000  H
  N728     1.0000 0.84760  0.96761  0.02291  Biso   1.000  N
  H429     1.0000 0.80839  0.97259  0.98230  Biso   1.000  H
  H430     1.0000 0.80930  0.00230  0.01719  Biso   1.000  H
  C1089    1.0000 0.98221  0.92113  0.23829  Biso   1.000  C
  C1090    1.0000 0.99290  0.98567  0.26794  Biso   1.000  C
  C1091    1.0000 0.96536  0.04010  0.23207  Biso   1.000  C
  C1092    1.0000 0.89685  0.88346  0.03915  Biso   1.000  C
  C1093    1.0000 0.86395  0.93685  0.00747  Biso   1.000  C
  C1094    1.0000 0.86751  0.99978  0.04046  Biso   1.000  C
  O359     1.0000 0.97684  0.88245  0.23467  Biso   1.000  O
  N729     1.0000 0.99095  0.94629  0.21321  Biso   1.000  N
  H431     1.0000 0.01169  0.99141  0.28909  Biso   1.000  H
  C1095    1.0000 0.00089  0.98705  0.22926  Biso   1.000  C
  N730     1.0000 0.98315  0.02169  0.21073  Biso   1.000  N
  O360     1.0000 0.94835  0.07079  0.22199  Biso   1.000  O
  O361     1.0000 0.90520  0.84879  0.05091  Biso   1.000  O
  N731     1.0000 0.91572  0.91665  0.03862  Biso   1.000  N
  C1096    1.0000 0.89812  0.95356  0.01792  Biso   1.000  C
  H432     1.0000 0.85539  0.93499  0.97980  Biso   1.000  H
  N732     1.0000 0.89680  0.98920  0.04085  Biso   1.000  N
  O362     1.0000 0.85914  0.03085  0.05534  Biso   1.000  O
  C1097    1.0000 0.00110  0.92883  0.18317  Biso   1.000  C
  H433     1.0000 0.02381  0.99151  0.23241  Biso   1.000  H
  C1098    1.0000 0.98843  0.04184  0.17796  Biso   1.000  C
  C1099    1.0000 0.94940  0.91504  0.05075  Biso   1.000  C
  H434     1.0000 0.90540  0.96120  0.99551  Biso   1.000  H
  C1100    1.0000 0.92290  0.01980  0.05194  Biso   1.000  C
  N733     1.0000 0.98302  0.94374  0.14658  Biso   1.000  N
  H435     1.0000 0.99951  0.89770  0.18400  Biso   1.000  H
  H436     1.0000 0.02341  0.93609  0.18651  Biso   1.000  H
  N734     1.0000 0.97522  0.01850  0.14429  Biso   1.000  N
  H437     1.0000 0.97910  0.07050  0.17550  Biso   1.000  H
  H438     1.0000 0.01119  0.04499  0.18119  Biso   1.000  H
  N735     1.0000 0.96170  0.93546  0.08538  Biso   1.000  N
  H439     1.0000 0.95620  0.88510  0.05289  Biso   1.000  H
  H440     1.0000 0.95811  0.92849  0.03171  Biso   1.000  H
  N736     1.0000 0.94468  0.00900  0.08714  Biso   1.000  N
  H441     1.0000 0.93430  0.02081  0.03241  Biso   1.000  H
  H442     1.0000 0.91419  0.04831  0.05389  Biso   1.000  H
  C1101    1.0000 0.96972  0.91526  0.11916  Biso   1.000  C
  C1102    1.0000 0.98869  0.98330  0.13148  Biso   1.000  C
  C1103    1.0000 0.94873  0.03287  0.11768  Biso   1.000  C
  C1104    1.0000 0.96957  0.97910  0.08898  Biso   1.000  C
  O363     1.0000 0.96460  0.87847  0.12417  Biso   1.000  O
  H443     1.0000 0.01150  0.98769  0.13401  Biso   1.000  H
  O364     1.0000 0.93172  0.06394  0.12133  Biso   1.000  O
  H444     1.0000 0.98271  0.98731  0.07190  Biso   1.000  H
  C1105    1.0000 0.25732  0.12266  0.73830  Biso   1.000  C
  N737     1.0000 0.22977  0.14846  0.73365  Biso   1.000  N
  N738     1.0000 0.25238  0.07751  0.74229  Biso   1.000  N
  H445     1.0000 0.26870  0.12869  0.71899  Biso   1.000  H
  C1106    1.0000 0.27784  0.13412  0.77935  Biso   1.000  C
  C1107    1.0000 0.20852  0.15616  0.69806  Biso   1.000  C
  C1108    1.0000 0.23048  0.17252  0.76408  Biso   1.000  C
  C1109    1.0000 0.23940  0.04891  0.71060  Biso   1.000  C
  C1110    1.0000 0.26647  0.06188  0.77623  Biso   1.000  C
  N739     1.0000 0.25783  0.16393  0.79080  Biso   1.000  N
  N740     1.0000 0.28227  0.09453  0.79665  Biso   1.000  N
  H446     1.0000 0.29820  0.14729  0.77879  Biso   1.000  H
  N741     1.0000 0.18474  0.12386  0.68644  Biso   1.000  N
  H447     1.0000 0.19809  0.18370  0.69879  Biso   1.000  H
  H448     1.0000 0.22059  0.15831  0.67920  Biso   1.000  H
  O365     1.0000 0.21046  0.19756  0.76778  Biso   1.000  O
  N742     1.0000 0.20575  0.05285  0.69525  Biso   1.000  N
  H449     1.0000 0.24429  0.01939  0.71891  Biso   1.000  H
  H450     1.0000 0.24979  0.05481  0.69071  Biso   1.000  H
  O366     1.0000 0.26639  0.02595  0.78607  Biso   1.000  O
  C1111    1.0000 0.26878  0.19055  0.82343  Biso   1.000  C
  C1112    1.0000 0.30273  0.08869  0.83486  Biso   1.000  C
  C1113    1.0000 0.19086  0.08411  0.66958  Biso   1.000  C
  C1114    1.0000 0.15371  0.13482  0.67516  Biso   1.000  C
  C1115    1.0000 0.18611  0.02055  0.69812  Biso   1.000  C
  N743     1.0000 0.26662  0.17144  0.85662  Biso   1.000  N
  H451     1.0000 0.25641  0.21691  0.81970  Biso   1.000  H
  H452     1.0000 0.29089  0.19831  0.82589  Biso   1.000  H
  N744     1.0000 0.28901  0.10176  0.86298  Biso   1.000  N
  H453     1.0000 0.32231  0.10479  0.83731  Biso   1.000  H
  H454     1.0000 0.30830  0.05851  0.83859  Biso   1.000  H
  C1116    1.0000 0.15785  0.06646  0.65325  Biso   1.000  C
  H455     1.0000 0.20200  0.08891  0.64980  Biso   1.000  H
  N745     1.0000 0.13710  0.10094  0.65721  Biso   1.000  N
  O367     1.0000 0.14215  0.16848  0.67995  Biso   1.000  O
  N746     1.0000 0.15669  0.02987  0.67688  Biso   1.000  N
  O368     1.0000 0.19335  0.98813  0.71629  Biso   1.000  O
  C1117    1.0000 0.24832  0.18628  0.87791  Biso   1.000  C
  C1118    1.0000 0.29039  0.14420  0.87814  Biso   1.000  C
  C1119    1.0000 0.28237  0.07268  0.88767  Biso   1.000  C
  H456     1.0000 0.15451  0.05810  0.62661  Biso   1.000  H
  C1120    1.0000 0.10499  0.10274  0.63893  Biso   1.000  C
  C1121    1.0000 0.13261  0.99785  0.66576  Biso   1.000  C
  O369     1.0000 0.22684  0.21325  0.86824  Biso   1.000  O
  N747     1.0000 0.25648  0.16636  0.91222  Biso   1.000  N
  H457     1.0000 0.31160  0.15679  0.88101  Biso   1.000  H
  C1122    1.0000 0.28332  0.14079  0.91531  Biso   1.000  C
  O370     1.0000 0.28289  0.03413  0.88413  Biso   1.000  O
  N748     1.0000 0.27700  0.09336  0.91757  Biso   1.000  N
  N749     1.0000 0.08517  0.07833  0.65615  Biso   1.000  N
  H458     1.0000 0.09819  0.13261  0.63770  Biso   1.000  H
  H459     1.0000 0.10201  0.09270  0.61301  Biso   1.000  H
  N750     1.0000 0.10465  0.00811  0.67571  Biso   1.000  N
  H460     1.0000 0.14079  0.97070  0.67761  Biso   1.000  H
  H461     1.0000 0.12770  0.99400  0.63840  Biso   1.000  H
  C1123    1.0000 0.24605  0.17953  0.94315  Biso   1.000  C
  H462     1.0000 0.30130  0.15029  0.93610  Biso   1.000  H
  C1124    1.0000 0.27487  0.07189  0.95056  Biso   1.000  C
  C1125    1.0000 0.06661  0.09592  0.67627  Biso   1.000  C
  C1126    1.0000 0.08012  0.03385  0.65172  Biso   1.000  C
  C1127    1.0000 0.09125  0.97941  0.69633  Biso   1.000  C
  N751     1.0000 0.22584  0.14903  0.95410  Biso   1.000  N
  H463     1.0000 0.26450  0.18471  0.96450  Biso   1.000  H
  H464     1.0000 0.23459  0.20649  0.93699  Biso   1.000  H
  N752     1.0000 0.24531  0.07685  0.95923  Biso   1.000  N
  H465     1.0000 0.27859  0.04139  0.94769  Biso   1.000  H
  H466     1.0000 0.29171  0.08241  0.97180  Biso   1.000  H
  O371     1.0000 0.06650  0.13387  0.68360  Biso   1.000  O
  N753     1.0000 0.04908  0.06416  0.68569  Biso   1.000  N
  C1128    1.0000 0.05229  0.02643  0.66855  Biso   1.000  C
  H467     1.0000 0.07529  0.02491  0.62500  Biso   1.000  H
  O372     1.0000 0.10588  0.95065  0.71531  Biso   1.000  O
  N754     1.0000 0.06086  0.99034  0.69137  Biso   1.000  N
  C1129    1.0000 0.19548  0.15840  0.95385  Biso   1.000  C
  C1130    1.0000 0.23816  0.11310  0.97837  Biso   1.000  C
  C1131    1.0000 0.22594  0.04401  0.95923  Biso   1.000  C
  C1132    1.0000 0.02022  0.07575  0.69689  Biso   1.000  C
  H468     1.0000 0.03289  0.02040  0.64829  Biso   1.000  H
  C1133    1.0000 0.03921  0.96429  0.70534  Biso   1.000  C
  O373     1.0000 0.18049  0.18799  0.93691  Biso   1.000  O
  N755     1.0000 0.18543  0.12869  0.97397  Biso   1.000  N
  H469     1.0000 0.25611  0.12140  0.99980  Biso   1.000  H
  C1134    1.0000 0.20891  0.09892  0.99136  Biso   1.000  C
  O374     1.0000 0.22799  0.00871  0.94722  Biso   1.000  O
  N756     1.0000 0.20381  0.05611  0.97681  Biso   1.000  N
  N757     1.0000 0.01845  0.05693  0.73111  Biso   1.000  N
  H470     1.0000 0.00169  0.06700  0.67691  Biso   1.000  H
  H471     1.0000 0.01940  0.10681  0.69929  Biso   1.000  H
  N758     1.0000 0.03020  0.98131  0.73624  Biso   1.000  N
  H472     1.0000 0.04909  0.93641  0.71250  Biso   1.000  H
  H473     1.0000 0.02011  0.95959  0.68480  Biso   1.000  H
  C1135    1.0000 0.15862  0.13542  0.98852  Biso   1.000  C
  H474     1.0000 0.21311  0.09949  0.01909  Biso   1.000  H
  C1136    1.0000 0.18557  0.02630  0.99016  Biso   1.000  C
  C1137    1.0000 0.01780  0.07887  0.76171  Biso   1.000  C
  C1138    1.0000 0.00708  0.01433  0.73206  Biso   1.000  C
  C1139    1.0000 0.03465  0.95990  0.76792  Biso   1.000  C
  N759     1.0000 0.13340  0.10385  0.97600  Biso   1.000  N
  H475     1.0000 0.14991  0.16380  0.98091  Biso   1.000  H
  H476     1.0000 0.16561  0.13501  0.01610  Biso   1.000  H
  N760     1.0000 0.15238  0.03239  0.97709  Biso   1.000  N
  H477     1.0000 0.19071  0.99770  0.98280  Biso   1.000  H
  H478     1.0000 0.19159  0.02741  0.01769  Biso   1.000  H
  O375     1.0000 0.02316  0.11755  0.76533  Biso   1.000  O
  N761     1.0000 0.00903  0.05371  0.78679  Biso   1.000  N
  H479     1.0000 0.98831  0.00859  0.71091  Biso   1.000  H
  C1140    1.0000 0.99912  0.01295  0.77074  Biso   1.000  C
  O376     1.0000 0.05163  0.92921  0.77801  Biso   1.000  O
  N762     1.0000 0.01685  0.97831  0.78927  Biso   1.000  N
  C1141    1.0000 0.10316  0.11654  0.96085  Biso   1.000  C
  C1142    1.0000 0.13605  0.06315  0.99253  Biso   1.000  C
  C1143    1.0000 0.13247  0.00022  0.95954  Biso   1.000  C
  C1144    1.0000 0.99890  0.07117  0.81683  Biso   1.000  C
  H480     1.0000 0.97620  0.00849  0.76759  Biso   1.000  H
  C1145    1.0000 0.01158  0.95816  0.82204  Biso   1.000  C
  N763     1.0000 0.08426  0.08335  0.96137  Biso   1.000  N
  O377     1.0000 0.09481  0.15121  0.94909  Biso   1.000  O
  C1146    1.0000 0.10189  0.04644  0.98208  Biso   1.000  C
  H481     1.0000 0.14459  0.06501  0.02020  Biso   1.000  H
  N764     1.0000 0.10321  0.01080  0.95915  Biso   1.000  N
  O378     1.0000 0.14087  0.96915  0.94468  Biso   1.000  O
  N765     1.0000 0.01699  0.05626  0.85342  Biso   1.000  N
  H482     1.0000 0.00050  0.10230  0.81599  Biso   1.000  H
  H483     1.0000 0.97660  0.06391  0.81351  Biso   1.000  H
  H484     1.0000 0.98880  0.95501  0.81881  Biso   1.000  H
  N766     1.0000 0.02479  0.98150  0.85570  Biso   1.000  N
  H485     1.0000 0.02091  0.92950  0.82449  Biso   1.000  H
  C1147    1.0000 0.05061  0.08496  0.94925  Biso   1.000  C
  H486     1.0000 0.09461  0.03880  0.00451  Biso   1.000  H
  C1148    1.0000 0.07710  0.98020  0.94805  Biso   1.000  C
  C1149    1.0000 0.03028  0.08474  0.88084  Biso   1.000  C
  C1150    1.0000 0.01131  0.01670  0.86852  Biso   1.000  C
  C1151    1.0000 0.05127  0.96713  0.88232  Biso   1.000  C
  N767     1.0000 0.03828  0.06454  0.91461  Biso   1.000  N
  H487     1.0000 0.04381  0.11490  0.94711  Biso   1.000  H
  H488     1.0000 0.04190  0.07151  0.96831  Biso   1.000  H
  N768     1.0000 0.05533  0.99100  0.91286  Biso   1.000  N
  H489     1.0000 0.06570  0.97919  0.96759  Biso   1.000  H
  H490     1.0000 0.08579  0.95169  0.94610  Biso   1.000  H
  O379     1.0000 0.03540  0.12153  0.87582  Biso   1.000  O
  C1152    1.0000 0.03044  0.02090  0.91102  Biso   1.000  C
  H491     1.0000 0.98850  0.01231  0.86599  Biso   1.000  H
  O380     1.0000 0.06826  0.93606  0.87867  Biso   1.000  O
  H492     1.0000 0.01730  0.01269  0.92810  Biso   1.000  H
