data_image0
_cell_length_a       40.925
_cell_length_b       40.925
_cell_length_c       13.436
_cell_angle_alpha    90
_cell_angle_beta     90
_cell_angle_gamma    120

_symmetry_space_group_name_H-M    "P 1"
_symmetry_int_tables_number       1

loop_
  _symmetry_equiv_pos_as_xyz
  'x, y, z'

loop_
  _atom_site_label
  _atom_site_occupancy
  _atom_site_fract_x
  _atom_site_fract_y
  _atom_site_fract_z
  _atom_site_thermal_displace_type
  _atom_site_B_iso_or_equiv
  _atom_site_type_symbol
  C1       1.0000 0.51957  0.54805  0.67155  Biso   1.000  C
  C2       1.0000 0.54229  0.55733  0.76742  Biso   1.000  C
  H1       1.0000 0.53140  0.56980  0.62653  Biso   1.000  H
  H2       1.0000 0.51891  0.52621  0.63970  Biso   1.000  H
  H3       1.0000 0.49380  0.54221  0.68689  Biso   1.000  H
  O1       1.0000 0.53782  0.58524  0.82733  Biso   1.000  O
  C3       1.0000 0.52549  0.52328  0.83529  Biso   1.000  C
  C4       1.0000 0.58395  0.57257  0.74911  Biso   1.000  C
  C5       1.0000 0.54448  0.61825  0.78878  Biso   1.000  C
  H4       1.0000 0.49929  0.51588  0.85055  Biso   1.000  H
  H5       1.0000 0.52618  0.50228  0.80217  Biso   1.000  H
  H6       1.0000 0.54011  0.52960  0.89722  Biso   1.000  H
  H7       1.0000 0.59691  0.57609  0.81289  Biso   1.000  H
  H8       1.0000 0.58731  0.55471  0.70810  Biso   1.000  H
  H9       1.0000 0.59460  0.59689  0.71450  Biso   1.000  H
  C6       1.0000 0.53436  0.63944  0.86216  Biso   1.000  C
  O2       1.0000 0.55703  0.62996  0.70750  Biso   1.000  O
  C7       1.0000 0.50597  0.62045  0.93450  Biso   1.000  C
  C8       1.0000 0.55415  0.67902  0.85829  Biso   1.000  C
  C9       1.0000 0.47632  0.58002  0.93041  Biso   1.000  C
  C10      1.0000 0.50182  0.64215  0.00759  Biso   1.000  C
  C11      1.0000 0.54708  0.70047  0.92818  Biso   1.000  C
  C12      1.0000 0.58383  0.69979  0.77962  Biso   1.000  C
  C13      1.0000 0.45527  0.56503  0.84326  Biso   1.000  C
  C14      1.0000 0.46419  0.55775  0.01600  Biso   1.000  C
  C15      1.0000 0.52194  0.68097  0.00506  Biso   1.000  C
  H10      1.0000 0.48460  0.62990  0.06066  Biso   1.000  H
  C16      1.0000 0.56114  0.74163  0.92178  Biso   1.000  C
  O3       1.0000 0.57818  0.71223  0.70460  Biso   1.000  O
  O4       1.0000 0.61659  0.70357  0.80887  Biso   1.000  O
  C17      1.0000 0.42164  0.53163  0.84489  Biso   1.000  C
  H11      1.0000 0.46440  0.57821  0.78215  Biso   1.000  H
  C18      1.0000 0.43013  0.52404  0.01697  Biso   1.000  C
  H12      1.0000 0.47940  0.56580  0.07420  Biso   1.000  H
  H13      1.0000 0.51859  0.69480  0.05701  Biso   1.000  H
  C19      1.0000 0.55523  0.75724  0.83611  Biso   1.000  C
  C20      1.0000 0.57316  0.76401  0.00759  Biso   1.000  C
  C21      1.0000 0.65046  0.72205  0.74338  Biso   1.000  C
  C22      1.0000 0.40717  0.51134  0.93272  Biso   1.000  C
  H14      1.0000 0.40790  0.52209  0.78468  Biso   1.000  H
  H15      1.0000 0.42230  0.50931  0.07606  Biso   1.000  H
  H16      1.0000 0.54959  0.74389  0.77478  Biso   1.000  H
  C23      1.0000 0.55745  0.79217  0.83991  Biso   1.000  C
  C24      1.0000 0.57568  0.79871  0.01042  Biso   1.000  C
  H17      1.0000 0.57970  0.75501  0.06505  Biso   1.000  H
  C25      1.0000 0.64283  0.69858  0.65027  Biso   1.000  C
  C26      1.0000 0.66127  0.76248  0.72388  Biso   1.000  C
  C27      1.0000 0.68020  0.71991  0.80679  Biso   1.000  C
  C28      1.0000 0.36669  0.48228  0.93897  Biso   1.000  C
  H18      1.0000 0.55351  0.80241  0.78066  Biso   1.000  H
  C29      1.0000 0.56527  0.81259  0.92788  Biso   1.000  C
  H19      1.0000 0.58459  0.81361  0.06899  Biso   1.000  H
  H20      1.0000 0.62359  0.69999  0.61008  Biso   1.000  H
  H21      1.0000 0.66621  0.70820  0.61157  Biso   1.000  H
  H22      1.0000 0.63379  0.67220  0.66880  Biso   1.000  H
  H23      1.0000 0.64239  0.76319  0.68049  Biso   1.000  H
  H24      1.0000 0.66238  0.77498  0.78706  Biso   1.000  H
  H25      1.0000 0.68601  0.77560  0.69143  Biso   1.000  H
  H26      1.0000 0.67159  0.69350  0.82309  Biso   1.000  H
  H27      1.0000 0.70399  0.73060  0.76972  Biso   1.000  H
  H28      1.0000 0.68409  0.73430  0.86826  Biso   1.000  H
  C30      1.0000 0.34639  0.46149  0.85628  Biso   1.000  C
  C31      1.0000 0.34626  0.48022  0.02426  Biso   1.000  C
  C32      1.0000 0.55598  0.84304  0.93629  Biso   1.000  C
  C33      1.0000 0.30754  0.44252  0.85502  Biso   1.000  C
  H29      1.0000 0.35970  0.46038  0.79957  Biso   1.000  H
  C34      1.0000 0.30732  0.46143  0.02270  Biso   1.000  C
  H30      1.0000 0.35930  0.49190  0.08410  Biso   1.000  H
  C35      1.0000 0.55747  0.86502  0.85502  Biso   1.000  C
  C36      1.0000 0.53857  0.84589  0.02270  Biso   1.000  C
  C37      1.0000 0.28706  0.44402  0.93629  Biso   1.000  C
  H31      1.0000 0.29449  0.42819  0.79801  Biso   1.000  H
  H32      1.0000 0.29400  0.46030  0.08172  Biso   1.000  H
  H33      1.0000 0.57179  0.86629  0.79801  Biso   1.000  H
  C38      1.0000 0.53851  0.88491  0.85628  Biso   1.000  C
  C39      1.0000 0.51976  0.86603  0.02426  Biso   1.000  C
  H34      1.0000 0.53971  0.83370  0.08172  Biso   1.000  H
  C40      1.0000 0.24731  0.43471  0.92788  Biso   1.000  C
  H35      1.0000 0.53959  0.89930  0.79957  Biso   1.000  H
  C41      1.0000 0.51773  0.88440  0.93897  Biso   1.000  C
  H36      1.0000 0.50810  0.86739  0.08410  Biso   1.000  H
  C42      1.0000 0.23470  0.44252  0.83991  Biso   1.000  C
  C43      1.0000 0.22304  0.42433  0.01042  Biso   1.000  C
  C44      1.0000 0.48867  0.89583  0.93272  Biso   1.000  C
  C45      1.0000 0.20204  0.44478  0.83611  Biso   1.000  C
  H37      1.0000 0.24891  0.44650  0.78066  Biso   1.000  H
  H38      1.0000 0.22901  0.41541  0.06899  Biso   1.000  H
  C46      1.0000 0.19084  0.42684  0.00759  Biso   1.000  C
  C47      1.0000 0.46837  0.89002  0.84489  Biso   1.000  C
  C48      1.0000 0.47597  0.90610  0.01697  Biso   1.000  C
  C49      1.0000 0.18050  0.43886  0.92178  Biso   1.000  C
  H39      1.0000 0.19429  0.45040  0.77478  Biso   1.000  H
  H40      1.0000 0.17530  0.42029  0.06505  Biso   1.000  H
  H41      1.0000 0.47788  0.88578  0.78468  Biso   1.000  H
  C50      1.0000 0.43494  0.89021  0.84326  Biso   1.000  C
  C51      1.0000 0.44225  0.90644  0.01600  Biso   1.000  C
  H42      1.0000 0.49070  0.91298  0.07606  Biso   1.000  H
  C52      1.0000 0.15337  0.45291  0.92818  Biso   1.000  C
  H43      1.0000 0.42180  0.88621  0.78215  Biso   1.000  H
  C53      1.0000 0.41998  0.89631  0.93041  Biso   1.000  C
  H44      1.0000 0.43420  0.91360  0.07420  Biso   1.000  H
  C54      1.0000 0.12489  0.44585  0.85829  Biso   1.000  C
  C55      1.0000 0.15904  0.47808  0.00506  Biso   1.000  C
  C56      1.0000 0.37955  0.88553  0.93450  Biso   1.000  C
  C57      1.0000 0.10509  0.46563  0.86216  Biso   1.000  C
  C58      1.0000 0.11597  0.41617  0.77962  Biso   1.000  C
  H45      1.0000 0.17619  0.48141  0.05701  Biso   1.000  H
  C59      1.0000 0.14032  0.49816  0.00759  Biso   1.000  C
  C60      1.0000 0.36053  0.89490  0.86216  Biso   1.000  C
  C61      1.0000 0.35784  0.85966  0.00759  Biso   1.000  C
  C62      1.0000 0.11447  0.49402  0.93450  Biso   1.000  C
  C63      1.0000 0.07376  0.45550  0.78878  Biso   1.000  C
  O5       1.0000 0.13404  0.42181  0.70460  Biso   1.000  O
  O6       1.0000 0.08698  0.38341  0.80887  Biso   1.000  O
  H46      1.0000 0.14530  0.51540  0.06066  Biso   1.000  H
  C64      1.0000 0.32096  0.87512  0.85829  Biso   1.000  C
  C65      1.0000 0.38175  0.92624  0.78878  Biso   1.000  C
  C66      1.0000 0.31903  0.84098  0.00506  Biso   1.000  C
  H47      1.0000 0.37009  0.85469  0.06066  Biso   1.000  H
  C67      1.0000 0.10369  0.52367  0.93041  Biso   1.000  C
  O7       1.0000 0.07295  0.44298  0.70750  Biso   1.000  O
  O8       1.0000 0.04743  0.46216  0.82733  Biso   1.000  O
  C68      1.0000 0.07160  0.34953  0.74338  Biso   1.000  C
  C69      1.0000 0.29955  0.84662  0.92818  Biso   1.000  C
  C70      1.0000 0.30020  0.88403  0.77962  Biso   1.000  C
  O9       1.0000 0.37004  0.92706  0.70750  Biso   1.000  O
  O10      1.0000 0.41473  0.95257  0.82733  Biso   1.000  O
  H48      1.0000 0.30519  0.82379  0.05701  Biso   1.000  H
  C71      1.0000 0.10977  0.54472  0.84326  Biso   1.000  C
  C72      1.0000 0.09356  0.53580  0.01600  Biso   1.000  C
  C73      1.0000 0.01503  0.45768  0.76742  Biso   1.000  C
  C74      1.0000 0.05575  0.35717  0.65027  Biso   1.000  C
  C75      1.0000 0.10124  0.33872  0.72388  Biso   1.000  C
  C76      1.0000 0.03970  0.31979  0.80679  Biso   1.000  C
  C77      1.0000 0.25835  0.81951  0.92178  Biso   1.000  C
  O11      1.0000 0.28776  0.86595  0.70460  Biso   1.000  O
  O12      1.0000 0.29643  0.91301  0.80887  Biso   1.000  O
  C78      1.0000 0.44266  0.98496  0.76742  Biso   1.000  C
  C79      1.0000 0.10997  0.57835  0.84489  Biso   1.000  C
  H49      1.0000 0.11381  0.53561  0.78215  Biso   1.000  H
  H50      1.0000 0.08639  0.52060  0.07420  Biso   1.000  H
  C80      1.0000 0.09391  0.56989  0.01697  Biso   1.000  C
  C81      1.0000 0.02846  0.48042  0.67155  Biso   1.000  C
  C82      1.0000 0.99778  0.47449  0.83529  Biso   1.000  C
  C83      1.0000 0.98861  0.41603  0.74911  Biso   1.000  C
  H51      1.0000 0.07640  0.37639  0.61008  Biso   1.000  H
  H52      1.0000 0.04199  0.33381  0.61157  Biso   1.000  H
  H53      1.0000 0.03840  0.36620  0.66880  Biso   1.000  H
  H54      1.0000 0.12079  0.35760  0.68049  Biso   1.000  H
  H55      1.0000 0.11260  0.33759  0.78706  Biso   1.000  H
  H56      1.0000 0.08961  0.31401  0.69143  Biso   1.000  H
  H57      1.0000 0.02189  0.32839  0.82309  Biso   1.000  H
  H58      1.0000 0.02661  0.29600  0.76972  Biso   1.000  H
  H59      1.0000 0.05019  0.31590  0.86826  Biso   1.000  H
  C84      1.0000 0.24275  0.79798  0.83611  Biso   1.000  C
  C85      1.0000 0.23600  0.80915  0.00759  Biso   1.000  C
  C86      1.0000 0.27793  0.92839  0.74338  Biso   1.000  C
  C87      1.0000 0.45195  0.97153  0.67155  Biso   1.000  C
  C88      1.0000 0.47669  0.00220  0.83529  Biso   1.000  C
  C89      1.0000 0.42739  0.01137  0.74911  Biso   1.000  C
  C90      1.0000 0.10416  0.59283  0.93272  Biso   1.000  C
  H60      1.0000 0.11420  0.59209  0.78468  Biso   1.000  H
  H61      1.0000 0.08699  0.57770  0.07606  Biso   1.000  H
  H62      1.0000 0.03840  0.46860  0.62653  Biso   1.000  H
  H63      1.0000 0.00729  0.48109  0.63970  Biso   1.000  H
  H64      1.0000 0.04841  0.50621  0.68689  Biso   1.000  H
  H65      1.0000 0.01661  0.50070  0.85055  Biso   1.000  H
  H66      1.0000 0.97610  0.47379  0.80217  Biso   1.000  H
  H67      1.0000 0.98951  0.45991  0.89722  Biso   1.000  H
  H68      1.0000 0.00231  0.40539  0.71450  Biso   1.000  H
  H69      1.0000 0.97920  0.40311  0.81289  Biso   1.000  H
  H70      1.0000 0.96740  0.41270  0.70810  Biso   1.000  H
  C91      1.0000 0.20783  0.76528  0.83991  Biso   1.000  C
  H71      1.0000 0.25610  0.80571  0.77478  Biso   1.000  H
  C92      1.0000 0.20128  0.77696  0.01042  Biso   1.000  C
  H72      1.0000 0.24499  0.82470  0.06505  Biso   1.000  H
  C93      1.0000 0.30142  0.94424  0.65027  Biso   1.000  C
  C94      1.0000 0.23751  0.89876  0.72388  Biso   1.000  C
  C95      1.0000 0.28010  0.96030  0.80679  Biso   1.000  C
  H73      1.0000 0.43019  0.96160  0.62653  Biso   1.000  H
  H74      1.0000 0.47379  0.99269  0.63970  Biso   1.000  H
  H75      1.0000 0.45780  0.95161  0.68689  Biso   1.000  H
  H76      1.0000 0.48410  0.98341  0.85055  Biso   1.000  H
  H77      1.0000 0.49768  0.02390  0.80217  Biso   1.000  H
  H78      1.0000 0.47038  0.01049  0.89722  Biso   1.000  H
  H79      1.0000 0.40308  0.99768  0.71450  Biso   1.000  H
  H80      1.0000 0.42387  0.02079  0.81289  Biso   1.000  H
  H81      1.0000 0.44528  0.03259  0.70810  Biso   1.000  H
  C96      1.0000 0.11561  0.63331  0.93897  Biso   1.000  C
  C97      1.0000 0.18742  0.75269  0.92788  Biso   1.000  C
  H82      1.0000 0.19758  0.75108  0.78066  Biso   1.000  H
  H83      1.0000 0.18641  0.77100  0.06899  Biso   1.000  H
  H84      1.0000 0.29999  0.92359  0.61008  Biso   1.000  H
  H85      1.0000 0.29180  0.95799  0.61157  Biso   1.000  H
  H86      1.0000 0.32781  0.96160  0.66880  Biso   1.000  H
  H87      1.0000 0.23679  0.87921  0.68049  Biso   1.000  H
  H88      1.0000 0.22500  0.88739  0.78706  Biso   1.000  H
  H89      1.0000 0.22441  0.91039  0.69143  Biso   1.000  H
  H90      1.0000 0.30650  0.97810  0.82309  Biso   1.000  H
  H91      1.0000 0.26940  0.97339  0.76972  Biso   1.000  H
  H92      1.0000 0.26571  0.94980  0.86826  Biso   1.000  H
  C98      1.0000 0.11510  0.65360  0.85628  Biso   1.000  C
  C99      1.0000 0.13394  0.65371  0.02426  Biso   1.000  C
  C100     1.0000 0.15696  0.71294  0.93629  Biso   1.000  C
  C101     1.0000 0.13499  0.69245  0.85502  Biso   1.000  C
  H93      1.0000 0.10069  0.64028  0.79957  Biso   1.000  H
  H94      1.0000 0.13260  0.64071  0.08410  Biso   1.000  H
  C102     1.0000 0.15411  0.69268  0.02270  Biso   1.000  C
  H95      1.0000 0.13369  0.70549  0.79801  Biso   1.000  H
  H96      1.0000 0.16629  0.70600  0.08172  Biso   1.000  H
  C103     1.0000 0.48042  0.45195  0.32837  Biso   1.000  C
  C104     1.0000 0.45769  0.44267  0.23258  Biso   1.000  C
  H97      1.0000 0.46859  0.43019  0.37347  Biso   1.000  H
  H98      1.0000 0.48110  0.47379  0.36030  Biso   1.000  H
  H99      1.0000 0.50618  0.45779  0.31311  Biso   1.000  H
  O13      1.0000 0.46216  0.41476  0.17267  Biso   1.000  O
  C105     1.0000 0.47450  0.47672  0.16471  Biso   1.000  C
  C106     1.0000 0.41604  0.42743  0.25089  Biso   1.000  C
  C107     1.0000 0.45551  0.38175  0.21122  Biso   1.000  C
  H100     1.0000 0.50069  0.48409  0.14937  Biso   1.000  H
  H101     1.0000 0.47379  0.49769  0.19783  Biso   1.000  H
  H102     1.0000 0.45990  0.47040  0.10278  Biso   1.000  H
  H103     1.0000 0.40311  0.42390  0.18711  Biso   1.000  H
  H104     1.0000 0.41270  0.44529  0.29190  Biso   1.000  H
  H105     1.0000 0.40541  0.40311  0.28550  Biso   1.000  H
  C108     1.0000 0.46566  0.36056  0.13776  Biso   1.000  C
  O14      1.0000 0.44298  0.37004  0.29250  Biso   1.000  O
  C109     1.0000 0.44585  0.32095  0.14171  Biso   1.000  C
  C110     1.0000 0.49401  0.37955  0.06550  Biso   1.000  C
  C111     1.0000 0.41618  0.30021  0.22038  Biso   1.000  C
  C112     1.0000 0.45291  0.29953  0.07182  Biso   1.000  C
  C113     1.0000 0.52366  0.41998  0.06959  Biso   1.000  C
  C114     1.0000 0.49817  0.35785  0.99241  Biso   1.000  C
  O15      1.0000 0.38340  0.29643  0.19105  Biso   1.000  O
  O16      1.0000 0.42181  0.28777  0.29540  Biso   1.000  O
  C115     1.0000 0.43885  0.25837  0.07822  Biso   1.000  C
  C116     1.0000 0.47807  0.31903  0.99486  Biso   1.000  C
  C117     1.0000 0.54472  0.43493  0.15667  Biso   1.000  C
  C118     1.0000 0.53582  0.44224  0.98400  Biso   1.000  C
  H106     1.0000 0.51541  0.37010  0.93927  Biso   1.000  H
  C119     1.0000 0.34955  0.27795  0.25662  Biso   1.000  C
  C120     1.0000 0.44478  0.24276  0.16389  Biso   1.000  C
  C121     1.0000 0.42683  0.23599  0.99241  Biso   1.000  C
  H107     1.0000 0.48140  0.30520  0.94299  Biso   1.000  H
  C122     1.0000 0.57835  0.46837  0.15511  Biso   1.000  C
  H108     1.0000 0.53558  0.42179  0.21777  Biso   1.000  H
  H109     1.0000 0.52061  0.43420  0.92580  Biso   1.000  H
  C123     1.0000 0.56988  0.47596  0.98303  Biso   1.000  C
  C124     1.0000 0.31979  0.28009  0.19321  Biso   1.000  C
  C125     1.0000 0.35716  0.30142  0.34966  Biso   1.000  C
  C126     1.0000 0.33873  0.23749  0.27612  Biso   1.000  C
  H110     1.0000 0.45040  0.25611  0.22522  Biso   1.000  H
  C127     1.0000 0.44254  0.20783  0.16009  Biso   1.000  C
  C128     1.0000 0.42431  0.20129  0.98958  Biso   1.000  C
  H111     1.0000 0.42028  0.24499  0.93488  Biso   1.000  H
  C129     1.0000 0.59282  0.48866  0.06728  Biso   1.000  C
  H112     1.0000 0.59211  0.47791  0.21532  Biso   1.000  H
  H113     1.0000 0.57768  0.49069  0.92394  Biso   1.000  H
  H114     1.0000 0.32840  0.30650  0.17691  Biso   1.000  H
  H115     1.0000 0.29599  0.26940  0.23028  Biso   1.000  H
  H116     1.0000 0.31589  0.26570  0.13166  Biso   1.000  H
  H117     1.0000 0.37640  0.30001  0.38992  Biso   1.000  H
  H118     1.0000 0.33380  0.29180  0.38836  Biso   1.000  H
  H119     1.0000 0.36620  0.32780  0.33120  Biso   1.000  H
  H120     1.0000 0.35760  0.23681  0.31951  Biso   1.000  H
  H121     1.0000 0.33759  0.22499  0.21286  Biso   1.000  H
  H122     1.0000 0.31401  0.22439  0.30857  Biso   1.000  H
  H123     1.0000 0.44650  0.19759  0.21926  Biso   1.000  H
  C130     1.0000 0.43472  0.18740  0.07212  Biso   1.000  C
  H124     1.0000 0.41539  0.18639  0.93101  Biso   1.000  H
  C131     1.0000 0.63332  0.51772  0.06103  Biso   1.000  C
  C132     1.0000 0.44403  0.15696  0.06371  Biso   1.000  C
  C133     1.0000 0.65362  0.53851  0.14372  Biso   1.000  C
  C134     1.0000 0.65373  0.51978  0.97574  Biso   1.000  C
  C135     1.0000 0.44252  0.13498  0.14498  Biso   1.000  C
  C136     1.0000 0.46144  0.15411  0.97730  Biso   1.000  C
  C137     1.0000 0.69244  0.55747  0.14498  Biso   1.000  C
  H125     1.0000 0.64030  0.53958  0.20043  Biso   1.000  H
  H126     1.0000 0.64071  0.50810  0.91590  Biso   1.000  H
  C138     1.0000 0.69267  0.53857  0.97730  Biso   1.000  C
  H127     1.0000 0.42820  0.13371  0.20199  Biso   1.000  H
  C139     1.0000 0.46148  0.11509  0.14372  Biso   1.000  C
  C140     1.0000 0.48023  0.13397  0.97574  Biso   1.000  C
  H128     1.0000 0.46030  0.16630  0.91828  Biso   1.000  H
  C141     1.0000 0.71293  0.55598  0.06371  Biso   1.000  C
  H129     1.0000 0.70550  0.57181  0.20199  Biso   1.000  H
  H130     1.0000 0.70599  0.53970  0.91828  Biso   1.000  H
  H131     1.0000 0.46039  0.10070  0.20043  Biso   1.000  H
  C142     1.0000 0.48228  0.11560  0.06103  Biso   1.000  C
  H132     1.0000 0.49191  0.13261  0.91590  Biso   1.000  H
  C143     1.0000 0.75270  0.56529  0.07212  Biso   1.000  C
  C144     1.0000 0.51134  0.10417  0.06728  Biso   1.000  C
  C145     1.0000 0.76527  0.55744  0.16009  Biso   1.000  C
  C146     1.0000 0.77697  0.57567  0.98958  Biso   1.000  C
  C147     1.0000 0.53162  0.10998  0.15511  Biso   1.000  C
  C148     1.0000 0.52402  0.09390  0.98303  Biso   1.000  C
  C149     1.0000 0.79797  0.55522  0.16389  Biso   1.000  C
  H133     1.0000 0.75110  0.55349  0.21926  Biso   1.000  H
  H134     1.0000 0.77100  0.58459  0.93101  Biso   1.000  H
  C150     1.0000 0.80915  0.57316  0.99241  Biso   1.000  C
  H135     1.0000 0.52209  0.11419  0.21532  Biso   1.000  H
  C151     1.0000 0.56505  0.10978  0.15667  Biso   1.000  C
  C152     1.0000 0.55774  0.09356  0.98400  Biso   1.000  C
  H136     1.0000 0.50930  0.08699  0.92394  Biso   1.000  H
  C153     1.0000 0.81951  0.56114  0.07822  Biso   1.000  C
  H137     1.0000 0.80570  0.54960  0.22522  Biso   1.000  H
  H138     1.0000 0.82471  0.57971  0.93488  Biso   1.000  H
  H139     1.0000 0.57819  0.11379  0.21777  Biso   1.000  H
  C154     1.0000 0.58001  0.10369  0.06959  Biso   1.000  C
  H140     1.0000 0.56579  0.08639  0.92580  Biso   1.000  H
  C155     1.0000 0.84662  0.54709  0.07182  Biso   1.000  C
  C156     1.0000 0.62046  0.11447  0.06550  Biso   1.000  C
  C157     1.0000 0.87509  0.55414  0.14171  Biso   1.000  C
  C158     1.0000 0.84097  0.52192  0.99486  Biso   1.000  C
  C159     1.0000 0.63945  0.10510  0.13776  Biso   1.000  C
  C160     1.0000 0.64214  0.14034  0.99241  Biso   1.000  C
  C161     1.0000 0.89492  0.53436  0.13776  Biso   1.000  C
  C162     1.0000 0.88402  0.58383  0.22038  Biso   1.000  C
  H141     1.0000 0.82379  0.51859  0.94299  Biso   1.000  H
  C163     1.0000 0.85965  0.50180  0.99241  Biso   1.000  C
  C164     1.0000 0.67903  0.12488  0.14171  Biso   1.000  C
  C165     1.0000 0.61823  0.07375  0.21122  Biso   1.000  C
  C166     1.0000 0.68095  0.15902  0.99486  Biso   1.000  C
  H142     1.0000 0.62989  0.14531  0.93927  Biso   1.000  H
  C167     1.0000 0.88551  0.50598  0.06550  Biso   1.000  C
  C168     1.0000 0.92625  0.54449  0.21122  Biso   1.000  C
  O17      1.0000 0.86595  0.57818  0.29540  Biso   1.000  O
  O18      1.0000 0.91301  0.61658  0.19105  Biso   1.000  O
  H143     1.0000 0.85469  0.48459  0.93927  Biso   1.000  H
  C169     1.0000 0.70046  0.15338  0.07182  Biso   1.000  C
  C170     1.0000 0.69979  0.11596  0.22038  Biso   1.000  C
  O19      1.0000 0.62997  0.07294  0.29250  Biso   1.000  O
  O20      1.0000 0.58525  0.04743  0.17267  Biso   1.000  O
  H144     1.0000 0.69480  0.17620  0.94299  Biso   1.000  H
  C171     1.0000 0.89629  0.47633  0.06959  Biso   1.000  C
  O21      1.0000 0.92706  0.55702  0.29250  Biso   1.000  O
  O22      1.0000 0.95258  0.53784  0.17267  Biso   1.000  O
  C172     1.0000 0.92841  0.65047  0.25662  Biso   1.000  C
  C173     1.0000 0.74163  0.18049  0.07822  Biso   1.000  C
  O23      1.0000 0.71223  0.13405  0.29540  Biso   1.000  O
  O24      1.0000 0.70358  0.08699  0.19105  Biso   1.000  O
  C174     1.0000 0.55733  0.01504  0.23258  Biso   1.000  C
  C175     1.0000 0.89022  0.45528  0.15667  Biso   1.000  C
  C176     1.0000 0.90641  0.46417  0.98400  Biso   1.000  C
  C177     1.0000 0.98498  0.54232  0.23258  Biso   1.000  C
  C178     1.0000 0.94426  0.64282  0.34966  Biso   1.000  C
  C179     1.0000 0.89877  0.66128  0.27612  Biso   1.000  C
  C180     1.0000 0.96031  0.68021  0.19321  Biso   1.000  C
  C181     1.0000 0.75723  0.20202  0.16389  Biso   1.000  C
  C182     1.0000 0.76401  0.19085  0.99241  Biso   1.000  C
  C183     1.0000 0.72206  0.07161  0.25662  Biso   1.000  C
  C184     1.0000 0.54804  0.02847  0.32837  Biso   1.000  C
  C185     1.0000 0.52332  0.99780  0.16471  Biso   1.000  C
  C186     1.0000 0.57259  0.98863  0.25089  Biso   1.000  C
  C187     1.0000 0.89002  0.42165  0.15511  Biso   1.000  C
  H145     1.0000 0.88620  0.46439  0.21777  Biso   1.000  H
  H146     1.0000 0.91359  0.47940  0.92580  Biso   1.000  H
  C188     1.0000 0.90608  0.43011  0.98303  Biso   1.000  C
  C189     1.0000 0.97153  0.51958  0.32837  Biso   1.000  C
  C190     1.0000 0.00220  0.52551  0.16471  Biso   1.000  C
  C191     1.0000 0.01137  0.58397  0.25089  Biso   1.000  C
  H147     1.0000 0.92361  0.62361  0.38992  Biso   1.000  H
  H148     1.0000 0.95799  0.66619  0.38836  Biso   1.000  H
  H149     1.0000 0.96159  0.63379  0.33120  Biso   1.000  H
  H150     1.0000 0.87920  0.64240  0.31951  Biso   1.000  H
  H151     1.0000 0.88739  0.66240  0.21286  Biso   1.000  H
  H152     1.0000 0.91040  0.68599  0.30857  Biso   1.000  H
  H153     1.0000 0.97810  0.67160  0.17691  Biso   1.000  H
  H154     1.0000 0.97340  0.70399  0.23028  Biso   1.000  H
  H155     1.0000 0.94980  0.68410  0.13166  Biso   1.000  H
  H156     1.0000 0.74389  0.19429  0.22522  Biso   1.000  H
  C192     1.0000 0.79218  0.23472  0.16009  Biso   1.000  C
  C193     1.0000 0.79870  0.22304  0.98958  Biso   1.000  C
  H157     1.0000 0.75499  0.17530  0.93488  Biso   1.000  H
  C194     1.0000 0.69857  0.05575  0.34966  Biso   1.000  C
  C195     1.0000 0.76251  0.10124  0.27612  Biso   1.000  C
  C196     1.0000 0.71989  0.03970  0.19321  Biso   1.000  C
  H158     1.0000 0.56979  0.03840  0.37347  Biso   1.000  H
  H159     1.0000 0.52620  0.00731  0.36030  Biso   1.000  H
  H160     1.0000 0.54219  0.04839  0.31311  Biso   1.000  H
  H161     1.0000 0.51588  0.01659  0.14937  Biso   1.000  H
  H162     1.0000 0.50233  0.97610  0.19783  Biso   1.000  H
  H163     1.0000 0.52963  0.98950  0.10278  Biso   1.000  H
  H164     1.0000 0.59691  0.00231  0.28550  Biso   1.000  H
  H165     1.0000 0.57611  0.97921  0.18711  Biso   1.000  H
  H166     1.0000 0.55473  0.96741  0.29190  Biso   1.000  H
  C197     1.0000 0.89583  0.40717  0.06728  Biso   1.000  C
  H167     1.0000 0.88581  0.40790  0.21532  Biso   1.000  H
  H168     1.0000 0.91299  0.42229  0.92394  Biso   1.000  H
  H169     1.0000 0.96161  0.53140  0.37347  Biso   1.000  H
  H170     1.0000 0.99270  0.51890  0.36030  Biso   1.000  H
  H171     1.0000 0.95160  0.49379  0.31311  Biso   1.000  H
  H172     1.0000 0.98340  0.49929  0.14937  Biso   1.000  H
  H173     1.0000 0.02391  0.52621  0.19783  Biso   1.000  H
  H174     1.0000 0.01050  0.54009  0.10278  Biso   1.000  H
  H175     1.0000 0.99771  0.59460  0.28550  Biso   1.000  H
  H176     1.0000 0.02079  0.59689  0.18711  Biso   1.000  H
  H177     1.0000 0.03259  0.58730  0.29190  Biso   1.000  H
  H178     1.0000 0.80239  0.24888  0.21926  Biso   1.000  H
  C198     1.0000 0.81260  0.24730  0.07212  Biso   1.000  C
  H179     1.0000 0.81360  0.22899  0.93101  Biso   1.000  H
  H180     1.0000 0.70000  0.07641  0.38992  Biso   1.000  H
  H181     1.0000 0.70821  0.04201  0.38836  Biso   1.000  H
  H182     1.0000 0.67220  0.03840  0.33120  Biso   1.000  H
  H183     1.0000 0.76319  0.12079  0.31951  Biso   1.000  H
  H184     1.0000 0.77501  0.11261  0.21286  Biso   1.000  H
  H185     1.0000 0.77561  0.08961  0.30857  Biso   1.000  H
  H186     1.0000 0.69349  0.02189  0.17691  Biso   1.000  H
  H187     1.0000 0.73059  0.02661  0.23028  Biso   1.000  H
  H188     1.0000 0.73430  0.05019  0.13166  Biso   1.000  H
  C199     1.0000 0.88440  0.36668  0.06103  Biso   1.000  C
  C200     1.0000 0.84303  0.28706  0.06371  Biso   1.000  C
  C201     1.0000 0.88489  0.34640  0.14372  Biso   1.000  C
  C202     1.0000 0.86603  0.34625  0.97574  Biso   1.000  C
  C203     1.0000 0.86502  0.30754  0.14498  Biso   1.000  C
  C204     1.0000 0.84590  0.30732  0.97730  Biso   1.000  C
  H189     1.0000 0.89928  0.35969  0.20043  Biso   1.000  H
  H190     1.0000 0.86739  0.35929  0.91590  Biso   1.000  H
  H191     1.0000 0.86630  0.29451  0.20199  Biso   1.000  H
  H192     1.0000 0.83370  0.29400  0.91828  Biso   1.000  H
  C205     1.0000 0.42916  0.43457  0.60941  Biso   1.000  C
  C206     1.0000 0.38874  0.40494  0.58991  Biso   1.000  C
  H193     1.0000 0.42987  0.45412  0.65280  Biso   1.000  H
  H194     1.0000 0.44166  0.44594  0.54622  Biso   1.000  H
  H195     1.0000 0.44226  0.42294  0.64193  Biso   1.000  H
  O25      1.0000 0.37023  0.42032  0.52441  Biso   1.000  O
  C207     1.0000 0.36525  0.38909  0.68302  Biso   1.000  C
  C208     1.0000 0.38656  0.37303  0.52650  Biso   1.000  C
  C209     1.0000 0.36647  0.44930  0.55374  Biso   1.000  C
  H196     1.0000 0.36668  0.40974  0.72321  Biso   1.000  H
  H197     1.0000 0.37487  0.37534  0.72172  Biso   1.000  H
  H198     1.0000 0.33885  0.37173  0.66456  Biso   1.000  H
  H199     1.0000 0.36017  0.35523  0.51020  Biso   1.000  H
  H200     1.0000 0.39727  0.35994  0.56364  Biso   1.000  H
  H201     1.0000 0.40095  0.38353  0.46502  Biso   1.000  H
  C210     1.0000 0.34571  0.45821  0.47499  Biso   1.000  C
  O26      1.0000 0.37891  0.46738  0.62876  Biso   1.000  O
  C211     1.0000 0.30613  0.43843  0.47112  Biso   1.000  C
  C212     1.0000 0.36712  0.48671  0.40511  Biso   1.000  C
  C213     1.0000 0.28491  0.40709  0.54451  Biso   1.000  C
  C214     1.0000 0.28711  0.44780  0.39885  Biso   1.000  C
  C215     1.0000 0.34763  0.49235  0.32822  Biso   1.000  C
  C216     1.0000 0.40831  0.51382  0.41151  Biso   1.000  C
  O27      1.0000 0.25193  0.38076  0.50603  Biso   1.000  O
  O28      1.0000 0.29662  0.40627  0.62586  Biso   1.000  O
  C217     1.0000 0.24668  0.43702  0.40295  Biso   1.000  C
  C218     1.0000 0.30882  0.47367  0.32569  Biso   1.000  C
  H202     1.0000 0.36148  0.50954  0.27635  Biso   1.000  H
  C219     1.0000 0.42391  0.53535  0.49725  Biso   1.000  C
  C220     1.0000 0.43067  0.52418  0.32569  Biso   1.000  C
  C221     1.0000 0.22401  0.34837  0.56594  Biso   1.000  C
  C222     1.0000 0.23172  0.44312  0.49003  Biso   1.000  C
  C223     1.0000 0.22442  0.42689  0.31736  Biso   1.000  C
  H203     1.0000 0.29657  0.47864  0.27263  Biso   1.000  H
  H204     1.0000 0.41057  0.52762  0.55850  Biso   1.000  H
  C224     1.0000 0.45883  0.56805  0.49345  Biso   1.000  C
  C225     1.0000 0.46538  0.55637  0.32294  Biso   1.000  C
  H205     1.0000 0.42167  0.50863  0.26823  Biso   1.000  H
  C226     1.0000 0.23925  0.32196  0.58425  Biso   1.000  C
  C227     1.0000 0.18995  0.33113  0.49799  Biso   1.000  C
  C228     1.0000 0.21472  0.36180  0.66173  Biso   1.000  C
  C229     1.0000 0.19830  0.44331  0.48839  Biso   1.000  C
  H206     1.0000 0.24487  0.44712  0.55113  Biso   1.000  H
  H207     1.0000 0.23247  0.41973  0.25915  Biso   1.000  H
  C230     1.0000 0.19070  0.42723  0.31631  Biso   1.000  C
  H208     1.0000 0.46907  0.58222  0.55262  Biso   1.000  H
  C231     1.0000 0.47925  0.58064  0.40540  Biso   1.000  C
  H209     1.0000 0.48026  0.56233  0.26436  Biso   1.000  H
  H210     1.0000 0.24277  0.31254  0.52039  Biso   1.000  H
  H211     1.0000 0.22138  0.30074  0.62526  Biso   1.000  H
  H212     1.0000 0.26357  0.33562  0.61886  Biso   1.000  H
  H213     1.0000 0.18256  0.34992  0.48273  Biso   1.000  H
  H214     1.0000 0.16896  0.30943  0.53111  Biso   1.000  H
  H215     1.0000 0.19626  0.32284  0.43614  Biso   1.000  H
  H216     1.0000 0.23647  0.37173  0.70683  Biso   1.000  H
  H217     1.0000 0.19287  0.34064  0.69366  Biso   1.000  H
  H218     1.0000 0.20887  0.38172  0.64640  Biso   1.000  H
  C232     1.0000 0.17799  0.43750  0.40064  Biso   1.000  C
  H219     1.0000 0.18877  0.44752  0.54860  Biso   1.000  H
  H220     1.0000 0.17595  0.42032  0.25722  Biso   1.000  H
  C233     1.0000 0.50971  0.62039  0.39699  Biso   1.000  C
  C234     1.0000 0.14894  0.44893  0.39431  Biso   1.000  C
  C235     1.0000 0.53168  0.64088  0.47834  Biso   1.000  C
  C236     1.0000 0.51256  0.64065  0.31066  Biso   1.000  C
  C237     1.0000 0.12816  0.44842  0.47700  Biso   1.000  C
  C238     1.0000 0.14690  0.46730  0.30902  Biso   1.000  C
  H221     1.0000 0.53298  0.62784  0.53535  Biso   1.000  H
  C239     1.0000 0.55157  0.67973  0.47700  Biso   1.000  C
  C240     1.0000 0.53271  0.67959  0.30902  Biso   1.000  C
  H222     1.0000 0.50037  0.62733  0.25164  Biso   1.000  H
  C241     1.0000 0.10920  0.46831  0.47834  Biso   1.000  C
  H223     1.0000 0.12707  0.43403  0.53372  Biso   1.000  H
  H224     1.0000 0.15857  0.46594  0.24926  Biso   1.000  H
  C242     1.0000 0.12810  0.48744  0.31066  Biso   1.000  C
  H225     1.0000 0.56596  0.69302  0.53372  Biso   1.000  H
  C243     1.0000 0.55106  0.70002  0.39431  Biso   1.000  C
  H226     1.0000 0.53407  0.69262  0.24926  Biso   1.000  H
  C244     1.0000 0.11068  0.49029  0.39699  Biso   1.000  C
  H227     1.0000 0.09488  0.46704  0.53535  Biso   1.000  H
  H228     1.0000 0.12696  0.49963  0.25164  Biso   1.000  H
  C245     1.0000 0.56251  0.74050  0.40064  Biso   1.000  C
  C246     1.0000 0.10139  0.52074  0.40540  Biso   1.000  C
  C247     1.0000 0.55669  0.75498  0.48839  Biso   1.000  C
  C248     1.0000 0.57275  0.76344  0.31631  Biso   1.000  C
  C249     1.0000 0.10921  0.54116  0.49345  Biso   1.000  C
  C250     1.0000 0.09099  0.53462  0.32294  Biso   1.000  C
  H229     1.0000 0.55246  0.74124  0.54860  Biso   1.000  H
  C251     1.0000 0.55690  0.78861  0.49003  Biso   1.000  C
  C252     1.0000 0.57309  0.79750  0.31736  Biso   1.000  C
  H230     1.0000 0.57967  0.75563  0.25722  Biso   1.000  H
  C253     1.0000 0.11142  0.57607  0.49725  Biso   1.000  C
  H231     1.0000 0.11316  0.53092  0.55262  Biso   1.000  H
  H232     1.0000 0.08207  0.51972  0.26436  Biso   1.000  H
  C254     1.0000 0.09351  0.56932  0.32569  Biso   1.000  C
  H233     1.0000 0.55285  0.79772  0.55113  Biso   1.000  H
  C255     1.0000 0.56297  0.80966  0.40295  Biso   1.000  C
  H234     1.0000 0.58027  0.81273  0.25915  Biso   1.000  H
  C256     1.0000 0.10553  0.59170  0.41151  Biso   1.000  C
  H235     1.0000 0.11708  0.58944  0.55850  Biso   1.000  H
  H236     1.0000 0.08696  0.57832  0.26823  Biso   1.000  H
  C257     1.0000 0.55219  0.83931  0.39885  Biso   1.000  C
  C258     1.0000 0.11958  0.63286  0.40511  Biso   1.000  C
  C259     1.0000 0.56157  0.86770  0.47112  Biso   1.000  C
  C260     1.0000 0.52633  0.83514  0.32569  Biso   1.000  C
  C261     1.0000 0.11250  0.65428  0.47499  Biso   1.000  C
  C262     1.0000 0.14473  0.65236  0.32822  Biso   1.000  C
  C263     1.0000 0.54177  0.88748  0.47499  Biso   1.000  C
  C264     1.0000 0.59290  0.87783  0.54451  Biso   1.000  C
  C265     1.0000 0.50763  0.85525  0.32822  Biso   1.000  C
  H237     1.0000 0.52136  0.81793  0.27263  Biso   1.000  H
  C266     1.0000 0.13231  0.69389  0.47112  Biso   1.000  C
  C267     1.0000 0.08283  0.63354  0.55374  Biso   1.000  C
  H238     1.0000 0.14808  0.63853  0.27635  Biso   1.000  H
  C268     1.0000 0.16485  0.69118  0.32569  Biso   1.000  C
  C269     1.0000 0.51330  0.88042  0.40511  Biso   1.000  C
  C270     1.0000 0.55070  0.91716  0.55374  Biso   1.000  C
  O29      1.0000 0.59372  0.89035  0.62586  Biso   1.000  O
  O30      1.0000 0.61924  0.87117  0.50603  Biso   1.000  O
  H239     1.0000 0.49047  0.85192  0.27635  Biso   1.000  H
  C271     1.0000 0.16069  0.71288  0.39885  Biso   1.000  C
  C272     1.0000 0.12218  0.71508  0.54451  Biso   1.000  C
  O31      1.0000 0.08848  0.62110  0.62876  Biso   1.000  O
  O32      1.0000 0.05008  0.62976  0.52441  Biso   1.000  O
  H240     1.0000 0.18206  0.70343  0.27263  Biso   1.000  H
  C273     1.0000 0.48616  0.89447  0.41151  Biso   1.000  C
  O33      1.0000 0.53263  0.91152  0.62876  Biso   1.000  O
  O34      1.0000 0.57969  0.94992  0.52441  Biso   1.000  O
  C274     1.0000 0.65162  0.87563  0.56594  Biso   1.000  C
  C275     1.0000 0.19034  0.75331  0.40295  Biso   1.000  C
  O35      1.0000 0.10963  0.70337  0.62586  Biso   1.000  O
  O36      1.0000 0.12884  0.74809  0.50603  Biso   1.000  O
  C276     1.0000 0.01621  0.61128  0.58991  Biso   1.000  C
  C277     1.0000 0.46463  0.88855  0.49725  Biso   1.000  C
  C278     1.0000 0.47582  0.90649  0.32569  Biso   1.000  C
  C279     1.0000 0.59507  0.98380  0.58991  Biso   1.000  C
  C280     1.0000 0.66888  0.85884  0.49799  Biso   1.000  C
  C281     1.0000 0.63821  0.85291  0.66173  Biso   1.000  C
  C282     1.0000 0.67805  0.91730  0.58425  Biso   1.000  C
  C283     1.0000 0.21138  0.76827  0.49003  Biso   1.000  C
  C284     1.0000 0.20247  0.77558  0.31736  Biso   1.000  C
  C285     1.0000 0.12437  0.77600  0.56594  Biso   1.000  C
  C286     1.0000 0.02384  0.63475  0.68302  Biso   1.000  C
  C287     1.0000 0.00538  0.57082  0.60941  Biso   1.000  C
  C288     1.0000 0.98647  0.61342  0.52650  Biso   1.000  C
  H241     1.0000 0.47238  0.88293  0.55850  Biso   1.000  H
  C289     1.0000 0.43195  0.89078  0.49345  Biso   1.000  C
  C290     1.0000 0.44363  0.90900  0.32294  Biso   1.000  C
  H242     1.0000 0.49136  0.91304  0.26823  Biso   1.000  H
  C291     1.0000 0.61091  0.97616  0.68302  Biso   1.000  C
  C292     1.0000 0.56543  0.99461  0.60941  Biso   1.000  C
  C293     1.0000 0.62694  0.01354  0.52650  Biso   1.000  C
  H243     1.0000 0.65006  0.83263  0.48273  Biso   1.000  H
  H244     1.0000 0.69057  0.85954  0.53111  Biso   1.000  H
  H245     1.0000 0.67715  0.87342  0.43614  Biso   1.000  H
  H246     1.0000 0.62826  0.86473  0.70683  Biso   1.000  H
  H247     1.0000 0.65937  0.85224  0.69366  Biso   1.000  H
  H248     1.0000 0.61825  0.82712  0.64640  Biso   1.000  H
  H249     1.0000 0.68747  0.93022  0.52039  Biso   1.000  H
  H250     1.0000 0.69926  0.92063  0.62526  Biso   1.000  H
  H251     1.0000 0.66436  0.92794  0.61886  Biso   1.000  H
  C294     1.0000 0.24503  0.80170  0.48839  Biso   1.000  C
  H252     1.0000 0.20226  0.75512  0.55113  Biso   1.000  H
  H253     1.0000 0.18726  0.76753  0.25915  Biso   1.000  H
  C295     1.0000 0.23653  0.80929  0.31631  Biso   1.000  C
  C296     1.0000 0.14116  0.81003  0.49799  Biso   1.000  C
  C297     1.0000 0.14709  0.78528  0.66173  Biso   1.000  C
  C298     1.0000 0.08271  0.76076  0.58425  Biso   1.000  C
  H254     1.0000 0.04307  0.63334  0.72321  Biso   1.000  H
  H255     1.0000 0.00046  0.62513  0.72172  Biso   1.000  H
  H256     1.0000 0.03288  0.66113  0.66456  Biso   1.000  H
  H257     1.0000 0.02428  0.57014  0.65280  Biso   1.000  H
  H258     1.0000 0.00427  0.55832  0.54622  Biso   1.000  H
  H259     1.0000 0.98066  0.55773  0.64193  Biso   1.000  H
  H260     1.0000 0.99508  0.63983  0.51020  Biso   1.000  H
  H261     1.0000 0.96267  0.60273  0.56364  Biso   1.000  H
  H262     1.0000 0.98257  0.59903  0.46502  Biso   1.000  H
  H263     1.0000 0.41776  0.88683  0.55262  Biso   1.000  H
  C299     1.0000 0.41935  0.89862  0.40540  Biso   1.000  C
  H264     1.0000 0.43765  0.91792  0.26436  Biso   1.000  H
  H265     1.0000 0.59026  0.95694  0.72321  Biso   1.000  H
  H266     1.0000 0.62467  0.99952  0.72172  Biso   1.000  H
  H267     1.0000 0.62827  0.96713  0.66456  Biso   1.000  H
  H268     1.0000 0.54587  0.97573  0.65280  Biso   1.000  H
  H269     1.0000 0.55407  0.99574  0.54622  Biso   1.000  H
  H270     1.0000 0.57703  0.01932  0.64193  Biso   1.000  H
  H271     1.0000 0.64478  0.00494  0.51020  Biso   1.000  H
  H272     1.0000 0.64006  0.03733  0.56364  Biso   1.000  H
  H273     1.0000 0.61648  0.01743  0.46502  Biso   1.000  H
  C300     1.0000 0.25950  0.82199  0.40064  Biso   1.000  C
  H274     1.0000 0.25877  0.81124  0.54860  Biso   1.000  H
  H275     1.0000 0.24436  0.82402  0.25722  Biso   1.000  H
  H276     1.0000 0.16737  0.81742  0.48273  Biso   1.000  H
  H277     1.0000 0.14047  0.83102  0.53111  Biso   1.000  H
  H278     1.0000 0.12656  0.80373  0.43614  Biso   1.000  H
  H279     1.0000 0.13526  0.76353  0.70683  Biso   1.000  H
  H280     1.0000 0.14775  0.80712  0.69366  Biso   1.000  H
  H281     1.0000 0.17286  0.79112  0.64640  Biso   1.000  H
  H282     1.0000 0.06976  0.75724  0.52039  Biso   1.000  H
  H283     1.0000 0.07935  0.77862  0.62526  Biso   1.000  H
  H284     1.0000 0.07207  0.73644  0.61886  Biso   1.000  H
  C301     1.0000 0.37961  0.88931  0.39699  Biso   1.000  C
  C302     1.0000 0.29998  0.85105  0.39431  Biso   1.000  C
  C303     1.0000 0.35912  0.89081  0.47834  Biso   1.000  C
  C304     1.0000 0.35935  0.87190  0.31066  Biso   1.000  C
  C305     1.0000 0.32027  0.87184  0.47700  Biso   1.000  C
  C306     1.0000 0.32041  0.85311  0.30902  Biso   1.000  C
  H285     1.0000 0.37218  0.90514  0.53535  Biso   1.000  H
  H286     1.0000 0.37267  0.87303  0.25164  Biso   1.000  H
  H287     1.0000 0.30695  0.87292  0.53372  Biso   1.000  H
  H288     1.0000 0.30736  0.84143  0.24926  Biso   1.000  H
  C307     1.0000 0.57083  0.56543  0.39059  Biso   1.000  C
  C308     1.0000 0.61127  0.59506  0.41009  Biso   1.000  C
  H289     1.0000 0.57014  0.54588  0.34713  Biso   1.000  H
  H290     1.0000 0.55832  0.55406  0.45378  Biso   1.000  H
  H291     1.0000 0.55773  0.57705  0.35807  Biso   1.000  H
  O37      1.0000 0.62975  0.57968  0.47559  Biso   1.000  O
  C309     1.0000 0.63477  0.61091  0.31698  Biso   1.000  C
  C310     1.0000 0.61342  0.62697  0.47343  Biso   1.000  C
  C311     1.0000 0.63354  0.55070  0.44626  Biso   1.000  C
  H292     1.0000 0.63333  0.59026  0.27679  Biso   1.000  H
  H293     1.0000 0.62512  0.62465  0.27828  Biso   1.000  H
  H294     1.0000 0.66113  0.62826  0.33544  Biso   1.000  H
  H295     1.0000 0.63984  0.64477  0.48973  Biso   1.000  H
  H296     1.0000 0.60272  0.64006  0.43636  Biso   1.000  H
  H297     1.0000 0.59904  0.61647  0.53498  Biso   1.000  H
  C312     1.0000 0.65430  0.54179  0.52493  Biso   1.000  C
  O38      1.0000 0.62110  0.53262  0.37124  Biso   1.000  O
  C313     1.0000 0.63287  0.51329  0.59489  Biso   1.000  C
  C314     1.0000 0.69388  0.56156  0.52888  Biso   1.000  C
  C315     1.0000 0.59170  0.48617  0.58849  Biso   1.000  C
  C316     1.0000 0.65238  0.50765  0.67178  Biso   1.000  C
  C317     1.0000 0.71287  0.55220  0.60115  Biso   1.000  C
  C318     1.0000 0.71507  0.59291  0.45549  Biso   1.000  C
  C319     1.0000 0.57607  0.46465  0.50275  Biso   1.000  C
  C320     1.0000 0.56932  0.47582  0.67423  Biso   1.000  C
  H298     1.0000 0.63854  0.49046  0.72365  Biso   1.000  H
  C321     1.0000 0.69116  0.52632  0.67423  Biso   1.000  C
  C322     1.0000 0.75330  0.56297  0.59705  Biso   1.000  C
  O39      1.0000 0.70336  0.59373  0.37414  Biso   1.000  O
  O40      1.0000 0.74808  0.61924  0.49397  Biso   1.000  O
  C323     1.0000 0.54115  0.43194  0.50655  Biso   1.000  C
  H299     1.0000 0.58944  0.47238  0.44143  Biso   1.000  H
  C324     1.0000 0.53460  0.44363  0.67706  Biso   1.000  C
  H300     1.0000 0.57834  0.49136  0.73177  Biso   1.000  H
  H301     1.0000 0.70342  0.52136  0.72737  Biso   1.000  H
  C325     1.0000 0.76829  0.55688  0.50997  Biso   1.000  C
  C326     1.0000 0.77559  0.57310  0.68264  Biso   1.000  C
  C327     1.0000 0.77598  0.65163  0.43406  Biso   1.000  C
  C328     1.0000 0.52074  0.41936  0.59452  Biso   1.000  C
  H302     1.0000 0.53093  0.41775  0.44738  Biso   1.000  H
  H303     1.0000 0.51973  0.43767  0.73564  Biso   1.000  H
  C329     1.0000 0.80171  0.55668  0.51154  Biso   1.000  C
  H304     1.0000 0.75514  0.55287  0.44887  Biso   1.000  H
  H305     1.0000 0.76752  0.58027  0.74085  Biso   1.000  H
  C330     1.0000 0.80931  0.57277  0.68369  Biso   1.000  C
  C331     1.0000 0.81003  0.66887  0.50194  Biso   1.000  C
  C332     1.0000 0.78529  0.63820  0.33827  Biso   1.000  C
  C333     1.0000 0.76074  0.67804  0.41575  Biso   1.000  C
  C334     1.0000 0.49028  0.37961  0.60293  Biso   1.000  C
  C335     1.0000 0.82199  0.56250  0.59936  Biso   1.000  C
  H306     1.0000 0.81123  0.55245  0.45132  Biso   1.000  H
  H307     1.0000 0.82402  0.57965  0.74278  Biso   1.000  H
  H308     1.0000 0.81743  0.65007  0.51727  Biso   1.000  H
  H309     1.0000 0.83102  0.69056  0.46889  Biso   1.000  H
  H310     1.0000 0.80372  0.67716  0.56386  Biso   1.000  H
  H311     1.0000 0.76354  0.62826  0.29317  Biso   1.000  H
  H312     1.0000 0.80714  0.65936  0.30634  Biso   1.000  H
  H313     1.0000 0.79114  0.61828  0.35353  Biso   1.000  H
  H314     1.0000 0.75722  0.68746  0.47953  Biso   1.000  H
  H315     1.0000 0.77863  0.69925  0.37474  Biso   1.000  H
  H316     1.0000 0.73643  0.66435  0.38114  Biso   1.000  H
  C336     1.0000 0.46831  0.35912  0.52166  Biso   1.000  C
  C337     1.0000 0.48743  0.35935  0.68934  Biso   1.000  C
  C338     1.0000 0.85105  0.55107  0.60569  Biso   1.000  C
  C339     1.0000 0.44842  0.32027  0.52292  Biso   1.000  C
  H317     1.0000 0.46703  0.37216  0.46465  Biso   1.000  H
  C340     1.0000 0.46729  0.32038  0.69098  Biso   1.000  C
  H318     1.0000 0.49964  0.37266  0.74836  Biso   1.000  H
  C341     1.0000 0.87185  0.55158  0.52292  Biso   1.000  C
  C342     1.0000 0.85311  0.53270  0.69098  Biso   1.000  C
  C343     1.0000 0.44893  0.29998  0.60569  Biso   1.000  C
  H319     1.0000 0.43401  0.30695  0.46628  Biso   1.000  H
  H320     1.0000 0.46594  0.30737  0.75074  Biso   1.000  H
  C344     1.0000 0.89081  0.53168  0.52166  Biso   1.000  C
  H321     1.0000 0.87294  0.56597  0.46628  Biso   1.000  H
  H322     1.0000 0.84142  0.53405  0.75074  Biso   1.000  H
  C345     1.0000 0.87189  0.51255  0.68934  Biso   1.000  C
  C346     1.0000 0.43748  0.25949  0.59936  Biso   1.000  C
  C347     1.0000 0.88931  0.50970  0.60293  Biso   1.000  C
  H323     1.0000 0.90513  0.53295  0.46465  Biso   1.000  H
  H324     1.0000 0.87303  0.50037  0.74836  Biso   1.000  H
  C348     1.0000 0.44332  0.24502  0.51154  Biso   1.000  C
  C349     1.0000 0.42726  0.23655  0.68369  Biso   1.000  C
  C350     1.0000 0.89862  0.47926  0.59452  Biso   1.000  C
  C351     1.0000 0.44312  0.21139  0.50997  Biso   1.000  C
  H325     1.0000 0.44752  0.25876  0.45132  Biso   1.000  H
  C352     1.0000 0.42692  0.20250  0.68264  Biso   1.000  C
  H326     1.0000 0.42034  0.24437  0.74278  Biso   1.000  H
  C353     1.0000 0.89077  0.45883  0.50655  Biso   1.000  C
  C354     1.0000 0.90900  0.46538  0.67706  Biso   1.000  C
  C355     1.0000 0.43701  0.19034  0.59705  Biso   1.000  C
  H327     1.0000 0.44714  0.20227  0.44887  Biso   1.000  H
  H328     1.0000 0.41974  0.18726  0.74085  Biso   1.000  H
  C356     1.0000 0.88855  0.42390  0.50275  Biso   1.000  C
  H329     1.0000 0.88683  0.46908  0.44738  Biso   1.000  H
  C357     1.0000 0.90650  0.43067  0.67423  Biso   1.000  C
  H330     1.0000 0.91794  0.48028  0.73564  Biso   1.000  H
  C358     1.0000 0.44779  0.16068  0.60115  Biso   1.000  C
  C359     1.0000 0.89449  0.40830  0.58849  Biso   1.000  C
  H331     1.0000 0.88293  0.41056  0.44143  Biso   1.000  H
  H332     1.0000 0.91302  0.42167  0.73177  Biso   1.000  H
  C360     1.0000 0.43842  0.13230  0.52888  Biso   1.000  C
  C361     1.0000 0.47364  0.16483  0.67423  Biso   1.000  C
  C362     1.0000 0.88040  0.36713  0.59489  Biso   1.000  C
  C363     1.0000 0.40708  0.12217  0.45549  Biso   1.000  C
  C364     1.0000 0.45822  0.11252  0.52493  Biso   1.000  C
  C365     1.0000 0.49236  0.14474  0.67178  Biso   1.000  C
  H333     1.0000 0.47862  0.18207  0.72737  Biso   1.000  H
  C366     1.0000 0.88748  0.34572  0.52493  Biso   1.000  C
  C367     1.0000 0.85526  0.34764  0.67178  Biso   1.000  C
  O41      1.0000 0.38075  0.12883  0.49397  Biso   1.000  O
  O42      1.0000 0.40627  0.10964  0.37414  Biso   1.000  O
  C368     1.0000 0.48671  0.11958  0.59489  Biso   1.000  C
  C369     1.0000 0.44931  0.08284  0.44626  Biso   1.000  C
  H334     1.0000 0.50954  0.14807  0.72365  Biso   1.000  H
  C370     1.0000 0.86768  0.30610  0.52888  Biso   1.000  C
  C371     1.0000 0.91716  0.36646  0.44626  Biso   1.000  C
  C372     1.0000 0.83514  0.30881  0.67423  Biso   1.000  C
  H335     1.0000 0.85193  0.36146  0.72365  Biso   1.000  H
  C373     1.0000 0.34835  0.12434  0.43406  Biso   1.000  C
  C374     1.0000 0.51383  0.10552  0.58849  Biso   1.000  C
  O43      1.0000 0.46738  0.08848  0.37124  Biso   1.000  O
  O44      1.0000 0.42032  0.05008  0.47559  Biso   1.000  O
  C375     1.0000 0.83932  0.28712  0.60115  Biso   1.000  C
  C376     1.0000 0.87783  0.28492  0.45549  Biso   1.000  C
  O45      1.0000 0.91153  0.37890  0.37124  Biso   1.000  O
  O46      1.0000 0.94991  0.37024  0.47559  Biso   1.000  O
  H336     1.0000 0.81792  0.29657  0.72737  Biso   1.000  H
  C377     1.0000 0.33113  0.14116  0.50194  Biso   1.000  C
  C378     1.0000 0.36180  0.14709  0.33827  Biso   1.000  C
  C379     1.0000 0.32194  0.08270  0.41575  Biso   1.000  C
  C380     1.0000 0.53536  0.11145  0.50275  Biso   1.000  C
  C381     1.0000 0.52416  0.09350  0.67423  Biso   1.000  C
  C382     1.0000 0.40492  0.01620  0.41009  Biso   1.000  C
  C383     1.0000 0.80967  0.24668  0.59705  Biso   1.000  C
  O47      1.0000 0.89035  0.29662  0.37414  Biso   1.000  O
  O48      1.0000 0.87114  0.25190  0.49397  Biso   1.000  O
  C384     1.0000 0.98378  0.38872  0.41009  Biso   1.000  C
  H337     1.0000 0.34993  0.16737  0.51727  Biso   1.000  H
  H338     1.0000 0.30942  0.14045  0.46889  Biso   1.000  H
  H339     1.0000 0.32283  0.12657  0.56386  Biso   1.000  H
  H340     1.0000 0.37172  0.13526  0.29317  Biso   1.000  H
  H341     1.0000 0.34064  0.14776  0.30634  Biso   1.000  H
  H342     1.0000 0.38173  0.17287  0.35353  Biso   1.000  H
  H343     1.0000 0.31254  0.06978  0.47953  Biso   1.000  H
  H344     1.0000 0.30072  0.07937  0.37474  Biso   1.000  H
  H345     1.0000 0.33563  0.07206  0.38114  Biso   1.000  H
  H346     1.0000 0.52763  0.11706  0.44143  Biso   1.000  H
  C385     1.0000 0.56805  0.10919  0.50655  Biso   1.000  C
  C386     1.0000 0.55636  0.09099  0.67706  Biso   1.000  C
  H347     1.0000 0.50862  0.08696  0.73177  Biso   1.000  H
  C387     1.0000 0.38907  0.02384  0.31698  Biso   1.000  C
  C388     1.0000 0.43456  0.00539  0.39059  Biso   1.000  C
  C389     1.0000 0.37302  0.98646  0.47343  Biso   1.000  C
  C390     1.0000 0.78859  0.23170  0.50997  Biso   1.000  C
  C391     1.0000 0.79751  0.22442  0.68264  Biso   1.000  C
  C392     1.0000 0.87564  0.22400  0.43406  Biso   1.000  C
  C393     1.0000 0.97617  0.36524  0.31698  Biso   1.000  C
  C394     1.0000 0.99459  0.42915  0.39059  Biso   1.000  C
  C395     1.0000 0.01354  0.38657  0.47343  Biso   1.000  C
  H348     1.0000 0.58223  0.11317  0.44738  Biso   1.000  H
  C396     1.0000 0.58063  0.10138  0.59452  Biso   1.000  C
  H349     1.0000 0.56233  0.08208  0.73564  Biso   1.000  H
  H350     1.0000 0.40973  0.04306  0.27679  Biso   1.000  H
  H351     1.0000 0.37534  0.00048  0.27828  Biso   1.000  H
  H352     1.0000 0.37174  0.03287  0.33544  Biso   1.000  H
  H353     1.0000 0.45414  0.02426  0.34713  Biso   1.000  H
  H354     1.0000 0.44592  0.00426  0.45378  Biso   1.000  H
  H355     1.0000 0.42293  0.98067  0.35807  Biso   1.000  H
  H356     1.0000 0.35523  0.99506  0.48973  Biso   1.000  H
  H357     1.0000 0.35996  0.96267  0.43636  Biso   1.000  H
  H358     1.0000 0.38354  0.98256  0.53498  Biso   1.000  H
  C397     1.0000 0.75498  0.19830  0.51154  Biso   1.000  C
  H359     1.0000 0.79775  0.24488  0.44887  Biso   1.000  H
  C398     1.0000 0.76345  0.19071  0.68369  Biso   1.000  C
  H360     1.0000 0.81273  0.23246  0.74085  Biso   1.000  H
  C399     1.0000 0.85883  0.18994  0.50194  Biso   1.000  C
  C400     1.0000 0.85292  0.21472  0.33827  Biso   1.000  C
  C401     1.0000 0.91727  0.23924  0.41575  Biso   1.000  C
  H361     1.0000 0.95691  0.36665  0.27679  Biso   1.000  H
  H362     1.0000 0.99953  0.37487  0.27828  Biso   1.000  H
  H363     1.0000 0.96713  0.33886  0.33544  Biso   1.000  H
  H364     1.0000 0.97573  0.42986  0.34713  Biso   1.000  H
  H365     1.0000 0.99574  0.44168  0.45378  Biso   1.000  H
  H366     1.0000 0.01933  0.44227  0.35807  Biso   1.000  H
  H367     1.0000 0.00493  0.36016  0.48973  Biso   1.000  H
  H368     1.0000 0.03734  0.39727  0.43636  Biso   1.000  H
  H369     1.0000 0.01744  0.40096  0.53498  Biso   1.000  H
  C402     1.0000 0.62040  0.11069  0.60293  Biso   1.000  C
  C403     1.0000 0.74051  0.17801  0.59936  Biso   1.000  C
  H370     1.0000 0.74122  0.18876  0.45132  Biso   1.000  H
  H371     1.0000 0.75562  0.17598  0.74278  Biso   1.000  H
  H372     1.0000 0.83265  0.18258  0.51727  Biso   1.000  H
  H373     1.0000 0.85954  0.16898  0.46889  Biso   1.000  H
  H374     1.0000 0.87343  0.19626  0.56386  Biso   1.000  H
  H375     1.0000 0.86472  0.23647  0.29317  Biso   1.000  H
  H376     1.0000 0.85224  0.19288  0.30634  Biso   1.000  H
  H377     1.0000 0.82713  0.20888  0.35353  Biso   1.000  H
  H378     1.0000 0.93023  0.24276  0.47953  Biso   1.000  H
  H379     1.0000 0.92063  0.22138  0.37474  Biso   1.000  H
  H380     1.0000 0.92792  0.26356  0.38114  Biso   1.000  H
  C404     1.0000 0.64086  0.10919  0.52166  Biso   1.000  C
  C405     1.0000 0.64066  0.12810  0.68934  Biso   1.000  C
  C406     1.0000 0.70001  0.14895  0.60569  Biso   1.000  C
  H381     1.0000 0.62783  0.09486  0.46465  Biso   1.000  H
  C407     1.0000 0.67971  0.12815  0.52292  Biso   1.000  C
  C408     1.0000 0.67960  0.14689  0.69098  Biso   1.000  C
  H382     1.0000 0.62732  0.12697  0.74836  Biso   1.000  H
  H383     1.0000 0.69302  0.12705  0.46628  Biso   1.000  H
  H384     1.0000 0.69263  0.15857  0.75074  Biso   1.000  H
  C409     1.0000 0.19217  0.85661  0.16865  Biso   1.000  C
  C410     1.0000 0.20897  0.89066  0.10070  Biso   1.000  C
  H385     1.0000 0.16598  0.84924  0.18391  Biso   1.000  H
  H386     1.0000 0.19287  0.83564  0.13553  Biso   1.000  H
  H387     1.0000 0.20679  0.86293  0.23050  Biso   1.000  H
  H388     1.0000 0.16596  0.84922  0.18391  Biso   1.000  H
  H389     1.0000 0.19286  0.83562  0.13553  Biso   1.000  H
  H390     1.0000 0.20676  0.86293  0.23050  Biso   1.000  H
  C411     1.0000 0.18625  0.88138  0.00491  Biso   1.000  C
  C412     1.0000 0.25063  0.90590  0.08247  Biso   1.000  C
  O49      1.0000 0.20450  0.91857  0.16069  Biso   1.000  O
  C413     1.0000 0.25060  0.90590  0.08247  Biso   1.000  C
  O50      1.0000 0.20448  0.91857  0.16069  Biso   1.000  O
  H391     1.0000 0.16048  0.87554  0.02024  Biso   1.000  H
  H392     1.0000 0.16046  0.87554  0.02024  Biso   1.000  H
  H393     1.0000 0.19808  0.90314  0.95981  Biso   1.000  H
  H394     1.0000 0.18559  0.85954  0.97306  Biso   1.000  H
  H395     1.0000 0.18557  0.85954  0.97306  Biso   1.000  H
  H396     1.0000 0.19806  0.90314  0.95981  Biso   1.000  H
  H397     1.0000 0.26358  0.90943  0.14625  Biso   1.000  H
  H398     1.0000 0.25399  0.88804  0.04146  Biso   1.000  H
  H399     1.0000 0.26127  0.93022  0.04786  Biso   1.000  H
  H400     1.0000 0.26356  0.90943  0.14625  Biso   1.000  H
  H401     1.0000 0.25397  0.88804  0.04146  Biso   1.000  H
  H402     1.0000 0.26125  0.93022  0.04786  Biso   1.000  H
  C414     1.0000 0.21116  0.95158  0.12213  Biso   1.000  C
  C415     1.0000 0.20103  0.97277  0.19552  Biso   1.000  C
  O51      1.0000 0.22371  0.96329  0.04086  Biso   1.000  O
  C416     1.0000 0.20101  0.97277  0.19552  Biso   1.000  C
  O52      1.0000 0.22369  0.96329  0.04086  Biso   1.000  O
  C417     1.0000 0.17265  0.95378  0.26786  Biso   1.000  C
  C418     1.0000 0.22084  0.01238  0.19165  Biso   1.000  C
  C419     1.0000 0.22078  0.01236  0.19165  Biso   1.000  C
  C420     1.0000 0.22079  0.01238  0.19165  Biso   1.000  C
  C421     1.0000 0.22083  0.01236  0.19165  Biso   1.000  C
  C422     1.0000 0.14300  0.91335  0.26369  Biso   1.000  C
  C423     1.0000 0.16850  0.97548  0.34095  Biso   1.000  C
  C424     1.0000 0.16847  0.97548  0.34095  Biso   1.000  C
  C425     1.0000 0.21376  0.03380  0.26154  Biso   1.000  C
  C426     1.0000 0.25049  0.03312  0.11291  Biso   1.000  C
  C427     1.0000 0.12196  0.89840  0.17662  Biso   1.000  C
  C428     1.0000 0.13087  0.89109  0.34936  Biso   1.000  C
  C429     1.0000 0.12193  0.89837  0.17662  Biso   1.000  C
  C430     1.0000 0.13085  0.89109  0.34936  Biso   1.000  C
  C431     1.0000 0.12194  0.89840  0.17662  Biso   1.000  C
  H403     1.0000 0.15128  0.96323  0.39402  Biso   1.000  H
  H404     1.0000 0.15126  0.96323  0.39402  Biso   1.000  H
  C432     1.0000 0.18859  0.01430  0.33842  Biso   1.000  C
  C433     1.0000 0.18858  0.01427  0.33842  Biso   1.000  C
  C434     1.0000 0.22779  0.07496  0.25514  Biso   1.000  C
  C435     1.0000 0.22784  0.07496  0.25514  Biso   1.000  C
  O53      1.0000 0.24486  0.04556  0.03788  Biso   1.000  O
  O54      1.0000 0.28324  0.03690  0.14223  Biso   1.000  O
  O55      1.0000 0.24488  0.04556  0.03788  Biso   1.000  O
  C436     1.0000 0.08831  0.86496  0.17825  Biso   1.000  C
  H405     1.0000 0.13108  0.91154  0.11551  Biso   1.000  H
  H406     1.0000 0.13107  0.91152  0.11551  Biso   1.000  H
  H407     1.0000 0.14608  0.89913  0.40756  Biso   1.000  H
  C437     1.0000 0.09681  0.85737  0.35033  Biso   1.000  C
  H408     1.0000 0.14606  0.89913  0.40756  Biso   1.000  H
  C438     1.0000 0.09679  0.85737  0.35033  Biso   1.000  C
  H409     1.0000 0.18524  0.02813  0.39029  Biso   1.000  H
  H410     1.0000 0.18527  0.02813  0.39029  Biso   1.000  H
  C439     1.0000 0.22189  0.09057  0.16940  Biso   1.000  C
  C440     1.0000 0.23984  0.09734  0.34095  Biso   1.000  C
  C441     1.0000 0.22186  0.09057  0.16940  Biso   1.000  C
  C442     1.0000 0.31714  0.05538  0.07673  Biso   1.000  C
  C443     1.0000 0.31711  0.05538  0.07673  Biso   1.000  C
  C444     1.0000 0.07385  0.84467  0.26600  Biso   1.000  C
  H411     1.0000 0.07458  0.85542  0.11804  Biso   1.000  H
  C445     1.0000 0.07383  0.84465  0.26600  Biso   1.000  C
  H412     1.0000 0.07455  0.85542  0.11804  Biso   1.000  H
  H413     1.0000 0.08898  0.84264  0.40942  Biso   1.000  H
  H414     1.0000 0.08896  0.84264  0.40942  Biso   1.000  H
  H415     1.0000 0.21624  0.07722  0.10814  Biso   1.000  H
  C446     1.0000 0.22413  0.12550  0.17327  Biso   1.000  C
  H416     1.0000 0.21629  0.07722  0.10814  Biso   1.000  H
  C447     1.0000 0.24236  0.13204  0.34370  Biso   1.000  C
  H417     1.0000 0.24636  0.08834  0.39841  Biso   1.000  H
  C448     1.0000 0.30948  0.03191  0.98363  Biso   1.000  C
  C449     1.0000 0.30953  0.03191  0.98363  Biso   1.000  C
  C450     1.0000 0.32796  0.09584  0.05723  Biso   1.000  C
  C451     1.0000 0.34688  0.05324  0.14015  Biso   1.000  C
  C452     1.0000 0.32790  0.09582  0.05723  Biso   1.000  C
  C453     1.0000 0.32794  0.09582  0.05723  Biso   1.000  C
  C454     1.0000 0.03337  0.81561  0.27233  Biso   1.000  C
  C455     1.0000 0.03334  0.81561  0.27233  Biso   1.000  C
  H418     1.0000 0.22019  0.13574  0.11402  Biso   1.000  H
  C456     1.0000 0.23192  0.14593  0.26124  Biso   1.000  C
  H419     1.0000 0.22016  0.13574  0.11402  Biso   1.000  H
  C457     1.0000 0.23195  0.14593  0.26124  Biso   1.000  C
  H420     1.0000 0.25125  0.14694  0.40235  Biso   1.000  H
  H421     1.0000 0.25130  0.14694  0.40235  Biso   1.000  H
  H422     1.0000 0.29027  0.03332  0.94344  Biso   1.000  H
  H423     1.0000 0.33288  0.04153  0.94492  Biso   1.000  H
  H424     1.0000 0.33284  0.04153  0.94492  Biso   1.000  H
  H425     1.0000 0.30044  0.00553  0.00216  Biso   1.000  H
  H426     1.0000 0.30049  0.00553  0.00216  Biso   1.000  H
  H427     1.0000 0.30904  0.09652  0.01384  Biso   1.000  H
  H428     1.0000 0.32905  0.10834  0.12042  Biso   1.000  H
  H429     1.0000 0.35268  0.10894  0.02471  Biso   1.000  H
  H430     1.0000 0.32904  0.10832  0.12042  Biso   1.000  H
  H431     1.0000 0.35266  0.10894  0.02471  Biso   1.000  H
  H432     1.0000 0.30907  0.09652  0.01384  Biso   1.000  H
  H433     1.0000 0.32909  0.10832  0.12042  Biso   1.000  H
  H434     1.0000 0.33827  0.02683  0.15645  Biso   1.000  H
  H435     1.0000 0.37067  0.06393  0.10301  Biso   1.000  H
  H436     1.0000 0.35075  0.06763  0.20162  Biso   1.000  H
  H437     1.0000 0.35080  0.06763  0.20162  Biso   1.000  H
  C458     1.0000 0.01307  0.79482  0.18964  Biso   1.000  C
  C459     1.0000 0.01293  0.81355  0.35762  Biso   1.000  C
  C460     1.0000 0.01305  0.79482  0.18964  Biso   1.000  C
  C461     1.0000 0.22264  0.17637  0.26965  Biso   1.000  C
  H438     1.0000 0.02639  0.79375  0.13293  Biso   1.000  H
  H439     1.0000 0.02635  0.79372  0.13293  Biso   1.000  H
  C462     1.0000 0.97420  0.77586  0.18830  Biso   1.000  C
  C463     1.0000 0.97422  0.77586  0.18830  Biso   1.000  C
  H440     1.0000 0.02598  0.82523  0.41746  Biso   1.000  H
  H441     1.0000 0.02596  0.82523  0.41746  Biso   1.000  H
  C464     1.0000 0.97397  0.79476  0.35606  Biso   1.000  C
  C465     1.0000 0.97400  0.79476  0.35606  Biso   1.000  C
  C466     1.0000 0.22415  0.19835  0.18830  Biso   1.000  C
  C467     1.0000 0.20525  0.17922  0.35606  Biso   1.000  C
  C468     1.0000 0.20520  0.17922  0.35606  Biso   1.000  C
  C469     1.0000 0.95371  0.77735  0.26965  Biso   1.000  C
  H442     1.0000 0.96114  0.76152  0.13136  Biso   1.000  H
  C470     1.0000 0.95373  0.77735  0.26965  Biso   1.000  C
  H443     1.0000 0.96117  0.76152  0.13136  Biso   1.000  H
  H444     1.0000 0.96065  0.79363  0.41500  Biso   1.000  H
  H445     1.0000 0.96068  0.79363  0.41500  Biso   1.000  H
  H446     1.0000 0.23844  0.19962  0.13136  Biso   1.000  H
  C471     1.0000 0.20516  0.21824  0.18964  Biso   1.000  C
  H447     1.0000 0.23849  0.19962  0.13136  Biso   1.000  H
  C472     1.0000 0.20521  0.21824  0.18964  Biso   1.000  C
  C473     1.0000 0.18641  0.19936  0.35762  Biso   1.000  C
  H448     1.0000 0.20639  0.16703  0.41500  Biso   1.000  H
  H449     1.0000 0.20636  0.16703  0.41500  Biso   1.000  H
  C474     1.0000 0.18644  0.19936  0.35762  Biso   1.000  C
  C475     1.0000 0.91397  0.76804  0.26124  Biso   1.000  C
  H450     1.0000 0.20625  0.23263  0.13293  Biso   1.000  H
  C476     1.0000 0.18438  0.21773  0.27233  Biso   1.000  C
  H451     1.0000 0.20630  0.23263  0.13293  Biso   1.000  H
  H452     1.0000 0.17475  0.20072  0.41746  Biso   1.000  H
  H453     1.0000 0.17473  0.20072  0.41746  Biso   1.000  H
  C477     1.0000 0.90137  0.77589  0.17327  Biso   1.000  C
  C478     1.0000 0.88969  0.75766  0.34370  Biso   1.000  C
  C479     1.0000 0.90138  0.77586  0.17327  Biso   1.000  C
  C480     1.0000 0.90139  0.77589  0.17327  Biso   1.000  C
  C481     1.0000 0.88972  0.75766  0.34370  Biso   1.000  C
  C482     1.0000 0.15535  0.22916  0.26600  Biso   1.000  C
  C483     1.0000 0.15530  0.22916  0.26600  Biso   1.000  C
  C484     1.0000 0.86869  0.77811  0.16940  Biso   1.000  C
  H454     1.0000 0.91556  0.77984  0.11402  Biso   1.000  H
  C485     1.0000 0.86868  0.77809  0.16940  Biso   1.000  C
  H455     1.0000 0.91559  0.77984  0.11402  Biso   1.000  H
  H456     1.0000 0.89567  0.74874  0.40235  Biso   1.000  H
  C486     1.0000 0.85749  0.76017  0.34095  Biso   1.000  C
  C487     1.0000 0.85752  0.76017  0.34095  Biso   1.000  C
  C488     1.0000 0.13505  0.22335  0.17825  Biso   1.000  C
  C489     1.0000 0.14265  0.23943  0.35033  Biso   1.000  C
  C490     1.0000 0.14267  0.23943  0.35033  Biso   1.000  C
  C491     1.0000 0.84716  0.77219  0.25514  Biso   1.000  C
  H457     1.0000 0.86094  0.78373  0.10814  Biso   1.000  H
  H458     1.0000 0.86097  0.78373  0.10814  Biso   1.000  H
  H459     1.0000 0.84196  0.75362  0.39841  Biso   1.000  H
  H460     1.0000 0.84198  0.75362  0.39841  Biso   1.000  H
  H461     1.0000 0.14457  0.21914  0.11804  Biso   1.000  H
  C492     1.0000 0.10162  0.22355  0.17662  Biso   1.000  C
  H462     1.0000 0.14456  0.21912  0.11804  Biso   1.000  H
  H463     1.0000 0.14459  0.21912  0.11804  Biso   1.000  H
  C493     1.0000 0.10890  0.23977  0.34936  Biso   1.000  C
  H464     1.0000 0.15739  0.24634  0.40942  Biso   1.000  H
  H465     1.0000 0.15733  0.24631  0.40942  Biso   1.000  H
  H466     1.0000 0.15734  0.24634  0.40942  Biso   1.000  H
  C494     1.0000 0.10895  0.23977  0.34936  Biso   1.000  C
  H467     1.0000 0.15738  0.24631  0.40942  Biso   1.000  H
  C495     1.0000 0.82002  0.78624  0.26154  Biso   1.000  C
  C496     1.0000 0.82005  0.78624  0.26154  Biso   1.000  C
  H468     1.0000 0.08847  0.21954  0.11551  Biso   1.000  H
  C497     1.0000 0.08663  0.22964  0.26369  Biso   1.000  C
  H469     1.0000 0.10088  0.24694  0.40756  Biso   1.000  H
  C498     1.0000 0.79155  0.77919  0.19165  Biso   1.000  C
  C499     1.0000 0.82569  0.81141  0.33842  Biso   1.000  C
  C500     1.0000 0.79157  0.77919  0.19165  Biso   1.000  C
  C501     1.0000 0.82572  0.81141  0.33842  Biso   1.000  C
  C502     1.0000 0.04623  0.21886  0.26786  Biso   1.000  C
  C503     1.0000 0.04621  0.21886  0.26786  Biso   1.000  C
  C504     1.0000 0.77175  0.79897  0.19552  Biso   1.000  C
  C505     1.0000 0.78262  0.74950  0.11291  Biso   1.000  C
  C506     1.0000 0.78264  0.74950  0.11291  Biso   1.000  C
  H470     1.0000 0.84285  0.81474  0.39029  Biso   1.000  H
  C507     1.0000 0.80699  0.83153  0.34095  Biso   1.000  C
  H471     1.0000 0.84287  0.81474  0.39029  Biso   1.000  H
  C508     1.0000 0.80700  0.83150  0.34095  Biso   1.000  C
  C509     1.0000 0.80702  0.83153  0.34095  Biso   1.000  C
  C510     1.0000 0.80698  0.83150  0.34095  Biso   1.000  C
  C511     1.0000 0.02719  0.22823  0.19552  Biso   1.000  C
  C512     1.0000 0.02450  0.19299  0.34095  Biso   1.000  C
  C513     1.0000 0.02724  0.22823  0.19552  Biso   1.000  C
  C514     1.0000 0.78113  0.82735  0.26786  Biso   1.000  C
  C515     1.0000 0.74042  0.78884  0.12213  Biso   1.000  C
  C516     1.0000 0.78115  0.82735  0.26786  Biso   1.000  C
  C517     1.0000 0.74044  0.78884  0.12213  Biso   1.000  C
  O56      1.0000 0.80069  0.75515  0.03788  Biso   1.000  O
  O57      1.0000 0.75363  0.71675  0.14223  Biso   1.000  O
  O58      1.0000 0.80071  0.75515  0.03788  Biso   1.000  O
  O59      1.0000 0.75366  0.71675  0.14223  Biso   1.000  O
  H472     1.0000 0.81196  0.84874  0.39402  Biso   1.000  H
  H473     1.0000 0.81198  0.84874  0.39402  Biso   1.000  H
  C518     1.0000 0.98761  0.20845  0.19165  Biso   1.000  C
  C519     1.0000 0.04841  0.25958  0.12213  Biso   1.000  C
  C520     1.0000 0.98571  0.17431  0.33842  Biso   1.000  C
  H474     1.0000 0.03677  0.18802  0.39402  Biso   1.000  H
  C521     1.0000 0.77035  0.85700  0.26369  Biso   1.000  C
  C522     1.0000 0.77037  0.85700  0.26369  Biso   1.000  C
  O60      1.0000 0.73960  0.77631  0.04086  Biso   1.000  O
  O61      1.0000 0.71408  0.79549  0.16069  Biso   1.000  O
  O62      1.0000 0.73963  0.77631  0.04086  Biso   1.000  O
  C523     1.0000 0.73825  0.68286  0.07673  Biso   1.000  C
  C524     1.0000 0.73828  0.68286  0.07673  Biso   1.000  C
  C525     1.0000 0.96623  0.17995  0.26154  Biso   1.000  C
  C526     1.0000 0.96685  0.21737  0.11291  Biso   1.000  C
  C527     1.0000 0.96618  0.17995  0.26154  Biso   1.000  C
  O63      1.0000 0.03672  0.26039  0.04086  Biso   1.000  O
  O64      1.0000 0.08139  0.28590  0.16069  Biso   1.000  O
  O65      1.0000 0.03667  0.26039  0.04086  Biso   1.000  O
  O66      1.0000 0.08144  0.28590  0.16069  Biso   1.000  O
  H475     1.0000 0.97187  0.15713  0.39029  Biso   1.000  H
  C528     1.0000 0.77642  0.87805  0.17662  Biso   1.000  C
  C529     1.0000 0.76023  0.86916  0.34936  Biso   1.000  C
  C530     1.0000 0.77645  0.87805  0.17662  Biso   1.000  C
  C531     1.0000 0.76024  0.86914  0.34936  Biso   1.000  C
  C532     1.0000 0.76025  0.86916  0.34936  Biso   1.000  C
  C533     1.0000 0.68169  0.79101  0.10070  Biso   1.000  C
  C534     1.0000 0.72241  0.69051  0.98363  Biso   1.000  C
  C535     1.0000 0.76789  0.67205  0.05723  Biso   1.000  C
  C536     1.0000 0.70635  0.65312  0.14015  Biso   1.000  C
  C537     1.0000 0.70638  0.65312  0.14015  Biso   1.000  C
  C538     1.0000 0.92501  0.15284  0.25514  Biso   1.000  C
  O67      1.0000 0.95444  0.19928  0.03788  Biso   1.000  O
  O68      1.0000 0.96309  0.24634  0.14223  Biso   1.000  O
  O69      1.0000 0.96306  0.24634  0.14223  Biso   1.000  O
  C539     1.0000 0.10931  0.31829  0.10070  Biso   1.000  C
  C540     1.0000 0.77662  0.91168  0.17825  Biso   1.000  C
  H476     1.0000 0.78047  0.86894  0.11551  Biso   1.000  H
  C541     1.0000 0.77665  0.91168  0.17825  Biso   1.000  C
  H477     1.0000 0.75305  0.85393  0.40756  Biso   1.000  H
  C542     1.0000 0.76057  0.90322  0.35033  Biso   1.000  C
  H478     1.0000 0.75307  0.85393  0.40756  Biso   1.000  H
  C543     1.0000 0.76059  0.90322  0.35033  Biso   1.000  C
  C544     1.0000 0.66444  0.80782  0.16865  Biso   1.000  C
  C545     1.0000 0.69511  0.81375  0.00491  Biso   1.000  C
  C546     1.0000 0.65527  0.74936  0.08247  Biso   1.000  C
  C547     1.0000 0.66446  0.80782  0.16865  Biso   1.000  C
  C548     1.0000 0.69513  0.81375  0.00491  Biso   1.000  C
  C549     1.0000 0.65529  0.74936  0.08247  Biso   1.000  C
  H479     1.0000 0.74306  0.70972  0.94344  Biso   1.000  H
  H480     1.0000 0.70865  0.66714  0.94492  Biso   1.000  H
  H481     1.0000 0.70866  0.66712  0.94492  Biso   1.000  H
  H482     1.0000 0.70867  0.66714  0.94492  Biso   1.000  H
  H483     1.0000 0.70505  0.69954  0.00216  Biso   1.000  H
  H484     1.0000 0.70508  0.69954  0.00216  Biso   1.000  H
  H485     1.0000 0.78744  0.69093  0.01384  Biso   1.000  H
  H486     1.0000 0.77925  0.67093  0.12042  Biso   1.000  H
  H487     1.0000 0.75627  0.64734  0.02471  Biso   1.000  H
  H488     1.0000 0.78747  0.69093  0.01384  Biso   1.000  H
  H489     1.0000 0.77927  0.67093  0.12042  Biso   1.000  H
  H490     1.0000 0.68854  0.66173  0.15645  Biso   1.000  H
  H491     1.0000 0.69326  0.62934  0.10301  Biso   1.000  H
  H492     1.0000 0.71684  0.64923  0.20162  Biso   1.000  H
  H493     1.0000 0.68857  0.66173  0.15645  Biso   1.000  H
  H494     1.0000 0.71687  0.64923  0.20162  Biso   1.000  H
  H495     1.0000 0.69329  0.62934  0.10301  Biso   1.000  H
  C550     1.0000 0.90941  0.13131  0.16940  Biso   1.000  C
  C551     1.0000 0.90268  0.14248  0.34095  Biso   1.000  C
  C552     1.0000 0.90263  0.14248  0.34095  Biso   1.000  C
  C553     1.0000 0.90938  0.13131  0.16940  Biso   1.000  C
  C554     1.0000 0.94460  0.26172  0.07673  Biso   1.000  C
  C555     1.0000 0.14339  0.33553  0.16865  Biso   1.000  C
  C556     1.0000 0.11862  0.30486  0.00491  Biso   1.000  C
  C557     1.0000 0.09407  0.34470  0.08247  Biso   1.000  C
  C558     1.0000 0.14334  0.33553  0.16865  Biso   1.000  C
  C559     1.0000 0.77081  0.92616  0.26600  Biso   1.000  C
  H496     1.0000 0.78086  0.92543  0.11804  Biso   1.000  H
  C560     1.0000 0.77084  0.92616  0.26600  Biso   1.000  C
  H497     1.0000 0.78088  0.92543  0.11804  Biso   1.000  H
  H498     1.0000 0.75365  0.91104  0.40942  Biso   1.000  H
  H499     1.0000 0.75367  0.91104  0.40942  Biso   1.000  H
  H500     1.0000 0.68326  0.83404  0.18391  Biso   1.000  H
  H501     1.0000 0.64275  0.80712  0.13553  Biso   1.000  H
  H502     1.0000 0.65617  0.79324  0.23050  Biso   1.000  H
  H503     1.0000 0.68329  0.83404  0.18391  Biso   1.000  H
  H504     1.0000 0.64278  0.80712  0.13553  Biso   1.000  H
  H505     1.0000 0.70506  0.80193  0.95981  Biso   1.000  H
  H506     1.0000 0.67395  0.81443  0.97306  Biso   1.000  H
  H507     1.0000 0.67397  0.81443  0.97306  Biso   1.000  H
  H508     1.0000 0.70508  0.80193  0.95981  Biso   1.000  H
  H509     1.0000 0.71507  0.83954  0.02024  Biso   1.000  H
  H510     1.0000 0.64585  0.73644  0.14625  Biso   1.000  H
  H511     1.0000 0.63406  0.74603  0.04146  Biso   1.000  H
  H512     1.0000 0.66896  0.73873  0.04786  Biso   1.000  H
  H513     1.0000 0.64587  0.73644  0.14625  Biso   1.000  H
  H514     1.0000 0.63408  0.74603  0.04146  Biso   1.000  H
  H515     1.0000 0.92278  0.13904  0.10814  Biso   1.000  H
  C561     1.0000 0.87451  0.09861  0.17327  Biso   1.000  C
  C562     1.0000 0.87448  0.09861  0.17327  Biso   1.000  C
  C563     1.0000 0.86796  0.11029  0.34370  Biso   1.000  C
  H516     1.0000 0.91167  0.15803  0.39841  Biso   1.000  H
  C564     1.0000 0.86791  0.11029  0.34370  Biso   1.000  C
  C565     1.0000 0.96810  0.27758  0.98363  Biso   1.000  C
  C566     1.0000 0.90416  0.23209  0.05723  Biso   1.000  C
  C567     1.0000 0.94678  0.29363  0.14015  Biso   1.000  C
  C568     1.0000 0.94673  0.29363  0.14015  Biso   1.000  C
  H517     1.0000 0.15078  0.31674  0.18391  Biso   1.000  H
  H518     1.0000 0.16436  0.35723  0.13553  Biso   1.000  H
  H519     1.0000 0.13706  0.34383  0.23050  Biso   1.000  H
  H520     1.0000 0.16433  0.35723  0.13553  Biso   1.000  H
  H521     1.0000 0.13703  0.34383  0.23050  Biso   1.000  H
  H522     1.0000 0.09685  0.29493  0.95981  Biso   1.000  H
  H523     1.0000 0.14045  0.32602  0.97306  Biso   1.000  H
  H524     1.0000 0.09690  0.29493  0.95981  Biso   1.000  H
  H525     1.0000 0.14049  0.32602  0.97306  Biso   1.000  H
  H526     1.0000 0.12445  0.28494  0.02024  Biso   1.000  H
  H527     1.0000 0.12444  0.28491  0.02024  Biso   1.000  H
  H528     1.0000 0.12448  0.28491  0.02024  Biso   1.000  H
  H529     1.0000 0.09055  0.35412  0.14625  Biso   1.000  H
  H530     1.0000 0.11194  0.36592  0.04146  Biso   1.000  H
  H531     1.0000 0.06976  0.33102  0.04786  Biso   1.000  H
  H532     1.0000 0.11199  0.36592  0.04146  Biso   1.000  H
  C569     1.0000 0.78226  0.96665  0.27233  Biso   1.000  C
  H533     1.0000 0.86426  0.08442  0.11402  Biso   1.000  H
  C570     1.0000 0.85407  0.08603  0.26124  Biso   1.000  C
  H534     1.0000 0.85308  0.10434  0.40235  Biso   1.000  H
  H535     1.0000 0.85306  0.10434  0.40235  Biso   1.000  H
  H536     1.0000 0.96667  0.25692  0.94344  Biso   1.000  H
  H537     1.0000 0.95848  0.29132  0.94492  Biso   1.000  H
  H538     1.0000 0.95843  0.29132  0.94492  Biso   1.000  H
  H539     1.0000 0.99447  0.29493  0.00216  Biso   1.000  H
  H540     1.0000 0.90347  0.21254  0.01384  Biso   1.000  H
  H541     1.0000 0.89166  0.22072  0.12042  Biso   1.000  H
  H542     1.0000 0.89108  0.24372  0.02471  Biso   1.000  H
  H543     1.0000 0.89103  0.24372  0.02471  Biso   1.000  H
  H544     1.0000 0.97318  0.31144  0.15645  Biso   1.000  H
  H545     1.0000 0.93607  0.30672  0.10301  Biso   1.000  H
  H546     1.0000 0.93239  0.28314  0.20162  Biso   1.000  H
  H547     1.0000 0.93237  0.28314  0.20162  Biso   1.000  H
  H548     1.0000 0.93602  0.30672  0.10301  Biso   1.000  H
  C571     1.0000 0.78175  0.98693  0.18964  Biso   1.000  C
  C572     1.0000 0.80060  0.98705  0.35762  Biso   1.000  C
  C573     1.0000 0.78177  0.98693  0.18964  Biso   1.000  C
  C574     1.0000 0.80062  0.98705  0.35762  Biso   1.000  C
  C575     1.0000 0.82361  0.04627  0.26965  Biso   1.000  C
  H549     1.0000 0.76736  0.97364  0.13293  Biso   1.000  H
  H550     1.0000 0.76737  0.97362  0.13293  Biso   1.000  H
  H551     1.0000 0.76738  0.97364  0.13293  Biso   1.000  H
  H552     1.0000 0.76735  0.97362  0.13293  Biso   1.000  H
  C576     1.0000 0.80164  0.02579  0.18830  Biso   1.000  C
  H553     1.0000 0.79925  0.97404  0.41746  Biso   1.000  H
  H554     1.0000 0.79927  0.97404  0.41746  Biso   1.000  H
  C577     1.0000 0.82079  0.02601  0.35606  Biso   1.000  C
  C578     1.0000 0.82074  0.02601  0.35606  Biso   1.000  C
  H555     1.0000 0.80036  0.03882  0.13136  Biso   1.000  H
  H556     1.0000 0.83295  0.03933  0.41500  Biso   1.000  H
  C579     1.0000 0.19217  0.85661  0.16865  Biso   1.000  C
  C580     1.0000 0.20897  0.89066  0.10070  Biso   1.000  C
  H557     1.0000 0.16598  0.84924  0.18391  Biso   1.000  H
  H558     1.0000 0.19287  0.83564  0.13553  Biso   1.000  H
  H559     1.0000 0.20676  0.86293  0.23050  Biso   1.000  H
  H560     1.0000 0.16596  0.84922  0.18391  Biso   1.000  H
  H561     1.0000 0.19286  0.83562  0.13553  Biso   1.000  H
  H562     1.0000 0.20679  0.86293  0.23050  Biso   1.000  H
  C581     1.0000 0.18625  0.88138  0.00491  Biso   1.000  C
  C582     1.0000 0.25063  0.90590  0.08247  Biso   1.000  C
  O70      1.0000 0.20450  0.91857  0.16069  Biso   1.000  O
  C583     1.0000 0.25060  0.90590  0.08247  Biso   1.000  C
  O71      1.0000 0.20448  0.91857  0.16069  Biso   1.000  O
  H563     1.0000 0.16048  0.87554  0.02024  Biso   1.000  H
  H564     1.0000 0.19808  0.90314  0.95981  Biso   1.000  H
  H565     1.0000 0.18559  0.85954  0.97306  Biso   1.000  H
  H566     1.0000 0.18557  0.85954  0.97306  Biso   1.000  H
  H567     1.0000 0.19806  0.90314  0.95981  Biso   1.000  H
  H568     1.0000 0.16046  0.87554  0.02024  Biso   1.000  H
  H569     1.0000 0.26356  0.90943  0.14625  Biso   1.000  H
  H570     1.0000 0.25397  0.88804  0.04146  Biso   1.000  H
  H571     1.0000 0.26127  0.93022  0.04786  Biso   1.000  H
  H572     1.0000 0.26125  0.93022  0.04786  Biso   1.000  H
  H573     1.0000 0.26358  0.90943  0.14625  Biso   1.000  H
  H574     1.0000 0.25399  0.88804  0.04146  Biso   1.000  H
  C584     1.0000 0.21116  0.95158  0.12213  Biso   1.000  C
  C585     1.0000 0.20103  0.97277  0.19552  Biso   1.000  C
  O72      1.0000 0.22369  0.96329  0.04086  Biso   1.000  O
  C586     1.0000 0.20101  0.97277  0.19552  Biso   1.000  C
  O73      1.0000 0.22371  0.96329  0.04086  Biso   1.000  O
  C587     1.0000 0.17265  0.95378  0.26786  Biso   1.000  C
  C588     1.0000 0.22084  0.01238  0.19165  Biso   1.000  C
  C589     1.0000 0.22078  0.01236  0.19165  Biso   1.000  C
  C590     1.0000 0.22079  0.01238  0.19165  Biso   1.000  C
  C591     1.0000 0.22083  0.01236  0.19165  Biso   1.000  C
  C592     1.0000 0.14300  0.91335  0.26369  Biso   1.000  C
  C593     1.0000 0.16850  0.97548  0.34095  Biso   1.000  C
  C594     1.0000 0.16847  0.97548  0.34095  Biso   1.000  C
  C595     1.0000 0.25049  0.03312  0.11291  Biso   1.000  C
  C596     1.0000 0.21376  0.03380  0.26154  Biso   1.000  C
  C597     1.0000 0.13085  0.89109  0.34936  Biso   1.000  C
  C598     1.0000 0.12193  0.89837  0.17662  Biso   1.000  C
  C599     1.0000 0.12196  0.89840  0.17662  Biso   1.000  C
  C600     1.0000 0.13087  0.89109  0.34936  Biso   1.000  C
  C601     1.0000 0.12194  0.89840  0.17662  Biso   1.000  C
  C602     1.0000 0.18858  0.01427  0.33842  Biso   1.000  C
  H575     1.0000 0.15128  0.96323  0.39402  Biso   1.000  H
  H576     1.0000 0.15126  0.96323  0.39402  Biso   1.000  H
  C603     1.0000 0.18859  0.01430  0.33842  Biso   1.000  C
  O74      1.0000 0.24486  0.04556  0.03788  Biso   1.000  O
  O75      1.0000 0.28324  0.03690  0.14223  Biso   1.000  O
  O76      1.0000 0.24488  0.04556  0.03788  Biso   1.000  O
  C604     1.0000 0.22779  0.07496  0.25514  Biso   1.000  C
  C605     1.0000 0.22784  0.07496  0.25514  Biso   1.000  C
  H577     1.0000 0.14608  0.89913  0.40756  Biso   1.000  H
  C606     1.0000 0.09679  0.85737  0.35033  Biso   1.000  C
  H578     1.0000 0.14606  0.89913  0.40756  Biso   1.000  H
  C607     1.0000 0.09681  0.85737  0.35033  Biso   1.000  C
  C608     1.0000 0.08831  0.86496  0.17825  Biso   1.000  C
  H579     1.0000 0.13108  0.91154  0.11551  Biso   1.000  H
  H580     1.0000 0.13107  0.91152  0.11551  Biso   1.000  H
  H581     1.0000 0.18524  0.02813  0.39029  Biso   1.000  H
  H582     1.0000 0.18527  0.02813  0.39029  Biso   1.000  H
  C609     1.0000 0.31714  0.05538  0.07673  Biso   1.000  C
  C610     1.0000 0.31711  0.05538  0.07673  Biso   1.000  C
  C611     1.0000 0.23984  0.09734  0.34095  Biso   1.000  C
  C612     1.0000 0.22189  0.09057  0.16940  Biso   1.000  C
  C613     1.0000 0.22186  0.09057  0.16940  Biso   1.000  C
  H583     1.0000 0.08898  0.84264  0.40942  Biso   1.000  H
  C614     1.0000 0.07385  0.84467  0.26600  Biso   1.000  C
  C615     1.0000 0.07383  0.84465  0.26600  Biso   1.000  C
  H584     1.0000 0.08896  0.84264  0.40942  Biso   1.000  H
  H585     1.0000 0.07458  0.85542  0.11804  Biso   1.000  H
  H586     1.0000 0.07455  0.85542  0.11804  Biso   1.000  H
  C616     1.0000 0.34688  0.05324  0.14015  Biso   1.000  C
  C617     1.0000 0.30948  0.03191  0.98363  Biso   1.000  C
  C618     1.0000 0.30953  0.03191  0.98363  Biso   1.000  C
  C619     1.0000 0.32796  0.09584  0.05723  Biso   1.000  C
  C620     1.0000 0.32790  0.09582  0.05723  Biso   1.000  C
  C621     1.0000 0.32794  0.09582  0.05723  Biso   1.000  C
  C622     1.0000 0.24236  0.13204  0.34370  Biso   1.000  C
  H587     1.0000 0.24636  0.08834  0.39841  Biso   1.000  H
  H588     1.0000 0.21624  0.07722  0.10814  Biso   1.000  H
  C623     1.0000 0.22413  0.12550  0.17327  Biso   1.000  C
  H589     1.0000 0.21629  0.07722  0.10814  Biso   1.000  H
  C624     1.0000 0.03334  0.81561  0.27233  Biso   1.000  C
  C625     1.0000 0.03337  0.81561  0.27233  Biso   1.000  C
  H590     1.0000 0.33827  0.02683  0.15645  Biso   1.000  H
  H591     1.0000 0.37067  0.06393  0.10301  Biso   1.000  H
  H592     1.0000 0.35075  0.06763  0.20162  Biso   1.000  H
  H593     1.0000 0.35080  0.06763  0.20162  Biso   1.000  H
  H594     1.0000 0.29027  0.03332  0.94344  Biso   1.000  H
  H595     1.0000 0.33288  0.04153  0.94492  Biso   1.000  H
  H596     1.0000 0.33284  0.04153  0.94492  Biso   1.000  H
  H597     1.0000 0.30044  0.00553  0.00216  Biso   1.000  H
  H598     1.0000 0.30049  0.00553  0.00216  Biso   1.000  H
  H599     1.0000 0.30904  0.09652  0.01384  Biso   1.000  H
  H600     1.0000 0.32905  0.10834  0.12042  Biso   1.000  H
  H601     1.0000 0.35268  0.10894  0.02471  Biso   1.000  H
  H602     1.0000 0.32904  0.10832  0.12042  Biso   1.000  H
  H603     1.0000 0.35266  0.10894  0.02471  Biso   1.000  H
  H604     1.0000 0.30907  0.09652  0.01384  Biso   1.000  H
  H605     1.0000 0.32909  0.10832  0.12042  Biso   1.000  H
  C626     1.0000 0.23192  0.14593  0.26124  Biso   1.000  C
  C627     1.0000 0.23195  0.14593  0.26124  Biso   1.000  C
  H606     1.0000 0.25125  0.14694  0.40235  Biso   1.000  H
  H607     1.0000 0.25130  0.14694  0.40235  Biso   1.000  H
  H608     1.0000 0.22019  0.13574  0.11402  Biso   1.000  H
  H609     1.0000 0.22016  0.13574  0.11402  Biso   1.000  H
  C628     1.0000 0.01293  0.81355  0.35762  Biso   1.000  C
  C629     1.0000 0.01307  0.79482  0.18964  Biso   1.000  C
  C630     1.0000 0.01305  0.79482  0.18964  Biso   1.000  C
  C631     1.0000 0.22264  0.17637  0.26965  Biso   1.000  C
  H610     1.0000 0.02598  0.82523  0.41746  Biso   1.000  H
  H611     1.0000 0.02596  0.82523  0.41746  Biso   1.000  H
  C632     1.0000 0.97397  0.79476  0.35606  Biso   1.000  C
  C633     1.0000 0.97400  0.79476  0.35606  Biso   1.000  C
  H612     1.0000 0.02639  0.79375  0.13293  Biso   1.000  H
  H613     1.0000 0.02635  0.79372  0.13293  Biso   1.000  H
  C634     1.0000 0.97420  0.77586  0.18830  Biso   1.000  C
  C635     1.0000 0.97422  0.77586  0.18830  Biso   1.000  C
  C636     1.0000 0.22415  0.19835  0.18830  Biso   1.000  C
  C637     1.0000 0.20525  0.17922  0.35606  Biso   1.000  C
  C638     1.0000 0.20520  0.17922  0.35606  Biso   1.000  C
  C639     1.0000 0.95371  0.77735  0.26965  Biso   1.000  C
  H614     1.0000 0.96065  0.79363  0.41500  Biso   1.000  H
  C640     1.0000 0.95373  0.77735  0.26965  Biso   1.000  C
  H615     1.0000 0.96068  0.79363  0.41500  Biso   1.000  H
  H616     1.0000 0.96114  0.76152  0.13136  Biso   1.000  H
  H617     1.0000 0.96117  0.76152  0.13136  Biso   1.000  H
  H618     1.0000 0.23844  0.19962  0.13136  Biso   1.000  H
  C641     1.0000 0.20516  0.21824  0.18964  Biso   1.000  C
  H619     1.0000 0.23849  0.19962  0.13136  Biso   1.000  H
  C642     1.0000 0.20521  0.21824  0.18964  Biso   1.000  C
  C643     1.0000 0.18641  0.19936  0.35762  Biso   1.000  C
  H620     1.0000 0.20639  0.16703  0.41500  Biso   1.000  H
  H621     1.0000 0.20636  0.16703  0.41500  Biso   1.000  H
  C644     1.0000 0.18644  0.19936  0.35762  Biso   1.000  C
  C645     1.0000 0.91397  0.76804  0.26124  Biso   1.000  C
  C646     1.0000 0.18438  0.21773  0.27233  Biso   1.000  C
  H622     1.0000 0.20625  0.23263  0.13293  Biso   1.000  H
  H623     1.0000 0.20630  0.23263  0.13293  Biso   1.000  H
  H624     1.0000 0.17475  0.20072  0.41746  Biso   1.000  H
  H625     1.0000 0.17473  0.20072  0.41746  Biso   1.000  H
  C647     1.0000 0.90137  0.77589  0.17327  Biso   1.000  C
  C648     1.0000 0.88969  0.75766  0.34370  Biso   1.000  C
  C649     1.0000 0.90138  0.77586  0.17327  Biso   1.000  C
  C650     1.0000 0.90139  0.77589  0.17327  Biso   1.000  C
  C651     1.0000 0.88972  0.75766  0.34370  Biso   1.000  C
  C652     1.0000 0.15535  0.22916  0.26600  Biso   1.000  C
  C653     1.0000 0.15530  0.22916  0.26600  Biso   1.000  C
  C654     1.0000 0.86869  0.77811  0.16940  Biso   1.000  C
  H626     1.0000 0.91556  0.77984  0.11402  Biso   1.000  H
  C655     1.0000 0.86868  0.77809  0.16940  Biso   1.000  C
  H627     1.0000 0.91559  0.77984  0.11402  Biso   1.000  H
  H628     1.0000 0.89567  0.74874  0.40235  Biso   1.000  H
  C656     1.0000 0.85749  0.76017  0.34095  Biso   1.000  C
  C657     1.0000 0.85752  0.76017  0.34095  Biso   1.000  C
  C658     1.0000 0.13505  0.22335  0.17825  Biso   1.000  C
  C659     1.0000 0.14265  0.23943  0.35033  Biso   1.000  C
  C660     1.0000 0.14267  0.23943  0.35033  Biso   1.000  C
  C661     1.0000 0.84716  0.77219  0.25514  Biso   1.000  C
  H629     1.0000 0.86094  0.78373  0.10814  Biso   1.000  H
  H630     1.0000 0.86097  0.78373  0.10814  Biso   1.000  H
  H631     1.0000 0.84196  0.75362  0.39841  Biso   1.000  H
  H632     1.0000 0.84198  0.75362  0.39841  Biso   1.000  H
  C662     1.0000 0.10162  0.22355  0.17662  Biso   1.000  C
  H633     1.0000 0.14457  0.21914  0.11804  Biso   1.000  H
  H634     1.0000 0.14456  0.21912  0.11804  Biso   1.000  H
  H635     1.0000 0.14459  0.21912  0.11804  Biso   1.000  H
  C663     1.0000 0.10890  0.23977  0.34936  Biso   1.000  C
  H636     1.0000 0.15739  0.24634  0.40942  Biso   1.000  H
  H637     1.0000 0.15733  0.24631  0.40942  Biso   1.000  H
  H638     1.0000 0.15734  0.24634  0.40942  Biso   1.000  H
  C664     1.0000 0.10895  0.23977  0.34936  Biso   1.000  C
  H639     1.0000 0.15738  0.24631  0.40942  Biso   1.000  H
  C665     1.0000 0.82002  0.78624  0.26154  Biso   1.000  C
  C666     1.0000 0.82005  0.78624  0.26154  Biso   1.000  C
  H640     1.0000 0.08847  0.21954  0.11551  Biso   1.000  H
  C667     1.0000 0.08663  0.22964  0.26369  Biso   1.000  C
  H641     1.0000 0.10088  0.24694  0.40756  Biso   1.000  H
  C668     1.0000 0.79155  0.77919  0.19165  Biso   1.000  C
  C669     1.0000 0.82569  0.81141  0.33842  Biso   1.000  C
  C670     1.0000 0.79157  0.77919  0.19165  Biso   1.000  C
  C671     1.0000 0.82572  0.81141  0.33842  Biso   1.000  C
  C672     1.0000 0.04623  0.21886  0.26786  Biso   1.000  C
  C673     1.0000 0.04621  0.21886  0.26786  Biso   1.000  C
  C674     1.0000 0.77175  0.79897  0.19552  Biso   1.000  C
  C675     1.0000 0.78262  0.74950  0.11291  Biso   1.000  C
  C676     1.0000 0.78264  0.74950  0.11291  Biso   1.000  C
  H642     1.0000 0.84285  0.81474  0.39029  Biso   1.000  H
  C677     1.0000 0.80699  0.83153  0.34095  Biso   1.000  C
  H643     1.0000 0.84287  0.81474  0.39029  Biso   1.000  H
  C678     1.0000 0.80700  0.83150  0.34095  Biso   1.000  C
  C679     1.0000 0.80702  0.83153  0.34095  Biso   1.000  C
  C680     1.0000 0.80698  0.83150  0.34095  Biso   1.000  C
  C681     1.0000 0.02719  0.22823  0.19552  Biso   1.000  C
  C682     1.0000 0.02450  0.19299  0.34095  Biso   1.000  C
  C683     1.0000 0.02724  0.22823  0.19552  Biso   1.000  C
  C684     1.0000 0.78113  0.82735  0.26786  Biso   1.000  C
  C685     1.0000 0.74042  0.78884  0.12213  Biso   1.000  C
  C686     1.0000 0.78115  0.82735  0.26786  Biso   1.000  C
  C687     1.0000 0.74044  0.78884  0.12213  Biso   1.000  C
  O77      1.0000 0.80069  0.75515  0.03788  Biso   1.000  O
  O78      1.0000 0.75363  0.71675  0.14223  Biso   1.000  O
  O79      1.0000 0.80071  0.75515  0.03788  Biso   1.000  O
  O80      1.0000 0.75366  0.71675  0.14223  Biso   1.000  O
  H644     1.0000 0.81196  0.84874  0.39402  Biso   1.000  H
  H645     1.0000 0.81198  0.84874  0.39402  Biso   1.000  H
  C688     1.0000 0.98761  0.20845  0.19165  Biso   1.000  C
  C689     1.0000 0.04841  0.25958  0.12213  Biso   1.000  C
  C690     1.0000 0.98571  0.17431  0.33842  Biso   1.000  C
  H646     1.0000 0.03677  0.18802  0.39402  Biso   1.000  H
  C691     1.0000 0.77035  0.85700  0.26369  Biso   1.000  C
  C692     1.0000 0.77037  0.85700  0.26369  Biso   1.000  C
  O81      1.0000 0.73960  0.77631  0.04086  Biso   1.000  O
  O82      1.0000 0.71408  0.79549  0.16069  Biso   1.000  O
  O83      1.0000 0.73963  0.77631  0.04086  Biso   1.000  O
  C693     1.0000 0.73825  0.68286  0.07673  Biso   1.000  C
  C694     1.0000 0.73828  0.68286  0.07673  Biso   1.000  C
  C695     1.0000 0.96623  0.17995  0.26154  Biso   1.000  C
  C696     1.0000 0.96685  0.21737  0.11291  Biso   1.000  C
  C697     1.0000 0.96618  0.17995  0.26154  Biso   1.000  C
  O84      1.0000 0.03672  0.26039  0.04086  Biso   1.000  O
  O85      1.0000 0.08139  0.28590  0.16069  Biso   1.000  O
  O86      1.0000 0.03667  0.26039  0.04086  Biso   1.000  O
  O87      1.0000 0.08144  0.28590  0.16069  Biso   1.000  O
  H647     1.0000 0.97187  0.15713  0.39029  Biso   1.000  H
  C698     1.0000 0.77642  0.87805  0.17662  Biso   1.000  C
  C699     1.0000 0.76023  0.86916  0.34936  Biso   1.000  C
  C700     1.0000 0.77645  0.87805  0.17662  Biso   1.000  C
  C701     1.0000 0.76024  0.86914  0.34936  Biso   1.000  C
  C702     1.0000 0.76025  0.86916  0.34936  Biso   1.000  C
  C703     1.0000 0.68169  0.79101  0.10070  Biso   1.000  C
  C704     1.0000 0.72241  0.69051  0.98363  Biso   1.000  C
  C705     1.0000 0.76789  0.67205  0.05723  Biso   1.000  C
  C706     1.0000 0.70635  0.65312  0.14015  Biso   1.000  C
  C707     1.0000 0.70638  0.65312  0.14015  Biso   1.000  C
  C708     1.0000 0.92501  0.15284  0.25514  Biso   1.000  C
  O88      1.0000 0.95444  0.19928  0.03788  Biso   1.000  O
  O89      1.0000 0.96309  0.24634  0.14223  Biso   1.000  O
  O90      1.0000 0.96306  0.24634  0.14223  Biso   1.000  O
  C709     1.0000 0.10931  0.31829  0.10070  Biso   1.000  C
  C710     1.0000 0.77662  0.91168  0.17825  Biso   1.000  C
  H648     1.0000 0.78047  0.86894  0.11551  Biso   1.000  H
  C711     1.0000 0.77665  0.91168  0.17825  Biso   1.000  C
  H649     1.0000 0.75305  0.85393  0.40756  Biso   1.000  H
  C712     1.0000 0.76057  0.90322  0.35033  Biso   1.000  C
  H650     1.0000 0.75307  0.85393  0.40756  Biso   1.000  H
  C713     1.0000 0.76059  0.90322  0.35033  Biso   1.000  C
  C714     1.0000 0.66444  0.80782  0.16865  Biso   1.000  C
  C715     1.0000 0.69511  0.81375  0.00491  Biso   1.000  C
  C716     1.0000 0.65527  0.74936  0.08247  Biso   1.000  C
  C717     1.0000 0.66446  0.80782  0.16865  Biso   1.000  C
  C718     1.0000 0.69513  0.81375  0.00491  Biso   1.000  C
  C719     1.0000 0.65529  0.74936  0.08247  Biso   1.000  C
  H651     1.0000 0.74306  0.70972  0.94344  Biso   1.000  H
  H652     1.0000 0.70865  0.66714  0.94492  Biso   1.000  H
  H653     1.0000 0.70866  0.66712  0.94492  Biso   1.000  H
  H654     1.0000 0.70867  0.66714  0.94492  Biso   1.000  H
  H655     1.0000 0.70505  0.69954  0.00216  Biso   1.000  H
  H656     1.0000 0.70508  0.69954  0.00216  Biso   1.000  H
  H657     1.0000 0.78744  0.69093  0.01384  Biso   1.000  H
  H658     1.0000 0.77925  0.67093  0.12042  Biso   1.000  H
  H659     1.0000 0.75627  0.64734  0.02471  Biso   1.000  H
  H660     1.0000 0.78747  0.69093  0.01384  Biso   1.000  H
  H661     1.0000 0.77927  0.67093  0.12042  Biso   1.000  H
  H662     1.0000 0.68854  0.66173  0.15645  Biso   1.000  H
  H663     1.0000 0.69326  0.62934  0.10301  Biso   1.000  H
  H664     1.0000 0.71684  0.64923  0.20162  Biso   1.000  H
  H665     1.0000 0.68857  0.66173  0.15645  Biso   1.000  H
  H666     1.0000 0.71687  0.64923  0.20162  Biso   1.000  H
  H667     1.0000 0.69329  0.62934  0.10301  Biso   1.000  H
  C720     1.0000 0.90941  0.13131  0.16940  Biso   1.000  C
  C721     1.0000 0.90268  0.14248  0.34095  Biso   1.000  C
  C722     1.0000 0.90263  0.14248  0.34095  Biso   1.000  C
  C723     1.0000 0.90938  0.13131  0.16940  Biso   1.000  C
  C724     1.0000 0.94460  0.26172  0.07673  Biso   1.000  C
  C725     1.0000 0.09407  0.34470  0.08247  Biso   1.000  C
  C726     1.0000 0.11862  0.30486  0.00491  Biso   1.000  C
  C727     1.0000 0.14339  0.33553  0.16865  Biso   1.000  C
  C728     1.0000 0.14334  0.33553  0.16865  Biso   1.000  C
  C729     1.0000 0.77081  0.92616  0.26600  Biso   1.000  C
  H668     1.0000 0.78086  0.92543  0.11804  Biso   1.000  H
  C730     1.0000 0.77084  0.92616  0.26600  Biso   1.000  C
  H669     1.0000 0.78088  0.92543  0.11804  Biso   1.000  H
  H670     1.0000 0.75365  0.91104  0.40942  Biso   1.000  H
  H671     1.0000 0.75367  0.91104  0.40942  Biso   1.000  H
  H672     1.0000 0.68326  0.83404  0.18391  Biso   1.000  H
  H673     1.0000 0.64275  0.80712  0.13553  Biso   1.000  H
  H674     1.0000 0.65617  0.79324  0.23050  Biso   1.000  H
  H675     1.0000 0.68329  0.83404  0.18391  Biso   1.000  H
  H676     1.0000 0.64278  0.80712  0.13553  Biso   1.000  H
  H677     1.0000 0.70506  0.80193  0.95981  Biso   1.000  H
  H678     1.0000 0.67395  0.81443  0.97306  Biso   1.000  H
  H679     1.0000 0.67397  0.81443  0.97306  Biso   1.000  H
  H680     1.0000 0.70508  0.80193  0.95981  Biso   1.000  H
  H681     1.0000 0.71507  0.83954  0.02024  Biso   1.000  H
  H682     1.0000 0.64585  0.73644  0.14625  Biso   1.000  H
  H683     1.0000 0.63406  0.74603  0.04146  Biso   1.000  H
  H684     1.0000 0.66896  0.73873  0.04786  Biso   1.000  H
  H685     1.0000 0.64587  0.73644  0.14625  Biso   1.000  H
  H686     1.0000 0.63408  0.74603  0.04146  Biso   1.000  H
  H687     1.0000 0.92278  0.13904  0.10814  Biso   1.000  H
  C731     1.0000 0.87451  0.09861  0.17327  Biso   1.000  C
  C732     1.0000 0.87448  0.09861  0.17327  Biso   1.000  C
  C733     1.0000 0.86796  0.11029  0.34370  Biso   1.000  C
  H688     1.0000 0.91167  0.15803  0.39841  Biso   1.000  H
  C734     1.0000 0.86791  0.11029  0.34370  Biso   1.000  C
  C735     1.0000 0.90416  0.23209  0.05723  Biso   1.000  C
  C736     1.0000 0.96810  0.27758  0.98363  Biso   1.000  C
  C737     1.0000 0.94678  0.29363  0.14015  Biso   1.000  C
  C738     1.0000 0.94673  0.29363  0.14015  Biso   1.000  C
  H689     1.0000 0.06976  0.33102  0.04786  Biso   1.000  H
  H690     1.0000 0.09055  0.35412  0.14625  Biso   1.000  H
  H691     1.0000 0.11194  0.36592  0.04146  Biso   1.000  H
  H692     1.0000 0.11199  0.36592  0.04146  Biso   1.000  H
  H693     1.0000 0.09685  0.29493  0.95981  Biso   1.000  H
  H694     1.0000 0.14045  0.32602  0.97306  Biso   1.000  H
  H695     1.0000 0.09690  0.29493  0.95981  Biso   1.000  H
  H696     1.0000 0.14049  0.32602  0.97306  Biso   1.000  H
  H697     1.0000 0.12445  0.28494  0.02024  Biso   1.000  H
  H698     1.0000 0.12444  0.28491  0.02024  Biso   1.000  H
  H699     1.0000 0.12448  0.28491  0.02024  Biso   1.000  H
  H700     1.0000 0.15078  0.31674  0.18391  Biso   1.000  H
  H701     1.0000 0.16436  0.35723  0.13553  Biso   1.000  H
  H702     1.0000 0.13706  0.34383  0.23050  Biso   1.000  H
  H703     1.0000 0.16433  0.35723  0.13553  Biso   1.000  H
  H704     1.0000 0.13703  0.34383  0.23050  Biso   1.000  H
  C739     1.0000 0.78226  0.96665  0.27233  Biso   1.000  C
  C740     1.0000 0.85407  0.08603  0.26124  Biso   1.000  C
  H705     1.0000 0.86426  0.08442  0.11402  Biso   1.000  H
  H706     1.0000 0.85308  0.10434  0.40235  Biso   1.000  H
  H707     1.0000 0.85306  0.10434  0.40235  Biso   1.000  H
  H708     1.0000 0.89166  0.22072  0.12042  Biso   1.000  H
  H709     1.0000 0.90347  0.21254  0.01384  Biso   1.000  H
  H710     1.0000 0.89108  0.24372  0.02471  Biso   1.000  H
  H711     1.0000 0.89103  0.24372  0.02471  Biso   1.000  H
  H712     1.0000 0.99447  0.29493  0.00216  Biso   1.000  H
  H713     1.0000 0.96667  0.25692  0.94344  Biso   1.000  H
  H714     1.0000 0.95848  0.29132  0.94492  Biso   1.000  H
  H715     1.0000 0.95843  0.29132  0.94492  Biso   1.000  H
  H716     1.0000 0.97318  0.31144  0.15645  Biso   1.000  H
  H717     1.0000 0.93607  0.30672  0.10301  Biso   1.000  H
  H718     1.0000 0.93239  0.28314  0.20162  Biso   1.000  H
  H719     1.0000 0.93237  0.28314  0.20162  Biso   1.000  H
  H720     1.0000 0.93602  0.30672  0.10301  Biso   1.000  H
  C741     1.0000 0.78175  0.98693  0.18964  Biso   1.000  C
  C742     1.0000 0.80060  0.98705  0.35762  Biso   1.000  C
  C743     1.0000 0.78177  0.98693  0.18964  Biso   1.000  C
  C744     1.0000 0.80062  0.98705  0.35762  Biso   1.000  C
  C745     1.0000 0.82361  0.04627  0.26965  Biso   1.000  C
  C746     1.0000 0.80164  0.02579  0.18830  Biso   1.000  C
  H721     1.0000 0.76736  0.97364  0.13293  Biso   1.000  H
  H722     1.0000 0.76737  0.97362  0.13293  Biso   1.000  H
  H723     1.0000 0.76738  0.97364  0.13293  Biso   1.000  H
  H724     1.0000 0.76735  0.97362  0.13293  Biso   1.000  H
  H725     1.0000 0.79925  0.97404  0.41746  Biso   1.000  H
  H726     1.0000 0.79927  0.97404  0.41746  Biso   1.000  H
  C747     1.0000 0.82079  0.02601  0.35606  Biso   1.000  C
  C748     1.0000 0.82074  0.02601  0.35606  Biso   1.000  C
  H727     1.0000 0.80036  0.03882  0.13136  Biso   1.000  H
  H728     1.0000 0.83295  0.03933  0.41500  Biso   1.000  H
  C749     1.0000 0.19217  0.85661  0.16865  Biso   1.000  C
  C750     1.0000 0.20897  0.89066  0.10070  Biso   1.000  C
  H729     1.0000 0.20676  0.86293  0.23050  Biso   1.000  H
  H730     1.0000 0.16598  0.84924  0.18391  Biso   1.000  H
  H731     1.0000 0.19287  0.83564  0.13553  Biso   1.000  H
  H732     1.0000 0.20679  0.86293  0.23050  Biso   1.000  H
  H733     1.0000 0.16596  0.84922  0.18391  Biso   1.000  H
  H734     1.0000 0.19286  0.83562  0.13553  Biso   1.000  H
  C751     1.0000 0.18625  0.88138  0.00491  Biso   1.000  C
  C752     1.0000 0.25063  0.90590  0.08247  Biso   1.000  C
  O91      1.0000 0.20450  0.91857  0.16069  Biso   1.000  O
  C753     1.0000 0.25060  0.90590  0.08247  Biso   1.000  C
  O92      1.0000 0.20448  0.91857  0.16069  Biso   1.000  O
  H735     1.0000 0.16048  0.87554  0.02024  Biso   1.000  H
  H736     1.0000 0.19808  0.90314  0.95981  Biso   1.000  H
  H737     1.0000 0.18559  0.85954  0.97306  Biso   1.000  H
  H738     1.0000 0.18557  0.85954  0.97306  Biso   1.000  H
  H739     1.0000 0.19806  0.90314  0.95981  Biso   1.000  H
  H740     1.0000 0.16046  0.87554  0.02024  Biso   1.000  H
  H741     1.0000 0.26356  0.90943  0.14625  Biso   1.000  H
  H742     1.0000 0.25397  0.88804  0.04146  Biso   1.000  H
  H743     1.0000 0.26358  0.90943  0.14625  Biso   1.000  H
  H744     1.0000 0.25399  0.88804  0.04146  Biso   1.000  H
  H745     1.0000 0.26127  0.93022  0.04786  Biso   1.000  H
  H746     1.0000 0.26125  0.93022  0.04786  Biso   1.000  H
  C754     1.0000 0.21116  0.95158  0.12213  Biso   1.000  C
  O93      1.0000 0.22369  0.96329  0.04086  Biso   1.000  O
  C755     1.0000 0.20103  0.97277  0.19552  Biso   1.000  C
  O94      1.0000 0.22371  0.96329  0.04086  Biso   1.000  O
  C756     1.0000 0.20101  0.97277  0.19552  Biso   1.000  C
  C757     1.0000 0.17265  0.95378  0.26786  Biso   1.000  C
  C758     1.0000 0.22084  0.01238  0.19165  Biso   1.000  C
  C759     1.0000 0.22078  0.01236  0.19165  Biso   1.000  C
  C760     1.0000 0.22079  0.01238  0.19165  Biso   1.000  C
  C761     1.0000 0.22083  0.01236  0.19165  Biso   1.000  C
  C762     1.0000 0.14300  0.91335  0.26369  Biso   1.000  C
  C763     1.0000 0.16850  0.97548  0.34095  Biso   1.000  C
  C764     1.0000 0.16847  0.97548  0.34095  Biso   1.000  C
  C765     1.0000 0.25049  0.03312  0.11291  Biso   1.000  C
  C766     1.0000 0.21376  0.03380  0.26154  Biso   1.000  C
  C767     1.0000 0.13085  0.89109  0.34936  Biso   1.000  C
  C768     1.0000 0.12196  0.89840  0.17662  Biso   1.000  C
  C769     1.0000 0.13087  0.89109  0.34936  Biso   1.000  C
  C770     1.0000 0.12193  0.89837  0.17662  Biso   1.000  C
  C771     1.0000 0.12194  0.89840  0.17662  Biso   1.000  C
  C772     1.0000 0.18858  0.01427  0.33842  Biso   1.000  C
  H747     1.0000 0.15128  0.96323  0.39402  Biso   1.000  H
  H748     1.0000 0.15126  0.96323  0.39402  Biso   1.000  H
  C773     1.0000 0.18859  0.01430  0.33842  Biso   1.000  C
  O95      1.0000 0.24486  0.04556  0.03788  Biso   1.000  O
  O96      1.0000 0.28324  0.03690  0.14223  Biso   1.000  O
  O97      1.0000 0.24488  0.04556  0.03788  Biso   1.000  O
  C774     1.0000 0.22779  0.07496  0.25514  Biso   1.000  C
  C775     1.0000 0.22784  0.07496  0.25514  Biso   1.000  C
  C776     1.0000 0.09679  0.85737  0.35033  Biso   1.000  C
  H749     1.0000 0.14608  0.89913  0.40756  Biso   1.000  H
  C777     1.0000 0.09681  0.85737  0.35033  Biso   1.000  C
  H750     1.0000 0.14606  0.89913  0.40756  Biso   1.000  H
  C778     1.0000 0.08831  0.86496  0.17825  Biso   1.000  C
  H751     1.0000 0.13108  0.91154  0.11551  Biso   1.000  H
  H752     1.0000 0.13107  0.91152  0.11551  Biso   1.000  H
  H753     1.0000 0.18524  0.02813  0.39029  Biso   1.000  H
  H754     1.0000 0.18527  0.02813  0.39029  Biso   1.000  H
  C779     1.0000 0.31714  0.05538  0.07673  Biso   1.000  C
  C780     1.0000 0.31711  0.05538  0.07673  Biso   1.000  C
  C781     1.0000 0.23984  0.09734  0.34095  Biso   1.000  C
  C782     1.0000 0.22189  0.09057  0.16940  Biso   1.000  C
  C783     1.0000 0.22186  0.09057  0.16940  Biso   1.000  C
  H755     1.0000 0.08898  0.84264  0.40942  Biso   1.000  H
  C784     1.0000 0.07385  0.84467  0.26600  Biso   1.000  C
  C785     1.0000 0.07383  0.84465  0.26600  Biso   1.000  C
  H756     1.0000 0.08896  0.84264  0.40942  Biso   1.000  H
  H757     1.0000 0.07458  0.85542  0.11804  Biso   1.000  H
  H758     1.0000 0.07455  0.85542  0.11804  Biso   1.000  H
  C786     1.0000 0.34688  0.05324  0.14015  Biso   1.000  C
  C787     1.0000 0.30948  0.03191  0.98363  Biso   1.000  C
  C788     1.0000 0.30953  0.03191  0.98363  Biso   1.000  C
  C789     1.0000 0.32796  0.09584  0.05723  Biso   1.000  C
  C790     1.0000 0.32790  0.09582  0.05723  Biso   1.000  C
  C791     1.0000 0.32794  0.09582  0.05723  Biso   1.000  C
  C792     1.0000 0.24236  0.13204  0.34370  Biso   1.000  C
  H759     1.0000 0.24636  0.08834  0.39841  Biso   1.000  H
  H760     1.0000 0.21624  0.07722  0.10814  Biso   1.000  H
  C793     1.0000 0.22413  0.12550  0.17327  Biso   1.000  C
  H761     1.0000 0.21629  0.07722  0.10814  Biso   1.000  H
  C794     1.0000 0.03334  0.81561  0.27233  Biso   1.000  C
  C795     1.0000 0.03337  0.81561  0.27233  Biso   1.000  C
  H762     1.0000 0.33827  0.02683  0.15645  Biso   1.000  H
  H763     1.0000 0.37067  0.06393  0.10301  Biso   1.000  H
  H764     1.0000 0.35075  0.06763  0.20162  Biso   1.000  H
  H765     1.0000 0.35080  0.06763  0.20162  Biso   1.000  H
  H766     1.0000 0.29027  0.03332  0.94344  Biso   1.000  H
  H767     1.0000 0.33288  0.04153  0.94492  Biso   1.000  H
  H768     1.0000 0.33284  0.04153  0.94492  Biso   1.000  H
  H769     1.0000 0.30044  0.00553  0.00216  Biso   1.000  H
  H770     1.0000 0.30049  0.00553  0.00216  Biso   1.000  H
  H771     1.0000 0.30904  0.09652  0.01384  Biso   1.000  H
  H772     1.0000 0.32905  0.10834  0.12042  Biso   1.000  H
  H773     1.0000 0.35268  0.10894  0.02471  Biso   1.000  H
  H774     1.0000 0.32904  0.10832  0.12042  Biso   1.000  H
  H775     1.0000 0.35266  0.10894  0.02471  Biso   1.000  H
  H776     1.0000 0.30907  0.09652  0.01384  Biso   1.000  H
  H777     1.0000 0.32909  0.10832  0.12042  Biso   1.000  H
  C796     1.0000 0.23192  0.14593  0.26124  Biso   1.000  C
  C797     1.0000 0.23195  0.14593  0.26124  Biso   1.000  C
  H778     1.0000 0.25125  0.14694  0.40235  Biso   1.000  H
  H779     1.0000 0.25130  0.14694  0.40235  Biso   1.000  H
  H780     1.0000 0.22019  0.13574  0.11402  Biso   1.000  H
  H781     1.0000 0.22016  0.13574  0.11402  Biso   1.000  H
  C798     1.0000 0.01293  0.81355  0.35762  Biso   1.000  C
  C799     1.0000 0.01307  0.79482  0.18964  Biso   1.000  C
  C800     1.0000 0.01305  0.79482  0.18964  Biso   1.000  C
  C801     1.0000 0.22264  0.17637  0.26965  Biso   1.000  C
  C802     1.0000 0.97397  0.79476  0.35606  Biso   1.000  C
  C803     1.0000 0.97400  0.79476  0.35606  Biso   1.000  C
  H782     1.0000 0.02598  0.82523  0.41746  Biso   1.000  H
  H783     1.0000 0.02596  0.82523  0.41746  Biso   1.000  H
  C804     1.0000 0.97420  0.77586  0.18830  Biso   1.000  C
  C805     1.0000 0.97422  0.77586  0.18830  Biso   1.000  C
  H784     1.0000 0.02639  0.79375  0.13293  Biso   1.000  H
  H785     1.0000 0.02635  0.79372  0.13293  Biso   1.000  H
  C806     1.0000 0.22415  0.19835  0.18830  Biso   1.000  C
  C807     1.0000 0.20525  0.17922  0.35606  Biso   1.000  C
  C808     1.0000 0.20520  0.17922  0.35606  Biso   1.000  C
  C809     1.0000 0.95371  0.77735  0.26965  Biso   1.000  C
  H786     1.0000 0.96065  0.79363  0.41500  Biso   1.000  H
  C810     1.0000 0.95373  0.77735  0.26965  Biso   1.000  C
  H787     1.0000 0.96068  0.79363  0.41500  Biso   1.000  H
  H788     1.0000 0.96114  0.76152  0.13136  Biso   1.000  H
  H789     1.0000 0.96117  0.76152  0.13136  Biso   1.000  H
  H790     1.0000 0.23844  0.19962  0.13136  Biso   1.000  H
  C811     1.0000 0.20516  0.21824  0.18964  Biso   1.000  C
  H791     1.0000 0.23849  0.19962  0.13136  Biso   1.000  H
  C812     1.0000 0.20521  0.21824  0.18964  Biso   1.000  C
  C813     1.0000 0.18641  0.19936  0.35762  Biso   1.000  C
  H792     1.0000 0.20639  0.16703  0.41500  Biso   1.000  H
  H793     1.0000 0.20636  0.16703  0.41500  Biso   1.000  H
  C814     1.0000 0.18644  0.19936  0.35762  Biso   1.000  C
  C815     1.0000 0.91397  0.76804  0.26124  Biso   1.000  C
  C816     1.0000 0.18438  0.21773  0.27233  Biso   1.000  C
  H794     1.0000 0.20625  0.23263  0.13293  Biso   1.000  H
  H795     1.0000 0.20630  0.23263  0.13293  Biso   1.000  H
  H796     1.0000 0.17475  0.20072  0.41746  Biso   1.000  H
  H797     1.0000 0.17473  0.20072  0.41746  Biso   1.000  H
  C817     1.0000 0.90137  0.77589  0.17327  Biso   1.000  C
  C818     1.0000 0.88969  0.75766  0.34370  Biso   1.000  C
  C819     1.0000 0.90138  0.77586  0.17327  Biso   1.000  C
  C820     1.0000 0.90139  0.77589  0.17327  Biso   1.000  C
  C821     1.0000 0.88972  0.75766  0.34370  Biso   1.000  C
  C822     1.0000 0.15535  0.22916  0.26600  Biso   1.000  C
  C823     1.0000 0.15530  0.22916  0.26600  Biso   1.000  C
  C824     1.0000 0.86869  0.77811  0.16940  Biso   1.000  C
  H798     1.0000 0.91556  0.77984  0.11402  Biso   1.000  H
  C825     1.0000 0.86868  0.77809  0.16940  Biso   1.000  C
  H799     1.0000 0.91559  0.77984  0.11402  Biso   1.000  H
  H800     1.0000 0.89567  0.74874  0.40235  Biso   1.000  H
  C826     1.0000 0.85749  0.76017  0.34095  Biso   1.000  C
  C827     1.0000 0.85752  0.76017  0.34095  Biso   1.000  C
  C828     1.0000 0.13505  0.22335  0.17825  Biso   1.000  C
  C829     1.0000 0.14265  0.23943  0.35033  Biso   1.000  C
  C830     1.0000 0.14267  0.23943  0.35033  Biso   1.000  C
  C831     1.0000 0.84716  0.77219  0.25514  Biso   1.000  C
  H801     1.0000 0.86094  0.78373  0.10814  Biso   1.000  H
  H802     1.0000 0.86097  0.78373  0.10814  Biso   1.000  H
  H803     1.0000 0.84196  0.75362  0.39841  Biso   1.000  H
  H804     1.0000 0.84198  0.75362  0.39841  Biso   1.000  H
  C832     1.0000 0.10162  0.22355  0.17662  Biso   1.000  C
  H805     1.0000 0.14457  0.21914  0.11804  Biso   1.000  H
  H806     1.0000 0.14456  0.21912  0.11804  Biso   1.000  H
  H807     1.0000 0.14459  0.21912  0.11804  Biso   1.000  H
  C833     1.0000 0.10890  0.23977  0.34936  Biso   1.000  C
  H808     1.0000 0.15739  0.24634  0.40942  Biso   1.000  H
  H809     1.0000 0.15733  0.24631  0.40942  Biso   1.000  H
  H810     1.0000 0.15734  0.24634  0.40942  Biso   1.000  H
  C834     1.0000 0.10895  0.23977  0.34936  Biso   1.000  C
  H811     1.0000 0.15738  0.24631  0.40942  Biso   1.000  H
  C835     1.0000 0.82002  0.78624  0.26154  Biso   1.000  C
  C836     1.0000 0.82005  0.78624  0.26154  Biso   1.000  C
  H812     1.0000 0.08847  0.21954  0.11551  Biso   1.000  H
  C837     1.0000 0.08663  0.22964  0.26369  Biso   1.000  C
  H813     1.0000 0.10088  0.24694  0.40756  Biso   1.000  H
  C838     1.0000 0.79155  0.77919  0.19165  Biso   1.000  C
  C839     1.0000 0.82569  0.81141  0.33842  Biso   1.000  C
  C840     1.0000 0.79157  0.77919  0.19165  Biso   1.000  C
  C841     1.0000 0.82572  0.81141  0.33842  Biso   1.000  C
  C842     1.0000 0.04623  0.21886  0.26786  Biso   1.000  C
  C843     1.0000 0.04621  0.21886  0.26786  Biso   1.000  C
  C844     1.0000 0.77175  0.79897  0.19552  Biso   1.000  C
  C845     1.0000 0.78262  0.74950  0.11291  Biso   1.000  C
  C846     1.0000 0.78264  0.74950  0.11291  Biso   1.000  C
  H814     1.0000 0.84285  0.81474  0.39029  Biso   1.000  H
  C847     1.0000 0.80699  0.83153  0.34095  Biso   1.000  C
  H815     1.0000 0.84287  0.81474  0.39029  Biso   1.000  H
  C848     1.0000 0.80700  0.83150  0.34095  Biso   1.000  C
  C849     1.0000 0.80702  0.83153  0.34095  Biso   1.000  C
  C850     1.0000 0.80698  0.83150  0.34095  Biso   1.000  C
  C851     1.0000 0.02719  0.22823  0.19552  Biso   1.000  C
  C852     1.0000 0.02450  0.19299  0.34095  Biso   1.000  C
  C853     1.0000 0.02724  0.22823  0.19552  Biso   1.000  C
  C854     1.0000 0.78113  0.82735  0.26786  Biso   1.000  C
  C855     1.0000 0.74042  0.78884  0.12213  Biso   1.000  C
  C856     1.0000 0.78115  0.82735  0.26786  Biso   1.000  C
  C857     1.0000 0.74044  0.78884  0.12213  Biso   1.000  C
  O98      1.0000 0.80069  0.75515  0.03788  Biso   1.000  O
  O99      1.0000 0.75363  0.71675  0.14223  Biso   1.000  O
  O100     1.0000 0.80071  0.75515  0.03788  Biso   1.000  O
  O101     1.0000 0.75366  0.71675  0.14223  Biso   1.000  O
  H816     1.0000 0.81196  0.84874  0.39402  Biso   1.000  H
  H817     1.0000 0.81198  0.84874  0.39402  Biso   1.000  H
  C858     1.0000 0.98761  0.20845  0.19165  Biso   1.000  C
  C859     1.0000 0.04841  0.25958  0.12213  Biso   1.000  C
  C860     1.0000 0.98571  0.17431  0.33842  Biso   1.000  C
  H818     1.0000 0.03677  0.18802  0.39402  Biso   1.000  H
  C861     1.0000 0.77035  0.85700  0.26369  Biso   1.000  C
  C862     1.0000 0.77037  0.85700  0.26369  Biso   1.000  C
  O102     1.0000 0.73960  0.77631  0.04086  Biso   1.000  O
  O103     1.0000 0.71408  0.79549  0.16069  Biso   1.000  O
  O104     1.0000 0.73963  0.77631  0.04086  Biso   1.000  O
  C863     1.0000 0.73825  0.68286  0.07673  Biso   1.000  C
  C864     1.0000 0.73828  0.68286  0.07673  Biso   1.000  C
  C865     1.0000 0.96623  0.17995  0.26154  Biso   1.000  C
  C866     1.0000 0.96685  0.21737  0.11291  Biso   1.000  C
  C867     1.0000 0.96618  0.17995  0.26154  Biso   1.000  C
  O105     1.0000 0.03672  0.26039  0.04086  Biso   1.000  O
  O106     1.0000 0.08139  0.28590  0.16069  Biso   1.000  O
  O107     1.0000 0.03667  0.26039  0.04086  Biso   1.000  O
  O108     1.0000 0.08144  0.28590  0.16069  Biso   1.000  O
  H819     1.0000 0.97187  0.15713  0.39029  Biso   1.000  H
  C868     1.0000 0.77642  0.87805  0.17662  Biso   1.000  C
  C869     1.0000 0.76023  0.86916  0.34936  Biso   1.000  C
  C870     1.0000 0.77645  0.87805  0.17662  Biso   1.000  C
  C871     1.0000 0.76024  0.86914  0.34936  Biso   1.000  C
  C872     1.0000 0.76025  0.86916  0.34936  Biso   1.000  C
  C873     1.0000 0.68169  0.79101  0.10070  Biso   1.000  C
  C874     1.0000 0.72241  0.69051  0.98363  Biso   1.000  C
  C875     1.0000 0.76789  0.67205  0.05723  Biso   1.000  C
  C876     1.0000 0.70635  0.65312  0.14015  Biso   1.000  C
  C877     1.0000 0.70638  0.65312  0.14015  Biso   1.000  C
  C878     1.0000 0.92501  0.15284  0.25514  Biso   1.000  C
  O109     1.0000 0.95444  0.19928  0.03788  Biso   1.000  O
  O110     1.0000 0.96309  0.24634  0.14223  Biso   1.000  O
  O111     1.0000 0.96306  0.24634  0.14223  Biso   1.000  O
  C879     1.0000 0.10931  0.31829  0.10070  Biso   1.000  C
  C880     1.0000 0.77662  0.91168  0.17825  Biso   1.000  C
  H820     1.0000 0.78047  0.86894  0.11551  Biso   1.000  H
  C881     1.0000 0.77665  0.91168  0.17825  Biso   1.000  C
  H821     1.0000 0.75305  0.85393  0.40756  Biso   1.000  H
  C882     1.0000 0.76057  0.90322  0.35033  Biso   1.000  C
  H822     1.0000 0.75307  0.85393  0.40756  Biso   1.000  H
  C883     1.0000 0.76059  0.90322  0.35033  Biso   1.000  C
  C884     1.0000 0.66444  0.80782  0.16865  Biso   1.000  C
  C885     1.0000 0.69511  0.81375  0.00491  Biso   1.000  C
  C886     1.0000 0.65527  0.74936  0.08247  Biso   1.000  C
  C887     1.0000 0.66446  0.80782  0.16865  Biso   1.000  C
  C888     1.0000 0.69513  0.81375  0.00491  Biso   1.000  C
  C889     1.0000 0.65529  0.74936  0.08247  Biso   1.000  C
  H823     1.0000 0.74306  0.70972  0.94344  Biso   1.000  H
  H824     1.0000 0.70865  0.66714  0.94492  Biso   1.000  H
  H825     1.0000 0.70866  0.66712  0.94492  Biso   1.000  H
  H826     1.0000 0.70867  0.66714  0.94492  Biso   1.000  H
  H827     1.0000 0.70505  0.69954  0.00216  Biso   1.000  H
  H828     1.0000 0.70508  0.69954  0.00216  Biso   1.000  H
  H829     1.0000 0.78744  0.69093  0.01384  Biso   1.000  H
  H830     1.0000 0.77925  0.67093  0.12042  Biso   1.000  H
  H831     1.0000 0.75627  0.64734  0.02471  Biso   1.000  H
  H832     1.0000 0.78747  0.69093  0.01384  Biso   1.000  H
  H833     1.0000 0.77927  0.67093  0.12042  Biso   1.000  H
  H834     1.0000 0.68854  0.66173  0.15645  Biso   1.000  H
  H835     1.0000 0.69326  0.62934  0.10301  Biso   1.000  H
  H836     1.0000 0.71684  0.64923  0.20162  Biso   1.000  H
  H837     1.0000 0.68857  0.66173  0.15645  Biso   1.000  H
  H838     1.0000 0.71687  0.64923  0.20162  Biso   1.000  H
  H839     1.0000 0.69329  0.62934  0.10301  Biso   1.000  H
  C890     1.0000 0.90941  0.13131  0.16940  Biso   1.000  C
  C891     1.0000 0.90268  0.14248  0.34095  Biso   1.000  C
  C892     1.0000 0.90263  0.14248  0.34095  Biso   1.000  C
  C893     1.0000 0.90938  0.13131  0.16940  Biso   1.000  C
  C894     1.0000 0.94460  0.26172  0.07673  Biso   1.000  C
  C895     1.0000 0.11862  0.30486  0.00491  Biso   1.000  C
  C896     1.0000 0.09407  0.34470  0.08247  Biso   1.000  C
  C897     1.0000 0.14339  0.33553  0.16865  Biso   1.000  C
  C898     1.0000 0.14334  0.33553  0.16865  Biso   1.000  C
  C899     1.0000 0.77081  0.92616  0.26600  Biso   1.000  C
  H840     1.0000 0.78086  0.92543  0.11804  Biso   1.000  H
  C900     1.0000 0.77084  0.92616  0.26600  Biso   1.000  C
  H841     1.0000 0.78088  0.92543  0.11804  Biso   1.000  H
  H842     1.0000 0.75365  0.91104  0.40942  Biso   1.000  H
  H843     1.0000 0.75367  0.91104  0.40942  Biso   1.000  H
  H844     1.0000 0.68326  0.83404  0.18391  Biso   1.000  H
  H845     1.0000 0.64275  0.80712  0.13553  Biso   1.000  H
  H846     1.0000 0.65617  0.79324  0.23050  Biso   1.000  H
  H847     1.0000 0.68329  0.83404  0.18391  Biso   1.000  H
  H848     1.0000 0.64278  0.80712  0.13553  Biso   1.000  H
  H849     1.0000 0.70506  0.80193  0.95981  Biso   1.000  H
  H850     1.0000 0.67395  0.81443  0.97306  Biso   1.000  H
  H851     1.0000 0.67397  0.81443  0.97306  Biso   1.000  H
  H852     1.0000 0.70508  0.80193  0.95981  Biso   1.000  H
  H853     1.0000 0.71507  0.83954  0.02024  Biso   1.000  H
  H854     1.0000 0.64585  0.73644  0.14625  Biso   1.000  H
  H855     1.0000 0.63406  0.74603  0.04146  Biso   1.000  H
  H856     1.0000 0.66896  0.73873  0.04786  Biso   1.000  H
  H857     1.0000 0.64587  0.73644  0.14625  Biso   1.000  H
  H858     1.0000 0.63408  0.74603  0.04146  Biso   1.000  H
  H859     1.0000 0.92278  0.13904  0.10814  Biso   1.000  H
  C901     1.0000 0.87451  0.09861  0.17327  Biso   1.000  C
  C902     1.0000 0.87448  0.09861  0.17327  Biso   1.000  C
  C903     1.0000 0.86796  0.11029  0.34370  Biso   1.000  C
  H860     1.0000 0.91167  0.15803  0.39841  Biso   1.000  H
  C904     1.0000 0.86791  0.11029  0.34370  Biso   1.000  C
  C905     1.0000 0.90416  0.23209  0.05723  Biso   1.000  C
  C906     1.0000 0.96810  0.27758  0.98363  Biso   1.000  C
  C907     1.0000 0.94678  0.29363  0.14015  Biso   1.000  C
  C908     1.0000 0.94673  0.29363  0.14015  Biso   1.000  C
  H861     1.0000 0.09685  0.29493  0.95981  Biso   1.000  H
  H862     1.0000 0.14045  0.32602  0.97306  Biso   1.000  H
  H863     1.0000 0.09690  0.29493  0.95981  Biso   1.000  H
  H864     1.0000 0.14049  0.32602  0.97306  Biso   1.000  H
  H865     1.0000 0.12445  0.28494  0.02024  Biso   1.000  H
  H866     1.0000 0.12444  0.28491  0.02024  Biso   1.000  H
  H867     1.0000 0.12448  0.28491  0.02024  Biso   1.000  H
  H868     1.0000 0.06976  0.33102  0.04786  Biso   1.000  H
  H869     1.0000 0.09055  0.35412  0.14625  Biso   1.000  H
  H870     1.0000 0.11194  0.36592  0.04146  Biso   1.000  H
  H871     1.0000 0.11199  0.36592  0.04146  Biso   1.000  H
  H872     1.0000 0.15078  0.31674  0.18391  Biso   1.000  H
  H873     1.0000 0.16436  0.35723  0.13553  Biso   1.000  H
  H874     1.0000 0.13706  0.34383  0.23050  Biso   1.000  H
  H875     1.0000 0.16433  0.35723  0.13553  Biso   1.000  H
  H876     1.0000 0.13703  0.34383  0.23050  Biso   1.000  H
  C909     1.0000 0.78226  0.96665  0.27233  Biso   1.000  C
  C910     1.0000 0.85407  0.08603  0.26124  Biso   1.000  C
  H877     1.0000 0.86426  0.08442  0.11402  Biso   1.000  H
  H878     1.0000 0.85308  0.10434  0.40235  Biso   1.000  H
  H879     1.0000 0.85306  0.10434  0.40235  Biso   1.000  H
  H880     1.0000 0.89166  0.22072  0.12042  Biso   1.000  H
  H881     1.0000 0.90347  0.21254  0.01384  Biso   1.000  H
  H882     1.0000 0.89108  0.24372  0.02471  Biso   1.000  H
  H883     1.0000 0.89103  0.24372  0.02471  Biso   1.000  H
  H884     1.0000 0.99447  0.29493  0.00216  Biso   1.000  H
  H885     1.0000 0.96667  0.25692  0.94344  Biso   1.000  H
  H886     1.0000 0.95848  0.29132  0.94492  Biso   1.000  H
  H887     1.0000 0.95843  0.29132  0.94492  Biso   1.000  H
  H888     1.0000 0.97318  0.31144  0.15645  Biso   1.000  H
  H889     1.0000 0.93607  0.30672  0.10301  Biso   1.000  H
  H890     1.0000 0.93239  0.28314  0.20162  Biso   1.000  H
  H891     1.0000 0.93237  0.28314  0.20162  Biso   1.000  H
  H892     1.0000 0.93602  0.30672  0.10301  Biso   1.000  H
  C911     1.0000 0.78175  0.98693  0.18964  Biso   1.000  C
  C912     1.0000 0.80060  0.98705  0.35762  Biso   1.000  C
  C913     1.0000 0.78177  0.98693  0.18964  Biso   1.000  C
  C914     1.0000 0.80062  0.98705  0.35762  Biso   1.000  C
  C915     1.0000 0.82361  0.04627  0.26965  Biso   1.000  C
  C916     1.0000 0.80164  0.02579  0.18830  Biso   1.000  C
  H893     1.0000 0.76736  0.97364  0.13293  Biso   1.000  H
  H894     1.0000 0.76737  0.97362  0.13293  Biso   1.000  H
  H895     1.0000 0.76738  0.97364  0.13293  Biso   1.000  H
  H896     1.0000 0.76735  0.97362  0.13293  Biso   1.000  H
  H897     1.0000 0.79925  0.97404  0.41746  Biso   1.000  H
  H898     1.0000 0.79927  0.97404  0.41746  Biso   1.000  H
  C917     1.0000 0.82079  0.02601  0.35606  Biso   1.000  C
  C918     1.0000 0.82074  0.02601  0.35606  Biso   1.000  C
  H899     1.0000 0.80036  0.03882  0.13136  Biso   1.000  H
  H900     1.0000 0.83295  0.03933  0.41500  Biso   1.000  H
  C919     1.0000 0.19217  0.85661  0.16865  Biso   1.000  C
  C920     1.0000 0.20897  0.89066  0.10070  Biso   1.000  C
  H901     1.0000 0.16598  0.84924  0.18391  Biso   1.000  H
  H902     1.0000 0.19287  0.83564  0.13553  Biso   1.000  H
  H903     1.0000 0.20679  0.86293  0.23050  Biso   1.000  H
  H904     1.0000 0.16596  0.84922  0.18391  Biso   1.000  H
  H905     1.0000 0.19286  0.83562  0.13553  Biso   1.000  H
  H906     1.0000 0.20676  0.86293  0.23050  Biso   1.000  H
  C921     1.0000 0.18625  0.88138  0.00491  Biso   1.000  C
  C922     1.0000 0.25063  0.90590  0.08247  Biso   1.000  C
  O112     1.0000 0.20450  0.91857  0.16069  Biso   1.000  O
  C923     1.0000 0.25060  0.90590  0.08247  Biso   1.000  C
  O113     1.0000 0.20448  0.91857  0.16069  Biso   1.000  O
  H907     1.0000 0.19808  0.90314  0.95981  Biso   1.000  H
  H908     1.0000 0.18559  0.85954  0.97306  Biso   1.000  H
  H909     1.0000 0.18557  0.85954  0.97306  Biso   1.000  H
  H910     1.0000 0.19806  0.90314  0.95981  Biso   1.000  H
  H911     1.0000 0.16048  0.87554  0.02024  Biso   1.000  H
  H912     1.0000 0.16046  0.87554  0.02024  Biso   1.000  H
  H913     1.0000 0.26358  0.90943  0.14625  Biso   1.000  H
  H914     1.0000 0.25399  0.88804  0.04146  Biso   1.000  H
  H915     1.0000 0.26127  0.93022  0.04786  Biso   1.000  H
  H916     1.0000 0.26356  0.90943  0.14625  Biso   1.000  H
  H917     1.0000 0.25397  0.88804  0.04146  Biso   1.000  H
  H918     1.0000 0.26125  0.93022  0.04786  Biso   1.000  H
  C924     1.0000 0.21116  0.95158  0.12213  Biso   1.000  C
  C925     1.0000 0.20103  0.97277  0.19552  Biso   1.000  C
  O114     1.0000 0.22371  0.96329  0.04086  Biso   1.000  O
  C926     1.0000 0.20101  0.97277  0.19552  Biso   1.000  C
  O115     1.0000 0.22369  0.96329  0.04086  Biso   1.000  O
  C927     1.0000 0.17265  0.95378  0.26786  Biso   1.000  C
  C928     1.0000 0.22084  0.01238  0.19165  Biso   1.000  C
  C929     1.0000 0.22078  0.01236  0.19165  Biso   1.000  C
  C930     1.0000 0.22079  0.01238  0.19165  Biso   1.000  C
  C931     1.0000 0.22083  0.01236  0.19165  Biso   1.000  C
  C932     1.0000 0.14300  0.91335  0.26369  Biso   1.000  C
  C933     1.0000 0.16850  0.97548  0.34095  Biso   1.000  C
  C934     1.0000 0.16847  0.97548  0.34095  Biso   1.000  C
  C935     1.0000 0.25049  0.03312  0.11291  Biso   1.000  C
  C936     1.0000 0.21376  0.03380  0.26154  Biso   1.000  C
  C937     1.0000 0.12196  0.89840  0.17662  Biso   1.000  C
  C938     1.0000 0.13087  0.89109  0.34936  Biso   1.000  C
  C939     1.0000 0.12193  0.89837  0.17662  Biso   1.000  C
  C940     1.0000 0.13085  0.89109  0.34936  Biso   1.000  C
  C941     1.0000 0.12194  0.89840  0.17662  Biso   1.000  C
  C942     1.0000 0.18858  0.01427  0.33842  Biso   1.000  C
  H919     1.0000 0.15128  0.96323  0.39402  Biso   1.000  H
  H920     1.0000 0.15126  0.96323  0.39402  Biso   1.000  H
  C943     1.0000 0.18859  0.01430  0.33842  Biso   1.000  C
  O116     1.0000 0.24486  0.04556  0.03788  Biso   1.000  O
  O117     1.0000 0.28324  0.03690  0.14223  Biso   1.000  O
  O118     1.0000 0.24488  0.04556  0.03788  Biso   1.000  O
  C944     1.0000 0.22779  0.07496  0.25514  Biso   1.000  C
  C945     1.0000 0.22784  0.07496  0.25514  Biso   1.000  C
  C946     1.0000 0.08831  0.86496  0.17825  Biso   1.000  C
  H921     1.0000 0.13108  0.91154  0.11551  Biso   1.000  H
  H922     1.0000 0.13107  0.91152  0.11551  Biso   1.000  H
  H923     1.0000 0.14608  0.89913  0.40756  Biso   1.000  H
  C947     1.0000 0.09681  0.85737  0.35033  Biso   1.000  C
  H924     1.0000 0.14606  0.89913  0.40756  Biso   1.000  H
  C948     1.0000 0.09679  0.85737  0.35033  Biso   1.000  C
  H925     1.0000 0.18524  0.02813  0.39029  Biso   1.000  H
  H926     1.0000 0.18527  0.02813  0.39029  Biso   1.000  H
  C949     1.0000 0.31714  0.05538  0.07673  Biso   1.000  C
  C950     1.0000 0.31711  0.05538  0.07673  Biso   1.000  C
  C951     1.0000 0.23984  0.09734  0.34095  Biso   1.000  C
  C952     1.0000 0.22189  0.09057  0.16940  Biso   1.000  C
  C953     1.0000 0.22186  0.09057  0.16940  Biso   1.000  C
  C954     1.0000 0.07385  0.84467  0.26600  Biso   1.000  C
  H927     1.0000 0.07458  0.85542  0.11804  Biso   1.000  H
  C955     1.0000 0.07383  0.84465  0.26600  Biso   1.000  C
  H928     1.0000 0.07455  0.85542  0.11804  Biso   1.000  H
  H929     1.0000 0.08898  0.84264  0.40942  Biso   1.000  H
  H930     1.0000 0.08896  0.84264  0.40942  Biso   1.000  H
  C956     1.0000 0.34688  0.05324  0.14015  Biso   1.000  C
  C957     1.0000 0.30948  0.03191  0.98363  Biso   1.000  C
  C958     1.0000 0.30953  0.03191  0.98363  Biso   1.000  C
  C959     1.0000 0.32796  0.09584  0.05723  Biso   1.000  C
  C960     1.0000 0.32790  0.09582  0.05723  Biso   1.000  C
  C961     1.0000 0.32794  0.09582  0.05723  Biso   1.000  C
  C962     1.0000 0.24236  0.13204  0.34370  Biso   1.000  C
  H931     1.0000 0.24636  0.08834  0.39841  Biso   1.000  H
  H932     1.0000 0.21624  0.07722  0.10814  Biso   1.000  H
  C963     1.0000 0.22413  0.12550  0.17327  Biso   1.000  C
  H933     1.0000 0.21629  0.07722  0.10814  Biso   1.000  H
  C964     1.0000 0.03337  0.81561  0.27233  Biso   1.000  C
  C965     1.0000 0.03334  0.81561  0.27233  Biso   1.000  C
  H934     1.0000 0.33827  0.02683  0.15645  Biso   1.000  H
  H935     1.0000 0.37067  0.06393  0.10301  Biso   1.000  H
  H936     1.0000 0.35075  0.06763  0.20162  Biso   1.000  H
  H937     1.0000 0.35080  0.06763  0.20162  Biso   1.000  H
  H938     1.0000 0.29027  0.03332  0.94344  Biso   1.000  H
  H939     1.0000 0.33288  0.04153  0.94492  Biso   1.000  H
  H940     1.0000 0.33284  0.04153  0.94492  Biso   1.000  H
  H941     1.0000 0.30044  0.00553  0.00216  Biso   1.000  H
  H942     1.0000 0.30049  0.00553  0.00216  Biso   1.000  H
  H943     1.0000 0.30904  0.09652  0.01384  Biso   1.000  H
  H944     1.0000 0.32905  0.10834  0.12042  Biso   1.000  H
  H945     1.0000 0.35268  0.10894  0.02471  Biso   1.000  H
  H946     1.0000 0.32904  0.10832  0.12042  Biso   1.000  H
  H947     1.0000 0.35266  0.10894  0.02471  Biso   1.000  H
  H948     1.0000 0.30907  0.09652  0.01384  Biso   1.000  H
  H949     1.0000 0.32909  0.10832  0.12042  Biso   1.000  H
  C966     1.0000 0.23192  0.14593  0.26124  Biso   1.000  C
  C967     1.0000 0.23195  0.14593  0.26124  Biso   1.000  C
  H950     1.0000 0.25125  0.14694  0.40235  Biso   1.000  H
  H951     1.0000 0.25130  0.14694  0.40235  Biso   1.000  H
  H952     1.0000 0.22019  0.13574  0.11402  Biso   1.000  H
  H953     1.0000 0.22016  0.13574  0.11402  Biso   1.000  H
  C968     1.0000 0.01293  0.81355  0.35762  Biso   1.000  C
  C969     1.0000 0.01307  0.79482  0.18964  Biso   1.000  C
  C970     1.0000 0.01305  0.79482  0.18964  Biso   1.000  C
  C971     1.0000 0.22264  0.17637  0.26965  Biso   1.000  C
  C972     1.0000 0.97397  0.79476  0.35606  Biso   1.000  C
  C973     1.0000 0.97400  0.79476  0.35606  Biso   1.000  C
  H954     1.0000 0.02598  0.82523  0.41746  Biso   1.000  H
  H955     1.0000 0.02596  0.82523  0.41746  Biso   1.000  H
  C974     1.0000 0.97420  0.77586  0.18830  Biso   1.000  C
  C975     1.0000 0.97422  0.77586  0.18830  Biso   1.000  C
  H956     1.0000 0.02639  0.79375  0.13293  Biso   1.000  H
  H957     1.0000 0.02635  0.79372  0.13293  Biso   1.000  H
  C976     1.0000 0.22415  0.19835  0.18830  Biso   1.000  C
  C977     1.0000 0.20525  0.17922  0.35606  Biso   1.000  C
  C978     1.0000 0.20520  0.17922  0.35606  Biso   1.000  C
  C979     1.0000 0.95371  0.77735  0.26965  Biso   1.000  C
  H958     1.0000 0.96065  0.79363  0.41500  Biso   1.000  H
  C980     1.0000 0.95373  0.77735  0.26965  Biso   1.000  C
  H959     1.0000 0.96068  0.79363  0.41500  Biso   1.000  H
  H960     1.0000 0.96114  0.76152  0.13136  Biso   1.000  H
  H961     1.0000 0.96117  0.76152  0.13136  Biso   1.000  H
  H962     1.0000 0.23844  0.19962  0.13136  Biso   1.000  H
  C981     1.0000 0.20516  0.21824  0.18964  Biso   1.000  C
  H963     1.0000 0.23849  0.19962  0.13136  Biso   1.000  H
  C982     1.0000 0.20521  0.21824  0.18964  Biso   1.000  C
  C983     1.0000 0.18641  0.19936  0.35762  Biso   1.000  C
  H964     1.0000 0.20639  0.16703  0.41500  Biso   1.000  H
  H965     1.0000 0.20636  0.16703  0.41500  Biso   1.000  H
  C984     1.0000 0.18644  0.19936  0.35762  Biso   1.000  C
  C985     1.0000 0.91397  0.76804  0.26124  Biso   1.000  C
  C986     1.0000 0.18438  0.21773  0.27233  Biso   1.000  C
  H966     1.0000 0.20625  0.23263  0.13293  Biso   1.000  H
  H967     1.0000 0.20630  0.23263  0.13293  Biso   1.000  H
  H968     1.0000 0.17475  0.20072  0.41746  Biso   1.000  H
  H969     1.0000 0.17473  0.20072  0.41746  Biso   1.000  H
  C987     1.0000 0.90137  0.77589  0.17327  Biso   1.000  C
  C988     1.0000 0.88969  0.75766  0.34370  Biso   1.000  C
  C989     1.0000 0.90138  0.77586  0.17327  Biso   1.000  C
  C990     1.0000 0.90139  0.77589  0.17327  Biso   1.000  C
  C991     1.0000 0.88972  0.75766  0.34370  Biso   1.000  C
  C992     1.0000 0.15535  0.22916  0.26600  Biso   1.000  C
  C993     1.0000 0.15530  0.22916  0.26600  Biso   1.000  C
  C994     1.0000 0.86869  0.77811  0.16940  Biso   1.000  C
  H970     1.0000 0.91556  0.77984  0.11402  Biso   1.000  H
  C995     1.0000 0.86868  0.77809  0.16940  Biso   1.000  C
  H971     1.0000 0.91559  0.77984  0.11402  Biso   1.000  H
  H972     1.0000 0.89567  0.74874  0.40235  Biso   1.000  H
  C996     1.0000 0.85749  0.76017  0.34095  Biso   1.000  C
  C997     1.0000 0.85752  0.76017  0.34095  Biso   1.000  C
  C998     1.0000 0.13505  0.22335  0.17825  Biso   1.000  C
  C999     1.0000 0.14265  0.23943  0.35033  Biso   1.000  C
  C1000    1.0000 0.14267  0.23943  0.35033  Biso   1.000  C
  C1001    1.0000 0.84716  0.77219  0.25514  Biso   1.000  C
  H973     1.0000 0.86094  0.78373  0.10814  Biso   1.000  H
  H974     1.0000 0.86097  0.78373  0.10814  Biso   1.000  H
  H975     1.0000 0.84196  0.75362  0.39841  Biso   1.000  H
  H976     1.0000 0.84198  0.75362  0.39841  Biso   1.000  H
  C1002    1.0000 0.10162  0.22355  0.17662  Biso   1.000  C
  H977     1.0000 0.14457  0.21914  0.11804  Biso   1.000  H
  H978     1.0000 0.14456  0.21912  0.11804  Biso   1.000  H
  H979     1.0000 0.14459  0.21912  0.11804  Biso   1.000  H
  C1003    1.0000 0.10890  0.23977  0.34936  Biso   1.000  C
  H980     1.0000 0.15739  0.24634  0.40942  Biso   1.000  H
  H981     1.0000 0.15733  0.24631  0.40942  Biso   1.000  H
  H982     1.0000 0.15734  0.24634  0.40942  Biso   1.000  H
  C1004    1.0000 0.10895  0.23977  0.34936  Biso   1.000  C
  H983     1.0000 0.15738  0.24631  0.40942  Biso   1.000  H
  C1005    1.0000 0.82002  0.78624  0.26154  Biso   1.000  C
  C1006    1.0000 0.82005  0.78624  0.26154  Biso   1.000  C
  H984     1.0000 0.08847  0.21954  0.11551  Biso   1.000  H
  C1007    1.0000 0.08663  0.22964  0.26369  Biso   1.000  C
  H985     1.0000 0.10088  0.24694  0.40756  Biso   1.000  H
  C1008    1.0000 0.79155  0.77919  0.19165  Biso   1.000  C
  C1009    1.0000 0.82569  0.81141  0.33842  Biso   1.000  C
  C1010    1.0000 0.79157  0.77919  0.19165  Biso   1.000  C
  C1011    1.0000 0.82572  0.81141  0.33842  Biso   1.000  C
  C1012    1.0000 0.04623  0.21886  0.26786  Biso   1.000  C
  C1013    1.0000 0.04621  0.21886  0.26786  Biso   1.000  C
  C1014    1.0000 0.77175  0.79897  0.19552  Biso   1.000  C
  C1015    1.0000 0.78262  0.74950  0.11291  Biso   1.000  C
  C1016    1.0000 0.78264  0.74950  0.11291  Biso   1.000  C
  H986     1.0000 0.84285  0.81474  0.39029  Biso   1.000  H
  C1017    1.0000 0.80699  0.83153  0.34095  Biso   1.000  C
  H987     1.0000 0.84287  0.81474  0.39029  Biso   1.000  H
  C1018    1.0000 0.80700  0.83150  0.34095  Biso   1.000  C
  C1019    1.0000 0.80702  0.83153  0.34095  Biso   1.000  C
  C1020    1.0000 0.80698  0.83150  0.34095  Biso   1.000  C
  C1021    1.0000 0.02719  0.22823  0.19552  Biso   1.000  C
  C1022    1.0000 0.02450  0.19299  0.34095  Biso   1.000  C
  C1023    1.0000 0.02724  0.22823  0.19552  Biso   1.000  C
  C1024    1.0000 0.78113  0.82735  0.26786  Biso   1.000  C
  C1025    1.0000 0.74042  0.78884  0.12213  Biso   1.000  C
  C1026    1.0000 0.78115  0.82735  0.26786  Biso   1.000  C
  C1027    1.0000 0.74044  0.78884  0.12213  Biso   1.000  C
  O119     1.0000 0.80069  0.75515  0.03788  Biso   1.000  O
  O120     1.0000 0.75363  0.71675  0.14223  Biso   1.000  O
  O121     1.0000 0.80071  0.75515  0.03788  Biso   1.000  O
  O122     1.0000 0.75366  0.71675  0.14223  Biso   1.000  O
  H988     1.0000 0.81196  0.84874  0.39402  Biso   1.000  H
  H989     1.0000 0.81198  0.84874  0.39402  Biso   1.000  H
  C1028    1.0000 0.98761  0.20845  0.19165  Biso   1.000  C
  C1029    1.0000 0.04841  0.25958  0.12213  Biso   1.000  C
  C1030    1.0000 0.98571  0.17431  0.33842  Biso   1.000  C
  H990     1.0000 0.03677  0.18802  0.39402  Biso   1.000  H
  C1031    1.0000 0.77035  0.85700  0.26369  Biso   1.000  C
  C1032    1.0000 0.77037  0.85700  0.26369  Biso   1.000  C
  O123     1.0000 0.73960  0.77631  0.04086  Biso   1.000  O
  O124     1.0000 0.71408  0.79549  0.16069  Biso   1.000  O
  O125     1.0000 0.73963  0.77631  0.04086  Biso   1.000  O
  C1033    1.0000 0.73825  0.68286  0.07673  Biso   1.000  C
  C1034    1.0000 0.73828  0.68286  0.07673  Biso   1.000  C
  C1035    1.0000 0.96623  0.17995  0.26154  Biso   1.000  C
  C1036    1.0000 0.96685  0.21737  0.11291  Biso   1.000  C
  C1037    1.0000 0.96618  0.17995  0.26154  Biso   1.000  C
  O126     1.0000 0.03672  0.26039  0.04086  Biso   1.000  O
  O127     1.0000 0.08139  0.28590  0.16069  Biso   1.000  O
  O128     1.0000 0.03667  0.26039  0.04086  Biso   1.000  O
  O129     1.0000 0.08144  0.28590  0.16069  Biso   1.000  O
  H991     1.0000 0.97187  0.15713  0.39029  Biso   1.000  H
  C1038    1.0000 0.77642  0.87805  0.17662  Biso   1.000  C
  C1039    1.0000 0.76023  0.86916  0.34936  Biso   1.000  C
  C1040    1.0000 0.77645  0.87805  0.17662  Biso   1.000  C
  C1041    1.0000 0.76024  0.86914  0.34936  Biso   1.000  C
  C1042    1.0000 0.76025  0.86916  0.34936  Biso   1.000  C
  C1043    1.0000 0.68169  0.79101  0.10070  Biso   1.000  C
  C1044    1.0000 0.72241  0.69051  0.98363  Biso   1.000  C
  C1045    1.0000 0.76789  0.67205  0.05723  Biso   1.000  C
  C1046    1.0000 0.70635  0.65312  0.14015  Biso   1.000  C
  C1047    1.0000 0.70638  0.65312  0.14015  Biso   1.000  C
  C1048    1.0000 0.92501  0.15284  0.25514  Biso   1.000  C
  O130     1.0000 0.95444  0.19928  0.03788  Biso   1.000  O
  O131     1.0000 0.96309  0.24634  0.14223  Biso   1.000  O
  O132     1.0000 0.96306  0.24634  0.14223  Biso   1.000  O
  C1049    1.0000 0.10931  0.31829  0.10070  Biso   1.000  C
  C1050    1.0000 0.77662  0.91168  0.17825  Biso   1.000  C
  H992     1.0000 0.78047  0.86894  0.11551  Biso   1.000  H
  C1051    1.0000 0.77665  0.91168  0.17825  Biso   1.000  C
  H993     1.0000 0.75305  0.85393  0.40756  Biso   1.000  H
  C1052    1.0000 0.76057  0.90322  0.35033  Biso   1.000  C
  H994     1.0000 0.75307  0.85393  0.40756  Biso   1.000  H
  C1053    1.0000 0.76059  0.90322  0.35033  Biso   1.000  C
  C1054    1.0000 0.66444  0.80782  0.16865  Biso   1.000  C
  C1055    1.0000 0.69511  0.81375  0.00491  Biso   1.000  C
  C1056    1.0000 0.65527  0.74936  0.08247  Biso   1.000  C
  C1057    1.0000 0.66446  0.80782  0.16865  Biso   1.000  C
  C1058    1.0000 0.69513  0.81375  0.00491  Biso   1.000  C
  C1059    1.0000 0.65529  0.74936  0.08247  Biso   1.000  C
  H995     1.0000 0.74306  0.70972  0.94344  Biso   1.000  H
  H996     1.0000 0.70865  0.66714  0.94492  Biso   1.000  H
  H997     1.0000 0.70866  0.66712  0.94492  Biso   1.000  H
  H998     1.0000 0.70867  0.66714  0.94492  Biso   1.000  H
  H999     1.0000 0.70505  0.69954  0.00216  Biso   1.000  H
  H1000    1.0000 0.70508  0.69954  0.00216  Biso   1.000  H
  H1001    1.0000 0.78744  0.69093  0.01384  Biso   1.000  H
  H1002    1.0000 0.77925  0.67093  0.12042  Biso   1.000  H
  H1003    1.0000 0.75627  0.64734  0.02471  Biso   1.000  H
  H1004    1.0000 0.78747  0.69093  0.01384  Biso   1.000  H
  H1005    1.0000 0.77927  0.67093  0.12042  Biso   1.000  H
  H1006    1.0000 0.68854  0.66173  0.15645  Biso   1.000  H
  H1007    1.0000 0.69326  0.62934  0.10301  Biso   1.000  H
  H1008    1.0000 0.71684  0.64923  0.20162  Biso   1.000  H
  H1009    1.0000 0.68857  0.66173  0.15645  Biso   1.000  H
  H1010    1.0000 0.71687  0.64923  0.20162  Biso   1.000  H
  H1011    1.0000 0.69329  0.62934  0.10301  Biso   1.000  H
  C1060    1.0000 0.90941  0.13131  0.16940  Biso   1.000  C
  C1061    1.0000 0.90268  0.14248  0.34095  Biso   1.000  C
  C1062    1.0000 0.90263  0.14248  0.34095  Biso   1.000  C
  C1063    1.0000 0.90938  0.13131  0.16940  Biso   1.000  C
  C1064    1.0000 0.94460  0.26172  0.07673  Biso   1.000  C
  C1065    1.0000 0.09407  0.34470  0.08247  Biso   1.000  C
  C1066    1.0000 0.11862  0.30486  0.00491  Biso   1.000  C
  C1067    1.0000 0.14339  0.33553  0.16865  Biso   1.000  C
  C1068    1.0000 0.14334  0.33553  0.16865  Biso   1.000  C
  C1069    1.0000 0.77081  0.92616  0.26600  Biso   1.000  C
  H1012    1.0000 0.78086  0.92543  0.11804  Biso   1.000  H
  C1070    1.0000 0.77084  0.92616  0.26600  Biso   1.000  C
  H1013    1.0000 0.78088  0.92543  0.11804  Biso   1.000  H
  H1014    1.0000 0.75365  0.91104  0.40942  Biso   1.000  H
  H1015    1.0000 0.75367  0.91104  0.40942  Biso   1.000  H
  H1016    1.0000 0.68326  0.83404  0.18391  Biso   1.000  H
  H1017    1.0000 0.64275  0.80712  0.13553  Biso   1.000  H
  H1018    1.0000 0.65617  0.79324  0.23050  Biso   1.000  H
  H1019    1.0000 0.68329  0.83404  0.18391  Biso   1.000  H
  H1020    1.0000 0.64278  0.80712  0.13553  Biso   1.000  H
  H1021    1.0000 0.70506  0.80193  0.95981  Biso   1.000  H
  H1022    1.0000 0.67395  0.81443  0.97306  Biso   1.000  H
  H1023    1.0000 0.67397  0.81443  0.97306  Biso   1.000  H
  H1024    1.0000 0.70508  0.80193  0.95981  Biso   1.000  H
  H1025    1.0000 0.71507  0.83954  0.02024  Biso   1.000  H
  H1026    1.0000 0.64585  0.73644  0.14625  Biso   1.000  H
  H1027    1.0000 0.63406  0.74603  0.04146  Biso   1.000  H
  H1028    1.0000 0.66896  0.73873  0.04786  Biso   1.000  H
  H1029    1.0000 0.64587  0.73644  0.14625  Biso   1.000  H
  H1030    1.0000 0.63408  0.74603  0.04146  Biso   1.000  H
  H1031    1.0000 0.92278  0.13904  0.10814  Biso   1.000  H
  C1071    1.0000 0.87451  0.09861  0.17327  Biso   1.000  C
  C1072    1.0000 0.87448  0.09861  0.17327  Biso   1.000  C
  C1073    1.0000 0.86796  0.11029  0.34370  Biso   1.000  C
  H1032    1.0000 0.91167  0.15803  0.39841  Biso   1.000  H
  C1074    1.0000 0.86791  0.11029  0.34370  Biso   1.000  C
  C1075    1.0000 0.90416  0.23209  0.05723  Biso   1.000  C
  C1076    1.0000 0.96810  0.27758  0.98363  Biso   1.000  C
  C1077    1.0000 0.94678  0.29363  0.14015  Biso   1.000  C
  C1078    1.0000 0.94673  0.29363  0.14015  Biso   1.000  C
  H1033    1.0000 0.06976  0.33102  0.04786  Biso   1.000  H
  H1034    1.0000 0.09055  0.35412  0.14625  Biso   1.000  H
  H1035    1.0000 0.11194  0.36592  0.04146  Biso   1.000  H
  H1036    1.0000 0.11199  0.36592  0.04146  Biso   1.000  H
  H1037    1.0000 0.09685  0.29493  0.95981  Biso   1.000  H
  H1038    1.0000 0.14045  0.32602  0.97306  Biso   1.000  H
  H1039    1.0000 0.09690  0.29493  0.95981  Biso   1.000  H
  H1040    1.0000 0.14049  0.32602  0.97306  Biso   1.000  H
  H1041    1.0000 0.12445  0.28494  0.02024  Biso   1.000  H
  H1042    1.0000 0.12444  0.28491  0.02024  Biso   1.000  H
  H1043    1.0000 0.12448  0.28491  0.02024  Biso   1.000  H
  H1044    1.0000 0.15078  0.31674  0.18391  Biso   1.000  H
  H1045    1.0000 0.16436  0.35723  0.13553  Biso   1.000  H
  H1046    1.0000 0.13706  0.34383  0.23050  Biso   1.000  H
  H1047    1.0000 0.16433  0.35723  0.13553  Biso   1.000  H
  H1048    1.0000 0.13703  0.34383  0.23050  Biso   1.000  H
  C1079    1.0000 0.78226  0.96665  0.27233  Biso   1.000  C
  C1080    1.0000 0.85407  0.08603  0.26124  Biso   1.000  C
  H1049    1.0000 0.86426  0.08442  0.11402  Biso   1.000  H
  H1050    1.0000 0.85308  0.10434  0.40235  Biso   1.000  H
  H1051    1.0000 0.85306  0.10434  0.40235  Biso   1.000  H
  H1052    1.0000 0.89166  0.22072  0.12042  Biso   1.000  H
  H1053    1.0000 0.90347  0.21254  0.01384  Biso   1.000  H
  H1054    1.0000 0.89108  0.24372  0.02471  Biso   1.000  H
  H1055    1.0000 0.89103  0.24372  0.02471  Biso   1.000  H
  H1056    1.0000 0.99447  0.29493  0.00216  Biso   1.000  H
  H1057    1.0000 0.96667  0.25692  0.94344  Biso   1.000  H
  H1058    1.0000 0.95848  0.29132  0.94492  Biso   1.000  H
  H1059    1.0000 0.95843  0.29132  0.94492  Biso   1.000  H
  H1060    1.0000 0.97318  0.31144  0.15645  Biso   1.000  H
  H1061    1.0000 0.93607  0.30672  0.10301  Biso   1.000  H
  H1062    1.0000 0.93239  0.28314  0.20162  Biso   1.000  H
  H1063    1.0000 0.93237  0.28314  0.20162  Biso   1.000  H
  H1064    1.0000 0.93602  0.30672  0.10301  Biso   1.000  H
  C1081    1.0000 0.78175  0.98693  0.18964  Biso   1.000  C
  C1082    1.0000 0.80060  0.98705  0.35762  Biso   1.000  C
  C1083    1.0000 0.78177  0.98693  0.18964  Biso   1.000  C
  C1084    1.0000 0.80062  0.98705  0.35762  Biso   1.000  C
  C1085    1.0000 0.82361  0.04627  0.26965  Biso   1.000  C
  C1086    1.0000 0.80164  0.02579  0.18830  Biso   1.000  C
  H1065    1.0000 0.76736  0.97364  0.13293  Biso   1.000  H
  H1066    1.0000 0.76737  0.97362  0.13293  Biso   1.000  H
  H1067    1.0000 0.76738  0.97364  0.13293  Biso   1.000  H
  H1068    1.0000 0.76735  0.97362  0.13293  Biso   1.000  H
  H1069    1.0000 0.79925  0.97404  0.41746  Biso   1.000  H
  H1070    1.0000 0.79927  0.97404  0.41746  Biso   1.000  H
  C1087    1.0000 0.82079  0.02601  0.35606  Biso   1.000  C
  C1088    1.0000 0.82074  0.02601  0.35606  Biso   1.000  C
  H1071    1.0000 0.80036  0.03882  0.13136  Biso   1.000  H
  H1072    1.0000 0.83295  0.03933  0.41500  Biso   1.000  H
  C1089    1.0000 0.80781  0.14336  0.83135  Biso   1.000  C
  C1090    1.0000 0.79104  0.10933  0.89923  Biso   1.000  C
  C1091    1.0000 0.79101  0.10933  0.89923  Biso   1.000  C
  H1073    1.0000 0.83403  0.15075  0.81609  Biso   1.000  H
  H1074    1.0000 0.80714  0.16435  0.86447  Biso   1.000  H
  H1075    1.0000 0.79323  0.13707  0.76943  Biso   1.000  H
  H1076    1.0000 0.83401  0.15075  0.81609  Biso   1.000  H
  H1077    1.0000 0.80711  0.16435  0.86447  Biso   1.000  H
  C1092    1.0000 0.74936  0.09410  0.91753  Biso   1.000  C
  C1093    1.0000 0.80785  0.14339  0.83135  Biso   1.000  C
  C1094    1.0000 0.81376  0.11862  0.99509  Biso   1.000  C
  C1095    1.0000 0.74938  0.09410  0.91753  Biso   1.000  C
  O133     1.0000 0.79551  0.08143  0.83931  Biso   1.000  O
  C1096    1.0000 0.81374  0.11862  0.99509  Biso   1.000  C
  O134     1.0000 0.79550  0.08140  0.83931  Biso   1.000  O
  O135     1.0000 0.79547  0.08140  0.83931  Biso   1.000  O
  H1078    1.0000 0.73643  0.09057  0.85375  Biso   1.000  H
  H1079    1.0000 0.74602  0.11196  0.95854  Biso   1.000  H
  H1080    1.0000 0.73874  0.06978  0.95214  Biso   1.000  H
  H1081    1.0000 0.83953  0.12446  0.97976  Biso   1.000  H
  H1082    1.0000 0.83950  0.12446  0.97976  Biso   1.000  H
  H1083    1.0000 0.80193  0.09686  0.04012  Biso   1.000  H
  H1084    1.0000 0.81442  0.14045  0.02694  Biso   1.000  H
  H1085    1.0000 0.80191  0.09686  0.04012  Biso   1.000  H
  C1097    1.0000 0.78885  0.04842  0.87787  Biso   1.000  C
  C1098    1.0000 0.78883  0.04842  0.87787  Biso   1.000  C
  C1099    1.0000 0.79898  0.02723  0.80448  Biso   1.000  C
  O136     1.0000 0.77630  0.03671  0.95914  Biso   1.000  O
  C1100    1.0000 0.82736  0.04622  0.73214  Biso   1.000  C
  C1101    1.0000 0.82734  0.04622  0.73214  Biso   1.000  C
  C1102    1.0000 0.77917  0.98761  0.80835  Biso   1.000  C
  C1103    1.0000 0.77919  0.98761  0.80835  Biso   1.000  C
  C1104    1.0000 0.85701  0.08665  0.73623  Biso   1.000  C
  C1105    1.0000 0.83151  0.02452  0.65905  Biso   1.000  C
  C1106    1.0000 0.85698  0.08665  0.73623  Biso   1.000  C
  C1107    1.0000 0.83149  0.02452  0.65905  Biso   1.000  C
  C1108    1.0000 0.78623  0.96620  0.73846  Biso   1.000  C
  C1109    1.0000 0.74950  0.96688  0.88702  Biso   1.000  C
  C1110    1.0000 0.78628  0.96620  0.73846  Biso   1.000  C
  C1111    1.0000 0.74952  0.96688  0.88702  Biso   1.000  C
  C1112    1.0000 0.87805  0.10160  0.82338  Biso   1.000  C
  C1113    1.0000 0.86914  0.10891  0.65064  Biso   1.000  C
  H1086    1.0000 0.84873  0.03676  0.60598  Biso   1.000  H
  C1114    1.0000 0.81137  0.98569  0.66158  Biso   1.000  C
  C1115    1.0000 0.81139  0.98569  0.66158  Biso   1.000  C
  C1116    1.0000 0.77219  0.92503  0.74486  Biso   1.000  C
  O137     1.0000 0.75515  0.95443  0.96204  Biso   1.000  O
  O138     1.0000 0.71672  0.96309  0.85777  Biso   1.000  O
  O139     1.0000 0.71675  0.96309  0.85777  Biso   1.000  O
  C1117    1.0000 0.91170  0.13504  0.82175  Biso   1.000  C
  H1087    1.0000 0.86893  0.08845  0.88449  Biso   1.000  H
  C1118    1.0000 0.91167  0.13504  0.82175  Biso   1.000  C
  H1088    1.0000 0.86891  0.08845  0.88449  Biso   1.000  H
  H1089    1.0000 0.85393  0.10087  0.59244  Biso   1.000  H
  C1119    1.0000 0.90320  0.14263  0.64967  Biso   1.000  C
  H1090    1.0000 0.81474  0.97187  0.60963  Biso   1.000  H
  C1120    1.0000 0.77810  0.90943  0.83053  Biso   1.000  C
  C1121    1.0000 0.76017  0.90266  0.65905  Biso   1.000  C
  C1122    1.0000 0.77808  0.90940  0.83053  Biso   1.000  C
  C1123    1.0000 0.68285  0.94461  0.92327  Biso   1.000  C
  C1124    1.0000 0.68290  0.94461  0.92327  Biso   1.000  C
  C1125    1.0000 0.92617  0.15532  0.73392  Biso   1.000  C
  H1091    1.0000 0.92543  0.14457  0.88196  Biso   1.000  H
  C1126    1.0000 0.92614  0.15532  0.73392  Biso   1.000  C
  H1092    1.0000 0.91103  0.15736  0.59058  Biso   1.000  H
  H1093    1.0000 0.91101  0.15736  0.59058  Biso   1.000  H
  H1094    1.0000 0.78372  0.92278  0.89186  Biso   1.000  H
  C1127    1.0000 0.77588  0.87450  0.82673  Biso   1.000  C
  C1128    1.0000 0.77589  0.87447  0.82673  Biso   1.000  C
  H1095    1.0000 0.78377  0.92278  0.89186  Biso   1.000  H
  C1129    1.0000 0.77591  0.87450  0.82673  Biso   1.000  C
  C1130    1.0000 0.77587  0.87447  0.82673  Biso   1.000  C
  C1131    1.0000 0.75765  0.86795  0.65622  Biso   1.000  C
  H1096    1.0000 0.75363  0.91166  0.60159  Biso   1.000  H
  H1097    1.0000 0.75365  0.91166  0.60159  Biso   1.000  H
  C1132    1.0000 0.67205  0.90415  0.94277  Biso   1.000  C
  C1133    1.0000 0.65313  0.94676  0.85985  Biso   1.000  C
  C1134    1.0000 0.65316  0.94676  0.85985  Biso   1.000  C
  C1135    1.0000 0.69051  0.96809  0.01637  Biso   1.000  C
  C1136    1.0000 0.69053  0.96809  0.01637  Biso   1.000  C
  C1137    1.0000 0.96665  0.18439  0.72767  Biso   1.000  C
  H1098    1.0000 0.77980  0.86426  0.88598  Biso   1.000  H
  C1138    1.0000 0.76806  0.85407  0.73876  Biso   1.000  C
  H1099    1.0000 0.77985  0.86426  0.88598  Biso   1.000  H
  H1100    1.0000 0.74871  0.85306  0.59765  Biso   1.000  H
  H1101    1.0000 0.69094  0.90348  0.98616  Biso   1.000  H
  H1102    1.0000 0.67091  0.89165  0.87958  Biso   1.000  H
  H1103    1.0000 0.64733  0.89106  0.97522  Biso   1.000  H
  H1104    1.0000 0.69097  0.90348  0.98616  Biso   1.000  H
  H1105    1.0000 0.67093  0.89165  0.87958  Biso   1.000  H
  H1106    1.0000 0.66175  0.97317  0.84355  Biso   1.000  H
  H1107    1.0000 0.62934  0.93606  0.89692  Biso   1.000  H
  H1108    1.0000 0.64921  0.93237  0.79838  Biso   1.000  H
  H1109    1.0000 0.64924  0.93237  0.79838  Biso   1.000  H
  H1110    1.0000 0.69952  0.99447  0.99784  Biso   1.000  H
  H1111    1.0000 0.70972  0.96668  0.05656  Biso   1.000  H
  H1112    1.0000 0.66710  0.95847  0.05508  Biso   1.000  H
  H1113    1.0000 0.70977  0.96668  0.05656  Biso   1.000  H
  H1114    1.0000 0.66713  0.95847  0.05508  Biso   1.000  H
  C1139    1.0000 0.98694  0.20518  0.81036  Biso   1.000  C
  C1140    1.0000 0.98708  0.18644  0.64238  Biso   1.000  C
  C1141    1.0000 0.98705  0.18644  0.64238  Biso   1.000  C
  C1142    1.0000 0.77735  0.82363  0.73035  Biso   1.000  C
  H1115    1.0000 0.97362  0.20625  0.86707  Biso   1.000  H
  C1143    1.0000 0.02579  0.22414  0.81163  Biso   1.000  C
  H1116    1.0000 0.97403  0.17476  0.58254  Biso   1.000  H
  C1144    1.0000 0.02601  0.20524  0.64394  Biso   1.000  C
  C1145    1.0000 0.02599  0.20524  0.64394  Biso   1.000  C
  C1146    1.0000 0.77584  0.80165  0.81163  Biso   1.000  C
  C1147    1.0000 0.79476  0.82078  0.64394  Biso   1.000  C
  C1148    1.0000 0.79479  0.82078  0.64394  Biso   1.000  C
  C1149    1.0000 0.04628  0.22264  0.73035  Biso   1.000  C
  H1117    1.0000 0.03885  0.23847  0.86864  Biso   1.000  H
  C1150    1.0000 0.04625  0.22264  0.73035  Biso   1.000  C
  H1118    1.0000 0.03882  0.23847  0.86864  Biso   1.000  H
  H1119    1.0000 0.03933  0.20636  0.58492  Biso   1.000  H
  H1120    1.0000 0.76155  0.80038  0.86864  Biso   1.000  H
  C1151    1.0000 0.79480  0.78176  0.81036  Biso   1.000  C
  H1121    1.0000 0.76157  0.80038  0.86864  Biso   1.000  H
  C1152    1.0000 0.79485  0.78176  0.81036  Biso   1.000  C
  C1153    1.0000 0.81355  0.80063  0.64238  Biso   1.000  C
  H1122    1.0000 0.79362  0.83297  0.58492  Biso   1.000  H
  H1123    1.0000 0.79365  0.83297  0.58492  Biso   1.000  H
  C1154    1.0000 0.81360  0.80063  0.64238  Biso   1.000  C
  C1155    1.0000 0.08602  0.23196  0.73876  Biso   1.000  C
  C1156    1.0000 0.08605  0.23196  0.73876  Biso   1.000  C
  H1124    1.0000 0.79371  0.76737  0.86707  Biso   1.000  H
  C1157    1.0000 0.81560  0.78226  0.72767  Biso   1.000  C
  H1125    1.0000 0.79376  0.76737  0.86707  Biso   1.000  H
  H1126    1.0000 0.82523  0.79928  0.58254  Biso   1.000  H
  C1158    1.0000 0.09862  0.22411  0.82673  Biso   1.000  C
  C1159    1.0000 0.11030  0.24234  0.65622  Biso   1.000  C
  C1160    1.0000 0.09859  0.22411  0.82673  Biso   1.000  C
  C1161    1.0000 0.11032  0.24234  0.65622  Biso   1.000  C
  C1162    1.0000 0.84466  0.77084  0.73392  Biso   1.000  C
  C1163    1.0000 0.84469  0.77084  0.73392  Biso   1.000  C
  C1164    1.0000 0.13130  0.22188  0.83053  Biso   1.000  C
  H1127    1.0000 0.08442  0.22016  0.88598  Biso   1.000  H
  C1165    1.0000 0.13132  0.22188  0.83053  Biso   1.000  C
  H1128    1.0000 0.08445  0.22016  0.88598  Biso   1.000  H
  H1129    1.0000 0.10432  0.25125  0.59765  Biso   1.000  H
  C1166    1.0000 0.14249  0.23983  0.65905  Biso   1.000  C
  H1130    1.0000 0.10434  0.25125  0.59765  Biso   1.000  H
  C1167    1.0000 0.86494  0.77665  0.82175  Biso   1.000  C
  C1168    1.0000 0.85734  0.76057  0.64967  Biso   1.000  C
  C1169    1.0000 0.85736  0.76057  0.64967  Biso   1.000  C
  C1170    1.0000 0.15283  0.22781  0.74486  Biso   1.000  C
  H1131    1.0000 0.13904  0.21627  0.89186  Biso   1.000  H
  H1132    1.0000 0.13902  0.21627  0.89186  Biso   1.000  H
  C1171    1.0000 0.15285  0.22781  0.74486  Biso   1.000  C
  H1133    1.0000 0.15803  0.24637  0.60159  Biso   1.000  H
  H1134    1.0000 0.15806  0.24637  0.60159  Biso   1.000  H
  H1135    1.0000 0.85541  0.78085  0.88196  Biso   1.000  H
  C1172    1.0000 0.89837  0.77645  0.82338  Biso   1.000  C
  C1173    1.0000 0.89842  0.77645  0.82338  Biso   1.000  C
  C1174    1.0000 0.89106  0.76023  0.65064  Biso   1.000  C
  H1136    1.0000 0.84262  0.75365  0.59058  Biso   1.000  H
  H1137    1.0000 0.84264  0.75365  0.59058  Biso   1.000  H
  C1175    1.0000 0.89109  0.76023  0.65064  Biso   1.000  C
  C1176    1.0000 0.17996  0.21376  0.73846  Biso   1.000  C
  C1177    1.0000 0.17994  0.21376  0.73846  Biso   1.000  C
  H1138    1.0000 0.91154  0.78046  0.88449  Biso   1.000  H
  C1178    1.0000 0.91335  0.77036  0.73623  Biso   1.000  C
  H1139    1.0000 0.89911  0.75306  0.59244  Biso   1.000  H
  H1140    1.0000 0.89913  0.75306  0.59244  Biso   1.000  H
  C1179    1.0000 0.20844  0.22081  0.80835  Biso   1.000  C
  C1180    1.0000 0.17429  0.18859  0.66158  Biso   1.000  C
  C1181    1.0000 0.17432  0.18859  0.66158  Biso   1.000  C
  C1182    1.0000 0.95376  0.78114  0.73214  Biso   1.000  C
  C1183    1.0000 0.95381  0.78114  0.73214  Biso   1.000  C
  C1184    1.0000 0.22824  0.20103  0.80448  Biso   1.000  C
  C1185    1.0000 0.21737  0.25049  0.88702  Biso   1.000  C
  C1186    1.0000 0.21734  0.25049  0.88702  Biso   1.000  C
  C1187    1.0000 0.22826  0.20103  0.80448  Biso   1.000  C
  H1141    1.0000 0.15714  0.18526  0.60963  Biso   1.000  H
  C1188    1.0000 0.19300  0.16847  0.65905  Biso   1.000  C
  H1142    1.0000 0.15711  0.18526  0.60963  Biso   1.000  H
  C1189    1.0000 0.97277  0.77177  0.80448  Biso   1.000  C
  C1190    1.0000 0.97547  0.80701  0.65905  Biso   1.000  C
  C1191    1.0000 0.97549  0.80701  0.65905  Biso   1.000  C
  C1192    1.0000 0.21886  0.17265  0.73214  Biso   1.000  C
  C1193    1.0000 0.25957  0.21116  0.87787  Biso   1.000  C
  C1194    1.0000 0.25959  0.21116  0.87787  Biso   1.000  C
  O140     1.0000 0.19930  0.24485  0.96204  Biso   1.000  O
  O141     1.0000 0.24635  0.28325  0.85777  Biso   1.000  O
  O142     1.0000 0.19927  0.24485  0.96204  Biso   1.000  O
  O143     1.0000 0.24633  0.28325  0.85777  Biso   1.000  O
  H1143    1.0000 0.18803  0.15126  0.60598  Biso   1.000  H
  C1195    1.0000 0.95158  0.74042  0.87787  Biso   1.000  C
  C1196    1.0000 0.01238  0.79155  0.80835  Biso   1.000  C
  H1144    1.0000 0.96321  0.81197  0.60598  Biso   1.000  H
  H1145    1.0000 0.96326  0.81197  0.60598  Biso   1.000  H
  C1197    1.0000 0.01432  0.82569  0.66158  Biso   1.000  C
  C1198    1.0000 0.01430  0.82569  0.66158  Biso   1.000  C
  C1199    1.0000 0.22964  0.14299  0.73623  Biso   1.000  C
  O144     1.0000 0.26038  0.22369  0.95914  Biso   1.000  O
  O145     1.0000 0.28590  0.20450  0.83931  Biso   1.000  O
  O146     1.0000 0.26041  0.22369  0.95914  Biso   1.000  O
  O147     1.0000 0.28593  0.20450  0.83931  Biso   1.000  O
  C1200    1.0000 0.26173  0.31714  0.92327  Biso   1.000  C
  C1201    1.0000 0.26172  0.31711  0.92327  Biso   1.000  C
  C1202    1.0000 0.26174  0.31711  0.92327  Biso   1.000  C
  O148     1.0000 0.96329  0.73960  0.95914  Biso   1.000  O
  O149     1.0000 0.91860  0.71410  0.83931  Biso   1.000  O
  O150     1.0000 0.96331  0.73960  0.95914  Biso   1.000  O
  C1203    1.0000 0.03379  0.82004  0.73846  Biso   1.000  C
  C1204    1.0000 0.03316  0.78263  0.88702  Biso   1.000  C
  C1205    1.0000 0.03311  0.78263  0.88702  Biso   1.000  C
  H1146    1.0000 0.02814  0.84287  0.60963  Biso   1.000  H
  H1147    1.0000 0.02812  0.84287  0.60963  Biso   1.000  H
  C1206    1.0000 0.22356  0.12195  0.82338  Biso   1.000  C
  C1207    1.0000 0.23976  0.13083  0.65064  Biso   1.000  C
  C1208    1.0000 0.22354  0.12195  0.82338  Biso   1.000  C
  C1209    1.0000 0.23974  0.13083  0.65064  Biso   1.000  C
  C1210    1.0000 0.31830  0.20899  0.89923  Biso   1.000  C
  C1211    1.0000 0.31829  0.20896  0.89923  Biso   1.000  C
  C1212    1.0000 0.31831  0.20896  0.89923  Biso   1.000  C
  C1213    1.0000 0.23210  0.32794  0.94277  Biso   1.000  C
  C1214    1.0000 0.29363  0.34688  0.85985  Biso   1.000  C
  C1215    1.0000 0.23212  0.32794  0.94277  Biso   1.000  C
  C1216    1.0000 0.29366  0.34688  0.85985  Biso   1.000  C
  C1217    1.0000 0.27758  0.30949  0.01637  Biso   1.000  C
  C1218    1.0000 0.27760  0.30949  0.01637  Biso   1.000  C
  C1219    1.0000 0.89068  0.68171  0.89923  Biso   1.000  C
  C1220    1.0000 0.89070  0.68171  0.89923  Biso   1.000  C
  C1221    1.0000 0.07498  0.84716  0.74486  Biso   1.000  C
  C1222    1.0000 0.07495  0.84716  0.74486  Biso   1.000  C
  O151     1.0000 0.04558  0.80072  0.96204  Biso   1.000  O
  O152     1.0000 0.03692  0.75365  0.85777  Biso   1.000  O
  O153     1.0000 0.04555  0.80072  0.96204  Biso   1.000  O
  C1223    1.0000 0.22336  0.08831  0.82175  Biso   1.000  C
  H1148    1.0000 0.21952  0.13106  0.88449  Biso   1.000  H
  C1224    1.0000 0.22334  0.08831  0.82175  Biso   1.000  C
  H1149    1.0000 0.21954  0.13106  0.88449  Biso   1.000  H
  H1150    1.0000 0.24694  0.14607  0.59244  Biso   1.000  H
  C1225    1.0000 0.23942  0.09678  0.64967  Biso   1.000  C
  H1151    1.0000 0.24691  0.14607  0.59244  Biso   1.000  H
  C1226    1.0000 0.23940  0.09678  0.64967  Biso   1.000  C
  C1227    1.0000 0.33555  0.19217  0.83135  Biso   1.000  C
  C1228    1.0000 0.30488  0.18625  0.99509  Biso   1.000  C
  C1229    1.0000 0.34472  0.25063  0.91753  Biso   1.000  C
  C1230    1.0000 0.33552  0.19217  0.83135  Biso   1.000  C
  C1231    1.0000 0.30485  0.18625  0.99509  Biso   1.000  C
  H1152    1.0000 0.21254  0.30907  0.98616  Biso   1.000  H
  H1153    1.0000 0.22074  0.32907  0.87958  Biso   1.000  H
  H1154    1.0000 0.24372  0.35266  0.97522  Biso   1.000  H
  H1155    1.0000 0.21252  0.30907  0.98616  Biso   1.000  H
  H1156    1.0000 0.24375  0.35266  0.97522  Biso   1.000  H
  H1157    1.0000 0.31144  0.33827  0.84355  Biso   1.000  H
  H1158    1.0000 0.30672  0.37066  0.89692  Biso   1.000  H
  H1159    1.0000 0.28314  0.35077  0.79838  Biso   1.000  H
  H1160    1.0000 0.31142  0.33827  0.84355  Biso   1.000  H
  H1161    1.0000 0.28312  0.35077  0.79838  Biso   1.000  H
  H1162    1.0000 0.30675  0.37066  0.89692  Biso   1.000  H
  H1163    1.0000 0.29493  0.30046  0.99784  Biso   1.000  H
  H1164    1.0000 0.29491  0.30046  0.99784  Biso   1.000  H
  H1165    1.0000 0.25693  0.29028  0.05656  Biso   1.000  H
  H1166    1.0000 0.29134  0.33285  0.05508  Biso   1.000  H
  H1167    1.0000 0.29131  0.33285  0.05508  Biso   1.000  H
  H1168    1.0000 0.25695  0.29028  0.05656  Biso   1.000  H
  C1232    1.0000 0.85660  0.66447  0.83135  Biso   1.000  C
  C1233    1.0000 0.88139  0.69514  0.99509  Biso   1.000  C
  C1234    1.0000 0.90589  0.65530  0.91753  Biso   1.000  C
  C1235    1.0000 0.85662  0.66447  0.83135  Biso   1.000  C
  C1236    1.0000 0.90594  0.65530  0.91753  Biso   1.000  C
  C1237    1.0000 0.09058  0.86869  0.83053  Biso   1.000  C
  C1238    1.0000 0.09736  0.85751  0.65905  Biso   1.000  C
  C1239    1.0000 0.05541  0.73828  0.92327  Biso   1.000  C
  C1240    1.0000 0.05538  0.73828  0.92327  Biso   1.000  C
  C1241    1.0000 0.22917  0.07384  0.73392  Biso   1.000  C
  H1169    1.0000 0.21913  0.07457  0.88196  Biso   1.000  H
  H1170    1.0000 0.21916  0.07457  0.88196  Biso   1.000  H
  H1171    1.0000 0.24634  0.08896  0.59058  Biso   1.000  H
  H1172    1.0000 0.24631  0.08896  0.59058  Biso   1.000  H
  H1173    1.0000 0.31673  0.16596  0.81609  Biso   1.000  H
  H1174    1.0000 0.35723  0.19288  0.86447  Biso   1.000  H
  H1175    1.0000 0.34382  0.20676  0.76943  Biso   1.000  H
  H1176    1.0000 0.35722  0.19285  0.86447  Biso   1.000  H
  H1177    1.0000 0.31675  0.16596  0.81609  Biso   1.000  H
  H1178    1.0000 0.35724  0.19285  0.86447  Biso   1.000  H
  H1179    1.0000 0.34384  0.20676  0.76943  Biso   1.000  H
  H1180    1.0000 0.28492  0.16046  0.97976  Biso   1.000  H
  H1181    1.0000 0.28495  0.16046  0.97976  Biso   1.000  H
  H1182    1.0000 0.29493  0.19807  0.04012  Biso   1.000  H
  H1183    1.0000 0.32604  0.18557  0.02694  Biso   1.000  H
  H1184    1.0000 0.32602  0.18557  0.02694  Biso   1.000  H
  H1185    1.0000 0.29495  0.19807  0.04012  Biso   1.000  H
  H1186    1.0000 0.35414  0.26356  0.85375  Biso   1.000  H
  H1187    1.0000 0.36593  0.25396  0.95854  Biso   1.000  H
  H1188    1.0000 0.33103  0.26127  0.95214  Biso   1.000  H
  H1189    1.0000 0.35411  0.26356  0.85375  Biso   1.000  H
  H1190    1.0000 0.33105  0.26127  0.95214  Biso   1.000  H
  H1191    1.0000 0.84923  0.68326  0.81609  Biso   1.000  H
  H1192    1.0000 0.83563  0.64277  0.86447  Biso   1.000  H
  H1193    1.0000 0.86291  0.65617  0.76943  Biso   1.000  H
  H1194    1.0000 0.86295  0.65617  0.76943  Biso   1.000  H
  H1195    1.0000 0.87551  0.71506  0.97976  Biso   1.000  H
  H1196    1.0000 0.90311  0.70507  0.04012  Biso   1.000  H
  H1197    1.0000 0.85952  0.67398  0.02694  Biso   1.000  H
  H1198    1.0000 0.90314  0.70507  0.04012  Biso   1.000  H
  H1199    1.0000 0.85957  0.67398  0.02694  Biso   1.000  H
  H1200    1.0000 0.90944  0.64587  0.85375  Biso   1.000  H
  H1201    1.0000 0.88805  0.63408  0.95854  Biso   1.000  H
  H1202    1.0000 0.93023  0.66898  0.95214  Biso   1.000  H
  H1203    1.0000 0.93021  0.66895  0.95214  Biso   1.000  H
  H1204    1.0000 0.07723  0.86096  0.89186  Biso   1.000  H
  C1242    1.0000 0.12553  0.90139  0.82673  Biso   1.000  C
  C1243    1.0000 0.13207  0.88971  0.65622  Biso   1.000  C
  H1205    1.0000 0.08836  0.84197  0.60159  Biso   1.000  H
  H1206    1.0000 0.08831  0.84197  0.60159  Biso   1.000  H
  C1244    1.0000 0.13205  0.88971  0.65622  Biso   1.000  C
  C1245    1.0000 0.09583  0.76790  0.94277  Biso   1.000  C
  C1246    1.0000 0.05323  0.70637  0.85985  Biso   1.000  C
  C1247    1.0000 0.05321  0.70637  0.85985  Biso   1.000  C
  C1248    1.0000 0.03191  0.72242  0.01637  Biso   1.000  C
  C1249    1.0000 0.03187  0.72239  0.01637  Biso   1.000  C
  C1250    1.0000 0.21773  0.03335  0.72767  Biso   1.000  C
  C1251    1.0000 0.21775  0.03335  0.72767  Biso   1.000  C
  H1207    1.0000 0.13577  0.91558  0.88598  Biso   1.000  H
  C1252    1.0000 0.14592  0.91397  0.73876  Biso   1.000  C
  H1208    1.0000 0.13574  0.91555  0.88598  Biso   1.000  H
  H1209    1.0000 0.13575  0.91558  0.88598  Biso   1.000  H
  H1210    1.0000 0.14695  0.89566  0.59765  Biso   1.000  H
  H1211    1.0000 0.09654  0.78746  0.98616  Biso   1.000  H
  H1212    1.0000 0.10835  0.77927  0.87958  Biso   1.000  H
  H1213    1.0000 0.10893  0.75628  0.97522  Biso   1.000  H
  H1214    1.0000 0.09651  0.78746  0.98616  Biso   1.000  H
  H1215    1.0000 0.02686  0.68856  0.84355  Biso   1.000  H
  H1216    1.0000 0.06396  0.69327  0.89692  Biso   1.000  H
  H1217    1.0000 0.06762  0.71686  0.79838  Biso   1.000  H
  H1218    1.0000 0.02681  0.68856  0.84355  Biso   1.000  H
  H1219    1.0000 0.06394  0.69327  0.89692  Biso   1.000  H
  H1220    1.0000 0.00555  0.70507  0.99784  Biso   1.000  H
  H1221    1.0000 0.03335  0.74307  0.05656  Biso   1.000  H
  H1222    1.0000 0.04156  0.70868  0.05508  Biso   1.000  H
  C1253    1.0000 0.21824  0.01306  0.81036  Biso   1.000  C
  C1254    1.0000 0.19939  0.01295  0.64238  Biso   1.000  C
  C1255    1.0000 0.19935  0.01292  0.64238  Biso   1.000  C
  C1256    1.0000 0.19936  0.01295  0.64238  Biso   1.000  C
  C1257    1.0000 0.19938  0.01292  0.64238  Biso   1.000  C
  C1258    1.0000 0.17637  0.95373  0.73035  Biso   1.000  C
  C1259    1.0000 0.19837  0.97421  0.81163  Biso   1.000  C
  H1223    1.0000 0.23263  0.02635  0.86707  Biso   1.000  H
  C1260    1.0000 0.17922  0.97399  0.64394  Biso   1.000  C
  H1224    1.0000 0.20074  0.02596  0.58254  Biso   1.000  H
  H1225    1.0000 0.20071  0.02596  0.58254  Biso   1.000  H
  H1226    1.0000 0.19967  0.96118  0.86864  Biso   1.000  H
  H1227    1.0000 0.19962  0.96118  0.86864  Biso   1.000  H
  H1228    1.0000 0.16704  0.96067  0.58492  Biso   1.000  H
  C1261    1.0000 0.80781  0.14336  0.83135  Biso   1.000  C
  C1262    1.0000 0.79101  0.10933  0.89923  Biso   1.000  C
  C1263    1.0000 0.79104  0.10933  0.89923  Biso   1.000  C
  H1229    1.0000 0.79323  0.13707  0.76943  Biso   1.000  H
  H1230    1.0000 0.83403  0.15075  0.81609  Biso   1.000  H
  H1231    1.0000 0.80711  0.16435  0.86447  Biso   1.000  H
  H1232    1.0000 0.83401  0.15075  0.81609  Biso   1.000  H
  H1233    1.0000 0.80714  0.16435  0.86447  Biso   1.000  H
  C1264    1.0000 0.74938  0.09410  0.91753  Biso   1.000  C
  C1265    1.0000 0.80785  0.14339  0.83135  Biso   1.000  C
  C1266    1.0000 0.81374  0.11862  0.99509  Biso   1.000  C
  O154     1.0000 0.79551  0.08143  0.83931  Biso   1.000  O
  C1267    1.0000 0.81376  0.11862  0.99509  Biso   1.000  C
  O155     1.0000 0.79550  0.08140  0.83931  Biso   1.000  O
  C1268    1.0000 0.74936  0.09410  0.91753  Biso   1.000  C
  O156     1.0000 0.79547  0.08140  0.83931  Biso   1.000  O
  H1234    1.0000 0.73643  0.09057  0.85375  Biso   1.000  H
  H1235    1.0000 0.74602  0.11196  0.95854  Biso   1.000  H
  H1236    1.0000 0.73874  0.06978  0.95214  Biso   1.000  H
  H1237    1.0000 0.83953  0.12446  0.97976  Biso   1.000  H
  H1238    1.0000 0.83950  0.12446  0.97976  Biso   1.000  H
  H1239    1.0000 0.80193  0.09686  0.04012  Biso   1.000  H
  H1240    1.0000 0.81442  0.14045  0.02694  Biso   1.000  H
  H1241    1.0000 0.80191  0.09686  0.04012  Biso   1.000  H
  C1269    1.0000 0.78885  0.04842  0.87787  Biso   1.000  C
  C1270    1.0000 0.78883  0.04842  0.87787  Biso   1.000  C
  C1271    1.0000 0.79898  0.02723  0.80448  Biso   1.000  C
  O157     1.0000 0.77630  0.03671  0.95914  Biso   1.000  O
  C1272    1.0000 0.82734  0.04622  0.73214  Biso   1.000  C
  C1273    1.0000 0.77917  0.98761  0.80835  Biso   1.000  C
  C1274    1.0000 0.77919  0.98761  0.80835  Biso   1.000  C
  C1275    1.0000 0.82736  0.04622  0.73214  Biso   1.000  C
  C1276    1.0000 0.83151  0.02452  0.65905  Biso   1.000  C
  C1277    1.0000 0.85701  0.08665  0.73623  Biso   1.000  C
  C1278    1.0000 0.85698  0.08665  0.73623  Biso   1.000  C
  C1279    1.0000 0.83149  0.02452  0.65905  Biso   1.000  C
  C1280    1.0000 0.78623  0.96620  0.73846  Biso   1.000  C
  C1281    1.0000 0.74950  0.96688  0.88702  Biso   1.000  C
  C1282    1.0000 0.78628  0.96620  0.73846  Biso   1.000  C
  C1283    1.0000 0.74952  0.96688  0.88702  Biso   1.000  C
  H1242    1.0000 0.84873  0.03676  0.60598  Biso   1.000  H
  C1284    1.0000 0.81137  0.98569  0.66158  Biso   1.000  C
  C1285    1.0000 0.81139  0.98569  0.66158  Biso   1.000  C
  C1286    1.0000 0.87805  0.10160  0.82338  Biso   1.000  C
  C1287    1.0000 0.86914  0.10891  0.65064  Biso   1.000  C
  C1288    1.0000 0.77219  0.92503  0.74486  Biso   1.000  C
  O158     1.0000 0.75515  0.95443  0.96204  Biso   1.000  O
  O159     1.0000 0.71672  0.96309  0.85777  Biso   1.000  O
  O160     1.0000 0.71675  0.96309  0.85777  Biso   1.000  O
  H1243    1.0000 0.81474  0.97187  0.60963  Biso   1.000  H
  C1289    1.0000 0.91167  0.13504  0.82175  Biso   1.000  C
  H1244    1.0000 0.86893  0.08845  0.88449  Biso   1.000  H
  H1245    1.0000 0.86891  0.08845  0.88449  Biso   1.000  H
  C1290    1.0000 0.91170  0.13504  0.82175  Biso   1.000  C
  H1246    1.0000 0.85393  0.10087  0.59244  Biso   1.000  H
  C1291    1.0000 0.90320  0.14263  0.64967  Biso   1.000  C
  C1292    1.0000 0.77810  0.90943  0.83053  Biso   1.000  C
  C1293    1.0000 0.76017  0.90266  0.65905  Biso   1.000  C
  C1294    1.0000 0.77808  0.90940  0.83053  Biso   1.000  C
  C1295    1.0000 0.68285  0.94461  0.92327  Biso   1.000  C
  C1296    1.0000 0.68290  0.94461  0.92327  Biso   1.000  C
  H1247    1.0000 0.92543  0.14457  0.88196  Biso   1.000  H
  C1297    1.0000 0.92614  0.15532  0.73392  Biso   1.000  C
  C1298    1.0000 0.92617  0.15532  0.73392  Biso   1.000  C
  H1248    1.0000 0.91103  0.15736  0.59058  Biso   1.000  H
  H1249    1.0000 0.91101  0.15736  0.59058  Biso   1.000  H
  H1250    1.0000 0.78372  0.92278  0.89186  Biso   1.000  H
  C1299    1.0000 0.77588  0.87450  0.82673  Biso   1.000  C
  C1300    1.0000 0.77589  0.87447  0.82673  Biso   1.000  C
  H1251    1.0000 0.78377  0.92278  0.89186  Biso   1.000  H
  C1301    1.0000 0.77591  0.87450  0.82673  Biso   1.000  C
  C1302    1.0000 0.77587  0.87447  0.82673  Biso   1.000  C
  C1303    1.0000 0.75765  0.86795  0.65622  Biso   1.000  C
  H1252    1.0000 0.75363  0.91166  0.60159  Biso   1.000  H
  H1253    1.0000 0.75365  0.91166  0.60159  Biso   1.000  H
  C1304    1.0000 0.67205  0.90415  0.94277  Biso   1.000  C
  C1305    1.0000 0.65313  0.94676  0.85985  Biso   1.000  C
  C1306    1.0000 0.65316  0.94676  0.85985  Biso   1.000  C
  C1307    1.0000 0.69051  0.96809  0.01637  Biso   1.000  C
  C1308    1.0000 0.69053  0.96809  0.01637  Biso   1.000  C
  C1309    1.0000 0.96665  0.18439  0.72767  Biso   1.000  C
  H1254    1.0000 0.77980  0.86426  0.88598  Biso   1.000  H
  C1310    1.0000 0.76806  0.85407  0.73876  Biso   1.000  C
  H1255    1.0000 0.77985  0.86426  0.88598  Biso   1.000  H
  H1256    1.0000 0.74871  0.85306  0.59765  Biso   1.000  H
  H1257    1.0000 0.64733  0.89106  0.97522  Biso   1.000  H
  H1258    1.0000 0.69094  0.90348  0.98616  Biso   1.000  H
  H1259    1.0000 0.67091  0.89165  0.87958  Biso   1.000  H
  H1260    1.0000 0.69097  0.90348  0.98616  Biso   1.000  H
  H1261    1.0000 0.67093  0.89165  0.87958  Biso   1.000  H
  H1262    1.0000 0.62934  0.93606  0.89692  Biso   1.000  H
  H1263    1.0000 0.66175  0.97317  0.84355  Biso   1.000  H
  H1264    1.0000 0.64921  0.93237  0.79838  Biso   1.000  H
  H1265    1.0000 0.64924  0.93237  0.79838  Biso   1.000  H
  H1266    1.0000 0.69952  0.99447  0.99784  Biso   1.000  H
  H1267    1.0000 0.70972  0.96668  0.05656  Biso   1.000  H
  H1268    1.0000 0.66710  0.95847  0.05508  Biso   1.000  H
  H1269    1.0000 0.70977  0.96668  0.05656  Biso   1.000  H
  H1270    1.0000 0.66713  0.95847  0.05508  Biso   1.000  H
  C1311    1.0000 0.98694  0.20518  0.81036  Biso   1.000  C
  C1312    1.0000 0.98705  0.18644  0.64238  Biso   1.000  C
  C1313    1.0000 0.98708  0.18644  0.64238  Biso   1.000  C
  C1314    1.0000 0.77735  0.82363  0.73035  Biso   1.000  C
  H1271    1.0000 0.97362  0.20625  0.86707  Biso   1.000  H
  C1315    1.0000 0.02579  0.22414  0.81163  Biso   1.000  C
  H1272    1.0000 0.97403  0.17476  0.58254  Biso   1.000  H
  C1316    1.0000 0.02601  0.20524  0.64394  Biso   1.000  C
  C1317    1.0000 0.02599  0.20524  0.64394  Biso   1.000  C
  C1318    1.0000 0.77584  0.80165  0.81163  Biso   1.000  C
  C1319    1.0000 0.79476  0.82078  0.64394  Biso   1.000  C
  C1320    1.0000 0.79479  0.82078  0.64394  Biso   1.000  C
  C1321    1.0000 0.04628  0.22264  0.73035  Biso   1.000  C
  H1273    1.0000 0.03885  0.23847  0.86864  Biso   1.000  H
  C1322    1.0000 0.04625  0.22264  0.73035  Biso   1.000  C
  H1274    1.0000 0.03882  0.23847  0.86864  Biso   1.000  H
  H1275    1.0000 0.03933  0.20636  0.58492  Biso   1.000  H
  H1276    1.0000 0.76155  0.80038  0.86864  Biso   1.000  H
  C1323    1.0000 0.79480  0.78176  0.81036  Biso   1.000  C
  H1277    1.0000 0.76157  0.80038  0.86864  Biso   1.000  H
  C1324    1.0000 0.79485  0.78176  0.81036  Biso   1.000  C
  C1325    1.0000 0.81355  0.80063  0.64238  Biso   1.000  C
  H1278    1.0000 0.79362  0.83297  0.58492  Biso   1.000  H
  H1279    1.0000 0.79365  0.83297  0.58492  Biso   1.000  H
  C1326    1.0000 0.81360  0.80063  0.64238  Biso   1.000  C
  C1327    1.0000 0.08602  0.23196  0.73876  Biso   1.000  C
  C1328    1.0000 0.08605  0.23196  0.73876  Biso   1.000  C
  C1329    1.0000 0.81560  0.78226  0.72767  Biso   1.000  C
  H1280    1.0000 0.79371  0.76737  0.86707  Biso   1.000  H
  H1281    1.0000 0.79376  0.76737  0.86707  Biso   1.000  H
  H1282    1.0000 0.82523  0.79928  0.58254  Biso   1.000  H
  C1330    1.0000 0.09862  0.22411  0.82673  Biso   1.000  C
  C1331    1.0000 0.11030  0.24234  0.65622  Biso   1.000  C
  C1332    1.0000 0.09859  0.22411  0.82673  Biso   1.000  C
  C1333    1.0000 0.11032  0.24234  0.65622  Biso   1.000  C
  C1334    1.0000 0.84466  0.77084  0.73392  Biso   1.000  C
  C1335    1.0000 0.84469  0.77084  0.73392  Biso   1.000  C
  C1336    1.0000 0.13130  0.22188  0.83053  Biso   1.000  C
  H1283    1.0000 0.08442  0.22016  0.88598  Biso   1.000  H
  C1337    1.0000 0.13132  0.22188  0.83053  Biso   1.000  C
  H1284    1.0000 0.08445  0.22016  0.88598  Biso   1.000  H
  H1285    1.0000 0.10432  0.25125  0.59765  Biso   1.000  H
  C1338    1.0000 0.14249  0.23983  0.65905  Biso   1.000  C
  H1286    1.0000 0.10434  0.25125  0.59765  Biso   1.000  H
  C1339    1.0000 0.86494  0.77665  0.82175  Biso   1.000  C
  C1340    1.0000 0.85734  0.76057  0.64967  Biso   1.000  C
  C1341    1.0000 0.85736  0.76057  0.64967  Biso   1.000  C
  C1342    1.0000 0.15283  0.22781  0.74486  Biso   1.000  C
  H1287    1.0000 0.13904  0.21627  0.89186  Biso   1.000  H
  H1288    1.0000 0.13902  0.21627  0.89186  Biso   1.000  H
  C1343    1.0000 0.15285  0.22781  0.74486  Biso   1.000  C
  H1289    1.0000 0.15803  0.24637  0.60159  Biso   1.000  H
  H1290    1.0000 0.15806  0.24637  0.60159  Biso   1.000  H
  H1291    1.0000 0.85541  0.78085  0.88196  Biso   1.000  H
  C1344    1.0000 0.89837  0.77645  0.82338  Biso   1.000  C
  C1345    1.0000 0.89842  0.77645  0.82338  Biso   1.000  C
  C1346    1.0000 0.89106  0.76023  0.65064  Biso   1.000  C
  H1292    1.0000 0.84262  0.75365  0.59058  Biso   1.000  H
  H1293    1.0000 0.84264  0.75365  0.59058  Biso   1.000  H
  C1347    1.0000 0.89109  0.76023  0.65064  Biso   1.000  C
  C1348    1.0000 0.17996  0.21376  0.73846  Biso   1.000  C
  C1349    1.0000 0.17994  0.21376  0.73846  Biso   1.000  C
  C1350    1.0000 0.91335  0.77036  0.73623  Biso   1.000  C
  H1294    1.0000 0.91154  0.78046  0.88449  Biso   1.000  H
  H1295    1.0000 0.89911  0.75306  0.59244  Biso   1.000  H
  H1296    1.0000 0.89913  0.75306  0.59244  Biso   1.000  H
  C1351    1.0000 0.20844  0.22081  0.80835  Biso   1.000  C
  C1352    1.0000 0.17429  0.18859  0.66158  Biso   1.000  C
  C1353    1.0000 0.17432  0.18859  0.66158  Biso   1.000  C
  C1354    1.0000 0.95376  0.78114  0.73214  Biso   1.000  C
  C1355    1.0000 0.95381  0.78114  0.73214  Biso   1.000  C
  C1356    1.0000 0.22824  0.20103  0.80448  Biso   1.000  C
  C1357    1.0000 0.21737  0.25049  0.88702  Biso   1.000  C
  C1358    1.0000 0.21734  0.25049  0.88702  Biso   1.000  C
  C1359    1.0000 0.22826  0.20103  0.80448  Biso   1.000  C
  H1297    1.0000 0.15714  0.18526  0.60963  Biso   1.000  H
  C1360    1.0000 0.19300  0.16847  0.65905  Biso   1.000  C
  H1298    1.0000 0.15711  0.18526  0.60963  Biso   1.000  H
  C1361    1.0000 0.97277  0.77177  0.80448  Biso   1.000  C
  C1362    1.0000 0.97547  0.80701  0.65905  Biso   1.000  C
  C1363    1.0000 0.97549  0.80701  0.65905  Biso   1.000  C
  C1364    1.0000 0.21886  0.17265  0.73214  Biso   1.000  C
  C1365    1.0000 0.25957  0.21116  0.87787  Biso   1.000  C
  C1366    1.0000 0.25959  0.21116  0.87787  Biso   1.000  C
  O161     1.0000 0.19930  0.24485  0.96204  Biso   1.000  O
  O162     1.0000 0.24635  0.28325  0.85777  Biso   1.000  O
  O163     1.0000 0.19927  0.24485  0.96204  Biso   1.000  O
  O164     1.0000 0.24633  0.28325  0.85777  Biso   1.000  O
  H1299    1.0000 0.18803  0.15126  0.60598  Biso   1.000  H
  C1367    1.0000 0.95158  0.74042  0.87787  Biso   1.000  C
  C1368    1.0000 0.01238  0.79155  0.80835  Biso   1.000  C
  H1300    1.0000 0.96321  0.81197  0.60598  Biso   1.000  H
  H1301    1.0000 0.96326  0.81197  0.60598  Biso   1.000  H
  C1369    1.0000 0.01432  0.82569  0.66158  Biso   1.000  C
  C1370    1.0000 0.01430  0.82569  0.66158  Biso   1.000  C
  C1371    1.0000 0.22964  0.14299  0.73623  Biso   1.000  C
  O165     1.0000 0.26038  0.22369  0.95914  Biso   1.000  O
  O166     1.0000 0.28590  0.20450  0.83931  Biso   1.000  O
  O167     1.0000 0.26041  0.22369  0.95914  Biso   1.000  O
  O168     1.0000 0.28593  0.20450  0.83931  Biso   1.000  O
  C1372    1.0000 0.26173  0.31714  0.92327  Biso   1.000  C
  C1373    1.0000 0.26172  0.31711  0.92327  Biso   1.000  C
  C1374    1.0000 0.26174  0.31711  0.92327  Biso   1.000  C
  O169     1.0000 0.96329  0.73960  0.95914  Biso   1.000  O
  O170     1.0000 0.91860  0.71410  0.83931  Biso   1.000  O
  O171     1.0000 0.96331  0.73960  0.95914  Biso   1.000  O
  C1375    1.0000 0.03379  0.82004  0.73846  Biso   1.000  C
  C1376    1.0000 0.03316  0.78263  0.88702  Biso   1.000  C
  C1377    1.0000 0.03311  0.78263  0.88702  Biso   1.000  C
  H1302    1.0000 0.02814  0.84287  0.60963  Biso   1.000  H
  H1303    1.0000 0.02812  0.84287  0.60963  Biso   1.000  H
  C1378    1.0000 0.22356  0.12195  0.82338  Biso   1.000  C
  C1379    1.0000 0.23976  0.13083  0.65064  Biso   1.000  C
  C1380    1.0000 0.22354  0.12195  0.82338  Biso   1.000  C
  C1381    1.0000 0.23974  0.13083  0.65064  Biso   1.000  C
  C1382    1.0000 0.31830  0.20899  0.89923  Biso   1.000  C
  C1383    1.0000 0.31829  0.20896  0.89923  Biso   1.000  C
  C1384    1.0000 0.31831  0.20896  0.89923  Biso   1.000  C
  C1385    1.0000 0.23210  0.32794  0.94277  Biso   1.000  C
  C1386    1.0000 0.29363  0.34688  0.85985  Biso   1.000  C
  C1387    1.0000 0.23212  0.32794  0.94277  Biso   1.000  C
  C1388    1.0000 0.29366  0.34688  0.85985  Biso   1.000  C
  C1389    1.0000 0.27758  0.30949  0.01637  Biso   1.000  C
  C1390    1.0000 0.27760  0.30949  0.01637  Biso   1.000  C
  C1391    1.0000 0.89068  0.68171  0.89923  Biso   1.000  C
  C1392    1.0000 0.89070  0.68171  0.89923  Biso   1.000  C
  C1393    1.0000 0.07498  0.84716  0.74486  Biso   1.000  C
  C1394    1.0000 0.07495  0.84716  0.74486  Biso   1.000  C
  O172     1.0000 0.04558  0.80072  0.96204  Biso   1.000  O
  O173     1.0000 0.03692  0.75365  0.85777  Biso   1.000  O
  O174     1.0000 0.04555  0.80072  0.96204  Biso   1.000  O
  C1395    1.0000 0.22336  0.08831  0.82175  Biso   1.000  C
  H1304    1.0000 0.21952  0.13106  0.88449  Biso   1.000  H
  C1396    1.0000 0.22334  0.08831  0.82175  Biso   1.000  C
  H1305    1.0000 0.21954  0.13106  0.88449  Biso   1.000  H
  H1306    1.0000 0.24694  0.14607  0.59244  Biso   1.000  H
  C1397    1.0000 0.23942  0.09678  0.64967  Biso   1.000  C
  H1307    1.0000 0.24691  0.14607  0.59244  Biso   1.000  H
  C1398    1.0000 0.23940  0.09678  0.64967  Biso   1.000  C
  C1399    1.0000 0.33555  0.19217  0.83135  Biso   1.000  C
  C1400    1.0000 0.30488  0.18625  0.99509  Biso   1.000  C
  C1401    1.0000 0.34472  0.25063  0.91753  Biso   1.000  C
  C1402    1.0000 0.33552  0.19217  0.83135  Biso   1.000  C
  C1403    1.0000 0.30485  0.18625  0.99509  Biso   1.000  C
  H1308    1.0000 0.21254  0.30907  0.98616  Biso   1.000  H
  H1309    1.0000 0.22074  0.32907  0.87958  Biso   1.000  H
  H1310    1.0000 0.24372  0.35266  0.97522  Biso   1.000  H
  H1311    1.0000 0.21252  0.30907  0.98616  Biso   1.000  H
  H1312    1.0000 0.24375  0.35266  0.97522  Biso   1.000  H
  H1313    1.0000 0.31144  0.33827  0.84355  Biso   1.000  H
  H1314    1.0000 0.30672  0.37066  0.89692  Biso   1.000  H
  H1315    1.0000 0.28314  0.35077  0.79838  Biso   1.000  H
  H1316    1.0000 0.31142  0.33827  0.84355  Biso   1.000  H
  H1317    1.0000 0.28312  0.35077  0.79838  Biso   1.000  H
  H1318    1.0000 0.30675  0.37066  0.89692  Biso   1.000  H
  H1319    1.0000 0.29493  0.30046  0.99784  Biso   1.000  H
  H1320    1.0000 0.29491  0.30046  0.99784  Biso   1.000  H
  H1321    1.0000 0.25693  0.29028  0.05656  Biso   1.000  H
  H1322    1.0000 0.29134  0.33285  0.05508  Biso   1.000  H
  H1323    1.0000 0.29131  0.33285  0.05508  Biso   1.000  H
  H1324    1.0000 0.25695  0.29028  0.05656  Biso   1.000  H
  C1404    1.0000 0.85660  0.66447  0.83135  Biso   1.000  C
  C1405    1.0000 0.88139  0.69514  0.99509  Biso   1.000  C
  C1406    1.0000 0.90589  0.65530  0.91753  Biso   1.000  C
  C1407    1.0000 0.85662  0.66447  0.83135  Biso   1.000  C
  C1408    1.0000 0.90594  0.65530  0.91753  Biso   1.000  C
  C1409    1.0000 0.09058  0.86869  0.83053  Biso   1.000  C
  C1410    1.0000 0.09736  0.85751  0.65905  Biso   1.000  C
  C1411    1.0000 0.05541  0.73828  0.92327  Biso   1.000  C
  C1412    1.0000 0.05538  0.73828  0.92327  Biso   1.000  C
  C1413    1.0000 0.22917  0.07384  0.73392  Biso   1.000  C
  H1325    1.0000 0.21913  0.07457  0.88196  Biso   1.000  H
  H1326    1.0000 0.21916  0.07457  0.88196  Biso   1.000  H
  H1327    1.0000 0.24634  0.08896  0.59058  Biso   1.000  H
  H1328    1.0000 0.24631  0.08896  0.59058  Biso   1.000  H
  H1329    1.0000 0.31673  0.16596  0.81609  Biso   1.000  H
  H1330    1.0000 0.35723  0.19288  0.86447  Biso   1.000  H
  H1331    1.0000 0.34382  0.20676  0.76943  Biso   1.000  H
  H1332    1.0000 0.35722  0.19285  0.86447  Biso   1.000  H
  H1333    1.0000 0.31675  0.16596  0.81609  Biso   1.000  H
  H1334    1.0000 0.35724  0.19285  0.86447  Biso   1.000  H
  H1335    1.0000 0.34384  0.20676  0.76943  Biso   1.000  H
  H1336    1.0000 0.28492  0.16046  0.97976  Biso   1.000  H
  H1337    1.0000 0.28495  0.16046  0.97976  Biso   1.000  H
  H1338    1.0000 0.29493  0.19807  0.04012  Biso   1.000  H
  H1339    1.0000 0.32604  0.18557  0.02694  Biso   1.000  H
  H1340    1.0000 0.32602  0.18557  0.02694  Biso   1.000  H
  H1341    1.0000 0.29495  0.19807  0.04012  Biso   1.000  H
  H1342    1.0000 0.35414  0.26356  0.85375  Biso   1.000  H
  H1343    1.0000 0.36593  0.25396  0.95854  Biso   1.000  H
  H1344    1.0000 0.33103  0.26127  0.95214  Biso   1.000  H
  H1345    1.0000 0.35411  0.26356  0.85375  Biso   1.000  H
  H1346    1.0000 0.33105  0.26127  0.95214  Biso   1.000  H
  H1347    1.0000 0.84923  0.68326  0.81609  Biso   1.000  H
  H1348    1.0000 0.83563  0.64277  0.86447  Biso   1.000  H
  H1349    1.0000 0.86291  0.65617  0.76943  Biso   1.000  H
  H1350    1.0000 0.86295  0.65617  0.76943  Biso   1.000  H
  H1351    1.0000 0.87551  0.71506  0.97976  Biso   1.000  H
  H1352    1.0000 0.90311  0.70507  0.04012  Biso   1.000  H
  H1353    1.0000 0.85952  0.67398  0.02694  Biso   1.000  H
  H1354    1.0000 0.90314  0.70507  0.04012  Biso   1.000  H
  H1355    1.0000 0.85957  0.67398  0.02694  Biso   1.000  H
  H1356    1.0000 0.90944  0.64587  0.85375  Biso   1.000  H
  H1357    1.0000 0.88805  0.63408  0.95854  Biso   1.000  H
  H1358    1.0000 0.93023  0.66898  0.95214  Biso   1.000  H
  H1359    1.0000 0.93021  0.66895  0.95214  Biso   1.000  H
  H1360    1.0000 0.07723  0.86096  0.89186  Biso   1.000  H
  C1414    1.0000 0.12553  0.90139  0.82673  Biso   1.000  C
  C1415    1.0000 0.13207  0.88971  0.65622  Biso   1.000  C
  H1361    1.0000 0.08836  0.84197  0.60159  Biso   1.000  H
  H1362    1.0000 0.08831  0.84197  0.60159  Biso   1.000  H
  C1416    1.0000 0.13205  0.88971  0.65622  Biso   1.000  C
  C1417    1.0000 0.09583  0.76790  0.94277  Biso   1.000  C
  C1418    1.0000 0.05323  0.70637  0.85985  Biso   1.000  C
  C1419    1.0000 0.05321  0.70637  0.85985  Biso   1.000  C
  C1420    1.0000 0.03191  0.72242  0.01637  Biso   1.000  C
  C1421    1.0000 0.03187  0.72239  0.01637  Biso   1.000  C
  C1422    1.0000 0.21773  0.03335  0.72767  Biso   1.000  C
  C1423    1.0000 0.21775  0.03335  0.72767  Biso   1.000  C
  H1363    1.0000 0.13577  0.91558  0.88598  Biso   1.000  H
  C1424    1.0000 0.14592  0.91397  0.73876  Biso   1.000  C
  H1364    1.0000 0.13574  0.91555  0.88598  Biso   1.000  H
  H1365    1.0000 0.13575  0.91558  0.88598  Biso   1.000  H
  H1366    1.0000 0.14695  0.89566  0.59765  Biso   1.000  H
  H1367    1.0000 0.09654  0.78746  0.98616  Biso   1.000  H
  H1368    1.0000 0.10835  0.77927  0.87958  Biso   1.000  H
  H1369    1.0000 0.10893  0.75628  0.97522  Biso   1.000  H
  H1370    1.0000 0.09651  0.78746  0.98616  Biso   1.000  H
  H1371    1.0000 0.02686  0.68856  0.84355  Biso   1.000  H
  H1372    1.0000 0.06396  0.69327  0.89692  Biso   1.000  H
  H1373    1.0000 0.06762  0.71686  0.79838  Biso   1.000  H
  H1374    1.0000 0.02681  0.68856  0.84355  Biso   1.000  H
  H1375    1.0000 0.06394  0.69327  0.89692  Biso   1.000  H
  H1376    1.0000 0.03335  0.74307  0.05656  Biso   1.000  H
  H1377    1.0000 0.00555  0.70507  0.99784  Biso   1.000  H
  H1378    1.0000 0.04156  0.70868  0.05508  Biso   1.000  H
  C1425    1.0000 0.21824  0.01306  0.81036  Biso   1.000  C
  C1426    1.0000 0.19939  0.01295  0.64238  Biso   1.000  C
  C1427    1.0000 0.19935  0.01292  0.64238  Biso   1.000  C
  C1428    1.0000 0.19936  0.01295  0.64238  Biso   1.000  C
  C1429    1.0000 0.19938  0.01292  0.64238  Biso   1.000  C
  C1430    1.0000 0.17637  0.95373  0.73035  Biso   1.000  C
  C1431    1.0000 0.19837  0.97421  0.81163  Biso   1.000  C
  H1379    1.0000 0.23263  0.02635  0.86707  Biso   1.000  H
  C1432    1.0000 0.17922  0.97399  0.64394  Biso   1.000  C
  H1380    1.0000 0.20074  0.02596  0.58254  Biso   1.000  H
  H1381    1.0000 0.20071  0.02596  0.58254  Biso   1.000  H
  H1382    1.0000 0.19967  0.96118  0.86864  Biso   1.000  H
  H1383    1.0000 0.19962  0.96118  0.86864  Biso   1.000  H
  H1384    1.0000 0.16704  0.96067  0.58492  Biso   1.000  H
  C1433    1.0000 0.80781  0.14336  0.83135  Biso   1.000  C
  C1434    1.0000 0.79101  0.10933  0.89923  Biso   1.000  C
  C1435    1.0000 0.79104  0.10933  0.89923  Biso   1.000  C
  H1385    1.0000 0.79323  0.13707  0.76943  Biso   1.000  H
  H1386    1.0000 0.80711  0.16435  0.86447  Biso   1.000  H
  H1387    1.0000 0.83403  0.15075  0.81609  Biso   1.000  H
  H1388    1.0000 0.80714  0.16435  0.86447  Biso   1.000  H
  H1389    1.0000 0.83401  0.15075  0.81609  Biso   1.000  H
  C1436    1.0000 0.74938  0.09410  0.91753  Biso   1.000  C
  C1437    1.0000 0.81374  0.11862  0.99509  Biso   1.000  C
  C1438    1.0000 0.80785  0.14339  0.83135  Biso   1.000  C
  C1439    1.0000 0.81376  0.11862  0.99509  Biso   1.000  C
  O175     1.0000 0.79551  0.08143  0.83931  Biso   1.000  O
  O176     1.0000 0.79550  0.08140  0.83931  Biso   1.000  O
  C1440    1.0000 0.74936  0.09410  0.91753  Biso   1.000  C
  O177     1.0000 0.79547  0.08140  0.83931  Biso   1.000  O
  H1390    1.0000 0.73643  0.09057  0.85375  Biso   1.000  H
  H1391    1.0000 0.74602  0.11196  0.95854  Biso   1.000  H
  H1392    1.0000 0.73874  0.06978  0.95214  Biso   1.000  H
  H1393    1.0000 0.83953  0.12446  0.97976  Biso   1.000  H
  H1394    1.0000 0.83950  0.12446  0.97976  Biso   1.000  H
  H1395    1.0000 0.80193  0.09686  0.04012  Biso   1.000  H
  H1396    1.0000 0.81442  0.14045  0.02694  Biso   1.000  H
  H1397    1.0000 0.80191  0.09686  0.04012  Biso   1.000  H
  C1441    1.0000 0.78885  0.04842  0.87787  Biso   1.000  C
  C1442    1.0000 0.78883  0.04842  0.87787  Biso   1.000  C
  C1443    1.0000 0.79898  0.02723  0.80448  Biso   1.000  C
  O178     1.0000 0.77630  0.03671  0.95914  Biso   1.000  O
  C1444    1.0000 0.82734  0.04622  0.73214  Biso   1.000  C
  C1445    1.0000 0.77917  0.98761  0.80835  Biso   1.000  C
  C1446    1.0000 0.77919  0.98761  0.80835  Biso   1.000  C
  C1447    1.0000 0.82736  0.04622  0.73214  Biso   1.000  C
  C1448    1.0000 0.83151  0.02452  0.65905  Biso   1.000  C
  C1449    1.0000 0.85701  0.08665  0.73623  Biso   1.000  C
  C1450    1.0000 0.85698  0.08665  0.73623  Biso   1.000  C
  C1451    1.0000 0.83149  0.02452  0.65905  Biso   1.000  C
  C1452    1.0000 0.78623  0.96620  0.73846  Biso   1.000  C
  C1453    1.0000 0.74950  0.96688  0.88702  Biso   1.000  C
  C1454    1.0000 0.78628  0.96620  0.73846  Biso   1.000  C
  C1455    1.0000 0.74952  0.96688  0.88702  Biso   1.000  C
  H1398    1.0000 0.84873  0.03676  0.60598  Biso   1.000  H
  C1456    1.0000 0.81137  0.98569  0.66158  Biso   1.000  C
  C1457    1.0000 0.81139  0.98569  0.66158  Biso   1.000  C
  C1458    1.0000 0.87805  0.10160  0.82338  Biso   1.000  C
  C1459    1.0000 0.86914  0.10891  0.65064  Biso   1.000  C
  C1460    1.0000 0.77219  0.92503  0.74486  Biso   1.000  C
  O179     1.0000 0.75515  0.95443  0.96204  Biso   1.000  O
  O180     1.0000 0.71672  0.96309  0.85777  Biso   1.000  O
  O181     1.0000 0.71675  0.96309  0.85777  Biso   1.000  O
  H1399    1.0000 0.81474  0.97187  0.60963  Biso   1.000  H
  C1461    1.0000 0.91167  0.13504  0.82175  Biso   1.000  C
  C1462    1.0000 0.91170  0.13504  0.82175  Biso   1.000  C
  H1400    1.0000 0.86893  0.08845  0.88449  Biso   1.000  H
  H1401    1.0000 0.86891  0.08845  0.88449  Biso   1.000  H
  H1402    1.0000 0.85393  0.10087  0.59244  Biso   1.000  H
  C1463    1.0000 0.90320  0.14263  0.64967  Biso   1.000  C
  C1464    1.0000 0.77810  0.90943  0.83053  Biso   1.000  C
  C1465    1.0000 0.76017  0.90266  0.65905  Biso   1.000  C
  C1466    1.0000 0.77808  0.90940  0.83053  Biso   1.000  C
  C1467    1.0000 0.68285  0.94461  0.92327  Biso   1.000  C
  C1468    1.0000 0.68290  0.94461  0.92327  Biso   1.000  C
  H1403    1.0000 0.92543  0.14457  0.88196  Biso   1.000  H
  C1469    1.0000 0.92614  0.15532  0.73392  Biso   1.000  C
  C1470    1.0000 0.92617  0.15532  0.73392  Biso   1.000  C
  H1404    1.0000 0.91103  0.15736  0.59058  Biso   1.000  H
  H1405    1.0000 0.91101  0.15736  0.59058  Biso   1.000  H
  H1406    1.0000 0.78372  0.92278  0.89186  Biso   1.000  H
  C1471    1.0000 0.77588  0.87450  0.82673  Biso   1.000  C
  C1472    1.0000 0.77589  0.87447  0.82673  Biso   1.000  C
  H1407    1.0000 0.78377  0.92278  0.89186  Biso   1.000  H
  C1473    1.0000 0.77591  0.87450  0.82673  Biso   1.000  C
  C1474    1.0000 0.77587  0.87447  0.82673  Biso   1.000  C
  C1475    1.0000 0.75765  0.86795  0.65622  Biso   1.000  C
  H1408    1.0000 0.75363  0.91166  0.60159  Biso   1.000  H
  H1409    1.0000 0.75365  0.91166  0.60159  Biso   1.000  H
  C1476    1.0000 0.67205  0.90415  0.94277  Biso   1.000  C
  C1477    1.0000 0.65313  0.94676  0.85985  Biso   1.000  C
  C1478    1.0000 0.65316  0.94676  0.85985  Biso   1.000  C
  C1479    1.0000 0.69051  0.96809  0.01637  Biso   1.000  C
  C1480    1.0000 0.69053  0.96809  0.01637  Biso   1.000  C
  C1481    1.0000 0.96665  0.18439  0.72767  Biso   1.000  C
  H1410    1.0000 0.77980  0.86426  0.88598  Biso   1.000  H
  C1482    1.0000 0.76806  0.85407  0.73876  Biso   1.000  C
  H1411    1.0000 0.77985  0.86426  0.88598  Biso   1.000  H
  H1412    1.0000 0.74871  0.85306  0.59765  Biso   1.000  H
  H1413    1.0000 0.64733  0.89106  0.97522  Biso   1.000  H
  H1414    1.0000 0.69094  0.90348  0.98616  Biso   1.000  H
  H1415    1.0000 0.67091  0.89165  0.87958  Biso   1.000  H
  H1416    1.0000 0.69097  0.90348  0.98616  Biso   1.000  H
  H1417    1.0000 0.67093  0.89165  0.87958  Biso   1.000  H
  H1418    1.0000 0.62934  0.93606  0.89692  Biso   1.000  H
  H1419    1.0000 0.66175  0.97317  0.84355  Biso   1.000  H
  H1420    1.0000 0.64921  0.93237  0.79838  Biso   1.000  H
  H1421    1.0000 0.64924  0.93237  0.79838  Biso   1.000  H
  H1422    1.0000 0.69952  0.99447  0.99784  Biso   1.000  H
  H1423    1.0000 0.70972  0.96668  0.05656  Biso   1.000  H
  H1424    1.0000 0.66710  0.95847  0.05508  Biso   1.000  H
  H1425    1.0000 0.70977  0.96668  0.05656  Biso   1.000  H
  H1426    1.0000 0.66713  0.95847  0.05508  Biso   1.000  H
  C1483    1.0000 0.98694  0.20518  0.81036  Biso   1.000  C
  C1484    1.0000 0.98705  0.18644  0.64238  Biso   1.000  C
  C1485    1.0000 0.98708  0.18644  0.64238  Biso   1.000  C
  C1486    1.0000 0.77735  0.82363  0.73035  Biso   1.000  C
  H1427    1.0000 0.97362  0.20625  0.86707  Biso   1.000  H
  C1487    1.0000 0.02579  0.22414  0.81163  Biso   1.000  C
  H1428    1.0000 0.97403  0.17476  0.58254  Biso   1.000  H
  C1488    1.0000 0.02601  0.20524  0.64394  Biso   1.000  C
  C1489    1.0000 0.02599  0.20524  0.64394  Biso   1.000  C
  C1490    1.0000 0.77584  0.80165  0.81163  Biso   1.000  C
  C1491    1.0000 0.79476  0.82078  0.64394  Biso   1.000  C
  C1492    1.0000 0.79479  0.82078  0.64394  Biso   1.000  C
  C1493    1.0000 0.04628  0.22264  0.73035  Biso   1.000  C
  H1429    1.0000 0.03885  0.23847  0.86864  Biso   1.000  H
  C1494    1.0000 0.04625  0.22264  0.73035  Biso   1.000  C
  H1430    1.0000 0.03882  0.23847  0.86864  Biso   1.000  H
  H1431    1.0000 0.03933  0.20636  0.58492  Biso   1.000  H
  H1432    1.0000 0.76155  0.80038  0.86864  Biso   1.000  H
  C1495    1.0000 0.79480  0.78176  0.81036  Biso   1.000  C
  H1433    1.0000 0.76157  0.80038  0.86864  Biso   1.000  H
  C1496    1.0000 0.79485  0.78176  0.81036  Biso   1.000  C
  C1497    1.0000 0.81355  0.80063  0.64238  Biso   1.000  C
  H1434    1.0000 0.79362  0.83297  0.58492  Biso   1.000  H
  H1435    1.0000 0.79365  0.83297  0.58492  Biso   1.000  H
  C1498    1.0000 0.81360  0.80063  0.64238  Biso   1.000  C
  C1499    1.0000 0.08602  0.23196  0.73876  Biso   1.000  C
  C1500    1.0000 0.08605  0.23196  0.73876  Biso   1.000  C
  C1501    1.0000 0.81560  0.78226  0.72767  Biso   1.000  C
  H1436    1.0000 0.79371  0.76737  0.86707  Biso   1.000  H
  H1437    1.0000 0.79376  0.76737  0.86707  Biso   1.000  H
  H1438    1.0000 0.82523  0.79928  0.58254  Biso   1.000  H
  C1502    1.0000 0.09862  0.22411  0.82673  Biso   1.000  C
  C1503    1.0000 0.11030  0.24234  0.65622  Biso   1.000  C
  C1504    1.0000 0.09859  0.22411  0.82673  Biso   1.000  C
  C1505    1.0000 0.11032  0.24234  0.65622  Biso   1.000  C
  C1506    1.0000 0.84466  0.77084  0.73392  Biso   1.000  C
  C1507    1.0000 0.84469  0.77084  0.73392  Biso   1.000  C
  C1508    1.0000 0.13130  0.22188  0.83053  Biso   1.000  C
  H1439    1.0000 0.08442  0.22016  0.88598  Biso   1.000  H
  C1509    1.0000 0.13132  0.22188  0.83053  Biso   1.000  C
  H1440    1.0000 0.08445  0.22016  0.88598  Biso   1.000  H
  H1441    1.0000 0.10432  0.25125  0.59765  Biso   1.000  H
  C1510    1.0000 0.14249  0.23983  0.65905  Biso   1.000  C
  H1442    1.0000 0.10434  0.25125  0.59765  Biso   1.000  H
  C1511    1.0000 0.86494  0.77665  0.82175  Biso   1.000  C
  C1512    1.0000 0.85734  0.76057  0.64967  Biso   1.000  C
  C1513    1.0000 0.85736  0.76057  0.64967  Biso   1.000  C
  C1514    1.0000 0.15283  0.22781  0.74486  Biso   1.000  C
  H1443    1.0000 0.13904  0.21627  0.89186  Biso   1.000  H
  H1444    1.0000 0.13902  0.21627  0.89186  Biso   1.000  H
  C1515    1.0000 0.15285  0.22781  0.74486  Biso   1.000  C
  H1445    1.0000 0.15803  0.24637  0.60159  Biso   1.000  H
  H1446    1.0000 0.15806  0.24637  0.60159  Biso   1.000  H
  H1447    1.0000 0.85541  0.78085  0.88196  Biso   1.000  H
  C1516    1.0000 0.89837  0.77645  0.82338  Biso   1.000  C
  C1517    1.0000 0.89842  0.77645  0.82338  Biso   1.000  C
  C1518    1.0000 0.89106  0.76023  0.65064  Biso   1.000  C
  H1448    1.0000 0.84262  0.75365  0.59058  Biso   1.000  H
  H1449    1.0000 0.84264  0.75365  0.59058  Biso   1.000  H
  C1519    1.0000 0.89109  0.76023  0.65064  Biso   1.000  C
  C1520    1.0000 0.17996  0.21376  0.73846  Biso   1.000  C
  C1521    1.0000 0.17994  0.21376  0.73846  Biso   1.000  C
  C1522    1.0000 0.91335  0.77036  0.73623  Biso   1.000  C
  H1450    1.0000 0.91154  0.78046  0.88449  Biso   1.000  H
  H1451    1.0000 0.89911  0.75306  0.59244  Biso   1.000  H
  H1452    1.0000 0.89913  0.75306  0.59244  Biso   1.000  H
  C1523    1.0000 0.20844  0.22081  0.80835  Biso   1.000  C
  C1524    1.0000 0.17429  0.18859  0.66158  Biso   1.000  C
  C1525    1.0000 0.17432  0.18859  0.66158  Biso   1.000  C
  C1526    1.0000 0.95376  0.78114  0.73214  Biso   1.000  C
  C1527    1.0000 0.95381  0.78114  0.73214  Biso   1.000  C
  C1528    1.0000 0.22824  0.20103  0.80448  Biso   1.000  C
  C1529    1.0000 0.21737  0.25049  0.88702  Biso   1.000  C
  C1530    1.0000 0.21734  0.25049  0.88702  Biso   1.000  C
  C1531    1.0000 0.22826  0.20103  0.80448  Biso   1.000  C
  H1453    1.0000 0.15714  0.18526  0.60963  Biso   1.000  H
  C1532    1.0000 0.19300  0.16847  0.65905  Biso   1.000  C
  H1454    1.0000 0.15711  0.18526  0.60963  Biso   1.000  H
  C1533    1.0000 0.97277  0.77177  0.80448  Biso   1.000  C
  C1534    1.0000 0.97547  0.80701  0.65905  Biso   1.000  C
  C1535    1.0000 0.97549  0.80701  0.65905  Biso   1.000  C
  C1536    1.0000 0.21886  0.17265  0.73214  Biso   1.000  C
  C1537    1.0000 0.25957  0.21116  0.87787  Biso   1.000  C
  C1538    1.0000 0.25959  0.21116  0.87787  Biso   1.000  C
  O182     1.0000 0.19930  0.24485  0.96204  Biso   1.000  O
  O183     1.0000 0.24635  0.28325  0.85777  Biso   1.000  O
  O184     1.0000 0.19927  0.24485  0.96204  Biso   1.000  O
  O185     1.0000 0.24633  0.28325  0.85777  Biso   1.000  O
  H1455    1.0000 0.18803  0.15126  0.60598  Biso   1.000  H
  C1539    1.0000 0.95158  0.74042  0.87787  Biso   1.000  C
  C1540    1.0000 0.01238  0.79155  0.80835  Biso   1.000  C
  H1456    1.0000 0.96321  0.81197  0.60598  Biso   1.000  H
  H1457    1.0000 0.96326  0.81197  0.60598  Biso   1.000  H
  C1541    1.0000 0.01432  0.82569  0.66158  Biso   1.000  C
  C1542    1.0000 0.01430  0.82569  0.66158  Biso   1.000  C
  C1543    1.0000 0.22964  0.14299  0.73623  Biso   1.000  C
  O186     1.0000 0.26038  0.22369  0.95914  Biso   1.000  O
  O187     1.0000 0.28590  0.20450  0.83931  Biso   1.000  O
  O188     1.0000 0.26041  0.22369  0.95914  Biso   1.000  O
  O189     1.0000 0.28593  0.20450  0.83931  Biso   1.000  O
  C1544    1.0000 0.26173  0.31714  0.92327  Biso   1.000  C
  C1545    1.0000 0.26172  0.31711  0.92327  Biso   1.000  C
  C1546    1.0000 0.26174  0.31711  0.92327  Biso   1.000  C
  O190     1.0000 0.96329  0.73960  0.95914  Biso   1.000  O
  O191     1.0000 0.91860  0.71410  0.83931  Biso   1.000  O
  O192     1.0000 0.96331  0.73960  0.95914  Biso   1.000  O
  C1547    1.0000 0.03379  0.82004  0.73846  Biso   1.000  C
  C1548    1.0000 0.03316  0.78263  0.88702  Biso   1.000  C
  C1549    1.0000 0.03311  0.78263  0.88702  Biso   1.000  C
  H1458    1.0000 0.02814  0.84287  0.60963  Biso   1.000  H
  H1459    1.0000 0.02812  0.84287  0.60963  Biso   1.000  H
  C1550    1.0000 0.22356  0.12195  0.82338  Biso   1.000  C
  C1551    1.0000 0.23976  0.13083  0.65064  Biso   1.000  C
  C1552    1.0000 0.22354  0.12195  0.82338  Biso   1.000  C
  C1553    1.0000 0.23974  0.13083  0.65064  Biso   1.000  C
  C1554    1.0000 0.31830  0.20899  0.89923  Biso   1.000  C
  C1555    1.0000 0.31829  0.20896  0.89923  Biso   1.000  C
  C1556    1.0000 0.31831  0.20896  0.89923  Biso   1.000  C
  C1557    1.0000 0.23210  0.32794  0.94277  Biso   1.000  C
  C1558    1.0000 0.29363  0.34688  0.85985  Biso   1.000  C
  C1559    1.0000 0.23212  0.32794  0.94277  Biso   1.000  C
  C1560    1.0000 0.29366  0.34688  0.85985  Biso   1.000  C
  C1561    1.0000 0.27758  0.30949  0.01637  Biso   1.000  C
  C1562    1.0000 0.27760  0.30949  0.01637  Biso   1.000  C
  C1563    1.0000 0.89068  0.68171  0.89923  Biso   1.000  C
  C1564    1.0000 0.89070  0.68171  0.89923  Biso   1.000  C
  C1565    1.0000 0.07498  0.84716  0.74486  Biso   1.000  C
  C1566    1.0000 0.07495  0.84716  0.74486  Biso   1.000  C
  O193     1.0000 0.04558  0.80072  0.96204  Biso   1.000  O
  O194     1.0000 0.03692  0.75365  0.85777  Biso   1.000  O
  O195     1.0000 0.04555  0.80072  0.96204  Biso   1.000  O
  C1567    1.0000 0.22336  0.08831  0.82175  Biso   1.000  C
  H1460    1.0000 0.21952  0.13106  0.88449  Biso   1.000  H
  C1568    1.0000 0.22334  0.08831  0.82175  Biso   1.000  C
  H1461    1.0000 0.21954  0.13106  0.88449  Biso   1.000  H
  H1462    1.0000 0.24694  0.14607  0.59244  Biso   1.000  H
  C1569    1.0000 0.23942  0.09678  0.64967  Biso   1.000  C
  H1463    1.0000 0.24691  0.14607  0.59244  Biso   1.000  H
  C1570    1.0000 0.23940  0.09678  0.64967  Biso   1.000  C
  C1571    1.0000 0.33555  0.19217  0.83135  Biso   1.000  C
  C1572    1.0000 0.30488  0.18625  0.99509  Biso   1.000  C
  C1573    1.0000 0.34472  0.25063  0.91753  Biso   1.000  C
  C1574    1.0000 0.33552  0.19217  0.83135  Biso   1.000  C
  C1575    1.0000 0.30485  0.18625  0.99509  Biso   1.000  C
  H1464    1.0000 0.21254  0.30907  0.98616  Biso   1.000  H
  H1465    1.0000 0.22074  0.32907  0.87958  Biso   1.000  H
  H1466    1.0000 0.24372  0.35266  0.97522  Biso   1.000  H
  H1467    1.0000 0.21252  0.30907  0.98616  Biso   1.000  H
  H1468    1.0000 0.24375  0.35266  0.97522  Biso   1.000  H
  H1469    1.0000 0.31144  0.33827  0.84355  Biso   1.000  H
  H1470    1.0000 0.30672  0.37066  0.89692  Biso   1.000  H
  H1471    1.0000 0.28314  0.35077  0.79838  Biso   1.000  H
  H1472    1.0000 0.31142  0.33827  0.84355  Biso   1.000  H
  H1473    1.0000 0.28312  0.35077  0.79838  Biso   1.000  H
  H1474    1.0000 0.30675  0.37066  0.89692  Biso   1.000  H
  H1475    1.0000 0.29493  0.30046  0.99784  Biso   1.000  H
  H1476    1.0000 0.29491  0.30046  0.99784  Biso   1.000  H
  H1477    1.0000 0.25693  0.29028  0.05656  Biso   1.000  H
  H1478    1.0000 0.29134  0.33285  0.05508  Biso   1.000  H
  H1479    1.0000 0.29131  0.33285  0.05508  Biso   1.000  H
  H1480    1.0000 0.25695  0.29028  0.05656  Biso   1.000  H
  C1576    1.0000 0.85660  0.66447  0.83135  Biso   1.000  C
  C1577    1.0000 0.88139  0.69514  0.99509  Biso   1.000  C
  C1578    1.0000 0.90589  0.65530  0.91753  Biso   1.000  C
  C1579    1.0000 0.85662  0.66447  0.83135  Biso   1.000  C
  C1580    1.0000 0.90594  0.65530  0.91753  Biso   1.000  C
  C1581    1.0000 0.09058  0.86869  0.83053  Biso   1.000  C
  C1582    1.0000 0.09736  0.85751  0.65905  Biso   1.000  C
  C1583    1.0000 0.05541  0.73828  0.92327  Biso   1.000  C
  C1584    1.0000 0.05538  0.73828  0.92327  Biso   1.000  C
  C1585    1.0000 0.22917  0.07384  0.73392  Biso   1.000  C
  H1481    1.0000 0.21913  0.07457  0.88196  Biso   1.000  H
  H1482    1.0000 0.21916  0.07457  0.88196  Biso   1.000  H
  H1483    1.0000 0.24634  0.08896  0.59058  Biso   1.000  H
  H1484    1.0000 0.24631  0.08896  0.59058  Biso   1.000  H
  H1485    1.0000 0.31673  0.16596  0.81609  Biso   1.000  H
  H1486    1.0000 0.35723  0.19288  0.86447  Biso   1.000  H
  H1487    1.0000 0.34382  0.20676  0.76943  Biso   1.000  H
  H1488    1.0000 0.35722  0.19285  0.86447  Biso   1.000  H
  H1489    1.0000 0.31675  0.16596  0.81609  Biso   1.000  H
  H1490    1.0000 0.35724  0.19285  0.86447  Biso   1.000  H
  H1491    1.0000 0.34384  0.20676  0.76943  Biso   1.000  H
  H1492    1.0000 0.28492  0.16046  0.97976  Biso   1.000  H
  H1493    1.0000 0.28495  0.16046  0.97976  Biso   1.000  H
  H1494    1.0000 0.29493  0.19807  0.04012  Biso   1.000  H
  H1495    1.0000 0.32604  0.18557  0.02694  Biso   1.000  H
  H1496    1.0000 0.32602  0.18557  0.02694  Biso   1.000  H
  H1497    1.0000 0.29495  0.19807  0.04012  Biso   1.000  H
  H1498    1.0000 0.35414  0.26356  0.85375  Biso   1.000  H
  H1499    1.0000 0.36593  0.25396  0.95854  Biso   1.000  H
  H1500    1.0000 0.33103  0.26127  0.95214  Biso   1.000  H
  H1501    1.0000 0.35411  0.26356  0.85375  Biso   1.000  H
  H1502    1.0000 0.33105  0.26127  0.95214  Biso   1.000  H
  H1503    1.0000 0.84923  0.68326  0.81609  Biso   1.000  H
  H1504    1.0000 0.83563  0.64277  0.86447  Biso   1.000  H
  H1505    1.0000 0.86291  0.65617  0.76943  Biso   1.000  H
  H1506    1.0000 0.86295  0.65617  0.76943  Biso   1.000  H
  H1507    1.0000 0.87551  0.71506  0.97976  Biso   1.000  H
  H1508    1.0000 0.90311  0.70507  0.04012  Biso   1.000  H
  H1509    1.0000 0.85952  0.67398  0.02694  Biso   1.000  H
  H1510    1.0000 0.90314  0.70507  0.04012  Biso   1.000  H
  H1511    1.0000 0.85957  0.67398  0.02694  Biso   1.000  H
  H1512    1.0000 0.90944  0.64587  0.85375  Biso   1.000  H
  H1513    1.0000 0.88805  0.63408  0.95854  Biso   1.000  H
  H1514    1.0000 0.93023  0.66898  0.95214  Biso   1.000  H
  H1515    1.0000 0.93021  0.66895  0.95214  Biso   1.000  H
  H1516    1.0000 0.07723  0.86096  0.89186  Biso   1.000  H
  C1586    1.0000 0.12553  0.90139  0.82673  Biso   1.000  C
  C1587    1.0000 0.13207  0.88971  0.65622  Biso   1.000  C
  H1517    1.0000 0.08836  0.84197  0.60159  Biso   1.000  H
  H1518    1.0000 0.08831  0.84197  0.60159  Biso   1.000  H
  C1588    1.0000 0.13205  0.88971  0.65622  Biso   1.000  C
  C1589    1.0000 0.09583  0.76790  0.94277  Biso   1.000  C
  C1590    1.0000 0.05323  0.70637  0.85985  Biso   1.000  C
  C1591    1.0000 0.05321  0.70637  0.85985  Biso   1.000  C
  C1592    1.0000 0.03191  0.72242  0.01637  Biso   1.000  C
  C1593    1.0000 0.03187  0.72239  0.01637  Biso   1.000  C
  C1594    1.0000 0.21773  0.03335  0.72767  Biso   1.000  C
  C1595    1.0000 0.21775  0.03335  0.72767  Biso   1.000  C
  H1519    1.0000 0.13577  0.91558  0.88598  Biso   1.000  H
  C1596    1.0000 0.14592  0.91397  0.73876  Biso   1.000  C
  H1520    1.0000 0.13574  0.91555  0.88598  Biso   1.000  H
  H1521    1.0000 0.13575  0.91558  0.88598  Biso   1.000  H
  H1522    1.0000 0.14695  0.89566  0.59765  Biso   1.000  H
  H1523    1.0000 0.09654  0.78746  0.98616  Biso   1.000  H
  H1524    1.0000 0.10835  0.77927  0.87958  Biso   1.000  H
  H1525    1.0000 0.10893  0.75628  0.97522  Biso   1.000  H
  H1526    1.0000 0.09651  0.78746  0.98616  Biso   1.000  H
  H1527    1.0000 0.02686  0.68856  0.84355  Biso   1.000  H
  H1528    1.0000 0.06396  0.69327  0.89692  Biso   1.000  H
  H1529    1.0000 0.06762  0.71686  0.79838  Biso   1.000  H
  H1530    1.0000 0.02681  0.68856  0.84355  Biso   1.000  H
  H1531    1.0000 0.06394  0.69327  0.89692  Biso   1.000  H
  H1532    1.0000 0.03335  0.74307  0.05656  Biso   1.000  H
  H1533    1.0000 0.00555  0.70507  0.99784  Biso   1.000  H
  H1534    1.0000 0.04156  0.70868  0.05508  Biso   1.000  H
  C1597    1.0000 0.21824  0.01306  0.81036  Biso   1.000  C
  C1598    1.0000 0.19939  0.01295  0.64238  Biso   1.000  C
  C1599    1.0000 0.19935  0.01292  0.64238  Biso   1.000  C
  C1600    1.0000 0.19936  0.01295  0.64238  Biso   1.000  C
  C1601    1.0000 0.19938  0.01292  0.64238  Biso   1.000  C
  C1602    1.0000 0.17637  0.95373  0.73035  Biso   1.000  C
  C1603    1.0000 0.19837  0.97421  0.81163  Biso   1.000  C
  H1535    1.0000 0.23263  0.02635  0.86707  Biso   1.000  H
  C1604    1.0000 0.17922  0.97399  0.64394  Biso   1.000  C
  H1536    1.0000 0.20074  0.02596  0.58254  Biso   1.000  H
  H1537    1.0000 0.20071  0.02596  0.58254  Biso   1.000  H
  H1538    1.0000 0.19967  0.96118  0.86864  Biso   1.000  H
  H1539    1.0000 0.19962  0.96118  0.86864  Biso   1.000  H
  H1540    1.0000 0.16704  0.96067  0.58492  Biso   1.000  H
  C1605    1.0000 0.80781  0.14336  0.83135  Biso   1.000  C
  C1606    1.0000 0.79104  0.10933  0.89923  Biso   1.000  C
  C1607    1.0000 0.79101  0.10933  0.89923  Biso   1.000  C
  H1541    1.0000 0.79323  0.13707  0.76943  Biso   1.000  H
  H1542    1.0000 0.83403  0.15075  0.81609  Biso   1.000  H
  H1543    1.0000 0.80714  0.16435  0.86447  Biso   1.000  H
  H1544    1.0000 0.83401  0.15075  0.81609  Biso   1.000  H
  H1545    1.0000 0.80711  0.16435  0.86447  Biso   1.000  H
  O196     1.0000 0.79551  0.08143  0.83931  Biso   1.000  O
  O197     1.0000 0.79550  0.08140  0.83931  Biso   1.000  O
  O198     1.0000 0.79547  0.08140  0.83931  Biso   1.000  O
  C1608    1.0000 0.80785  0.14339  0.83135  Biso   1.000  C
  C1609    1.0000 0.81376  0.11862  0.99509  Biso   1.000  C
  C1610    1.0000 0.74938  0.09410  0.91753  Biso   1.000  C
  C1611    1.0000 0.81374  0.11862  0.99509  Biso   1.000  C
  C1612    1.0000 0.74936  0.09410  0.91753  Biso   1.000  C
  C1613    1.0000 0.78885  0.04842  0.87787  Biso   1.000  C
  C1614    1.0000 0.78883  0.04842  0.87787  Biso   1.000  C
  H1546    1.0000 0.83953  0.12446  0.97976  Biso   1.000  H
  H1547    1.0000 0.83950  0.12446  0.97976  Biso   1.000  H
  H1548    1.0000 0.80193  0.09686  0.04012  Biso   1.000  H
  H1549    1.0000 0.81442  0.14045  0.02694  Biso   1.000  H
  H1550    1.0000 0.80191  0.09686  0.04012  Biso   1.000  H
  H1551    1.0000 0.73643  0.09057  0.85375  Biso   1.000  H
  H1552    1.0000 0.74602  0.11196  0.95854  Biso   1.000  H
  H1553    1.0000 0.73874  0.06978  0.95214  Biso   1.000  H
  O199     1.0000 0.77630  0.03671  0.95914  Biso   1.000  O
  C1615    1.0000 0.79898  0.02723  0.80448  Biso   1.000  C
  C1616    1.0000 0.77917  0.98761  0.80835  Biso   1.000  C
  C1617    1.0000 0.77919  0.98761  0.80835  Biso   1.000  C
  C1618    1.0000 0.82736  0.04622  0.73214  Biso   1.000  C
  C1619    1.0000 0.82734  0.04622  0.73214  Biso   1.000  C
  C1620    1.0000 0.78623  0.96620  0.73846  Biso   1.000  C
  C1621    1.0000 0.74950  0.96688  0.88702  Biso   1.000  C
  C1622    1.0000 0.78628  0.96620  0.73846  Biso   1.000  C
  C1623    1.0000 0.74952  0.96688  0.88702  Biso   1.000  C
  C1624    1.0000 0.85701  0.08665  0.73623  Biso   1.000  C
  C1625    1.0000 0.83151  0.02452  0.65905  Biso   1.000  C
  C1626    1.0000 0.85698  0.08665  0.73623  Biso   1.000  C
  C1627    1.0000 0.83149  0.02452  0.65905  Biso   1.000  C
  C1628    1.0000 0.77219  0.92503  0.74486  Biso   1.000  C
  C1629    1.0000 0.81137  0.98569  0.66158  Biso   1.000  C
  C1630    1.0000 0.81139  0.98569  0.66158  Biso   1.000  C
  O200     1.0000 0.75515  0.95443  0.96204  Biso   1.000  O
  O201     1.0000 0.71672  0.96309  0.85777  Biso   1.000  O
  O202     1.0000 0.71675  0.96309  0.85777  Biso   1.000  O
  C1631    1.0000 0.87805  0.10160  0.82338  Biso   1.000  C
  C1632    1.0000 0.86914  0.10891  0.65064  Biso   1.000  C
  H1554    1.0000 0.84873  0.03676  0.60598  Biso   1.000  H
  C1633    1.0000 0.77810  0.90943  0.83053  Biso   1.000  C
  C1634    1.0000 0.76017  0.90266  0.65905  Biso   1.000  C
  C1635    1.0000 0.77808  0.90940  0.83053  Biso   1.000  C
  H1555    1.0000 0.81474  0.97187  0.60963  Biso   1.000  H
  C1636    1.0000 0.68285  0.94461  0.92327  Biso   1.000  C
  C1637    1.0000 0.68290  0.94461  0.92327  Biso   1.000  C
  C1638    1.0000 0.91170  0.13504  0.82175  Biso   1.000  C
  H1556    1.0000 0.86893  0.08845  0.88449  Biso   1.000  H
  C1639    1.0000 0.91167  0.13504  0.82175  Biso   1.000  C
  H1557    1.0000 0.86891  0.08845  0.88449  Biso   1.000  H
  H1558    1.0000 0.85393  0.10087  0.59244  Biso   1.000  H
  C1640    1.0000 0.90320  0.14263  0.64967  Biso   1.000  C
  H1559    1.0000 0.78372  0.92278  0.89186  Biso   1.000  H
  C1641    1.0000 0.77588  0.87450  0.82673  Biso   1.000  C
  C1642    1.0000 0.77589  0.87447  0.82673  Biso   1.000  C
  H1560    1.0000 0.78377  0.92278  0.89186  Biso   1.000  H
  C1643    1.0000 0.77591  0.87450  0.82673  Biso   1.000  C
  C1644    1.0000 0.77587  0.87447  0.82673  Biso   1.000  C
  C1645    1.0000 0.75765  0.86795  0.65622  Biso   1.000  C
  H1561    1.0000 0.75363  0.91166  0.60159  Biso   1.000  H
  H1562    1.0000 0.75365  0.91166  0.60159  Biso   1.000  H
  C1646    1.0000 0.67205  0.90415  0.94277  Biso   1.000  C
  C1647    1.0000 0.65313  0.94676  0.85985  Biso   1.000  C
  C1648    1.0000 0.65316  0.94676  0.85985  Biso   1.000  C
  C1649    1.0000 0.69051  0.96809  0.01637  Biso   1.000  C
  C1650    1.0000 0.69053  0.96809  0.01637  Biso   1.000  C
  H1563    1.0000 0.92543  0.14457  0.88196  Biso   1.000  H
  C1651    1.0000 0.92617  0.15532  0.73392  Biso   1.000  C
  C1652    1.0000 0.92614  0.15532  0.73392  Biso   1.000  C
  H1564    1.0000 0.91103  0.15736  0.59058  Biso   1.000  H
  H1565    1.0000 0.91101  0.15736  0.59058  Biso   1.000  H
  H1566    1.0000 0.77980  0.86426  0.88598  Biso   1.000  H
  C1653    1.0000 0.76806  0.85407  0.73876  Biso   1.000  C
  H1567    1.0000 0.77985  0.86426  0.88598  Biso   1.000  H
  H1568    1.0000 0.74871  0.85306  0.59765  Biso   1.000  H
  H1569    1.0000 0.64733  0.89106  0.97522  Biso   1.000  H
  H1570    1.0000 0.69094  0.90348  0.98616  Biso   1.000  H
  H1571    1.0000 0.67091  0.89165  0.87958  Biso   1.000  H
  H1572    1.0000 0.69097  0.90348  0.98616  Biso   1.000  H
  H1573    1.0000 0.67093  0.89165  0.87958  Biso   1.000  H
  H1574    1.0000 0.62934  0.93606  0.89692  Biso   1.000  H
  H1575    1.0000 0.66175  0.97317  0.84355  Biso   1.000  H
  H1576    1.0000 0.64921  0.93237  0.79838  Biso   1.000  H
  H1577    1.0000 0.64924  0.93237  0.79838  Biso   1.000  H
  H1578    1.0000 0.69952  0.99447  0.99784  Biso   1.000  H
  H1579    1.0000 0.70972  0.96668  0.05656  Biso   1.000  H
  H1580    1.0000 0.66710  0.95847  0.05508  Biso   1.000  H
  H1581    1.0000 0.70977  0.96668  0.05656  Biso   1.000  H
  H1582    1.0000 0.66713  0.95847  0.05508  Biso   1.000  H
  C1654    1.0000 0.96665  0.18439  0.72767  Biso   1.000  C
  C1655    1.0000 0.77735  0.82363  0.73035  Biso   1.000  C
  C1656    1.0000 0.98694  0.20518  0.81036  Biso   1.000  C
  C1657    1.0000 0.98708  0.18644  0.64238  Biso   1.000  C
  C1658    1.0000 0.98705  0.18644  0.64238  Biso   1.000  C
  C1659    1.0000 0.77584  0.80165  0.81163  Biso   1.000  C
  C1660    1.0000 0.79476  0.82078  0.64394  Biso   1.000  C
  C1661    1.0000 0.79479  0.82078  0.64394  Biso   1.000  C
  H1583    1.0000 0.97362  0.20625  0.86707  Biso   1.000  H
  C1662    1.0000 0.02579  0.22414  0.81163  Biso   1.000  C
  H1584    1.0000 0.97403  0.17476  0.58254  Biso   1.000  H
  C1663    1.0000 0.02601  0.20524  0.64394  Biso   1.000  C
  C1664    1.0000 0.02599  0.20524  0.64394  Biso   1.000  C
  H1585    1.0000 0.76155  0.80038  0.86864  Biso   1.000  H
  C1665    1.0000 0.79480  0.78176  0.81036  Biso   1.000  C
  H1586    1.0000 0.76157  0.80038  0.86864  Biso   1.000  H
  C1666    1.0000 0.79485  0.78176  0.81036  Biso   1.000  C
  C1667    1.0000 0.81355  0.80063  0.64238  Biso   1.000  C
  H1587    1.0000 0.79362  0.83297  0.58492  Biso   1.000  H
  H1588    1.0000 0.79365  0.83297  0.58492  Biso   1.000  H
  C1668    1.0000 0.81360  0.80063  0.64238  Biso   1.000  C
  C1669    1.0000 0.04628  0.22264  0.73035  Biso   1.000  C
  H1589    1.0000 0.03885  0.23847  0.86864  Biso   1.000  H
  C1670    1.0000 0.04625  0.22264  0.73035  Biso   1.000  C
  H1590    1.0000 0.03882  0.23847  0.86864  Biso   1.000  H
  H1591    1.0000 0.03933  0.20636  0.58492  Biso   1.000  H
  C1671    1.0000 0.81560  0.78226  0.72767  Biso   1.000  C
  H1592    1.0000 0.79371  0.76737  0.86707  Biso   1.000  H
  H1593    1.0000 0.79376  0.76737  0.86707  Biso   1.000  H
  H1594    1.0000 0.82523  0.79928  0.58254  Biso   1.000  H
  C1672    1.0000 0.08602  0.23196  0.73876  Biso   1.000  C
  C1673    1.0000 0.08605  0.23196  0.73876  Biso   1.000  C
  C1674    1.0000 0.84466  0.77084  0.73392  Biso   1.000  C
  C1675    1.0000 0.84469  0.77084  0.73392  Biso   1.000  C
  C1676    1.0000 0.09862  0.22411  0.82673  Biso   1.000  C
  C1677    1.0000 0.11030  0.24234  0.65622  Biso   1.000  C
  C1678    1.0000 0.09859  0.22411  0.82673  Biso   1.000  C
  C1679    1.0000 0.11032  0.24234  0.65622  Biso   1.000  C
  C1680    1.0000 0.86494  0.77665  0.82175  Biso   1.000  C
  C1681    1.0000 0.85734  0.76057  0.64967  Biso   1.000  C
  C1682    1.0000 0.85736  0.76057  0.64967  Biso   1.000  C
  C1683    1.0000 0.13130  0.22188  0.83053  Biso   1.000  C
  H1595    1.0000 0.08442  0.22016  0.88598  Biso   1.000  H
  C1684    1.0000 0.13132  0.22188  0.83053  Biso   1.000  C
  H1596    1.0000 0.08445  0.22016  0.88598  Biso   1.000  H
  H1597    1.0000 0.10432  0.25125  0.59765  Biso   1.000  H
  C1685    1.0000 0.14249  0.23983  0.65905  Biso   1.000  C
  H1598    1.0000 0.10434  0.25125  0.59765  Biso   1.000  H
  H1599    1.0000 0.85541  0.78085  0.88196  Biso   1.000  H
  C1686    1.0000 0.89837  0.77645  0.82338  Biso   1.000  C
  C1687    1.0000 0.89842  0.77645  0.82338  Biso   1.000  C
  C1688    1.0000 0.89106  0.76023  0.65064  Biso   1.000  C
  H1600    1.0000 0.84262  0.75365  0.59058  Biso   1.000  H
  H1601    1.0000 0.84264  0.75365  0.59058  Biso   1.000  H
  C1689    1.0000 0.89109  0.76023  0.65064  Biso   1.000  C
  C1690    1.0000 0.15283  0.22781  0.74486  Biso   1.000  C
  H1602    1.0000 0.13904  0.21627  0.89186  Biso   1.000  H
  H1603    1.0000 0.13902  0.21627  0.89186  Biso   1.000  H
  C1691    1.0000 0.15285  0.22781  0.74486  Biso   1.000  C
  H1604    1.0000 0.15803  0.24637  0.60159  Biso   1.000  H
  H1605    1.0000 0.15806  0.24637  0.60159  Biso   1.000  H
  C1692    1.0000 0.91335  0.77036  0.73623  Biso   1.000  C
  H1606    1.0000 0.91154  0.78046  0.88449  Biso   1.000  H
  H1607    1.0000 0.89911  0.75306  0.59244  Biso   1.000  H
  H1608    1.0000 0.89913  0.75306  0.59244  Biso   1.000  H
  C1693    1.0000 0.17996  0.21376  0.73846  Biso   1.000  C
  C1694    1.0000 0.17994  0.21376  0.73846  Biso   1.000  C
  C1695    1.0000 0.95376  0.78114  0.73214  Biso   1.000  C
  C1696    1.0000 0.95381  0.78114  0.73214  Biso   1.000  C
  C1697    1.0000 0.20844  0.22081  0.80835  Biso   1.000  C
  C1698    1.0000 0.17429  0.18859  0.66158  Biso   1.000  C
  C1699    1.0000 0.17432  0.18859  0.66158  Biso   1.000  C
  C1700    1.0000 0.97277  0.77177  0.80448  Biso   1.000  C
  C1701    1.0000 0.97547  0.80701  0.65905  Biso   1.000  C
  C1702    1.0000 0.97549  0.80701  0.65905  Biso   1.000  C
  C1703    1.0000 0.22824  0.20103  0.80448  Biso   1.000  C
  C1704    1.0000 0.21737  0.25049  0.88702  Biso   1.000  C
  C1705    1.0000 0.21734  0.25049  0.88702  Biso   1.000  C
  C1706    1.0000 0.22826  0.20103  0.80448  Biso   1.000  C
  H1609    1.0000 0.15714  0.18526  0.60963  Biso   1.000  H
  C1707    1.0000 0.19300  0.16847  0.65905  Biso   1.000  C
  H1610    1.0000 0.15711  0.18526  0.60963  Biso   1.000  H
  C1708    1.0000 0.95158  0.74042  0.87787  Biso   1.000  C
  C1709    1.0000 0.01238  0.79155  0.80835  Biso   1.000  C
  H1611    1.0000 0.96321  0.81197  0.60598  Biso   1.000  H
  H1612    1.0000 0.96326  0.81197  0.60598  Biso   1.000  H
  C1710    1.0000 0.01432  0.82569  0.66158  Biso   1.000  C
  C1711    1.0000 0.01430  0.82569  0.66158  Biso   1.000  C
  C1712    1.0000 0.21886  0.17265  0.73214  Biso   1.000  C
  C1713    1.0000 0.25957  0.21116  0.87787  Biso   1.000  C
  C1714    1.0000 0.25959  0.21116  0.87787  Biso   1.000  C
  O203     1.0000 0.19930  0.24485  0.96204  Biso   1.000  O
  O204     1.0000 0.24635  0.28325  0.85777  Biso   1.000  O
  O205     1.0000 0.19927  0.24485  0.96204  Biso   1.000  O
  O206     1.0000 0.24633  0.28325  0.85777  Biso   1.000  O
  H1613    1.0000 0.18803  0.15126  0.60598  Biso   1.000  H
  O207     1.0000 0.96329  0.73960  0.95914  Biso   1.000  O
  O208     1.0000 0.91860  0.71410  0.83931  Biso   1.000  O
  O209     1.0000 0.96331  0.73960  0.95914  Biso   1.000  O
  C1715    1.0000 0.03379  0.82004  0.73846  Biso   1.000  C
  C1716    1.0000 0.03316  0.78263  0.88702  Biso   1.000  C
  C1717    1.0000 0.03311  0.78263  0.88702  Biso   1.000  C
  H1614    1.0000 0.02814  0.84287  0.60963  Biso   1.000  H
  H1615    1.0000 0.02812  0.84287  0.60963  Biso   1.000  H
  C1718    1.0000 0.22964  0.14299  0.73623  Biso   1.000  C
  O210     1.0000 0.26038  0.22369  0.95914  Biso   1.000  O
  O211     1.0000 0.28590  0.20450  0.83931  Biso   1.000  O
  O212     1.0000 0.26041  0.22369  0.95914  Biso   1.000  O
  O213     1.0000 0.28593  0.20450  0.83931  Biso   1.000  O
  C1719    1.0000 0.26173  0.31714  0.92327  Biso   1.000  C
  C1720    1.0000 0.26172  0.31711  0.92327  Biso   1.000  C
  C1721    1.0000 0.26174  0.31711  0.92327  Biso   1.000  C
  C1722    1.0000 0.89068  0.68171  0.89923  Biso   1.000  C
  C1723    1.0000 0.89070  0.68171  0.89923  Biso   1.000  C
  C1724    1.0000 0.07498  0.84716  0.74486  Biso   1.000  C
  C1725    1.0000 0.07495  0.84716  0.74486  Biso   1.000  C
  O214     1.0000 0.04558  0.80072  0.96204  Biso   1.000  O
  O215     1.0000 0.03692  0.75365  0.85777  Biso   1.000  O
  O216     1.0000 0.04555  0.80072  0.96204  Biso   1.000  O
  C1726    1.0000 0.22356  0.12195  0.82338  Biso   1.000  C
  C1727    1.0000 0.23976  0.13083  0.65064  Biso   1.000  C
  C1728    1.0000 0.22354  0.12195  0.82338  Biso   1.000  C
  C1729    1.0000 0.23974  0.13083  0.65064  Biso   1.000  C
  C1730    1.0000 0.31830  0.20899  0.89923  Biso   1.000  C
  C1731    1.0000 0.31829  0.20896  0.89923  Biso   1.000  C
  C1732    1.0000 0.31831  0.20896  0.89923  Biso   1.000  C
  C1733    1.0000 0.23210  0.32794  0.94277  Biso   1.000  C
  C1734    1.0000 0.29363  0.34688  0.85985  Biso   1.000  C
  C1735    1.0000 0.23212  0.32794  0.94277  Biso   1.000  C
  C1736    1.0000 0.29366  0.34688  0.85985  Biso   1.000  C
  C1737    1.0000 0.27758  0.30949  0.01637  Biso   1.000  C
  C1738    1.0000 0.27760  0.30949  0.01637  Biso   1.000  C
  C1739    1.0000 0.85660  0.66447  0.83135  Biso   1.000  C
  C1740    1.0000 0.88139  0.69514  0.99509  Biso   1.000  C
  C1741    1.0000 0.90589  0.65530  0.91753  Biso   1.000  C
  C1742    1.0000 0.85662  0.66447  0.83135  Biso   1.000  C
  C1743    1.0000 0.90594  0.65530  0.91753  Biso   1.000  C
  C1744    1.0000 0.09058  0.86869  0.83053  Biso   1.000  C
  C1745    1.0000 0.09736  0.85751  0.65905  Biso   1.000  C
  C1746    1.0000 0.05541  0.73828  0.92327  Biso   1.000  C
  C1747    1.0000 0.05538  0.73828  0.92327  Biso   1.000  C
  C1748    1.0000 0.22336  0.08831  0.82175  Biso   1.000  C
  H1616    1.0000 0.21952  0.13106  0.88449  Biso   1.000  H
  C1749    1.0000 0.22334  0.08831  0.82175  Biso   1.000  C
  H1617    1.0000 0.21954  0.13106  0.88449  Biso   1.000  H
  H1618    1.0000 0.24694  0.14607  0.59244  Biso   1.000  H
  C1750    1.0000 0.23942  0.09678  0.64967  Biso   1.000  C
  H1619    1.0000 0.24691  0.14607  0.59244  Biso   1.000  H
  C1751    1.0000 0.23940  0.09678  0.64967  Biso   1.000  C
  C1752    1.0000 0.33555  0.19217  0.83135  Biso   1.000  C
  C1753    1.0000 0.30488  0.18625  0.99509  Biso   1.000  C
  C1754    1.0000 0.34472  0.25063  0.91753  Biso   1.000  C
  C1755    1.0000 0.33552  0.19217  0.83135  Biso   1.000  C
  C1756    1.0000 0.30485  0.18625  0.99509  Biso   1.000  C
  H1620    1.0000 0.21254  0.30907  0.98616  Biso   1.000  H
  H1621    1.0000 0.22074  0.32907  0.87958  Biso   1.000  H
  H1622    1.0000 0.24372  0.35266  0.97522  Biso   1.000  H
  H1623    1.0000 0.21252  0.30907  0.98616  Biso   1.000  H
  H1624    1.0000 0.24375  0.35266  0.97522  Biso   1.000  H
  H1625    1.0000 0.31144  0.33827  0.84355  Biso   1.000  H
  H1626    1.0000 0.30672  0.37066  0.89692  Biso   1.000  H
  H1627    1.0000 0.28314  0.35077  0.79838  Biso   1.000  H
  H1628    1.0000 0.31142  0.33827  0.84355  Biso   1.000  H
  H1629    1.0000 0.28312  0.35077  0.79838  Biso   1.000  H
  H1630    1.0000 0.30675  0.37066  0.89692  Biso   1.000  H
  H1631    1.0000 0.29493  0.30046  0.99784  Biso   1.000  H
  H1632    1.0000 0.29491  0.30046  0.99784  Biso   1.000  H
  H1633    1.0000 0.25693  0.29028  0.05656  Biso   1.000  H
  H1634    1.0000 0.29134  0.33285  0.05508  Biso   1.000  H
  H1635    1.0000 0.29131  0.33285  0.05508  Biso   1.000  H
  H1636    1.0000 0.25695  0.29028  0.05656  Biso   1.000  H
  H1637    1.0000 0.84923  0.68326  0.81609  Biso   1.000  H
  H1638    1.0000 0.83563  0.64277  0.86447  Biso   1.000  H
  H1639    1.0000 0.86291  0.65617  0.76943  Biso   1.000  H
  H1640    1.0000 0.86295  0.65617  0.76943  Biso   1.000  H
  H1641    1.0000 0.87551  0.71506  0.97976  Biso   1.000  H
  H1642    1.0000 0.90311  0.70507  0.04012  Biso   1.000  H
  H1643    1.0000 0.85952  0.67398  0.02694  Biso   1.000  H
  H1644    1.0000 0.90314  0.70507  0.04012  Biso   1.000  H
  H1645    1.0000 0.85957  0.67398  0.02694  Biso   1.000  H
  H1646    1.0000 0.90944  0.64587  0.85375  Biso   1.000  H
  H1647    1.0000 0.88805  0.63408  0.95854  Biso   1.000  H
  H1648    1.0000 0.93023  0.66898  0.95214  Biso   1.000  H
  H1649    1.0000 0.93021  0.66895  0.95214  Biso   1.000  H
  H1650    1.0000 0.07723  0.86096  0.89186  Biso   1.000  H
  C1757    1.0000 0.12553  0.90139  0.82673  Biso   1.000  C
  C1758    1.0000 0.13207  0.88971  0.65622  Biso   1.000  C
  H1651    1.0000 0.08836  0.84197  0.60159  Biso   1.000  H
  H1652    1.0000 0.08831  0.84197  0.60159  Biso   1.000  H
  C1759    1.0000 0.13205  0.88971  0.65622  Biso   1.000  C
  C1760    1.0000 0.09583  0.76790  0.94277  Biso   1.000  C
  C1761    1.0000 0.05323  0.70637  0.85985  Biso   1.000  C
  C1762    1.0000 0.05321  0.70637  0.85985  Biso   1.000  C
  C1763    1.0000 0.03191  0.72242  0.01637  Biso   1.000  C
  C1764    1.0000 0.03187  0.72239  0.01637  Biso   1.000  C
  C1765    1.0000 0.22917  0.07384  0.73392  Biso   1.000  C
  H1653    1.0000 0.21913  0.07457  0.88196  Biso   1.000  H
  H1654    1.0000 0.21916  0.07457  0.88196  Biso   1.000  H
  H1655    1.0000 0.24634  0.08896  0.59058  Biso   1.000  H
  H1656    1.0000 0.24631  0.08896  0.59058  Biso   1.000  H
  H1657    1.0000 0.31673  0.16596  0.81609  Biso   1.000  H
  H1658    1.0000 0.35723  0.19288  0.86447  Biso   1.000  H
  H1659    1.0000 0.34382  0.20676  0.76943  Biso   1.000  H
  H1660    1.0000 0.35722  0.19285  0.86447  Biso   1.000  H
  H1661    1.0000 0.31675  0.16596  0.81609  Biso   1.000  H
  H1662    1.0000 0.35724  0.19285  0.86447  Biso   1.000  H
  H1663    1.0000 0.34384  0.20676  0.76943  Biso   1.000  H
  H1664    1.0000 0.28492  0.16046  0.97976  Biso   1.000  H
  H1665    1.0000 0.28495  0.16046  0.97976  Biso   1.000  H
  H1666    1.0000 0.29493  0.19807  0.04012  Biso   1.000  H
  H1667    1.0000 0.32604  0.18557  0.02694  Biso   1.000  H
  H1668    1.0000 0.32602  0.18557  0.02694  Biso   1.000  H
  H1669    1.0000 0.29495  0.19807  0.04012  Biso   1.000  H
  H1670    1.0000 0.35414  0.26356  0.85375  Biso   1.000  H
  H1671    1.0000 0.36593  0.25396  0.95854  Biso   1.000  H
  H1672    1.0000 0.33103  0.26127  0.95214  Biso   1.000  H
  H1673    1.0000 0.35411  0.26356  0.85375  Biso   1.000  H
  H1674    1.0000 0.33105  0.26127  0.95214  Biso   1.000  H
  H1675    1.0000 0.13577  0.91558  0.88598  Biso   1.000  H
  C1766    1.0000 0.14592  0.91397  0.73876  Biso   1.000  C
  H1676    1.0000 0.13574  0.91555  0.88598  Biso   1.000  H
  H1677    1.0000 0.13575  0.91558  0.88598  Biso   1.000  H
  H1678    1.0000 0.14695  0.89566  0.59765  Biso   1.000  H
  H1679    1.0000 0.09654  0.78746  0.98616  Biso   1.000  H
  H1680    1.0000 0.10835  0.77927  0.87958  Biso   1.000  H
  H1681    1.0000 0.10893  0.75628  0.97522  Biso   1.000  H
  H1682    1.0000 0.09651  0.78746  0.98616  Biso   1.000  H
  H1683    1.0000 0.02686  0.68856  0.84355  Biso   1.000  H
  H1684    1.0000 0.06396  0.69327  0.89692  Biso   1.000  H
  H1685    1.0000 0.06762  0.71686  0.79838  Biso   1.000  H
  H1686    1.0000 0.02681  0.68856  0.84355  Biso   1.000  H
  H1687    1.0000 0.06394  0.69327  0.89692  Biso   1.000  H
  H1688    1.0000 0.03335  0.74307  0.05656  Biso   1.000  H
  H1689    1.0000 0.00555  0.70507  0.99784  Biso   1.000  H
  H1690    1.0000 0.04156  0.70868  0.05508  Biso   1.000  H
  C1767    1.0000 0.21773  0.03335  0.72767  Biso   1.000  C
  C1768    1.0000 0.21775  0.03335  0.72767  Biso   1.000  C
  C1769    1.0000 0.17637  0.95373  0.73035  Biso   1.000  C
  C1770    1.0000 0.21824  0.01306  0.81036  Biso   1.000  C
  C1771    1.0000 0.19939  0.01295  0.64238  Biso   1.000  C
  C1772    1.0000 0.19935  0.01292  0.64238  Biso   1.000  C
  C1773    1.0000 0.19936  0.01295  0.64238  Biso   1.000  C
  C1774    1.0000 0.19938  0.01292  0.64238  Biso   1.000  C
  C1775    1.0000 0.19837  0.97421  0.81163  Biso   1.000  C
  C1776    1.0000 0.17922  0.97399  0.64394  Biso   1.000  C
  H1691    1.0000 0.23263  0.02635  0.86707  Biso   1.000  H
  H1692    1.0000 0.20074  0.02596  0.58254  Biso   1.000  H
  H1693    1.0000 0.20071  0.02596  0.58254  Biso   1.000  H
  H1694    1.0000 0.19967  0.96118  0.86864  Biso   1.000  H
  H1695    1.0000 0.19962  0.96118  0.86864  Biso   1.000  H
  H1696    1.0000 0.16704  0.96067  0.58492  Biso   1.000  H
