data_image0
_cell_length_a       29.29
_cell_length_b       29.29
_cell_length_c       21.799
_cell_angle_alpha    90
_cell_angle_beta     90
_cell_angle_gamma    120

_symmetry_space_group_name_H-M    "P 1"
_symmetry_int_tables_number       1

loop_
  _symmetry_equiv_pos_as_xyz
  'x, y, z'

loop_
  _atom_site_label
  _atom_site_occupancy
  _atom_site_fract_x
  _atom_site_fract_y
  _atom_site_fract_z
  _atom_site_thermal_displace_type
  _atom_site_B_iso_or_equiv
  _atom_site_type_symbol
  C1       1.0000 0.20336  0.90354  0.53342  Biso   1.000  C
  C2       1.0000 0.22488  0.95695  0.53502  Biso   1.000  C
  C3       1.0000 0.22486  0.95692  0.53502  Biso   1.000  C
  C4       1.0000 0.23498  0.88122  0.54622  Biso   1.000  C
  H1       1.0000 0.16716  0.88154  0.52365  Biso   1.000  H
  C5       1.0000 0.19097  0.98195  0.52952  Biso   1.000  C
  C6       1.0000 0.27808  0.98743  0.54764  Biso   1.000  C
  C7       1.0000 0.28777  0.91272  0.55814  Biso   1.000  C
  H2       1.0000 0.21968  0.84393  0.54663  Biso   1.000  H
  N1       1.0000 0.15607  0.96165  0.47562  Biso   1.000  N
  C8       1.0000 0.15588  0.96843  0.58805  Biso   1.000  C
  H3       1.0000 0.21388  0.02094  0.52594  Biso   1.000  H
  C9       1.0000 0.30869  0.96535  0.55773  Biso   1.000  C
  H4       1.0000 0.29365  0.02472  0.54934  Biso   1.000  H
  H5       1.0000 0.30917  0.89754  0.56645  Biso   1.000  H
  C10      1.0000 0.15886  0.99563  0.43855  Biso   1.000  C
  N2       1.0000 0.12447  0.99472  0.58535  Biso   1.000  N
  H6       1.0000 0.13226  0.92932  0.59195  Biso   1.000  H
  C11      1.0000 0.19397  0.99094  0.64512  Biso   1.000  C
  H7       1.0000 0.34536  0.98735  0.56475  Biso   1.000  H
  C12      1.0000 0.13229  0.98435  0.37873  Biso   1.000  C
  C13      1.0000 0.13227  0.98431  0.37873  Biso   1.000  C
  H8       1.0000 0.17986  0.03162  0.45002  Biso   1.000  H
  C14      1.0000 0.07447  0.96464  0.58282  Biso   1.000  C
  C15      1.0000 0.19467  0.95554  0.68705  Biso   1.000  C
  C16      1.0000 0.22865  0.04522  0.64875  Biso   1.000  C
  C17      1.0000 0.09396  0.93302  0.36194  Biso   1.000  C
  C18      1.0000 0.14797  0.02492  0.33735  Biso   1.000  C
  C19      1.0000 0.03636  0.98313  0.58094  Biso   1.000  C
  H9       1.0000 0.06115  0.92762  0.58214  Biso   1.000  H
  C20      1.0000 0.23237  0.97714  0.73751  Biso   1.000  C
  H10      1.0000 0.17147  0.91864  0.68292  Biso   1.000  H
  H11      1.0000 0.22638  0.06765  0.61893  Biso   1.000  H
  C21      1.0000 0.26728  0.06785  0.69581  Biso   1.000  C
  H12      1.0000 0.22636  0.06762  0.61893  Biso   1.000  H
  C22      1.0000 0.07346  0.92254  0.30272  Biso   1.000  C
  H13      1.0000 0.08207  0.90535  0.39112  Biso   1.000  H
  C23      1.0000 0.12685  0.01554  0.27662  Biso   1.000  C
  H14      1.0000 0.17336  0.05973  0.34933  Biso   1.000  H
  C24      1.0000 0.98345  0.94682  0.58182  Biso   1.000  C
  C25      1.0000 0.05317  0.03663  0.58182  Biso   1.000  C
  H15      1.0000 0.23478  0.95573  0.76861  Biso   1.000  H
  C26      1.0000 0.26327  0.02965  0.73632  Biso   1.000  C
  H16      1.0000 0.29247  0.10436  0.69902  Biso   1.000  H
  H17      1.0000 0.29245  0.10432  0.69902  Biso   1.000  H
  C27      1.0000 0.03577  0.86806  0.28465  Biso   1.000  C
  C28      1.0000 0.03575  0.86802  0.28465  Biso   1.000  C
  C29      1.0000 0.08938  0.96374  0.26084  Biso   1.000  C
  C30      1.0000 0.14660  0.05796  0.23134  Biso   1.000  C
  C31      1.0000 0.14658  0.05792  0.23134  Biso   1.000  C
  C32      1.0000 0.94677  0.96366  0.58094  Biso   1.000  C
  C33      1.0000 0.94675  0.96362  0.58094  Biso   1.000  C
  H18      1.0000 0.97205  0.91024  0.58315  Biso   1.000  H
  H19      1.0000 0.08977  0.06182  0.58315  Biso   1.000  H
  C34      1.0000 0.01685  0.05323  0.58094  Biso   1.000  C
  H20      1.0000 0.28717  0.04345  0.76985  Biso   1.000  H
  N3       1.0000 0.02678  0.85363  0.22822  Biso   1.000  N
  H21      1.0000 0.01746  0.84263  0.31575  Biso   1.000  H
  H22      1.0000 0.07447  0.95644  0.22084  Biso   1.000  H
  N4       1.0000 0.18606  0.10254  0.24143  Biso   1.000  N
  H23      1.0000 0.12897  0.05165  0.19294  Biso   1.000  H
  C35      1.0000 0.89018  0.92553  0.58282  Biso   1.000  C
  C36      1.0000 0.96337  0.01652  0.58182  Biso   1.000  C
  C37      1.0000 0.03536  0.10984  0.58282  Biso   1.000  C
  C38      1.0000 0.98806  0.79784  0.21712  Biso   1.000  C
  C39      1.0000 0.20347  0.14173  0.19161  Biso   1.000  C
  N5       1.0000 0.87028  0.87555  0.58535  Biso   1.000  N
  H24      1.0000 0.86647  0.93882  0.58214  Biso   1.000  H
  H25      1.0000 0.93818  0.02796  0.58315  Biso   1.000  H
  H26      1.0000 0.93816  0.02792  0.58315  Biso   1.000  H
  N6       1.0000 0.00526  0.12975  0.58535  Biso   1.000  N
  H27      1.0000 0.07236  0.13353  0.58214  Biso   1.000  H
  C40      1.0000 0.01136  0.77514  0.17175  Biso   1.000  C
  C41      1.0000 0.93828  0.79654  0.19161  Biso   1.000  C
  H28      1.0000 0.97947  0.77786  0.25662  Biso   1.000  H
  H29      1.0000 0.97945  0.77782  0.25662  Biso   1.000  H
  H30      1.0000 0.17827  0.12663  0.15652  Biso   1.000  H
  C42      1.0000 0.20214  0.19022  0.21712  Biso   1.000  C
  C43      1.0000 0.25846  0.15474  0.17024  Biso   1.000  C
  C44      1.0000 0.81257  0.84413  0.58805  Biso   1.000  C
  C45      1.0000 0.03157  0.18742  0.58805  Biso   1.000  C
  C46      1.0000 0.00639  0.72586  0.18405  Biso   1.000  C
  C47      1.0000 0.00637  0.72582  0.18405  Biso   1.000  C
  C48      1.0000 0.03537  0.80115  0.11822  Biso   1.000  C
  C49      1.0000 0.03535  0.80112  0.11822  Biso   1.000  C
  N7       1.0000 0.91646  0.81393  0.24143  Biso   1.000  N
  H31      1.0000 0.94835  0.82173  0.15652  Biso   1.000  H
  C50      1.0000 0.89628  0.74155  0.17024  Biso   1.000  C
  N8       1.0000 0.14639  0.17315  0.22822  Biso   1.000  N
  H32      1.0000 0.22217  0.20165  0.25662  Biso   1.000  H
  C51      1.0000 0.22487  0.23623  0.17175  Biso   1.000  C
  H33      1.0000 0.22215  0.20161  0.25662  Biso   1.000  H
  C52      1.0000 0.29767  0.16625  0.21262  Biso   1.000  C
  C53      1.0000 0.26828  0.15513  0.10803  Biso   1.000  C
  C54      1.0000 0.79097  0.80904  0.52952  Biso   1.000  C
  H34      1.0000 0.79707  0.86774  0.59195  Biso   1.000  H
  C55      1.0000 0.79698  0.80604  0.64512  Biso   1.000  C
  C56      1.0000 0.01807  0.20903  0.52952  Biso   1.000  C
  H35      1.0000 0.07068  0.20295  0.59195  Biso   1.000  H
  C57      1.0000 0.00906  0.20303  0.64512  Biso   1.000  C
  H36      1.0000 0.07066  0.20291  0.59195  Biso   1.000  H
  C58      1.0000 0.02607  0.70445  0.14235  Biso   1.000  C
  H37      1.0000 0.98958  0.70733  0.22051  Biso   1.000  H
  C59      1.0000 0.05476  0.77904  0.07762  Biso   1.000  C
  H38      1.0000 0.03848  0.83435  0.10932  Biso   1.000  H
  C60      1.0000 0.91135  0.85343  0.23134  Biso   1.000  C
  C61      1.0000 0.86857  0.70232  0.21262  Biso   1.000  C
  C62      1.0000 0.88686  0.73173  0.10803  Biso   1.000  C
  C63      1.0000 0.13198  0.16775  0.28465  Biso   1.000  C
  C64      1.0000 0.27417  0.28054  0.18405  Biso   1.000  C
  C65      1.0000 0.19886  0.23426  0.11822  Biso   1.000  C
  C66      1.0000 0.19884  0.23422  0.11822  Biso   1.000  C
  H39      1.0000 0.29086  0.16684  0.25515  Biso   1.000  H
  C67      1.0000 0.34749  0.17705  0.19272  Biso   1.000  C
  C68      1.0000 0.34747  0.17701  0.19272  Biso   1.000  C
  C69      1.0000 0.31727  0.16495  0.08945  Biso   1.000  C
  H40      1.0000 0.24177  0.14883  0.07872  Biso   1.000  H
  N9       1.0000 0.80558  0.84393  0.47562  Biso   1.000  N
  H41      1.0000 0.80707  0.78613  0.52594  Biso   1.000  H
  C70      1.0000 0.73205  0.77514  0.53502  Biso   1.000  C
  C71      1.0000 0.81657  0.77135  0.64875  Biso   1.000  C
  C72      1.0000 0.76088  0.80533  0.68705  Biso   1.000  C
  N10      1.0000 0.03836  0.19444  0.47562  Biso   1.000  N
  H42      1.0000 0.97906  0.19294  0.52594  Biso   1.000  H
  C73      1.0000 0.04308  0.26792  0.53502  Biso   1.000  C
  C74      1.0000 0.95478  0.18344  0.64875  Biso   1.000  C
  C75      1.0000 0.04446  0.23914  0.68705  Biso   1.000  C
  H43      1.0000 0.02284  0.67102  0.15051  Biso   1.000  H
  C76      1.0000 0.05006  0.73043  0.08991  Biso   1.000  C
  H44      1.0000 0.07156  0.79713  0.04092  Biso   1.000  H
  C77      1.0000 0.88867  0.87314  0.27662  Biso   1.000  C
  H45      1.0000 0.92269  0.87105  0.19294  Biso   1.000  H
  H46      1.0000 0.87598  0.70914  0.25515  Biso   1.000  H
  C78      1.0000 0.82958  0.65253  0.19272  Biso   1.000  C
  C79      1.0000 0.84768  0.68273  0.08945  Biso   1.000  C
  H47      1.0000 0.90707  0.75822  0.07872  Biso   1.000  H
  C80      1.0000 0.07749  0.15096  0.30272  Biso   1.000  C
  H48      1.0000 0.15738  0.17485  0.31575  Biso   1.000  H
  C81      1.0000 0.07747  0.15092  0.30272  Biso   1.000  C
  H49      1.0000 0.29267  0.28223  0.22051  Biso   1.000  H
  C82      1.0000 0.29558  0.32166  0.14235  Biso   1.000  C
  C83      1.0000 0.29556  0.32162  0.14235  Biso   1.000  C
  C84      1.0000 0.22096  0.27573  0.07762  Biso   1.000  C
  H50      1.0000 0.16567  0.20414  0.10932  Biso   1.000  H
  H51      1.0000 0.37458  0.18494  0.22194  Biso   1.000  H
  C85      1.0000 0.35778  0.17654  0.12982  Biso   1.000  C
  H52      1.0000 0.32348  0.16365  0.04693  Biso   1.000  H
  C86      1.0000 0.83675  0.84113  0.43855  Biso   1.000  C
  C87      1.0000 0.70939  0.72195  0.54764  Biso   1.000  C
  C88      1.0000 0.70015  0.79662  0.53342  Biso   1.000  C
  C89      1.0000 0.70937  0.72191  0.54764  Biso   1.000  C
  H53      1.0000 0.84127  0.77364  0.61893  Biso   1.000  H
  C90      1.0000 0.80059  0.73276  0.69581  Biso   1.000  C
  C91      1.0000 0.80057  0.73272  0.69581  Biso   1.000  C
  C92      1.0000 0.74476  0.76765  0.73751  Biso   1.000  C
  H54      1.0000 0.74719  0.82855  0.68292  Biso   1.000  H
  H55      1.0000 0.74717  0.82851  0.68292  Biso   1.000  H
  C93      1.0000 0.00437  0.16326  0.43855  Biso   1.000  C
  C94      1.0000 0.00435  0.16322  0.43855  Biso   1.000  C
  C95      1.0000 0.01257  0.29063  0.54764  Biso   1.000  C
  C96      1.0000 0.09646  0.29986  0.53342  Biso   1.000  C
  C97      1.0000 0.09644  0.29982  0.53342  Biso   1.000  C
  H56      1.0000 0.93235  0.15872  0.61893  Biso   1.000  H
  C98      1.0000 0.93216  0.19945  0.69581  Biso   1.000  C
  C99      1.0000 0.02287  0.25523  0.73751  Biso   1.000  C
  H57      1.0000 0.08135  0.25282  0.68292  Biso   1.000  H
  H58      1.0000 0.06357  0.71533  0.06184  Biso   1.000  H
  C100     1.0000 0.87437  0.91063  0.26084  Biso   1.000  C
  C101     1.0000 0.87696  0.85205  0.33735  Biso   1.000  C
  H59      1.0000 0.81037  0.62545  0.22194  Biso   1.000  H
  C102     1.0000 0.81876  0.64224  0.12982  Biso   1.000  C
  H60      1.0000 0.84018  0.67654  0.04693  Biso   1.000  H
  C103     1.0000 0.06698  0.16093  0.36194  Biso   1.000  C
  C104     1.0000 0.03626  0.12565  0.26084  Biso   1.000  C
  H61      1.0000 0.32898  0.35186  0.15051  Biso   1.000  H
  C105     1.0000 0.26959  0.31965  0.08991  Biso   1.000  C
  H62      1.0000 0.32896  0.35182  0.15051  Biso   1.000  H
  H63      1.0000 0.20287  0.27443  0.04092  Biso   1.000  H
  H64      1.0000 0.39147  0.18383  0.11574  Biso   1.000  H
  C106     1.0000 0.85207  0.86774  0.37873  Biso   1.000  C
  H65      1.0000 0.85176  0.82016  0.45002  Biso   1.000  H
  H66      1.0000 0.85175  0.82012  0.45002  Biso   1.000  H
  H67      1.0000 0.73108  0.70634  0.54934  Biso   1.000  H
  C107     1.0000 0.65665  0.69132  0.55773  Biso   1.000  C
  C108     1.0000 0.64626  0.76504  0.54622  Biso   1.000  C
  H68      1.0000 0.71438  0.83285  0.52365  Biso   1.000  H
  H69      1.0000 0.81187  0.70753  0.69902  Biso   1.000  H
  C109     1.0000 0.76635  0.73674  0.73632  Biso   1.000  C
  H70      1.0000 0.72096  0.76524  0.76861  Biso   1.000  H
  C110     1.0000 0.01565  0.14792  0.37873  Biso   1.000  C
  H71      1.0000 0.96838  0.14824  0.45002  Biso   1.000  H
  H72      1.0000 0.97527  0.26895  0.54934  Biso   1.000  H
  C111     1.0000 0.03466  0.34334  0.55773  Biso   1.000  C
  C112     1.0000 0.11877  0.35375  0.54622  Biso   1.000  C
  H73      1.0000 0.11847  0.28562  0.52365  Biso   1.000  H
  H74      1.0000 0.89567  0.18813  0.69902  Biso   1.000  H
  C113     1.0000 0.97035  0.23363  0.73632  Biso   1.000  C
  H75      1.0000 0.04427  0.27904  0.76861  Biso   1.000  H
  C114     1.0000 0.84906  0.92652  0.30272  Biso   1.000  C
  H76      1.0000 0.88195  0.92553  0.22084  Biso   1.000  H
  H77      1.0000 0.88637  0.82662  0.34933  Biso   1.000  H
  H78      1.0000 0.79235  0.60853  0.11574  Biso   1.000  H
  H79      1.0000 0.09469  0.17674  0.39112  Biso   1.000  H
  C115     1.0000 0.98448  0.11134  0.27662  Biso   1.000  C
  H80      1.0000 0.04355  0.11804  0.22084  Biso   1.000  H
  H81      1.0000 0.28466  0.34823  0.06184  Biso   1.000  H
  C116     1.0000 0.83905  0.90602  0.36194  Biso   1.000  C
  H82      1.0000 0.64196  0.65462  0.56475  Biso   1.000  H
  C117     1.0000 0.62499  0.71226  0.55814  Biso   1.000  C
  C118     1.0000 0.62497  0.71222  0.55814  Biso   1.000  C
  H83      1.0000 0.62428  0.78034  0.54663  Biso   1.000  H
  H84      1.0000 0.75629  0.71285  0.76985  Biso   1.000  H
  C119     1.0000 0.97508  0.12304  0.33735  Biso   1.000  C
  H85      1.0000 0.01269  0.35804  0.56475  Biso   1.000  H
  C120     1.0000 0.08728  0.37504  0.55814  Biso   1.000  C
  H86      1.0000 0.15609  0.37575  0.54663  Biso   1.000  H
  H87      1.0000 0.95657  0.24376  0.76985  Biso   1.000  H
  H88      1.0000 0.95655  0.24372  0.76985  Biso   1.000  H
  C121     1.0000 0.83228  0.96425  0.28465  Biso   1.000  C
  C122     1.0000 0.94206  0.08863  0.23134  Biso   1.000  C
  H89      1.0000 0.82325  0.91793  0.39112  Biso   1.000  H
  H90      1.0000 0.58837  0.69085  0.56645  Biso   1.000  H
  H91      1.0000 0.94025  0.11362  0.34933  Biso   1.000  H
  H92      1.0000 0.10246  0.41162  0.56645  Biso   1.000  H
  N11      1.0000 0.82687  0.97324  0.22822  Biso   1.000  N
  H93      1.0000 0.82517  0.98254  0.31575  Biso   1.000  H
  N12      1.0000 0.89746  0.08354  0.24143  Biso   1.000  N
  H94      1.0000 0.94837  0.07735  0.19294  Biso   1.000  H
  C123     1.0000 0.80976  0.01195  0.21712  Biso   1.000  C
  C124     1.0000 0.85829  0.06174  0.19161  Biso   1.000  C
  C125     1.0000 0.76377  0.98865  0.17175  Biso   1.000  C
  H95      1.0000 0.79836  0.02054  0.25662  Biso   1.000  H
  H96      1.0000 0.87338  0.05165  0.15652  Biso   1.000  H
  C126     1.0000 0.84527  0.10373  0.17024  Biso   1.000  C
  C127     1.0000 0.71946  0.99366  0.18405  Biso   1.000  C
  C128     1.0000 0.76576  0.96464  0.11822  Biso   1.000  C
  C129     1.0000 0.71944  0.99362  0.18405  Biso   1.000  C
  C130     1.0000 0.83376  0.13144  0.21262  Biso   1.000  C
  C131     1.0000 0.84486  0.11315  0.10803  Biso   1.000  C
  C132     1.0000 0.67837  0.97395  0.14235  Biso   1.000  C
  H97      1.0000 0.71779  0.01045  0.22051  Biso   1.000  H
  C133     1.0000 0.72428  0.94525  0.07762  Biso   1.000  C
  H98      1.0000 0.79585  0.96153  0.10932  Biso   1.000  H
  H99      1.0000 0.83317  0.12403  0.25515  Biso   1.000  H
  C134     1.0000 0.82298  0.17043  0.19272  Biso   1.000  C
  C135     1.0000 0.83506  0.15234  0.08945  Biso   1.000  C
  H100     1.0000 0.85117  0.09292  0.07872  Biso   1.000  H
  H101     1.0000 0.64818  0.97714  0.15051  Biso   1.000  H
  C136     1.0000 0.68036  0.94994  0.08991  Biso   1.000  C
  H102     1.0000 0.72558  0.92845  0.04092  Biso   1.000  H
  H103     1.0000 0.81506  0.18963  0.22194  Biso   1.000  H
  C137     1.0000 0.82346  0.18123  0.12982  Biso   1.000  C
  H104     1.0000 0.83635  0.15983  0.04693  Biso   1.000  H
  H105     1.0000 0.65177  0.93645  0.06184  Biso   1.000  H
  H106     1.0000 0.65175  0.93642  0.06184  Biso   1.000  H
  H107     1.0000 0.81618  0.20765  0.11574  Biso   1.000  H
  C138     1.0000 0.20336  0.90354  0.53342  Biso   1.000  C
  C139     1.0000 0.22488  0.95695  0.53502  Biso   1.000  C
  C140     1.0000 0.22486  0.95692  0.53502  Biso   1.000  C
  C141     1.0000 0.23498  0.88122  0.54622  Biso   1.000  C
  H108     1.0000 0.16716  0.88154  0.52365  Biso   1.000  H
  C142     1.0000 0.19097  0.98195  0.52952  Biso   1.000  C
  C143     1.0000 0.27808  0.98743  0.54764  Biso   1.000  C
  C144     1.0000 0.28777  0.91272  0.55814  Biso   1.000  C
  H109     1.0000 0.21968  0.84393  0.54663  Biso   1.000  H
  N13      1.0000 0.15607  0.96165  0.47562  Biso   1.000  N
  C145     1.0000 0.15588  0.96843  0.58805  Biso   1.000  C
  H110     1.0000 0.21388  0.02094  0.52594  Biso   1.000  H
  C146     1.0000 0.30869  0.96535  0.55773  Biso   1.000  C
  H111     1.0000 0.29365  0.02472  0.54934  Biso   1.000  H
  H112     1.0000 0.30917  0.89754  0.56645  Biso   1.000  H
  C147     1.0000 0.15886  0.99563  0.43855  Biso   1.000  C
  N14      1.0000 0.12447  0.99472  0.58535  Biso   1.000  N
  H113     1.0000 0.13226  0.92932  0.59195  Biso   1.000  H
  C148     1.0000 0.19397  0.99094  0.64512  Biso   1.000  C
  H114     1.0000 0.34536  0.98735  0.56475  Biso   1.000  H
  C149     1.0000 0.13229  0.98435  0.37873  Biso   1.000  C
  C150     1.0000 0.13227  0.98431  0.37873  Biso   1.000  C
  H115     1.0000 0.17986  0.03162  0.45002  Biso   1.000  H
  C151     1.0000 0.07447  0.96464  0.58282  Biso   1.000  C
  C152     1.0000 0.19467  0.95554  0.68705  Biso   1.000  C
  C153     1.0000 0.22865  0.04522  0.64875  Biso   1.000  C
  C154     1.0000 0.09396  0.93302  0.36194  Biso   1.000  C
  C155     1.0000 0.14797  0.02492  0.33735  Biso   1.000  C
  C156     1.0000 0.03636  0.98313  0.58094  Biso   1.000  C
  H116     1.0000 0.06115  0.92762  0.58214  Biso   1.000  H
  C157     1.0000 0.23237  0.97714  0.73751  Biso   1.000  C
  H117     1.0000 0.17147  0.91864  0.68292  Biso   1.000  H
  H118     1.0000 0.22638  0.06765  0.61893  Biso   1.000  H
  C158     1.0000 0.26728  0.06785  0.69581  Biso   1.000  C
  H119     1.0000 0.22636  0.06762  0.61893  Biso   1.000  H
  C159     1.0000 0.07346  0.92254  0.30272  Biso   1.000  C
  H120     1.0000 0.08207  0.90535  0.39112  Biso   1.000  H
  C160     1.0000 0.12685  0.01554  0.27662  Biso   1.000  C
  H121     1.0000 0.17336  0.05973  0.34933  Biso   1.000  H
  C161     1.0000 0.98345  0.94682  0.58182  Biso   1.000  C
  C162     1.0000 0.05317  0.03663  0.58182  Biso   1.000  C
  H122     1.0000 0.23478  0.95573  0.76861  Biso   1.000  H
  C163     1.0000 0.26327  0.02965  0.73632  Biso   1.000  C
  H123     1.0000 0.29247  0.10436  0.69902  Biso   1.000  H
  H124     1.0000 0.29245  0.10432  0.69902  Biso   1.000  H
  C164     1.0000 0.03577  0.86806  0.28465  Biso   1.000  C
  C165     1.0000 0.03575  0.86802  0.28465  Biso   1.000  C
  C166     1.0000 0.08938  0.96374  0.26084  Biso   1.000  C
  C167     1.0000 0.14660  0.05796  0.23134  Biso   1.000  C
  C168     1.0000 0.14658  0.05792  0.23134  Biso   1.000  C
  C169     1.0000 0.94677  0.96366  0.58094  Biso   1.000  C
  C170     1.0000 0.94675  0.96362  0.58094  Biso   1.000  C
  H125     1.0000 0.97205  0.91024  0.58315  Biso   1.000  H
  H126     1.0000 0.08977  0.06182  0.58315  Biso   1.000  H
  C171     1.0000 0.01685  0.05323  0.58094  Biso   1.000  C
  H127     1.0000 0.28717  0.04345  0.76985  Biso   1.000  H
  N15      1.0000 0.02678  0.85363  0.22822  Biso   1.000  N
  H128     1.0000 0.01746  0.84263  0.31575  Biso   1.000  H
  H129     1.0000 0.07447  0.95644  0.22084  Biso   1.000  H
  N16      1.0000 0.18606  0.10254  0.24143  Biso   1.000  N
  H130     1.0000 0.12897  0.05165  0.19294  Biso   1.000  H
  C172     1.0000 0.89018  0.92553  0.58282  Biso   1.000  C
  C173     1.0000 0.96337  0.01652  0.58182  Biso   1.000  C
  C174     1.0000 0.03536  0.10984  0.58282  Biso   1.000  C
  C175     1.0000 0.98806  0.79784  0.21712  Biso   1.000  C
  C176     1.0000 0.20347  0.14173  0.19161  Biso   1.000  C
  N17      1.0000 0.87028  0.87555  0.58535  Biso   1.000  N
  H131     1.0000 0.86647  0.93882  0.58214  Biso   1.000  H
  H132     1.0000 0.93818  0.02796  0.58315  Biso   1.000  H
  H133     1.0000 0.93816  0.02792  0.58315  Biso   1.000  H
  N18      1.0000 0.00526  0.12975  0.58535  Biso   1.000  N
  H134     1.0000 0.07236  0.13353  0.58214  Biso   1.000  H
  C177     1.0000 0.01136  0.77514  0.17175  Biso   1.000  C
  C178     1.0000 0.93828  0.79654  0.19161  Biso   1.000  C
  H135     1.0000 0.97947  0.77786  0.25662  Biso   1.000  H
  H136     1.0000 0.97945  0.77782  0.25662  Biso   1.000  H
  H137     1.0000 0.17827  0.12663  0.15652  Biso   1.000  H
  C179     1.0000 0.20214  0.19022  0.21712  Biso   1.000  C
  C180     1.0000 0.25846  0.15474  0.17024  Biso   1.000  C
  C181     1.0000 0.81257  0.84413  0.58805  Biso   1.000  C
  C182     1.0000 0.03157  0.18742  0.58805  Biso   1.000  C
  C183     1.0000 0.00639  0.72586  0.18405  Biso   1.000  C
  C184     1.0000 0.00637  0.72582  0.18405  Biso   1.000  C
  C185     1.0000 0.03537  0.80115  0.11822  Biso   1.000  C
  C186     1.0000 0.03535  0.80112  0.11822  Biso   1.000  C
  N19      1.0000 0.91646  0.81393  0.24143  Biso   1.000  N
  H138     1.0000 0.94835  0.82173  0.15652  Biso   1.000  H
  C187     1.0000 0.89628  0.74155  0.17024  Biso   1.000  C
  N20      1.0000 0.14639  0.17315  0.22822  Biso   1.000  N
  H139     1.0000 0.22217  0.20165  0.25662  Biso   1.000  H
  C188     1.0000 0.22487  0.23623  0.17175  Biso   1.000  C
  H140     1.0000 0.22215  0.20161  0.25662  Biso   1.000  H
  C189     1.0000 0.29767  0.16625  0.21262  Biso   1.000  C
  C190     1.0000 0.26828  0.15513  0.10803  Biso   1.000  C
  C191     1.0000 0.79097  0.80904  0.52952  Biso   1.000  C
  H141     1.0000 0.79707  0.86774  0.59195  Biso   1.000  H
  C192     1.0000 0.79698  0.80604  0.64512  Biso   1.000  C
  C193     1.0000 0.01807  0.20903  0.52952  Biso   1.000  C
  H142     1.0000 0.07068  0.20295  0.59195  Biso   1.000  H
  C194     1.0000 0.00906  0.20303  0.64512  Biso   1.000  C
  H143     1.0000 0.07066  0.20291  0.59195  Biso   1.000  H
  C195     1.0000 0.02607  0.70445  0.14235  Biso   1.000  C
  H144     1.0000 0.98958  0.70733  0.22051  Biso   1.000  H
  C196     1.0000 0.05476  0.77904  0.07762  Biso   1.000  C
  H145     1.0000 0.03848  0.83435  0.10932  Biso   1.000  H
  C197     1.0000 0.91135  0.85343  0.23134  Biso   1.000  C
  C198     1.0000 0.86857  0.70232  0.21262  Biso   1.000  C
  C199     1.0000 0.88686  0.73173  0.10803  Biso   1.000  C
  C200     1.0000 0.13198  0.16775  0.28465  Biso   1.000  C
  C201     1.0000 0.27417  0.28054  0.18405  Biso   1.000  C
  C202     1.0000 0.19886  0.23426  0.11822  Biso   1.000  C
  C203     1.0000 0.19884  0.23422  0.11822  Biso   1.000  C
  H146     1.0000 0.29086  0.16684  0.25515  Biso   1.000  H
  C204     1.0000 0.34749  0.17705  0.19272  Biso   1.000  C
  C205     1.0000 0.34747  0.17701  0.19272  Biso   1.000  C
  C206     1.0000 0.31727  0.16495  0.08945  Biso   1.000  C
  H147     1.0000 0.24177  0.14883  0.07872  Biso   1.000  H
  N21      1.0000 0.80558  0.84393  0.47562  Biso   1.000  N
  H148     1.0000 0.80707  0.78613  0.52594  Biso   1.000  H
  C207     1.0000 0.73205  0.77514  0.53502  Biso   1.000  C
  C208     1.0000 0.81657  0.77135  0.64875  Biso   1.000  C
  C209     1.0000 0.76088  0.80533  0.68705  Biso   1.000  C
  N22      1.0000 0.03836  0.19444  0.47562  Biso   1.000  N
  H149     1.0000 0.97906  0.19294  0.52594  Biso   1.000  H
  C210     1.0000 0.04308  0.26792  0.53502  Biso   1.000  C
  C211     1.0000 0.95478  0.18344  0.64875  Biso   1.000  C
  C212     1.0000 0.04446  0.23914  0.68705  Biso   1.000  C
  H150     1.0000 0.02284  0.67102  0.15051  Biso   1.000  H
  C213     1.0000 0.05006  0.73043  0.08991  Biso   1.000  C
  H151     1.0000 0.07156  0.79713  0.04092  Biso   1.000  H
  C214     1.0000 0.88867  0.87314  0.27662  Biso   1.000  C
  H152     1.0000 0.92269  0.87105  0.19294  Biso   1.000  H
  H153     1.0000 0.87598  0.70914  0.25515  Biso   1.000  H
  C215     1.0000 0.82958  0.65253  0.19272  Biso   1.000  C
  C216     1.0000 0.84768  0.68273  0.08945  Biso   1.000  C
  H154     1.0000 0.90707  0.75822  0.07872  Biso   1.000  H
  C217     1.0000 0.07749  0.15096  0.30272  Biso   1.000  C
  H155     1.0000 0.15738  0.17485  0.31575  Biso   1.000  H
  C218     1.0000 0.07747  0.15092  0.30272  Biso   1.000  C
  H156     1.0000 0.29267  0.28223  0.22051  Biso   1.000  H
  C219     1.0000 0.29558  0.32166  0.14235  Biso   1.000  C
  C220     1.0000 0.29556  0.32162  0.14235  Biso   1.000  C
  C221     1.0000 0.22096  0.27573  0.07762  Biso   1.000  C
  H157     1.0000 0.16567  0.20414  0.10932  Biso   1.000  H
  H158     1.0000 0.37458  0.18494  0.22194  Biso   1.000  H
  C222     1.0000 0.35778  0.17654  0.12982  Biso   1.000  C
  H159     1.0000 0.32348  0.16365  0.04693  Biso   1.000  H
  C223     1.0000 0.83675  0.84113  0.43855  Biso   1.000  C
  C224     1.0000 0.70939  0.72195  0.54764  Biso   1.000  C
  C225     1.0000 0.70015  0.79662  0.53342  Biso   1.000  C
  C226     1.0000 0.70937  0.72191  0.54764  Biso   1.000  C
  H160     1.0000 0.84127  0.77364  0.61893  Biso   1.000  H
  C227     1.0000 0.80059  0.73276  0.69581  Biso   1.000  C
  C228     1.0000 0.80057  0.73272  0.69581  Biso   1.000  C
  C229     1.0000 0.74476  0.76765  0.73751  Biso   1.000  C
  H161     1.0000 0.74719  0.82855  0.68292  Biso   1.000  H
  H162     1.0000 0.74717  0.82851  0.68292  Biso   1.000  H
  C230     1.0000 0.00437  0.16326  0.43855  Biso   1.000  C
  C231     1.0000 0.00435  0.16322  0.43855  Biso   1.000  C
  C232     1.0000 0.01257  0.29063  0.54764  Biso   1.000  C
  C233     1.0000 0.09646  0.29986  0.53342  Biso   1.000  C
  C234     1.0000 0.09644  0.29982  0.53342  Biso   1.000  C
  H163     1.0000 0.93235  0.15872  0.61893  Biso   1.000  H
  C235     1.0000 0.93216  0.19945  0.69581  Biso   1.000  C
  C236     1.0000 0.02287  0.25523  0.73751  Biso   1.000  C
  H164     1.0000 0.08135  0.25282  0.68292  Biso   1.000  H
  H165     1.0000 0.06357  0.71533  0.06184  Biso   1.000  H
  C237     1.0000 0.87437  0.91063  0.26084  Biso   1.000  C
  C238     1.0000 0.87696  0.85205  0.33735  Biso   1.000  C
  H166     1.0000 0.81037  0.62545  0.22194  Biso   1.000  H
  C239     1.0000 0.81876  0.64224  0.12982  Biso   1.000  C
  H167     1.0000 0.84018  0.67654  0.04693  Biso   1.000  H
  C240     1.0000 0.06698  0.16093  0.36194  Biso   1.000  C
  C241     1.0000 0.03626  0.12565  0.26084  Biso   1.000  C
  H168     1.0000 0.32898  0.35186  0.15051  Biso   1.000  H
  C242     1.0000 0.26959  0.31965  0.08991  Biso   1.000  C
  H169     1.0000 0.32896  0.35182  0.15051  Biso   1.000  H
  H170     1.0000 0.20287  0.27443  0.04092  Biso   1.000  H
  H171     1.0000 0.39147  0.18383  0.11574  Biso   1.000  H
  C243     1.0000 0.85207  0.86774  0.37873  Biso   1.000  C
  H172     1.0000 0.85176  0.82016  0.45002  Biso   1.000  H
  H173     1.0000 0.85175  0.82012  0.45002  Biso   1.000  H
  H174     1.0000 0.73108  0.70634  0.54934  Biso   1.000  H
  C244     1.0000 0.65665  0.69132  0.55773  Biso   1.000  C
  C245     1.0000 0.64626  0.76504  0.54622  Biso   1.000  C
  H175     1.0000 0.71438  0.83285  0.52365  Biso   1.000  H
  H176     1.0000 0.81187  0.70753  0.69902  Biso   1.000  H
  C246     1.0000 0.76635  0.73674  0.73632  Biso   1.000  C
  H177     1.0000 0.72096  0.76524  0.76861  Biso   1.000  H
  C247     1.0000 0.01565  0.14792  0.37873  Biso   1.000  C
  H178     1.0000 0.96838  0.14824  0.45002  Biso   1.000  H
  H179     1.0000 0.97527  0.26895  0.54934  Biso   1.000  H
  C248     1.0000 0.03466  0.34334  0.55773  Biso   1.000  C
  C249     1.0000 0.11877  0.35375  0.54622  Biso   1.000  C
  H180     1.0000 0.11847  0.28562  0.52365  Biso   1.000  H
  H181     1.0000 0.89567  0.18813  0.69902  Biso   1.000  H
  C250     1.0000 0.97035  0.23363  0.73632  Biso   1.000  C
  H182     1.0000 0.04427  0.27904  0.76861  Biso   1.000  H
  C251     1.0000 0.84906  0.92652  0.30272  Biso   1.000  C
  H183     1.0000 0.88195  0.92553  0.22084  Biso   1.000  H
  H184     1.0000 0.88637  0.82662  0.34933  Biso   1.000  H
  H185     1.0000 0.79235  0.60853  0.11574  Biso   1.000  H
  H186     1.0000 0.09469  0.17674  0.39112  Biso   1.000  H
  C252     1.0000 0.98448  0.11134  0.27662  Biso   1.000  C
  H187     1.0000 0.04355  0.11804  0.22084  Biso   1.000  H
  H188     1.0000 0.28466  0.34823  0.06184  Biso   1.000  H
  C253     1.0000 0.83905  0.90602  0.36194  Biso   1.000  C
  H189     1.0000 0.64196  0.65462  0.56475  Biso   1.000  H
  C254     1.0000 0.62499  0.71226  0.55814  Biso   1.000  C
  C255     1.0000 0.62497  0.71222  0.55814  Biso   1.000  C
  H190     1.0000 0.62428  0.78034  0.54663  Biso   1.000  H
  H191     1.0000 0.75629  0.71285  0.76985  Biso   1.000  H
  C256     1.0000 0.97508  0.12304  0.33735  Biso   1.000  C
  H192     1.0000 0.01269  0.35804  0.56475  Biso   1.000  H
  C257     1.0000 0.08728  0.37504  0.55814  Biso   1.000  C
  H193     1.0000 0.15609  0.37575  0.54663  Biso   1.000  H
  H194     1.0000 0.95657  0.24376  0.76985  Biso   1.000  H
  H195     1.0000 0.95655  0.24372  0.76985  Biso   1.000  H
  C258     1.0000 0.83228  0.96425  0.28465  Biso   1.000  C
  C259     1.0000 0.94206  0.08863  0.23134  Biso   1.000  C
  H196     1.0000 0.82325  0.91793  0.39112  Biso   1.000  H
  H197     1.0000 0.58837  0.69085  0.56645  Biso   1.000  H
  H198     1.0000 0.94025  0.11362  0.34933  Biso   1.000  H
  H199     1.0000 0.10246  0.41162  0.56645  Biso   1.000  H
  N23      1.0000 0.82687  0.97324  0.22822  Biso   1.000  N
  H200     1.0000 0.82517  0.98254  0.31575  Biso   1.000  H
  N24      1.0000 0.89746  0.08354  0.24143  Biso   1.000  N
  H201     1.0000 0.94837  0.07735  0.19294  Biso   1.000  H
  C260     1.0000 0.80976  0.01195  0.21712  Biso   1.000  C
  C261     1.0000 0.85829  0.06174  0.19161  Biso   1.000  C
  C262     1.0000 0.76377  0.98865  0.17175  Biso   1.000  C
  H202     1.0000 0.79836  0.02054  0.25662  Biso   1.000  H
  H203     1.0000 0.87338  0.05165  0.15652  Biso   1.000  H
  C263     1.0000 0.84527  0.10373  0.17024  Biso   1.000  C
  C264     1.0000 0.71946  0.99366  0.18405  Biso   1.000  C
  C265     1.0000 0.76576  0.96464  0.11822  Biso   1.000  C
  C266     1.0000 0.71944  0.99362  0.18405  Biso   1.000  C
  C267     1.0000 0.83376  0.13144  0.21262  Biso   1.000  C
  C268     1.0000 0.84486  0.11315  0.10803  Biso   1.000  C
  C269     1.0000 0.67837  0.97395  0.14235  Biso   1.000  C
  H204     1.0000 0.71779  0.01045  0.22051  Biso   1.000  H
  C270     1.0000 0.72428  0.94525  0.07762  Biso   1.000  C
  H205     1.0000 0.79585  0.96153  0.10932  Biso   1.000  H
  H206     1.0000 0.83317  0.12403  0.25515  Biso   1.000  H
  C271     1.0000 0.82298  0.17043  0.19272  Biso   1.000  C
  C272     1.0000 0.83506  0.15234  0.08945  Biso   1.000  C
  H207     1.0000 0.85117  0.09292  0.07872  Biso   1.000  H
  H208     1.0000 0.64818  0.97714  0.15051  Biso   1.000  H
  C273     1.0000 0.68036  0.94994  0.08991  Biso   1.000  C
  H209     1.0000 0.72558  0.92845  0.04092  Biso   1.000  H
  H210     1.0000 0.81506  0.18963  0.22194  Biso   1.000  H
  C274     1.0000 0.82346  0.18123  0.12982  Biso   1.000  C
  H211     1.0000 0.83635  0.15983  0.04693  Biso   1.000  H
  H212     1.0000 0.65177  0.93645  0.06184  Biso   1.000  H
  H213     1.0000 0.65175  0.93642  0.06184  Biso   1.000  H
  H214     1.0000 0.81618  0.20765  0.11574  Biso   1.000  H
  C275     1.0000 0.20336  0.90354  0.53342  Biso   1.000  C
  C276     1.0000 0.22488  0.95695  0.53502  Biso   1.000  C
  C277     1.0000 0.22486  0.95692  0.53502  Biso   1.000  C
  C278     1.0000 0.23498  0.88122  0.54622  Biso   1.000  C
  H215     1.0000 0.16716  0.88154  0.52365  Biso   1.000  H
  C279     1.0000 0.19097  0.98195  0.52952  Biso   1.000  C
  C280     1.0000 0.27808  0.98743  0.54764  Biso   1.000  C
  C281     1.0000 0.28777  0.91272  0.55814  Biso   1.000  C
  H216     1.0000 0.21968  0.84393  0.54663  Biso   1.000  H
  N25      1.0000 0.15607  0.96165  0.47562  Biso   1.000  N
  C282     1.0000 0.15588  0.96843  0.58805  Biso   1.000  C
  H217     1.0000 0.21388  0.02094  0.52594  Biso   1.000  H
  C283     1.0000 0.30869  0.96535  0.55773  Biso   1.000  C
  H218     1.0000 0.29365  0.02472  0.54934  Biso   1.000  H
  H219     1.0000 0.30917  0.89754  0.56645  Biso   1.000  H
  C284     1.0000 0.15886  0.99563  0.43855  Biso   1.000  C
  N26      1.0000 0.12447  0.99472  0.58535  Biso   1.000  N
  H220     1.0000 0.13226  0.92932  0.59195  Biso   1.000  H
  C285     1.0000 0.19397  0.99094  0.64512  Biso   1.000  C
  H221     1.0000 0.34536  0.98735  0.56475  Biso   1.000  H
  C286     1.0000 0.13229  0.98435  0.37873  Biso   1.000  C
  C287     1.0000 0.13227  0.98431  0.37873  Biso   1.000  C
  H222     1.0000 0.17986  0.03162  0.45002  Biso   1.000  H
  C288     1.0000 0.07447  0.96464  0.58282  Biso   1.000  C
  C289     1.0000 0.19467  0.95554  0.68705  Biso   1.000  C
  C290     1.0000 0.22865  0.04522  0.64875  Biso   1.000  C
  C291     1.0000 0.09396  0.93302  0.36194  Biso   1.000  C
  C292     1.0000 0.14797  0.02492  0.33735  Biso   1.000  C
  C293     1.0000 0.03636  0.98313  0.58094  Biso   1.000  C
  H223     1.0000 0.06115  0.92762  0.58214  Biso   1.000  H
  C294     1.0000 0.23237  0.97714  0.73751  Biso   1.000  C
  H224     1.0000 0.17147  0.91864  0.68292  Biso   1.000  H
  H225     1.0000 0.22638  0.06765  0.61893  Biso   1.000  H
  C295     1.0000 0.26728  0.06785  0.69581  Biso   1.000  C
  H226     1.0000 0.22636  0.06762  0.61893  Biso   1.000  H
  C296     1.0000 0.07346  0.92254  0.30272  Biso   1.000  C
  H227     1.0000 0.08207  0.90535  0.39112  Biso   1.000  H
  C297     1.0000 0.12685  0.01554  0.27662  Biso   1.000  C
  H228     1.0000 0.17336  0.05973  0.34933  Biso   1.000  H
  C298     1.0000 0.98345  0.94682  0.58182  Biso   1.000  C
  C299     1.0000 0.05317  0.03663  0.58182  Biso   1.000  C
  H229     1.0000 0.23478  0.95573  0.76861  Biso   1.000  H
  C300     1.0000 0.26327  0.02965  0.73632  Biso   1.000  C
  H230     1.0000 0.29247  0.10436  0.69902  Biso   1.000  H
  H231     1.0000 0.29245  0.10432  0.69902  Biso   1.000  H
  C301     1.0000 0.03577  0.86806  0.28465  Biso   1.000  C
  C302     1.0000 0.03575  0.86802  0.28465  Biso   1.000  C
  C303     1.0000 0.08938  0.96374  0.26084  Biso   1.000  C
  C304     1.0000 0.14660  0.05796  0.23134  Biso   1.000  C
  C305     1.0000 0.14658  0.05792  0.23134  Biso   1.000  C
  C306     1.0000 0.94677  0.96366  0.58094  Biso   1.000  C
  C307     1.0000 0.94675  0.96362  0.58094  Biso   1.000  C
  H232     1.0000 0.97205  0.91024  0.58315  Biso   1.000  H
  H233     1.0000 0.08977  0.06182  0.58315  Biso   1.000  H
  C308     1.0000 0.01685  0.05323  0.58094  Biso   1.000  C
  H234     1.0000 0.28717  0.04345  0.76985  Biso   1.000  H
  N27      1.0000 0.02678  0.85363  0.22822  Biso   1.000  N
  H235     1.0000 0.01746  0.84263  0.31575  Biso   1.000  H
  H236     1.0000 0.07447  0.95644  0.22084  Biso   1.000  H
  N28      1.0000 0.18606  0.10254  0.24143  Biso   1.000  N
  H237     1.0000 0.12897  0.05165  0.19294  Biso   1.000  H
  C309     1.0000 0.89018  0.92553  0.58282  Biso   1.000  C
  C310     1.0000 0.96337  0.01652  0.58182  Biso   1.000  C
  C311     1.0000 0.03536  0.10984  0.58282  Biso   1.000  C
  C312     1.0000 0.98806  0.79784  0.21712  Biso   1.000  C
  C313     1.0000 0.20347  0.14173  0.19161  Biso   1.000  C
  N29      1.0000 0.87028  0.87555  0.58535  Biso   1.000  N
  H238     1.0000 0.86647  0.93882  0.58214  Biso   1.000  H
  H239     1.0000 0.93818  0.02796  0.58315  Biso   1.000  H
  H240     1.0000 0.93816  0.02792  0.58315  Biso   1.000  H
  N30      1.0000 0.00526  0.12975  0.58535  Biso   1.000  N
  H241     1.0000 0.07236  0.13353  0.58214  Biso   1.000  H
  C314     1.0000 0.01136  0.77514  0.17175  Biso   1.000  C
  C315     1.0000 0.93828  0.79654  0.19161  Biso   1.000  C
  H242     1.0000 0.97947  0.77786  0.25662  Biso   1.000  H
  H243     1.0000 0.97945  0.77782  0.25662  Biso   1.000  H
  H244     1.0000 0.17827  0.12663  0.15652  Biso   1.000  H
  C316     1.0000 0.20214  0.19022  0.21712  Biso   1.000  C
  C317     1.0000 0.25846  0.15474  0.17024  Biso   1.000  C
  C318     1.0000 0.81257  0.84413  0.58805  Biso   1.000  C
  C319     1.0000 0.03157  0.18742  0.58805  Biso   1.000  C
  C320     1.0000 0.00639  0.72586  0.18405  Biso   1.000  C
  C321     1.0000 0.00637  0.72582  0.18405  Biso   1.000  C
  C322     1.0000 0.03537  0.80115  0.11822  Biso   1.000  C
  C323     1.0000 0.03535  0.80112  0.11822  Biso   1.000  C
  N31      1.0000 0.91646  0.81393  0.24143  Biso   1.000  N
  H245     1.0000 0.94835  0.82173  0.15652  Biso   1.000  H
  C324     1.0000 0.89628  0.74155  0.17024  Biso   1.000  C
  N32      1.0000 0.14639  0.17315  0.22822  Biso   1.000  N
  H246     1.0000 0.22217  0.20165  0.25662  Biso   1.000  H
  C325     1.0000 0.22487  0.23623  0.17175  Biso   1.000  C
  H247     1.0000 0.22215  0.20161  0.25662  Biso   1.000  H
  C326     1.0000 0.29767  0.16625  0.21262  Biso   1.000  C
  C327     1.0000 0.26828  0.15513  0.10803  Biso   1.000  C
  C328     1.0000 0.79097  0.80904  0.52952  Biso   1.000  C
  H248     1.0000 0.79707  0.86774  0.59195  Biso   1.000  H
  C329     1.0000 0.79698  0.80604  0.64512  Biso   1.000  C
  C330     1.0000 0.01807  0.20903  0.52952  Biso   1.000  C
  H249     1.0000 0.07068  0.20295  0.59195  Biso   1.000  H
  C331     1.0000 0.00906  0.20303  0.64512  Biso   1.000  C
  H250     1.0000 0.07066  0.20291  0.59195  Biso   1.000  H
  C332     1.0000 0.02607  0.70445  0.14235  Biso   1.000  C
  H251     1.0000 0.98958  0.70733  0.22051  Biso   1.000  H
  C333     1.0000 0.05476  0.77904  0.07762  Biso   1.000  C
  H252     1.0000 0.03848  0.83435  0.10932  Biso   1.000  H
  C334     1.0000 0.91135  0.85343  0.23134  Biso   1.000  C
  C335     1.0000 0.86857  0.70232  0.21262  Biso   1.000  C
  C336     1.0000 0.88686  0.73173  0.10803  Biso   1.000  C
  C337     1.0000 0.13198  0.16775  0.28465  Biso   1.000  C
  C338     1.0000 0.27417  0.28054  0.18405  Biso   1.000  C
  C339     1.0000 0.19886  0.23426  0.11822  Biso   1.000  C
  C340     1.0000 0.19884  0.23422  0.11822  Biso   1.000  C
  H253     1.0000 0.29086  0.16684  0.25515  Biso   1.000  H
  C341     1.0000 0.34749  0.17705  0.19272  Biso   1.000  C
  C342     1.0000 0.34747  0.17701  0.19272  Biso   1.000  C
  C343     1.0000 0.31727  0.16495  0.08945  Biso   1.000  C
  H254     1.0000 0.24177  0.14883  0.07872  Biso   1.000  H
  N33      1.0000 0.80558  0.84393  0.47562  Biso   1.000  N
  H255     1.0000 0.80707  0.78613  0.52594  Biso   1.000  H
  C344     1.0000 0.73205  0.77514  0.53502  Biso   1.000  C
  C345     1.0000 0.81657  0.77135  0.64875  Biso   1.000  C
  C346     1.0000 0.76088  0.80533  0.68705  Biso   1.000  C
  N34      1.0000 0.03836  0.19444  0.47562  Biso   1.000  N
  H256     1.0000 0.97906  0.19294  0.52594  Biso   1.000  H
  C347     1.0000 0.04308  0.26792  0.53502  Biso   1.000  C
  C348     1.0000 0.95478  0.18344  0.64875  Biso   1.000  C
  C349     1.0000 0.04446  0.23914  0.68705  Biso   1.000  C
  H257     1.0000 0.02284  0.67102  0.15051  Biso   1.000  H
  C350     1.0000 0.05006  0.73043  0.08991  Biso   1.000  C
  H258     1.0000 0.07156  0.79713  0.04092  Biso   1.000  H
  C351     1.0000 0.88867  0.87314  0.27662  Biso   1.000  C
  H259     1.0000 0.92269  0.87105  0.19294  Biso   1.000  H
  H260     1.0000 0.87598  0.70914  0.25515  Biso   1.000  H
  C352     1.0000 0.82958  0.65253  0.19272  Biso   1.000  C
  C353     1.0000 0.84768  0.68273  0.08945  Biso   1.000  C
  H261     1.0000 0.90707  0.75822  0.07872  Biso   1.000  H
  C354     1.0000 0.07749  0.15096  0.30272  Biso   1.000  C
  H262     1.0000 0.15738  0.17485  0.31575  Biso   1.000  H
  C355     1.0000 0.07747  0.15092  0.30272  Biso   1.000  C
  H263     1.0000 0.29267  0.28223  0.22051  Biso   1.000  H
  C356     1.0000 0.29558  0.32166  0.14235  Biso   1.000  C
  C357     1.0000 0.29556  0.32162  0.14235  Biso   1.000  C
  C358     1.0000 0.22096  0.27573  0.07762  Biso   1.000  C
  H264     1.0000 0.16567  0.20414  0.10932  Biso   1.000  H
  H265     1.0000 0.37458  0.18494  0.22194  Biso   1.000  H
  C359     1.0000 0.35778  0.17654  0.12982  Biso   1.000  C
  H266     1.0000 0.32348  0.16365  0.04693  Biso   1.000  H
  C360     1.0000 0.83675  0.84113  0.43855  Biso   1.000  C
  C361     1.0000 0.70939  0.72195  0.54764  Biso   1.000  C
  C362     1.0000 0.70015  0.79662  0.53342  Biso   1.000  C
  C363     1.0000 0.70937  0.72191  0.54764  Biso   1.000  C
  H267     1.0000 0.84127  0.77364  0.61893  Biso   1.000  H
  C364     1.0000 0.80059  0.73276  0.69581  Biso   1.000  C
  C365     1.0000 0.80057  0.73272  0.69581  Biso   1.000  C
  C366     1.0000 0.74476  0.76765  0.73751  Biso   1.000  C
  H268     1.0000 0.74719  0.82855  0.68292  Biso   1.000  H
  H269     1.0000 0.74717  0.82851  0.68292  Biso   1.000  H
  C367     1.0000 0.00437  0.16326  0.43855  Biso   1.000  C
  C368     1.0000 0.00435  0.16322  0.43855  Biso   1.000  C
  C369     1.0000 0.01257  0.29063  0.54764  Biso   1.000  C
  C370     1.0000 0.09646  0.29986  0.53342  Biso   1.000  C
  C371     1.0000 0.09644  0.29982  0.53342  Biso   1.000  C
  H270     1.0000 0.93235  0.15872  0.61893  Biso   1.000  H
  C372     1.0000 0.93216  0.19945  0.69581  Biso   1.000  C
  C373     1.0000 0.02287  0.25523  0.73751  Biso   1.000  C
  H271     1.0000 0.08135  0.25282  0.68292  Biso   1.000  H
  H272     1.0000 0.06357  0.71533  0.06184  Biso   1.000  H
  C374     1.0000 0.87437  0.91063  0.26084  Biso   1.000  C
  C375     1.0000 0.87696  0.85205  0.33735  Biso   1.000  C
  H273     1.0000 0.81037  0.62545  0.22194  Biso   1.000  H
  C376     1.0000 0.81876  0.64224  0.12982  Biso   1.000  C
  H274     1.0000 0.84018  0.67654  0.04693  Biso   1.000  H
  C377     1.0000 0.06698  0.16093  0.36194  Biso   1.000  C
  C378     1.0000 0.03626  0.12565  0.26084  Biso   1.000  C
  H275     1.0000 0.32898  0.35186  0.15051  Biso   1.000  H
  C379     1.0000 0.26959  0.31965  0.08991  Biso   1.000  C
  H276     1.0000 0.32896  0.35182  0.15051  Biso   1.000  H
  H277     1.0000 0.20287  0.27443  0.04092  Biso   1.000  H
  H278     1.0000 0.39147  0.18383  0.11574  Biso   1.000  H
  C380     1.0000 0.85207  0.86774  0.37873  Biso   1.000  C
  H279     1.0000 0.85176  0.82016  0.45002  Biso   1.000  H
  H280     1.0000 0.85175  0.82012  0.45002  Biso   1.000  H
  H281     1.0000 0.73108  0.70634  0.54934  Biso   1.000  H
  C381     1.0000 0.65665  0.69132  0.55773  Biso   1.000  C
  C382     1.0000 0.64626  0.76504  0.54622  Biso   1.000  C
  H282     1.0000 0.71438  0.83285  0.52365  Biso   1.000  H
  H283     1.0000 0.81187  0.70753  0.69902  Biso   1.000  H
  C383     1.0000 0.76635  0.73674  0.73632  Biso   1.000  C
  H284     1.0000 0.72096  0.76524  0.76861  Biso   1.000  H
  C384     1.0000 0.01565  0.14792  0.37873  Biso   1.000  C
  H285     1.0000 0.96838  0.14824  0.45002  Biso   1.000  H
  H286     1.0000 0.97527  0.26895  0.54934  Biso   1.000  H
  C385     1.0000 0.03466  0.34334  0.55773  Biso   1.000  C
  C386     1.0000 0.11877  0.35375  0.54622  Biso   1.000  C
  H287     1.0000 0.11847  0.28562  0.52365  Biso   1.000  H
  H288     1.0000 0.89567  0.18813  0.69902  Biso   1.000  H
  C387     1.0000 0.97035  0.23363  0.73632  Biso   1.000  C
  H289     1.0000 0.04427  0.27904  0.76861  Biso   1.000  H
  C388     1.0000 0.84906  0.92652  0.30272  Biso   1.000  C
  H290     1.0000 0.88195  0.92553  0.22084  Biso   1.000  H
  H291     1.0000 0.88637  0.82662  0.34933  Biso   1.000  H
  H292     1.0000 0.79235  0.60853  0.11574  Biso   1.000  H
  H293     1.0000 0.09469  0.17674  0.39112  Biso   1.000  H
  C389     1.0000 0.98448  0.11134  0.27662  Biso   1.000  C
  H294     1.0000 0.04355  0.11804  0.22084  Biso   1.000  H
  H295     1.0000 0.28466  0.34823  0.06184  Biso   1.000  H
  C390     1.0000 0.83905  0.90602  0.36194  Biso   1.000  C
  H296     1.0000 0.64196  0.65462  0.56475  Biso   1.000  H
  C391     1.0000 0.62499  0.71226  0.55814  Biso   1.000  C
  C392     1.0000 0.62497  0.71222  0.55814  Biso   1.000  C
  H297     1.0000 0.62428  0.78034  0.54663  Biso   1.000  H
  H298     1.0000 0.75629  0.71285  0.76985  Biso   1.000  H
  C393     1.0000 0.97508  0.12304  0.33735  Biso   1.000  C
  H299     1.0000 0.01269  0.35804  0.56475  Biso   1.000  H
  C394     1.0000 0.08728  0.37504  0.55814  Biso   1.000  C
  H300     1.0000 0.15609  0.37575  0.54663  Biso   1.000  H
  H301     1.0000 0.95657  0.24376  0.76985  Biso   1.000  H
  H302     1.0000 0.95655  0.24372  0.76985  Biso   1.000  H
  C395     1.0000 0.83228  0.96425  0.28465  Biso   1.000  C
  C396     1.0000 0.94206  0.08863  0.23134  Biso   1.000  C
  H303     1.0000 0.82325  0.91793  0.39112  Biso   1.000  H
  H304     1.0000 0.58837  0.69085  0.56645  Biso   1.000  H
  H305     1.0000 0.94025  0.11362  0.34933  Biso   1.000  H
  H306     1.0000 0.10246  0.41162  0.56645  Biso   1.000  H
  N35      1.0000 0.82687  0.97324  0.22822  Biso   1.000  N
  H307     1.0000 0.82517  0.98254  0.31575  Biso   1.000  H
  N36      1.0000 0.89746  0.08354  0.24143  Biso   1.000  N
  H308     1.0000 0.94837  0.07735  0.19294  Biso   1.000  H
  C397     1.0000 0.80976  0.01195  0.21712  Biso   1.000  C
  C398     1.0000 0.85829  0.06174  0.19161  Biso   1.000  C
  C399     1.0000 0.76377  0.98865  0.17175  Biso   1.000  C
  H309     1.0000 0.79836  0.02054  0.25662  Biso   1.000  H
  H310     1.0000 0.87338  0.05165  0.15652  Biso   1.000  H
  C400     1.0000 0.84527  0.10373  0.17024  Biso   1.000  C
  C401     1.0000 0.71946  0.99366  0.18405  Biso   1.000  C
  C402     1.0000 0.76576  0.96464  0.11822  Biso   1.000  C
  C403     1.0000 0.71944  0.99362  0.18405  Biso   1.000  C
  C404     1.0000 0.83376  0.13144  0.21262  Biso   1.000  C
  C405     1.0000 0.84486  0.11315  0.10803  Biso   1.000  C
  C406     1.0000 0.67837  0.97395  0.14235  Biso   1.000  C
  H311     1.0000 0.71779  0.01045  0.22051  Biso   1.000  H
  C407     1.0000 0.72428  0.94525  0.07762  Biso   1.000  C
  H312     1.0000 0.79585  0.96153  0.10932  Biso   1.000  H
  H313     1.0000 0.83317  0.12403  0.25515  Biso   1.000  H
  C408     1.0000 0.82298  0.17043  0.19272  Biso   1.000  C
  C409     1.0000 0.83506  0.15234  0.08945  Biso   1.000  C
  H314     1.0000 0.85117  0.09292  0.07872  Biso   1.000  H
  H315     1.0000 0.64818  0.97714  0.15051  Biso   1.000  H
  C410     1.0000 0.68036  0.94994  0.08991  Biso   1.000  C
  H316     1.0000 0.72558  0.92845  0.04092  Biso   1.000  H
  H317     1.0000 0.81506  0.18963  0.22194  Biso   1.000  H
  C411     1.0000 0.82346  0.18123  0.12982  Biso   1.000  C
  H318     1.0000 0.83635  0.15983  0.04693  Biso   1.000  H
  H319     1.0000 0.65177  0.93645  0.06184  Biso   1.000  H
  H320     1.0000 0.65175  0.93642  0.06184  Biso   1.000  H
  H321     1.0000 0.81618  0.20765  0.11574  Biso   1.000  H
  C412     1.0000 0.20336  0.90354  0.53342  Biso   1.000  C
  C413     1.0000 0.22488  0.95695  0.53502  Biso   1.000  C
  C414     1.0000 0.22486  0.95692  0.53502  Biso   1.000  C
  C415     1.0000 0.23498  0.88122  0.54622  Biso   1.000  C
  H322     1.0000 0.16716  0.88154  0.52365  Biso   1.000  H
  C416     1.0000 0.19097  0.98195  0.52952  Biso   1.000  C
  C417     1.0000 0.27808  0.98743  0.54764  Biso   1.000  C
  C418     1.0000 0.28777  0.91272  0.55814  Biso   1.000  C
  H323     1.0000 0.21968  0.84393  0.54663  Biso   1.000  H
  N37      1.0000 0.15607  0.96165  0.47562  Biso   1.000  N
  C419     1.0000 0.15588  0.96843  0.58805  Biso   1.000  C
  H324     1.0000 0.21388  0.02094  0.52594  Biso   1.000  H
  C420     1.0000 0.30869  0.96535  0.55773  Biso   1.000  C
  H325     1.0000 0.29365  0.02472  0.54934  Biso   1.000  H
  H326     1.0000 0.30917  0.89754  0.56645  Biso   1.000  H
  C421     1.0000 0.15886  0.99563  0.43855  Biso   1.000  C
  N38      1.0000 0.12447  0.99472  0.58535  Biso   1.000  N
  H327     1.0000 0.13226  0.92932  0.59195  Biso   1.000  H
  C422     1.0000 0.19397  0.99094  0.64512  Biso   1.000  C
  H328     1.0000 0.34536  0.98735  0.56475  Biso   1.000  H
  C423     1.0000 0.13229  0.98435  0.37873  Biso   1.000  C
  C424     1.0000 0.13227  0.98431  0.37873  Biso   1.000  C
  H329     1.0000 0.17986  0.03162  0.45002  Biso   1.000  H
  C425     1.0000 0.07447  0.96464  0.58282  Biso   1.000  C
  C426     1.0000 0.19467  0.95554  0.68705  Biso   1.000  C
  C427     1.0000 0.22865  0.04522  0.64875  Biso   1.000  C
  C428     1.0000 0.09396  0.93302  0.36194  Biso   1.000  C
  C429     1.0000 0.14797  0.02492  0.33735  Biso   1.000  C
  C430     1.0000 0.03636  0.98313  0.58094  Biso   1.000  C
  H330     1.0000 0.06115  0.92762  0.58214  Biso   1.000  H
  C431     1.0000 0.23237  0.97714  0.73751  Biso   1.000  C
  H331     1.0000 0.17147  0.91864  0.68292  Biso   1.000  H
  H332     1.0000 0.22638  0.06765  0.61893  Biso   1.000  H
  C432     1.0000 0.26728  0.06785  0.69581  Biso   1.000  C
  H333     1.0000 0.22636  0.06762  0.61893  Biso   1.000  H
  C433     1.0000 0.07346  0.92254  0.30272  Biso   1.000  C
  H334     1.0000 0.08207  0.90535  0.39112  Biso   1.000  H
  C434     1.0000 0.12685  0.01554  0.27662  Biso   1.000  C
  H335     1.0000 0.17336  0.05973  0.34933  Biso   1.000  H
  C435     1.0000 0.98345  0.94682  0.58182  Biso   1.000  C
  C436     1.0000 0.05317  0.03663  0.58182  Biso   1.000  C
  H336     1.0000 0.23478  0.95573  0.76861  Biso   1.000  H
  C437     1.0000 0.26327  0.02965  0.73632  Biso   1.000  C
  H337     1.0000 0.29247  0.10436  0.69902  Biso   1.000  H
  H338     1.0000 0.29245  0.10432  0.69902  Biso   1.000  H
  C438     1.0000 0.03577  0.86806  0.28465  Biso   1.000  C
  C439     1.0000 0.03575  0.86802  0.28465  Biso   1.000  C
  C440     1.0000 0.08938  0.96374  0.26084  Biso   1.000  C
  C441     1.0000 0.14660  0.05796  0.23134  Biso   1.000  C
  C442     1.0000 0.14658  0.05792  0.23134  Biso   1.000  C
  C443     1.0000 0.94677  0.96366  0.58094  Biso   1.000  C
  C444     1.0000 0.94675  0.96362  0.58094  Biso   1.000  C
  H339     1.0000 0.97205  0.91024  0.58315  Biso   1.000  H
  H340     1.0000 0.08977  0.06182  0.58315  Biso   1.000  H
  C445     1.0000 0.01685  0.05323  0.58094  Biso   1.000  C
  H341     1.0000 0.28717  0.04345  0.76985  Biso   1.000  H
  N39      1.0000 0.02678  0.85363  0.22822  Biso   1.000  N
  H342     1.0000 0.01746  0.84263  0.31575  Biso   1.000  H
  H343     1.0000 0.07447  0.95644  0.22084  Biso   1.000  H
  N40      1.0000 0.18606  0.10254  0.24143  Biso   1.000  N
  H344     1.0000 0.12897  0.05165  0.19294  Biso   1.000  H
  C446     1.0000 0.89018  0.92553  0.58282  Biso   1.000  C
  C447     1.0000 0.96337  0.01652  0.58182  Biso   1.000  C
  C448     1.0000 0.03536  0.10984  0.58282  Biso   1.000  C
  C449     1.0000 0.98806  0.79784  0.21712  Biso   1.000  C
  C450     1.0000 0.20347  0.14173  0.19161  Biso   1.000  C
  N41      1.0000 0.87028  0.87555  0.58535  Biso   1.000  N
  H345     1.0000 0.86647  0.93882  0.58214  Biso   1.000  H
  H346     1.0000 0.93818  0.02796  0.58315  Biso   1.000  H
  H347     1.0000 0.93816  0.02792  0.58315  Biso   1.000  H
  N42      1.0000 0.00526  0.12975  0.58535  Biso   1.000  N
  H348     1.0000 0.07236  0.13353  0.58214  Biso   1.000  H
  C451     1.0000 0.01136  0.77514  0.17175  Biso   1.000  C
  C452     1.0000 0.93828  0.79654  0.19161  Biso   1.000  C
  H349     1.0000 0.97947  0.77786  0.25662  Biso   1.000  H
  H350     1.0000 0.97945  0.77782  0.25662  Biso   1.000  H
  H351     1.0000 0.17827  0.12663  0.15652  Biso   1.000  H
  C453     1.0000 0.20214  0.19022  0.21712  Biso   1.000  C
  C454     1.0000 0.25846  0.15474  0.17024  Biso   1.000  C
  C455     1.0000 0.81257  0.84413  0.58805  Biso   1.000  C
  C456     1.0000 0.03157  0.18742  0.58805  Biso   1.000  C
  C457     1.0000 0.00639  0.72586  0.18405  Biso   1.000  C
  C458     1.0000 0.00637  0.72582  0.18405  Biso   1.000  C
  C459     1.0000 0.03537  0.80115  0.11822  Biso   1.000  C
  C460     1.0000 0.03535  0.80112  0.11822  Biso   1.000  C
  N43      1.0000 0.91646  0.81393  0.24143  Biso   1.000  N
  H352     1.0000 0.94835  0.82173  0.15652  Biso   1.000  H
  C461     1.0000 0.89628  0.74155  0.17024  Biso   1.000  C
  N44      1.0000 0.14639  0.17315  0.22822  Biso   1.000  N
  H353     1.0000 0.22217  0.20165  0.25662  Biso   1.000  H
  C462     1.0000 0.22487  0.23623  0.17175  Biso   1.000  C
  H354     1.0000 0.22215  0.20161  0.25662  Biso   1.000  H
  C463     1.0000 0.29767  0.16625  0.21262  Biso   1.000  C
  C464     1.0000 0.26828  0.15513  0.10803  Biso   1.000  C
  C465     1.0000 0.79097  0.80904  0.52952  Biso   1.000  C
  H355     1.0000 0.79707  0.86774  0.59195  Biso   1.000  H
  C466     1.0000 0.79698  0.80604  0.64512  Biso   1.000  C
  C467     1.0000 0.01807  0.20903  0.52952  Biso   1.000  C
  H356     1.0000 0.07068  0.20295  0.59195  Biso   1.000  H
  C468     1.0000 0.00906  0.20303  0.64512  Biso   1.000  C
  H357     1.0000 0.07066  0.20291  0.59195  Biso   1.000  H
  C469     1.0000 0.02607  0.70445  0.14235  Biso   1.000  C
  H358     1.0000 0.98958  0.70733  0.22051  Biso   1.000  H
  C470     1.0000 0.05476  0.77904  0.07762  Biso   1.000  C
  H359     1.0000 0.03848  0.83435  0.10932  Biso   1.000  H
  C471     1.0000 0.91135  0.85343  0.23134  Biso   1.000  C
  C472     1.0000 0.86857  0.70232  0.21262  Biso   1.000  C
  C473     1.0000 0.88686  0.73173  0.10803  Biso   1.000  C
  C474     1.0000 0.13198  0.16775  0.28465  Biso   1.000  C
  C475     1.0000 0.27417  0.28054  0.18405  Biso   1.000  C
  C476     1.0000 0.19886  0.23426  0.11822  Biso   1.000  C
  C477     1.0000 0.19884  0.23422  0.11822  Biso   1.000  C
  H360     1.0000 0.29086  0.16684  0.25515  Biso   1.000  H
  C478     1.0000 0.34749  0.17705  0.19272  Biso   1.000  C
  C479     1.0000 0.34747  0.17701  0.19272  Biso   1.000  C
  C480     1.0000 0.31727  0.16495  0.08945  Biso   1.000  C
  H361     1.0000 0.24177  0.14883  0.07872  Biso   1.000  H
  N45      1.0000 0.80558  0.84393  0.47562  Biso   1.000  N
  H362     1.0000 0.80707  0.78613  0.52594  Biso   1.000  H
  C481     1.0000 0.73205  0.77514  0.53502  Biso   1.000  C
  C482     1.0000 0.81657  0.77135  0.64875  Biso   1.000  C
  C483     1.0000 0.76088  0.80533  0.68705  Biso   1.000  C
  N46      1.0000 0.03836  0.19444  0.47562  Biso   1.000  N
  H363     1.0000 0.97906  0.19294  0.52594  Biso   1.000  H
  C484     1.0000 0.04308  0.26792  0.53502  Biso   1.000  C
  C485     1.0000 0.95478  0.18344  0.64875  Biso   1.000  C
  C486     1.0000 0.04446  0.23914  0.68705  Biso   1.000  C
  H364     1.0000 0.02284  0.67102  0.15051  Biso   1.000  H
  C487     1.0000 0.05006  0.73043  0.08991  Biso   1.000  C
  H365     1.0000 0.07156  0.79713  0.04092  Biso   1.000  H
  C488     1.0000 0.88867  0.87314  0.27662  Biso   1.000  C
  H366     1.0000 0.92269  0.87105  0.19294  Biso   1.000  H
  H367     1.0000 0.87598  0.70914  0.25515  Biso   1.000  H
  C489     1.0000 0.82958  0.65253  0.19272  Biso   1.000  C
  C490     1.0000 0.84768  0.68273  0.08945  Biso   1.000  C
  H368     1.0000 0.90707  0.75822  0.07872  Biso   1.000  H
  C491     1.0000 0.07749  0.15096  0.30272  Biso   1.000  C
  H369     1.0000 0.15738  0.17485  0.31575  Biso   1.000  H
  C492     1.0000 0.07747  0.15092  0.30272  Biso   1.000  C
  H370     1.0000 0.29267  0.28223  0.22051  Biso   1.000  H
  C493     1.0000 0.29558  0.32166  0.14235  Biso   1.000  C
  C494     1.0000 0.29556  0.32162  0.14235  Biso   1.000  C
  C495     1.0000 0.22096  0.27573  0.07762  Biso   1.000  C
  H371     1.0000 0.16567  0.20414  0.10932  Biso   1.000  H
  H372     1.0000 0.37458  0.18494  0.22194  Biso   1.000  H
  C496     1.0000 0.35778  0.17654  0.12982  Biso   1.000  C
  H373     1.0000 0.32348  0.16365  0.04693  Biso   1.000  H
  C497     1.0000 0.83675  0.84113  0.43855  Biso   1.000  C
  C498     1.0000 0.70939  0.72195  0.54764  Biso   1.000  C
  C499     1.0000 0.70015  0.79662  0.53342  Biso   1.000  C
  C500     1.0000 0.70937  0.72191  0.54764  Biso   1.000  C
  H374     1.0000 0.84127  0.77364  0.61893  Biso   1.000  H
  C501     1.0000 0.80059  0.73276  0.69581  Biso   1.000  C
  C502     1.0000 0.80057  0.73272  0.69581  Biso   1.000  C
  C503     1.0000 0.74476  0.76765  0.73751  Biso   1.000  C
  H375     1.0000 0.74719  0.82855  0.68292  Biso   1.000  H
  H376     1.0000 0.74717  0.82851  0.68292  Biso   1.000  H
  C504     1.0000 0.00437  0.16326  0.43855  Biso   1.000  C
  C505     1.0000 0.00435  0.16322  0.43855  Biso   1.000  C
  C506     1.0000 0.01257  0.29063  0.54764  Biso   1.000  C
  C507     1.0000 0.09646  0.29986  0.53342  Biso   1.000  C
  C508     1.0000 0.09644  0.29982  0.53342  Biso   1.000  C
  H377     1.0000 0.93235  0.15872  0.61893  Biso   1.000  H
  C509     1.0000 0.93216  0.19945  0.69581  Biso   1.000  C
  C510     1.0000 0.02287  0.25523  0.73751  Biso   1.000  C
  H378     1.0000 0.08135  0.25282  0.68292  Biso   1.000  H
  H379     1.0000 0.06357  0.71533  0.06184  Biso   1.000  H
  C511     1.0000 0.87437  0.91063  0.26084  Biso   1.000  C
  C512     1.0000 0.87696  0.85205  0.33735  Biso   1.000  C
  H380     1.0000 0.81037  0.62545  0.22194  Biso   1.000  H
  C513     1.0000 0.81876  0.64224  0.12982  Biso   1.000  C
  H381     1.0000 0.84018  0.67654  0.04693  Biso   1.000  H
  C514     1.0000 0.06698  0.16093  0.36194  Biso   1.000  C
  C515     1.0000 0.03626  0.12565  0.26084  Biso   1.000  C
  H382     1.0000 0.32898  0.35186  0.15051  Biso   1.000  H
  C516     1.0000 0.26959  0.31965  0.08991  Biso   1.000  C
  H383     1.0000 0.32896  0.35182  0.15051  Biso   1.000  H
  H384     1.0000 0.20287  0.27443  0.04092  Biso   1.000  H
  H385     1.0000 0.39147  0.18383  0.11574  Biso   1.000  H
  C517     1.0000 0.85207  0.86774  0.37873  Biso   1.000  C
  H386     1.0000 0.85176  0.82016  0.45002  Biso   1.000  H
  H387     1.0000 0.85175  0.82012  0.45002  Biso   1.000  H
  H388     1.0000 0.73108  0.70634  0.54934  Biso   1.000  H
  C518     1.0000 0.65665  0.69132  0.55773  Biso   1.000  C
  C519     1.0000 0.64626  0.76504  0.54622  Biso   1.000  C
  H389     1.0000 0.71438  0.83285  0.52365  Biso   1.000  H
  H390     1.0000 0.81187  0.70753  0.69902  Biso   1.000  H
  C520     1.0000 0.76635  0.73674  0.73632  Biso   1.000  C
  H391     1.0000 0.72096  0.76524  0.76861  Biso   1.000  H
  C521     1.0000 0.01565  0.14792  0.37873  Biso   1.000  C
  H392     1.0000 0.96838  0.14824  0.45002  Biso   1.000  H
  H393     1.0000 0.97527  0.26895  0.54934  Biso   1.000  H
  C522     1.0000 0.03466  0.34334  0.55773  Biso   1.000  C
  C523     1.0000 0.11877  0.35375  0.54622  Biso   1.000  C
  H394     1.0000 0.11847  0.28562  0.52365  Biso   1.000  H
  H395     1.0000 0.89567  0.18813  0.69902  Biso   1.000  H
  C524     1.0000 0.97035  0.23363  0.73632  Biso   1.000  C
  H396     1.0000 0.04427  0.27904  0.76861  Biso   1.000  H
  C525     1.0000 0.84906  0.92652  0.30272  Biso   1.000  C
  H397     1.0000 0.88195  0.92553  0.22084  Biso   1.000  H
  H398     1.0000 0.88637  0.82662  0.34933  Biso   1.000  H
  H399     1.0000 0.79235  0.60853  0.11574  Biso   1.000  H
  H400     1.0000 0.09469  0.17674  0.39112  Biso   1.000  H
  C526     1.0000 0.98448  0.11134  0.27662  Biso   1.000  C
  H401     1.0000 0.04355  0.11804  0.22084  Biso   1.000  H
  H402     1.0000 0.28466  0.34823  0.06184  Biso   1.000  H
  C527     1.0000 0.83905  0.90602  0.36194  Biso   1.000  C
  H403     1.0000 0.64196  0.65462  0.56475  Biso   1.000  H
  C528     1.0000 0.62499  0.71226  0.55814  Biso   1.000  C
  C529     1.0000 0.62497  0.71222  0.55814  Biso   1.000  C
  H404     1.0000 0.62428  0.78034  0.54663  Biso   1.000  H
  H405     1.0000 0.75629  0.71285  0.76985  Biso   1.000  H
  C530     1.0000 0.97508  0.12304  0.33735  Biso   1.000  C
  H406     1.0000 0.01269  0.35804  0.56475  Biso   1.000  H
  C531     1.0000 0.08728  0.37504  0.55814  Biso   1.000  C
  H407     1.0000 0.15609  0.37575  0.54663  Biso   1.000  H
  H408     1.0000 0.95657  0.24376  0.76985  Biso   1.000  H
  H409     1.0000 0.95655  0.24372  0.76985  Biso   1.000  H
  C532     1.0000 0.83228  0.96425  0.28465  Biso   1.000  C
  C533     1.0000 0.94206  0.08863  0.23134  Biso   1.000  C
  H410     1.0000 0.82325  0.91793  0.39112  Biso   1.000  H
  H411     1.0000 0.58837  0.69085  0.56645  Biso   1.000  H
  H412     1.0000 0.94025  0.11362  0.34933  Biso   1.000  H
  H413     1.0000 0.10246  0.41162  0.56645  Biso   1.000  H
  N47      1.0000 0.82687  0.97324  0.22822  Biso   1.000  N
  H414     1.0000 0.82517  0.98254  0.31575  Biso   1.000  H
  N48      1.0000 0.89746  0.08354  0.24143  Biso   1.000  N
  H415     1.0000 0.94837  0.07735  0.19294  Biso   1.000  H
  C534     1.0000 0.80976  0.01195  0.21712  Biso   1.000  C
  C535     1.0000 0.85829  0.06174  0.19161  Biso   1.000  C
  C536     1.0000 0.76377  0.98865  0.17175  Biso   1.000  C
  H416     1.0000 0.79836  0.02054  0.25662  Biso   1.000  H
  H417     1.0000 0.87338  0.05165  0.15652  Biso   1.000  H
  C537     1.0000 0.84527  0.10373  0.17024  Biso   1.000  C
  C538     1.0000 0.71946  0.99366  0.18405  Biso   1.000  C
  C539     1.0000 0.76576  0.96464  0.11822  Biso   1.000  C
  C540     1.0000 0.71944  0.99362  0.18405  Biso   1.000  C
  C541     1.0000 0.83376  0.13144  0.21262  Biso   1.000  C
  C542     1.0000 0.84486  0.11315  0.10803  Biso   1.000  C
  C543     1.0000 0.67837  0.97395  0.14235  Biso   1.000  C
  H418     1.0000 0.71779  0.01045  0.22051  Biso   1.000  H
  C544     1.0000 0.72428  0.94525  0.07762  Biso   1.000  C
  H419     1.0000 0.79585  0.96153  0.10932  Biso   1.000  H
  H420     1.0000 0.83317  0.12403  0.25515  Biso   1.000  H
  C545     1.0000 0.82298  0.17043  0.19272  Biso   1.000  C
  C546     1.0000 0.83506  0.15234  0.08945  Biso   1.000  C
  H421     1.0000 0.85117  0.09292  0.07872  Biso   1.000  H
  H422     1.0000 0.64818  0.97714  0.15051  Biso   1.000  H
  C547     1.0000 0.68036  0.94994  0.08991  Biso   1.000  C
  H423     1.0000 0.72558  0.92845  0.04092  Biso   1.000  H
  H424     1.0000 0.81506  0.18963  0.22194  Biso   1.000  H
  C548     1.0000 0.82346  0.18123  0.12982  Biso   1.000  C
  H425     1.0000 0.83635  0.15983  0.04693  Biso   1.000  H
  H426     1.0000 0.65177  0.93645  0.06184  Biso   1.000  H
  H427     1.0000 0.65175  0.93642  0.06184  Biso   1.000  H
  H428     1.0000 0.81618  0.20765  0.11574  Biso   1.000  H
  C549     1.0000 0.06988  0.79343  0.56902  Biso   1.000  C
  C550     1.0000 0.07738  0.75073  0.58425  Biso   1.000  C
  H429     1.0000 0.07898  0.80904  0.52952  Biso   1.000  H
  C551     1.0000 0.04886  0.81223  0.61315  Biso   1.000  C
  C552     1.0000 0.06386  0.72873  0.63925  Biso   1.000  C
  H430     1.0000 0.09215  0.73772  0.55493  Biso   1.000  H
  C553     1.0000 0.03608  0.79016  0.67035  Biso   1.000  C
  C554     1.0000 0.03606  0.79012  0.67035  Biso   1.000  C
  H431     1.0000 0.04348  0.84074  0.60324  Biso   1.000  H
  C555     1.0000 0.04327  0.74793  0.68182  Biso   1.000  C
  H432     1.0000 0.06836  0.69964  0.64911  Biso   1.000  H
  C556     1.0000 0.01086  0.80833  0.71742  Biso   1.000  C
  H433     1.0000 0.03347  0.73134  0.72081  Biso   1.000  H
  N49      1.0000 0.04345  0.86573  0.72682  Biso   1.000  N
  H434     1.0000 0.00819  0.79016  0.75714  Biso   1.000  H
  H435     1.0000 0.00817  0.79012  0.75714  Biso   1.000  H
  C557     1.0000 0.95617  0.79654  0.69843  Biso   1.000  C
  C558     1.0000 0.05476  0.88063  0.78182  Biso   1.000  C
  N50      1.0000 0.93298  0.81263  0.74802  Biso   1.000  N
  H436     1.0000 0.95898  0.81704  0.66053  Biso   1.000  H
  C559     1.0000 0.92147  0.73895  0.68563  Biso   1.000  C
  H437     1.0000 0.04117  0.85434  0.81284  Biso   1.000  H
  C560     1.0000 0.08745  0.93543  0.80123  Biso   1.000  C
  C561     1.0000 0.91887  0.84614  0.73595  Biso   1.000  C
  C562     1.0000 0.89947  0.70315  0.73251  Biso   1.000  C
  C563     1.0000 0.91197  0.72124  0.62572  Biso   1.000  C
  C564     1.0000 0.10739  0.94615  0.86054  Biso   1.000  C
  C565     1.0000 0.10276  0.97876  0.76141  Biso   1.000  C
  C566     1.0000 0.10274  0.97872  0.76141  Biso   1.000  C
  C567     1.0000 0.89327  0.86403  0.77926  Biso   1.000  C
  H438     1.0000 0.92547  0.86064  0.69572  Biso   1.000  H
  H439     1.0000 0.90647  0.71462  0.77393  Biso   1.000  H
  C568     1.0000 0.86655  0.64973  0.71944  Biso   1.000  C
  C569     1.0000 0.88077  0.66704  0.61443  Biso   1.000  C
  H440     1.0000 0.92616  0.74553  0.59264  Biso   1.000  H
  C570     1.0000 0.14106  0.99705  0.88073  Biso   1.000  C
  H441     1.0000 0.09768  0.91765  0.88811  Biso   1.000  H
  H442     1.0000 0.08948  0.97233  0.72063  Biso   1.000  H
  C571     1.0000 0.13597  0.02926  0.77926  Biso   1.000  C
  C572     1.0000 0.13595  0.02922  0.77926  Biso   1.000  C
  C573     1.0000 0.87596  0.89723  0.76141  Biso   1.000  C
  C574     1.0000 0.88228  0.84444  0.83995  Biso   1.000  C
  H443     1.0000 0.85107  0.62505  0.75192  Biso   1.000  H
  C575     1.0000 0.85656  0.63282  0.65985  Biso   1.000  C
  H444     1.0000 0.87685  0.65442  0.57351  Biso   1.000  H
  C576     1.0000 0.16586  0.00552  0.94215  Biso   1.000  C
  C577     1.0000 0.15556  0.03785  0.83995  Biso   1.000  C
  C578     1.0000 0.15388  0.07274  0.73595  Biso   1.000  C
  C579     1.0000 0.84797  0.91252  0.80123  Biso   1.000  C
  H445     1.0000 0.88286  0.91055  0.72063  Biso   1.000  H
  H446     1.0000 0.88284  0.91051  0.72063  Biso   1.000  H
  C580     1.0000 0.85597  0.85895  0.88073  Biso   1.000  C
  H447     1.0000 0.89328  0.82043  0.85293  Biso   1.000  H
  H448     1.0000 0.83245  0.59683  0.65095  Biso   1.000  H
  N51      1.0000 0.15878  0.96665  0.97573  Biso   1.000  N
  H449     1.0000 0.18735  0.04053  0.95683  Biso   1.000  H
  H450     1.0000 0.17956  0.07282  0.85293  Biso   1.000  H
  N52      1.0000 0.18737  0.12032  0.74802  Biso   1.000  N
  H451     1.0000 0.13939  0.06486  0.69572  Biso   1.000  H
  H452     1.0000 0.13937  0.06482  0.69572  Biso   1.000  H
  C581     1.0000 0.83878  0.89266  0.86054  Biso   1.000  C
  C582     1.0000 0.82588  0.94525  0.78182  Biso   1.000  C
  C583     1.0000 0.83876  0.89262  0.86054  Biso   1.000  C
  C584     1.0000 0.83968  0.83415  0.94215  Biso   1.000  C
  C585     1.0000 0.18835  0.97943  0.03335  Biso   1.000  C
  C586     1.0000 0.20347  0.15963  0.69843  Biso   1.000  C
  H453     1.0000 0.81997  0.90235  0.88811  Biso   1.000  H
  H454     1.0000 0.81995  0.90231  0.88811  Biso   1.000  H
  N53      1.0000 0.82227  0.95652  0.72682  Biso   1.000  N
  H455     1.0000 0.81319  0.95885  0.81284  Biso   1.000  H
  N54      1.0000 0.80789  0.84125  0.97573  Biso   1.000  N
  H456     1.0000 0.85316  0.81263  0.95683  Biso   1.000  H
  C587     1.0000 0.14856  0.95652  0.08652  Biso   1.000  C
  C588     1.0000 0.22197  0.95352  0.03404  Biso   1.000  C
  H457     1.0000 0.21097  0.01845  0.03794  Biso   1.000  H
  H458     1.0000 0.21095  0.01842  0.03794  Biso   1.000  H
  H459     1.0000 0.18295  0.14193  0.66053  Biso   1.000  H
  C589     1.0000 0.19167  0.20252  0.71742  Biso   1.000  C
  C590     1.0000 0.26105  0.18253  0.68563  Biso   1.000  C
  C591     1.0000 0.79746  0.98912  0.71742  Biso   1.000  C
  C592     1.0000 0.79107  0.81164  0.03335  Biso   1.000  C
  N55      1.0000 0.11927  0.98534  0.08835  Biso   1.000  N
  H460     1.0000 0.12335  0.91832  0.07854  Biso   1.000  H
  C593     1.0000 0.17607  0.96204  0.14693  Biso   1.000  C
  C594     1.0000 0.27439  0.98155  0.05175  Biso   1.000  C
  C595     1.0000 0.19968  0.90015  0.02133  Biso   1.000  C
  C596     1.0000 0.27437  0.98152  0.05175  Biso   1.000  C
  N56      1.0000 0.13427  0.17772  0.72682  Biso   1.000  N
  H461     1.0000 0.20988  0.21805  0.75714  Biso   1.000  H
  C597     1.0000 0.20985  0.24593  0.67035  Biso   1.000  C
  H462     1.0000 0.20986  0.21801  0.75714  Biso   1.000  H
  C598     1.0000 0.29687  0.19633  0.73251  Biso   1.000  C
  C599     1.0000 0.27877  0.19073  0.62572  Biso   1.000  C
  H463     1.0000 0.78196  0.99184  0.75714  Biso   1.000  H
  C600     1.0000 0.75407  0.96393  0.67035  Biso   1.000  C
  C601     1.0000 0.84036  0.04384  0.69843  Biso   1.000  C
  C602     1.0000 0.80796  0.85142  0.08652  Biso   1.000  C
  H464     1.0000 0.80747  0.78905  0.03794  Biso   1.000  H
  C603     1.0000 0.73157  0.77805  0.03404  Biso   1.000  C
  C604     1.0000 0.07067  0.95814  0.08092  Biso   1.000  C
  C605     1.0000 0.16776  0.91702  0.17794  Biso   1.000  C
  C606     1.0000 0.21228  0.01104  0.16914  Biso   1.000  C
  C607     1.0000 0.30285  0.95632  0.05734  Biso   1.000  C
  H465     1.0000 0.29059  0.01826  0.06005  Biso   1.000  H
  H466     1.0000 0.29057  0.01822  0.06005  Biso   1.000  H
  C608     1.0000 0.22825  0.87452  0.02684  Biso   1.000  C
  H467     1.0000 0.16397  0.88083  0.00853  Biso   1.000  H
  C609     1.0000 0.11937  0.17414  0.78182  Biso   1.000  C
  C610     1.0000 0.25207  0.29532  0.68182  Biso   1.000  C
  C611     1.0000 0.18775  0.23662  0.61315  Biso   1.000  C
  H468     1.0000 0.28537  0.19184  0.77393  Biso   1.000  H
  C612     1.0000 0.35027  0.21683  0.71944  Biso   1.000  C
  C613     1.0000 0.33296  0.21376  0.61443  Biso   1.000  C
  H469     1.0000 0.25447  0.18064  0.59264  Biso   1.000  H
  C614     1.0000 0.33294  0.21372  0.61443  Biso   1.000  C
  C615     1.0000 0.70467  0.95676  0.68182  Biso   1.000  C
  C616     1.0000 0.76337  0.95112  0.61315  Biso   1.000  C
  C617     1.0000 0.70465  0.95672  0.68182  Biso   1.000  C
  N57      1.0000 0.87967  0.06702  0.74802  Biso   1.000  N
  H470     1.0000 0.85808  0.04104  0.66053  Biso   1.000  H
  C618     1.0000 0.81745  0.07854  0.68563  Biso   1.000  C
  N58      1.0000 0.86608  0.88075  0.08835  Biso   1.000  N
  H471     1.0000 0.79497  0.87665  0.07854  Biso   1.000  H
  C619     1.0000 0.78595  0.82394  0.14693  Biso   1.000  C
  C620     1.0000 0.70716  0.72562  0.05175  Biso   1.000  C
  C621     1.0000 0.70047  0.80033  0.02133  Biso   1.000  C
  C622     1.0000 0.03446  0.97974  0.08092  Biso   1.000  C
  H472     1.0000 0.05598  0.92124  0.07491  Biso   1.000  H
  C623     1.0000 0.19339  0.92136  0.23235  Biso   1.000  C
  H473     1.0000 0.14438  0.88323  0.16143  Biso   1.000  H
  C624     1.0000 0.19337  0.92132  0.23235  Biso   1.000  C
  H474     1.0000 0.21917  0.04203  0.14762  Biso   1.000  H
  C625     1.0000 0.23889  0.01455  0.22382  Biso   1.000  C
  H475     1.0000 0.33856  0.97572  0.07023  Biso   1.000  H
  C626     1.0000 0.28137  0.90464  0.04482  Biso   1.000  C
  H476     1.0000 0.21256  0.83782  0.01872  Biso   1.000  H
  C627     1.0000 0.06457  0.15202  0.80123  Biso   1.000  C
  H477     1.0000 0.14565  0.18683  0.81284  Biso   1.000  H
  H478     1.0000 0.26869  0.30214  0.72081  Biso   1.000  H
  C628     1.0000 0.27126  0.33514  0.63925  Biso   1.000  C
  C629     1.0000 0.20657  0.27644  0.56902  Biso   1.000  C
  H479     1.0000 0.15928  0.20276  0.60324  Biso   1.000  H
  H480     1.0000 0.15926  0.20272  0.60324  Biso   1.000  H
  H481     1.0000 0.37499  0.22606  0.75192  Biso   1.000  H
  C630     1.0000 0.36717  0.22373  0.65985  Biso   1.000  C
  H482     1.0000 0.37497  0.22602  0.75192  Biso   1.000  H
  H483     1.0000 0.34556  0.22243  0.57351  Biso   1.000  H
  H484     1.0000 0.69788  0.96653  0.72081  Biso   1.000  H
  C631     1.0000 0.66486  0.93614  0.63925  Biso   1.000  C
  C632     1.0000 0.72356  0.93015  0.56902  Biso   1.000  C
  H485     1.0000 0.79728  0.95652  0.60324  Biso   1.000  H
  C633     1.0000 0.92725  0.08114  0.73595  Biso   1.000  C
  C634     1.0000 0.80366  0.10053  0.73251  Biso   1.000  C
  C635     1.0000 0.80926  0.08804  0.62572  Biso   1.000  C
  C636     1.0000 0.88747  0.92932  0.08092  Biso   1.000  C
  C637     1.0000 0.79879  0.78775  0.16914  Biso   1.000  C
  C638     1.0000 0.74926  0.83222  0.17794  Biso   1.000  C
  H486     1.0000 0.72769  0.70946  0.06005  Biso   1.000  H
  C639     1.0000 0.65349  0.69716  0.05734  Biso   1.000  C
  H487     1.0000 0.72767  0.70942  0.06005  Biso   1.000  H
  C640     1.0000 0.65348  0.69712  0.05734  Biso   1.000  C
  C641     1.0000 0.64627  0.77175  0.02684  Biso   1.000  C
  H488     1.0000 0.71686  0.83604  0.00853  Biso   1.000  H
  C642     1.0000 0.97987  0.94596  0.08042  Biso   1.000  C
  C643     1.0000 0.97985  0.94592  0.08042  Biso   1.000  C
  C644     1.0000 0.05409  0.03395  0.08042  Biso   1.000  C
  C645     1.0000 0.23126  0.97095  0.25492  Biso   1.000  C
  H489     1.0000 0.18537  0.89045  0.25483  Biso   1.000  H
  H490     1.0000 0.26286  0.04822  0.23983  Biso   1.000  H
  H491     1.0000 0.30226  0.88824  0.04821  Biso   1.000  H
  C646     1.0000 0.05386  0.16124  0.86054  Biso   1.000  C
  C647     1.0000 0.02125  0.12403  0.76141  Biso   1.000  C
  H492     1.0000 0.30038  0.36873  0.64911  Biso   1.000  H
  C648     1.0000 0.24925  0.32662  0.58425  Biso   1.000  C
  H493     1.0000 0.19096  0.26993  0.52952  Biso   1.000  H
  H494     1.0000 0.40317  0.23564  0.65095  Biso   1.000  H
  H495     1.0000 0.63127  0.93165  0.64911  Biso   1.000  H
  C649     1.0000 0.67338  0.92266  0.58425  Biso   1.000  C
  C650     1.0000 0.67336  0.92262  0.58425  Biso   1.000  C
  H496     1.0000 0.73007  0.92104  0.52952  Biso   1.000  H
  C651     1.0000 0.97077  0.10672  0.77926  Biso   1.000  C
  H497     1.0000 0.93516  0.07455  0.69572  Biso   1.000  H
  H498     1.0000 0.93514  0.07451  0.69572  Biso   1.000  H
  H499     1.0000 0.80816  0.09356  0.77393  Biso   1.000  H
  C652     1.0000 0.78318  0.13345  0.71944  Biso   1.000  C
  H500     1.0000 0.80814  0.09352  0.77393  Biso   1.000  H
  C653     1.0000 0.78627  0.11922  0.61443  Biso   1.000  C
  H501     1.0000 0.81937  0.07384  0.59264  Biso   1.000  H
  C654     1.0000 0.94529  0.96555  0.08092  Biso   1.000  C
  H502     1.0000 0.86525  0.94402  0.07491  Biso   1.000  H
  H503     1.0000 0.82286  0.78085  0.14762  Biso   1.000  H
  C655     1.0000 0.77565  0.76114  0.22382  Biso   1.000  C
  C656     1.0000 0.72797  0.80663  0.23235  Biso   1.000  C
  H504     1.0000 0.73888  0.85564  0.16143  Biso   1.000  H
  H505     1.0000 0.63717  0.66144  0.07023  Biso   1.000  H
  C657     1.0000 0.62327  0.71864  0.04482  Biso   1.000  C
  H506     1.0000 0.62526  0.78744  0.01872  Biso   1.000  H
  H507     1.0000 0.96608  0.90894  0.07964  Biso   1.000  H
  H508     1.0000 0.09108  0.05713  0.07964  Biso   1.000  H
  C658     1.0000 0.02026  0.05472  0.08092  Biso   1.000  C
  H509     1.0000 0.25099  0.97395  0.29075  Biso   1.000  H
  C659     1.0000 0.00299  0.14406  0.88073  Biso   1.000  C
  H510     1.0000 0.08238  0.18005  0.88811  Biso   1.000  H
  C660     1.0000 0.00297  0.14402  0.88073  Biso   1.000  C
  H511     1.0000 0.02767  0.11713  0.72063  Biso   1.000  H
  H512     1.0000 0.26227  0.35446  0.55493  Biso   1.000  H
  H513     1.0000 0.26225  0.35442  0.55493  Biso   1.000  H
  H514     1.0000 0.64555  0.90783  0.55493  Biso   1.000  H
  C661     1.0000 0.96217  0.11772  0.83995  Biso   1.000  C
  H515     1.0000 0.77396  0.14894  0.75192  Biso   1.000  H
  C662     1.0000 0.77625  0.14343  0.65985  Biso   1.000  C
  H516     1.0000 0.77757  0.12312  0.57351  Biso   1.000  H
  C663     1.0000 0.96607  0.02015  0.08042  Biso   1.000  C
  H517     1.0000 0.78536  0.73713  0.23983  Biso   1.000  H
  C664     1.0000 0.73968  0.76875  0.25492  Biso   1.000  C
  H518     1.0000 0.70507  0.81464  0.25483  Biso   1.000  H
  H519     1.0000 0.58599  0.69775  0.04821  Biso   1.000  H
  C665     1.0000 0.04187  0.11256  0.08092  Biso   1.000  C
  C666     1.0000 0.04185  0.11252  0.08092  Biso   1.000  C
  C667     1.0000 0.99447  0.16034  0.94215  Biso   1.000  C
  H520     1.0000 0.92717  0.10672  0.85293  Biso   1.000  H
  H521     1.0000 0.76438  0.16755  0.65095  Biso   1.000  H
  H522     1.0000 0.94289  0.03395  0.07964  Biso   1.000  H
  H523     1.0000 0.72297  0.74904  0.29075  Biso   1.000  H
  N59      1.0000 0.01466  0.13392  0.08835  Biso   1.000  N
  H524     1.0000 0.07878  0.13475  0.07491  Biso   1.000  H
  H525     1.0000 0.95946  0.14686  0.95683  Biso   1.000  H
  H526     1.0000 0.95944  0.14682  0.95683  Biso   1.000  H
  N60      1.0000 0.03339  0.19215  0.97573  Biso   1.000  N
  C668     1.0000 0.04347  0.19203  0.08652  Biso   1.000  C
  C669     1.0000 0.02059  0.20895  0.03335  Biso   1.000  C
  H527     1.0000 0.08166  0.20504  0.07854  Biso   1.000  H
  C670     1.0000 0.03798  0.21403  0.14693  Biso   1.000  C
  H528     1.0000 0.98156  0.19255  0.03794  Biso   1.000  H
  C671     1.0000 0.04647  0.26844  0.03404  Biso   1.000  C
  C672     1.0000 0.98897  0.20122  0.16914  Biso   1.000  C
  C673     1.0000 0.08296  0.25074  0.17794  Biso   1.000  C
  C674     1.0000 0.01846  0.29284  0.05175  Biso   1.000  C
  C675     1.0000 0.09986  0.29954  0.02133  Biso   1.000  C
  H529     1.0000 0.95798  0.17713  0.14762  Biso   1.000  H
  C676     1.0000 0.98546  0.22432  0.22382  Biso   1.000  C
  C677     1.0000 0.07865  0.27202  0.23235  Biso   1.000  C
  H530     1.0000 0.11678  0.26114  0.16143  Biso   1.000  H
  H531     1.0000 0.98178  0.27234  0.06005  Biso   1.000  H
  C678     1.0000 0.04367  0.34653  0.05734  Biso   1.000  C
  C679     1.0000 0.12546  0.35375  0.02684  Biso   1.000  C
  H532     1.0000 0.11917  0.28314  0.00853  Biso   1.000  H
  H533     1.0000 0.95176  0.21462  0.23983  Biso   1.000  H
  C680     1.0000 0.02908  0.26035  0.25492  Biso   1.000  C
  C681     1.0000 0.02906  0.26031  0.25492  Biso   1.000  C
  H534     1.0000 0.10957  0.29493  0.25483  Biso   1.000  H
  H535     1.0000 0.02427  0.36285  0.07023  Biso   1.000  H
  C682     1.0000 0.09536  0.37673  0.04482  Biso   1.000  C
  H536     1.0000 0.02425  0.36281  0.07023  Biso   1.000  H
  H537     1.0000 0.16216  0.37472  0.01872  Biso   1.000  H
  H538     1.0000 0.02605  0.27703  0.29075  Biso   1.000  H
  H539     1.0000 0.11176  0.41403  0.04821  Biso   1.000  H
  C683     1.0000 0.06988  0.79343  0.56902  Biso   1.000  C
  C684     1.0000 0.07738  0.75073  0.58425  Biso   1.000  C
  H540     1.0000 0.07898  0.80904  0.52952  Biso   1.000  H
  C685     1.0000 0.04886  0.81223  0.61315  Biso   1.000  C
  C686     1.0000 0.06386  0.72873  0.63925  Biso   1.000  C
  H541     1.0000 0.09215  0.73772  0.55493  Biso   1.000  H
  C687     1.0000 0.03608  0.79016  0.67035  Biso   1.000  C
  C688     1.0000 0.03606  0.79012  0.67035  Biso   1.000  C
  H542     1.0000 0.04348  0.84074  0.60324  Biso   1.000  H
  C689     1.0000 0.04327  0.74793  0.68182  Biso   1.000  C
  H543     1.0000 0.06836  0.69964  0.64911  Biso   1.000  H
  C690     1.0000 0.01086  0.80833  0.71742  Biso   1.000  C
  H544     1.0000 0.03347  0.73134  0.72081  Biso   1.000  H
  N61      1.0000 0.04345  0.86573  0.72682  Biso   1.000  N
  H545     1.0000 0.00819  0.79016  0.75714  Biso   1.000  H
  H546     1.0000 0.00817  0.79012  0.75714  Biso   1.000  H
  C691     1.0000 0.95617  0.79654  0.69843  Biso   1.000  C
  C692     1.0000 0.05476  0.88063  0.78182  Biso   1.000  C
  N62      1.0000 0.93298  0.81263  0.74802  Biso   1.000  N
  H547     1.0000 0.95898  0.81704  0.66053  Biso   1.000  H
  C693     1.0000 0.92147  0.73895  0.68563  Biso   1.000  C
  H548     1.0000 0.04117  0.85434  0.81284  Biso   1.000  H
  C694     1.0000 0.08745  0.93543  0.80123  Biso   1.000  C
  C695     1.0000 0.91887  0.84614  0.73595  Biso   1.000  C
  C696     1.0000 0.89947  0.70315  0.73251  Biso   1.000  C
  C697     1.0000 0.91197  0.72124  0.62572  Biso   1.000  C
  C698     1.0000 0.10739  0.94615  0.86054  Biso   1.000  C
  C699     1.0000 0.10276  0.97876  0.76141  Biso   1.000  C
  C700     1.0000 0.10274  0.97872  0.76141  Biso   1.000  C
  C701     1.0000 0.89327  0.86403  0.77926  Biso   1.000  C
  H549     1.0000 0.92547  0.86064  0.69572  Biso   1.000  H
  H550     1.0000 0.90647  0.71462  0.77393  Biso   1.000  H
  C702     1.0000 0.86655  0.64973  0.71944  Biso   1.000  C
  C703     1.0000 0.88077  0.66704  0.61443  Biso   1.000  C
  H551     1.0000 0.92616  0.74553  0.59264  Biso   1.000  H
  C704     1.0000 0.14106  0.99705  0.88073  Biso   1.000  C
  H552     1.0000 0.09768  0.91765  0.88811  Biso   1.000  H
  H553     1.0000 0.08948  0.97233  0.72063  Biso   1.000  H
  C705     1.0000 0.13597  0.02926  0.77926  Biso   1.000  C
  C706     1.0000 0.13595  0.02922  0.77926  Biso   1.000  C
  C707     1.0000 0.87596  0.89723  0.76141  Biso   1.000  C
  C708     1.0000 0.88228  0.84444  0.83995  Biso   1.000  C
  H554     1.0000 0.85107  0.62505  0.75192  Biso   1.000  H
  C709     1.0000 0.85656  0.63282  0.65985  Biso   1.000  C
  H555     1.0000 0.87685  0.65442  0.57351  Biso   1.000  H
  C710     1.0000 0.16586  0.00552  0.94215  Biso   1.000  C
  C711     1.0000 0.15556  0.03785  0.83995  Biso   1.000  C
  C712     1.0000 0.15388  0.07274  0.73595  Biso   1.000  C
  C713     1.0000 0.84797  0.91252  0.80123  Biso   1.000  C
  H556     1.0000 0.88286  0.91055  0.72063  Biso   1.000  H
  H557     1.0000 0.88284  0.91051  0.72063  Biso   1.000  H
  C714     1.0000 0.85597  0.85895  0.88073  Biso   1.000  C
  H558     1.0000 0.89328  0.82043  0.85293  Biso   1.000  H
  H559     1.0000 0.83245  0.59683  0.65095  Biso   1.000  H
  N63      1.0000 0.15878  0.96665  0.97573  Biso   1.000  N
  H560     1.0000 0.18735  0.04053  0.95683  Biso   1.000  H
  H561     1.0000 0.17956  0.07282  0.85293  Biso   1.000  H
  N64      1.0000 0.18737  0.12032  0.74802  Biso   1.000  N
  H562     1.0000 0.13939  0.06486  0.69572  Biso   1.000  H
  H563     1.0000 0.13937  0.06482  0.69572  Biso   1.000  H
  C715     1.0000 0.83878  0.89266  0.86054  Biso   1.000  C
  C716     1.0000 0.82588  0.94525  0.78182  Biso   1.000  C
  C717     1.0000 0.83876  0.89262  0.86054  Biso   1.000  C
  C718     1.0000 0.83968  0.83415  0.94215  Biso   1.000  C
  C719     1.0000 0.18835  0.97943  0.03335  Biso   1.000  C
  C720     1.0000 0.20347  0.15963  0.69843  Biso   1.000  C
  H564     1.0000 0.81997  0.90235  0.88811  Biso   1.000  H
  H565     1.0000 0.81995  0.90231  0.88811  Biso   1.000  H
  N65      1.0000 0.82227  0.95652  0.72682  Biso   1.000  N
  H566     1.0000 0.81319  0.95885  0.81284  Biso   1.000  H
  N66      1.0000 0.80789  0.84125  0.97573  Biso   1.000  N
  H567     1.0000 0.85316  0.81263  0.95683  Biso   1.000  H
  C721     1.0000 0.14856  0.95652  0.08652  Biso   1.000  C
  C722     1.0000 0.22197  0.95352  0.03404  Biso   1.000  C
  H568     1.0000 0.21097  0.01845  0.03794  Biso   1.000  H
  H569     1.0000 0.21095  0.01842  0.03794  Biso   1.000  H
  H570     1.0000 0.18295  0.14193  0.66053  Biso   1.000  H
  C723     1.0000 0.19167  0.20252  0.71742  Biso   1.000  C
  C724     1.0000 0.26105  0.18253  0.68563  Biso   1.000  C
  C725     1.0000 0.79746  0.98912  0.71742  Biso   1.000  C
  C726     1.0000 0.79107  0.81164  0.03335  Biso   1.000  C
  N67      1.0000 0.11927  0.98534  0.08835  Biso   1.000  N
  H571     1.0000 0.12335  0.91832  0.07854  Biso   1.000  H
  C727     1.0000 0.17607  0.96204  0.14693  Biso   1.000  C
  C728     1.0000 0.27439  0.98155  0.05175  Biso   1.000  C
  C729     1.0000 0.19968  0.90015  0.02133  Biso   1.000  C
  C730     1.0000 0.27437  0.98152  0.05175  Biso   1.000  C
  N68      1.0000 0.13427  0.17772  0.72682  Biso   1.000  N
  H572     1.0000 0.20988  0.21805  0.75714  Biso   1.000  H
  C731     1.0000 0.20985  0.24593  0.67035  Biso   1.000  C
  H573     1.0000 0.20986  0.21801  0.75714  Biso   1.000  H
  C732     1.0000 0.29687  0.19633  0.73251  Biso   1.000  C
  C733     1.0000 0.27877  0.19073  0.62572  Biso   1.000  C
  H574     1.0000 0.78196  0.99184  0.75714  Biso   1.000  H
  C734     1.0000 0.75407  0.96393  0.67035  Biso   1.000  C
  C735     1.0000 0.84036  0.04384  0.69843  Biso   1.000  C
  C736     1.0000 0.80796  0.85142  0.08652  Biso   1.000  C
  H575     1.0000 0.80747  0.78905  0.03794  Biso   1.000  H
  C737     1.0000 0.73157  0.77805  0.03404  Biso   1.000  C
  C738     1.0000 0.07067  0.95814  0.08092  Biso   1.000  C
  C739     1.0000 0.16776  0.91702  0.17794  Biso   1.000  C
  C740     1.0000 0.21228  0.01104  0.16914  Biso   1.000  C
  C741     1.0000 0.30285  0.95632  0.05734  Biso   1.000  C
  H576     1.0000 0.29059  0.01826  0.06005  Biso   1.000  H
  H577     1.0000 0.29057  0.01822  0.06005  Biso   1.000  H
  C742     1.0000 0.22825  0.87452  0.02684  Biso   1.000  C
  H578     1.0000 0.16397  0.88083  0.00853  Biso   1.000  H
  C743     1.0000 0.11937  0.17414  0.78182  Biso   1.000  C
  C744     1.0000 0.25207  0.29532  0.68182  Biso   1.000  C
  C745     1.0000 0.18775  0.23662  0.61315  Biso   1.000  C
  H579     1.0000 0.28537  0.19184  0.77393  Biso   1.000  H
  C746     1.0000 0.35027  0.21683  0.71944  Biso   1.000  C
  C747     1.0000 0.33296  0.21376  0.61443  Biso   1.000  C
  H580     1.0000 0.25447  0.18064  0.59264  Biso   1.000  H
  C748     1.0000 0.33294  0.21372  0.61443  Biso   1.000  C
  C749     1.0000 0.70467  0.95676  0.68182  Biso   1.000  C
  C750     1.0000 0.76337  0.95112  0.61315  Biso   1.000  C
  C751     1.0000 0.70465  0.95672  0.68182  Biso   1.000  C
  N69      1.0000 0.87967  0.06702  0.74802  Biso   1.000  N
  H581     1.0000 0.85808  0.04104  0.66053  Biso   1.000  H
  C752     1.0000 0.81745  0.07854  0.68563  Biso   1.000  C
  N70      1.0000 0.86608  0.88075  0.08835  Biso   1.000  N
  H582     1.0000 0.79497  0.87665  0.07854  Biso   1.000  H
  C753     1.0000 0.78595  0.82394  0.14693  Biso   1.000  C
  C754     1.0000 0.70716  0.72562  0.05175  Biso   1.000  C
  C755     1.0000 0.70047  0.80033  0.02133  Biso   1.000  C
  C756     1.0000 0.03446  0.97974  0.08092  Biso   1.000  C
  H583     1.0000 0.05598  0.92124  0.07491  Biso   1.000  H
  C757     1.0000 0.19339  0.92136  0.23235  Biso   1.000  C
  H584     1.0000 0.14438  0.88323  0.16143  Biso   1.000  H
  C758     1.0000 0.19337  0.92132  0.23235  Biso   1.000  C
  H585     1.0000 0.21917  0.04203  0.14762  Biso   1.000  H
  C759     1.0000 0.23889  0.01455  0.22382  Biso   1.000  C
  H586     1.0000 0.33856  0.97572  0.07023  Biso   1.000  H
  C760     1.0000 0.28137  0.90464  0.04482  Biso   1.000  C
  H587     1.0000 0.21256  0.83782  0.01872  Biso   1.000  H
  C761     1.0000 0.06457  0.15202  0.80123  Biso   1.000  C
  H588     1.0000 0.14565  0.18683  0.81284  Biso   1.000  H
  H589     1.0000 0.26869  0.30214  0.72081  Biso   1.000  H
  C762     1.0000 0.27126  0.33514  0.63925  Biso   1.000  C
  C763     1.0000 0.20657  0.27644  0.56902  Biso   1.000  C
  H590     1.0000 0.15928  0.20276  0.60324  Biso   1.000  H
  H591     1.0000 0.15926  0.20272  0.60324  Biso   1.000  H
  H592     1.0000 0.37499  0.22606  0.75192  Biso   1.000  H
  C764     1.0000 0.36717  0.22373  0.65985  Biso   1.000  C
  H593     1.0000 0.37497  0.22602  0.75192  Biso   1.000  H
  H594     1.0000 0.34556  0.22243  0.57351  Biso   1.000  H
  H595     1.0000 0.69788  0.96653  0.72081  Biso   1.000  H
  C765     1.0000 0.66486  0.93614  0.63925  Biso   1.000  C
  C766     1.0000 0.72356  0.93015  0.56902  Biso   1.000  C
  H596     1.0000 0.79728  0.95652  0.60324  Biso   1.000  H
  C767     1.0000 0.92725  0.08114  0.73595  Biso   1.000  C
  C768     1.0000 0.80366  0.10053  0.73251  Biso   1.000  C
  C769     1.0000 0.80926  0.08804  0.62572  Biso   1.000  C
  C770     1.0000 0.88747  0.92932  0.08092  Biso   1.000  C
  C771     1.0000 0.79879  0.78775  0.16914  Biso   1.000  C
  C772     1.0000 0.74926  0.83222  0.17794  Biso   1.000  C
  H597     1.0000 0.72769  0.70946  0.06005  Biso   1.000  H
  C773     1.0000 0.65349  0.69716  0.05734  Biso   1.000  C
  H598     1.0000 0.72767  0.70942  0.06005  Biso   1.000  H
  C774     1.0000 0.65348  0.69712  0.05734  Biso   1.000  C
  C775     1.0000 0.64627  0.77175  0.02684  Biso   1.000  C
  H599     1.0000 0.71686  0.83604  0.00853  Biso   1.000  H
  C776     1.0000 0.97987  0.94596  0.08042  Biso   1.000  C
  C777     1.0000 0.97985  0.94592  0.08042  Biso   1.000  C
  C778     1.0000 0.05409  0.03395  0.08042  Biso   1.000  C
  C779     1.0000 0.23126  0.97095  0.25492  Biso   1.000  C
  H600     1.0000 0.18537  0.89045  0.25483  Biso   1.000  H
  H601     1.0000 0.26286  0.04822  0.23983  Biso   1.000  H
  H602     1.0000 0.30226  0.88824  0.04821  Biso   1.000  H
  C780     1.0000 0.05386  0.16124  0.86054  Biso   1.000  C
  C781     1.0000 0.02125  0.12403  0.76141  Biso   1.000  C
  H603     1.0000 0.30038  0.36873  0.64911  Biso   1.000  H
  C782     1.0000 0.24925  0.32662  0.58425  Biso   1.000  C
  H604     1.0000 0.19096  0.26993  0.52952  Biso   1.000  H
  H605     1.0000 0.40317  0.23564  0.65095  Biso   1.000  H
  H606     1.0000 0.63127  0.93165  0.64911  Biso   1.000  H
  C783     1.0000 0.67338  0.92266  0.58425  Biso   1.000  C
  C784     1.0000 0.67336  0.92262  0.58425  Biso   1.000  C
  H607     1.0000 0.73007  0.92104  0.52952  Biso   1.000  H
  C785     1.0000 0.97077  0.10672  0.77926  Biso   1.000  C
  H608     1.0000 0.93516  0.07455  0.69572  Biso   1.000  H
  H609     1.0000 0.93514  0.07451  0.69572  Biso   1.000  H
  H610     1.0000 0.80816  0.09356  0.77393  Biso   1.000  H
  C786     1.0000 0.78318  0.13345  0.71944  Biso   1.000  C
  H611     1.0000 0.80814  0.09352  0.77393  Biso   1.000  H
  C787     1.0000 0.78627  0.11922  0.61443  Biso   1.000  C
  H612     1.0000 0.81937  0.07384  0.59264  Biso   1.000  H
  C788     1.0000 0.94529  0.96555  0.08092  Biso   1.000  C
  H613     1.0000 0.86525  0.94402  0.07491  Biso   1.000  H
  H614     1.0000 0.82286  0.78085  0.14762  Biso   1.000  H
  C789     1.0000 0.77565  0.76114  0.22382  Biso   1.000  C
  C790     1.0000 0.72797  0.80663  0.23235  Biso   1.000  C
  H615     1.0000 0.73888  0.85564  0.16143  Biso   1.000  H
  H616     1.0000 0.63717  0.66144  0.07023  Biso   1.000  H
  C791     1.0000 0.62327  0.71864  0.04482  Biso   1.000  C
  H617     1.0000 0.62526  0.78744  0.01872  Biso   1.000  H
  H618     1.0000 0.96608  0.90894  0.07964  Biso   1.000  H
  H619     1.0000 0.09108  0.05713  0.07964  Biso   1.000  H
  C792     1.0000 0.02026  0.05472  0.08092  Biso   1.000  C
  H620     1.0000 0.25099  0.97395  0.29075  Biso   1.000  H
  C793     1.0000 0.00299  0.14406  0.88073  Biso   1.000  C
  H621     1.0000 0.08238  0.18005  0.88811  Biso   1.000  H
  C794     1.0000 0.00297  0.14402  0.88073  Biso   1.000  C
  H622     1.0000 0.02767  0.11713  0.72063  Biso   1.000  H
  H623     1.0000 0.26227  0.35446  0.55493  Biso   1.000  H
  H624     1.0000 0.26225  0.35442  0.55493  Biso   1.000  H
  H625     1.0000 0.64555  0.90783  0.55493  Biso   1.000  H
  C795     1.0000 0.96217  0.11772  0.83995  Biso   1.000  C
  H626     1.0000 0.77396  0.14894  0.75192  Biso   1.000  H
  C796     1.0000 0.77625  0.14343  0.65985  Biso   1.000  C
  H627     1.0000 0.77757  0.12312  0.57351  Biso   1.000  H
  C797     1.0000 0.96607  0.02015  0.08042  Biso   1.000  C
  H628     1.0000 0.78536  0.73713  0.23983  Biso   1.000  H
  C798     1.0000 0.73968  0.76875  0.25492  Biso   1.000  C
  H629     1.0000 0.70507  0.81464  0.25483  Biso   1.000  H
  H630     1.0000 0.58599  0.69775  0.04821  Biso   1.000  H
  C799     1.0000 0.04187  0.11256  0.08092  Biso   1.000  C
  C800     1.0000 0.04185  0.11252  0.08092  Biso   1.000  C
  C801     1.0000 0.99447  0.16034  0.94215  Biso   1.000  C
  H631     1.0000 0.92717  0.10672  0.85293  Biso   1.000  H
  H632     1.0000 0.76438  0.16755  0.65095  Biso   1.000  H
  H633     1.0000 0.94289  0.03395  0.07964  Biso   1.000  H
  H634     1.0000 0.72297  0.74904  0.29075  Biso   1.000  H
  N71      1.0000 0.01466  0.13392  0.08835  Biso   1.000  N
  H635     1.0000 0.07878  0.13475  0.07491  Biso   1.000  H
  H636     1.0000 0.95946  0.14686  0.95683  Biso   1.000  H
  H637     1.0000 0.95944  0.14682  0.95683  Biso   1.000  H
  N72      1.0000 0.03339  0.19215  0.97573  Biso   1.000  N
  C802     1.0000 0.04347  0.19203  0.08652  Biso   1.000  C
  C803     1.0000 0.02059  0.20895  0.03335  Biso   1.000  C
  H638     1.0000 0.08166  0.20504  0.07854  Biso   1.000  H
  C804     1.0000 0.03798  0.21403  0.14693  Biso   1.000  C
  H639     1.0000 0.98156  0.19255  0.03794  Biso   1.000  H
  C805     1.0000 0.04647  0.26844  0.03404  Biso   1.000  C
  C806     1.0000 0.98897  0.20122  0.16914  Biso   1.000  C
  C807     1.0000 0.08296  0.25074  0.17794  Biso   1.000  C
  C808     1.0000 0.01846  0.29284  0.05175  Biso   1.000  C
  C809     1.0000 0.09986  0.29954  0.02133  Biso   1.000  C
  H640     1.0000 0.95798  0.17713  0.14762  Biso   1.000  H
  C810     1.0000 0.98546  0.22432  0.22382  Biso   1.000  C
  C811     1.0000 0.07865  0.27202  0.23235  Biso   1.000  C
  H641     1.0000 0.11678  0.26114  0.16143  Biso   1.000  H
  H642     1.0000 0.98178  0.27234  0.06005  Biso   1.000  H
  C812     1.0000 0.04367  0.34653  0.05734  Biso   1.000  C
  C813     1.0000 0.12546  0.35375  0.02684  Biso   1.000  C
  H643     1.0000 0.11917  0.28314  0.00853  Biso   1.000  H
  H644     1.0000 0.95176  0.21462  0.23983  Biso   1.000  H
  C814     1.0000 0.02908  0.26035  0.25492  Biso   1.000  C
  C815     1.0000 0.02906  0.26031  0.25492  Biso   1.000  C
  H645     1.0000 0.10957  0.29493  0.25483  Biso   1.000  H
  H646     1.0000 0.02427  0.36285  0.07023  Biso   1.000  H
  C816     1.0000 0.09536  0.37673  0.04482  Biso   1.000  C
  H647     1.0000 0.02425  0.36281  0.07023  Biso   1.000  H
  H648     1.0000 0.16216  0.37472  0.01872  Biso   1.000  H
  H649     1.0000 0.02605  0.27703  0.29075  Biso   1.000  H
  H650     1.0000 0.11176  0.41403  0.04821  Biso   1.000  H
  C817     1.0000 0.06988  0.79343  0.56902  Biso   1.000  C
  C818     1.0000 0.07738  0.75073  0.58425  Biso   1.000  C
  H651     1.0000 0.07898  0.80904  0.52952  Biso   1.000  H
  C819     1.0000 0.04886  0.81223  0.61315  Biso   1.000  C
  C820     1.0000 0.06386  0.72873  0.63925  Biso   1.000  C
  H652     1.0000 0.09215  0.73772  0.55493  Biso   1.000  H
  C821     1.0000 0.03608  0.79016  0.67035  Biso   1.000  C
  C822     1.0000 0.03606  0.79012  0.67035  Biso   1.000  C
  H653     1.0000 0.04348  0.84074  0.60324  Biso   1.000  H
  C823     1.0000 0.04327  0.74793  0.68182  Biso   1.000  C
  H654     1.0000 0.06836  0.69964  0.64911  Biso   1.000  H
  C824     1.0000 0.01086  0.80833  0.71742  Biso   1.000  C
  H655     1.0000 0.03347  0.73134  0.72081  Biso   1.000  H
  N73      1.0000 0.04345  0.86573  0.72682  Biso   1.000  N
  C825     1.0000 0.95617  0.79654  0.69843  Biso   1.000  C
  H656     1.0000 0.00819  0.79016  0.75714  Biso   1.000  H
  H657     1.0000 0.00817  0.79012  0.75714  Biso   1.000  H
  C826     1.0000 0.05476  0.88063  0.78182  Biso   1.000  C
  N74      1.0000 0.93298  0.81263  0.74802  Biso   1.000  N
  H658     1.0000 0.95898  0.81704  0.66053  Biso   1.000  H
  C827     1.0000 0.92147  0.73895  0.68563  Biso   1.000  C
  H659     1.0000 0.04117  0.85434  0.81284  Biso   1.000  H
  C828     1.0000 0.08745  0.93543  0.80123  Biso   1.000  C
  C829     1.0000 0.91887  0.84614  0.73595  Biso   1.000  C
  C830     1.0000 0.89947  0.70315  0.73251  Biso   1.000  C
  C831     1.0000 0.91197  0.72124  0.62572  Biso   1.000  C
  C832     1.0000 0.10739  0.94615  0.86054  Biso   1.000  C
  C833     1.0000 0.10276  0.97876  0.76141  Biso   1.000  C
  C834     1.0000 0.10274  0.97872  0.76141  Biso   1.000  C
  C835     1.0000 0.89327  0.86403  0.77926  Biso   1.000  C
  H660     1.0000 0.92547  0.86064  0.69572  Biso   1.000  H
  H661     1.0000 0.90647  0.71462  0.77393  Biso   1.000  H
  C836     1.0000 0.86655  0.64973  0.71944  Biso   1.000  C
  C837     1.0000 0.88077  0.66704  0.61443  Biso   1.000  C
  H662     1.0000 0.92616  0.74553  0.59264  Biso   1.000  H
  C838     1.0000 0.14106  0.99705  0.88073  Biso   1.000  C
  H663     1.0000 0.09768  0.91765  0.88811  Biso   1.000  H
  H664     1.0000 0.08948  0.97233  0.72063  Biso   1.000  H
  C839     1.0000 0.13597  0.02926  0.77926  Biso   1.000  C
  C840     1.0000 0.13595  0.02922  0.77926  Biso   1.000  C
  C841     1.0000 0.87596  0.89723  0.76141  Biso   1.000  C
  C842     1.0000 0.88228  0.84444  0.83995  Biso   1.000  C
  H665     1.0000 0.85107  0.62505  0.75192  Biso   1.000  H
  C843     1.0000 0.85656  0.63282  0.65985  Biso   1.000  C
  H666     1.0000 0.87685  0.65442  0.57351  Biso   1.000  H
  C844     1.0000 0.16586  0.00552  0.94215  Biso   1.000  C
  C845     1.0000 0.15556  0.03785  0.83995  Biso   1.000  C
  C846     1.0000 0.15388  0.07274  0.73595  Biso   1.000  C
  C847     1.0000 0.84797  0.91252  0.80123  Biso   1.000  C
  H667     1.0000 0.88286  0.91055  0.72063  Biso   1.000  H
  H668     1.0000 0.88284  0.91051  0.72063  Biso   1.000  H
  C848     1.0000 0.85597  0.85895  0.88073  Biso   1.000  C
  H669     1.0000 0.89328  0.82043  0.85293  Biso   1.000  H
  H670     1.0000 0.83245  0.59683  0.65095  Biso   1.000  H
  N75      1.0000 0.15878  0.96665  0.97573  Biso   1.000  N
  H671     1.0000 0.18735  0.04053  0.95683  Biso   1.000  H
  H672     1.0000 0.17956  0.07282  0.85293  Biso   1.000  H
  N76      1.0000 0.18737  0.12032  0.74802  Biso   1.000  N
  H673     1.0000 0.13939  0.06486  0.69572  Biso   1.000  H
  H674     1.0000 0.13937  0.06482  0.69572  Biso   1.000  H
  C849     1.0000 0.83878  0.89266  0.86054  Biso   1.000  C
  C850     1.0000 0.82588  0.94525  0.78182  Biso   1.000  C
  C851     1.0000 0.83876  0.89262  0.86054  Biso   1.000  C
  C852     1.0000 0.83968  0.83415  0.94215  Biso   1.000  C
  C853     1.0000 0.18835  0.97943  0.03335  Biso   1.000  C
  C854     1.0000 0.20347  0.15963  0.69843  Biso   1.000  C
  H675     1.0000 0.81997  0.90235  0.88811  Biso   1.000  H
  H676     1.0000 0.81995  0.90231  0.88811  Biso   1.000  H
  N77      1.0000 0.82227  0.95652  0.72682  Biso   1.000  N
  H677     1.0000 0.81319  0.95885  0.81284  Biso   1.000  H
  N78      1.0000 0.80789  0.84125  0.97573  Biso   1.000  N
  H678     1.0000 0.85316  0.81263  0.95683  Biso   1.000  H
  C855     1.0000 0.14856  0.95652  0.08652  Biso   1.000  C
  C856     1.0000 0.22197  0.95352  0.03404  Biso   1.000  C
  H679     1.0000 0.21097  0.01845  0.03794  Biso   1.000  H
  H680     1.0000 0.21095  0.01842  0.03794  Biso   1.000  H
  H681     1.0000 0.18295  0.14193  0.66053  Biso   1.000  H
  C857     1.0000 0.19167  0.20252  0.71742  Biso   1.000  C
  C858     1.0000 0.26105  0.18253  0.68563  Biso   1.000  C
  C859     1.0000 0.79746  0.98912  0.71742  Biso   1.000  C
  C860     1.0000 0.79107  0.81164  0.03335  Biso   1.000  C
  N79      1.0000 0.11927  0.98534  0.08835  Biso   1.000  N
  H682     1.0000 0.12335  0.91832  0.07854  Biso   1.000  H
  C861     1.0000 0.17607  0.96204  0.14693  Biso   1.000  C
  C862     1.0000 0.27439  0.98155  0.05175  Biso   1.000  C
  C863     1.0000 0.19968  0.90015  0.02133  Biso   1.000  C
  C864     1.0000 0.27437  0.98152  0.05175  Biso   1.000  C
  N80      1.0000 0.13427  0.17772  0.72682  Biso   1.000  N
  H683     1.0000 0.20988  0.21805  0.75714  Biso   1.000  H
  C865     1.0000 0.20985  0.24593  0.67035  Biso   1.000  C
  H684     1.0000 0.20986  0.21801  0.75714  Biso   1.000  H
  C866     1.0000 0.29687  0.19633  0.73251  Biso   1.000  C
  C867     1.0000 0.27877  0.19073  0.62572  Biso   1.000  C
  H685     1.0000 0.78196  0.99184  0.75714  Biso   1.000  H
  C868     1.0000 0.75407  0.96393  0.67035  Biso   1.000  C
  C869     1.0000 0.84036  0.04384  0.69843  Biso   1.000  C
  C870     1.0000 0.80796  0.85142  0.08652  Biso   1.000  C
  H686     1.0000 0.80747  0.78905  0.03794  Biso   1.000  H
  C871     1.0000 0.73157  0.77805  0.03404  Biso   1.000  C
  C872     1.0000 0.07067  0.95814  0.08092  Biso   1.000  C
  C873     1.0000 0.16776  0.91702  0.17794  Biso   1.000  C
  C874     1.0000 0.21228  0.01104  0.16914  Biso   1.000  C
  C875     1.0000 0.30285  0.95632  0.05734  Biso   1.000  C
  H687     1.0000 0.29059  0.01826  0.06005  Biso   1.000  H
  H688     1.0000 0.29057  0.01822  0.06005  Biso   1.000  H
  C876     1.0000 0.22825  0.87452  0.02684  Biso   1.000  C
  H689     1.0000 0.16397  0.88083  0.00853  Biso   1.000  H
  C877     1.0000 0.11937  0.17414  0.78182  Biso   1.000  C
  C878     1.0000 0.25207  0.29532  0.68182  Biso   1.000  C
  C879     1.0000 0.18775  0.23662  0.61315  Biso   1.000  C
  H690     1.0000 0.28537  0.19184  0.77393  Biso   1.000  H
  C880     1.0000 0.35027  0.21683  0.71944  Biso   1.000  C
  C881     1.0000 0.33296  0.21376  0.61443  Biso   1.000  C
  H691     1.0000 0.25447  0.18064  0.59264  Biso   1.000  H
  C882     1.0000 0.33294  0.21372  0.61443  Biso   1.000  C
  C883     1.0000 0.70467  0.95676  0.68182  Biso   1.000  C
  C884     1.0000 0.76337  0.95112  0.61315  Biso   1.000  C
  C885     1.0000 0.70465  0.95672  0.68182  Biso   1.000  C
  N81      1.0000 0.87967  0.06702  0.74802  Biso   1.000  N
  H692     1.0000 0.85808  0.04104  0.66053  Biso   1.000  H
  C886     1.0000 0.81745  0.07854  0.68563  Biso   1.000  C
  N82      1.0000 0.86608  0.88075  0.08835  Biso   1.000  N
  H693     1.0000 0.79497  0.87665  0.07854  Biso   1.000  H
  C887     1.0000 0.78595  0.82394  0.14693  Biso   1.000  C
  C888     1.0000 0.70716  0.72562  0.05175  Biso   1.000  C
  C889     1.0000 0.70047  0.80033  0.02133  Biso   1.000  C
  C890     1.0000 0.03446  0.97974  0.08092  Biso   1.000  C
  H694     1.0000 0.05598  0.92124  0.07491  Biso   1.000  H
  C891     1.0000 0.19339  0.92136  0.23235  Biso   1.000  C
  H695     1.0000 0.14438  0.88323  0.16143  Biso   1.000  H
  C892     1.0000 0.19337  0.92132  0.23235  Biso   1.000  C
  H696     1.0000 0.21917  0.04203  0.14762  Biso   1.000  H
  C893     1.0000 0.23889  0.01455  0.22382  Biso   1.000  C
  H697     1.0000 0.33856  0.97572  0.07023  Biso   1.000  H
  C894     1.0000 0.28137  0.90464  0.04482  Biso   1.000  C
  H698     1.0000 0.21256  0.83782  0.01872  Biso   1.000  H
  C895     1.0000 0.06457  0.15202  0.80123  Biso   1.000  C
  H699     1.0000 0.14565  0.18683  0.81284  Biso   1.000  H
  H700     1.0000 0.26869  0.30214  0.72081  Biso   1.000  H
  C896     1.0000 0.27126  0.33514  0.63925  Biso   1.000  C
  C897     1.0000 0.20657  0.27644  0.56902  Biso   1.000  C
  H701     1.0000 0.15928  0.20276  0.60324  Biso   1.000  H
  H702     1.0000 0.15926  0.20272  0.60324  Biso   1.000  H
  H703     1.0000 0.37499  0.22606  0.75192  Biso   1.000  H
  C898     1.0000 0.36717  0.22373  0.65985  Biso   1.000  C
  H704     1.0000 0.37497  0.22602  0.75192  Biso   1.000  H
  H705     1.0000 0.34556  0.22243  0.57351  Biso   1.000  H
  H706     1.0000 0.69788  0.96653  0.72081  Biso   1.000  H
  C899     1.0000 0.66486  0.93614  0.63925  Biso   1.000  C
  C900     1.0000 0.72356  0.93015  0.56902  Biso   1.000  C
  H707     1.0000 0.79728  0.95652  0.60324  Biso   1.000  H
  C901     1.0000 0.92725  0.08114  0.73595  Biso   1.000  C
  C902     1.0000 0.80366  0.10053  0.73251  Biso   1.000  C
  C903     1.0000 0.80926  0.08804  0.62572  Biso   1.000  C
  C904     1.0000 0.88747  0.92932  0.08092  Biso   1.000  C
  C905     1.0000 0.79879  0.78775  0.16914  Biso   1.000  C
  C906     1.0000 0.74926  0.83222  0.17794  Biso   1.000  C
  H708     1.0000 0.72769  0.70946  0.06005  Biso   1.000  H
  C907     1.0000 0.65349  0.69716  0.05734  Biso   1.000  C
  H709     1.0000 0.72767  0.70942  0.06005  Biso   1.000  H
  C908     1.0000 0.65348  0.69712  0.05734  Biso   1.000  C
  C909     1.0000 0.64627  0.77175  0.02684  Biso   1.000  C
  H710     1.0000 0.71686  0.83604  0.00853  Biso   1.000  H
  C910     1.0000 0.97987  0.94596  0.08042  Biso   1.000  C
  C911     1.0000 0.97985  0.94592  0.08042  Biso   1.000  C
  C912     1.0000 0.05409  0.03395  0.08042  Biso   1.000  C
  C913     1.0000 0.23126  0.97095  0.25492  Biso   1.000  C
  H711     1.0000 0.18537  0.89045  0.25483  Biso   1.000  H
  H712     1.0000 0.26286  0.04822  0.23983  Biso   1.000  H
  H713     1.0000 0.30226  0.88824  0.04821  Biso   1.000  H
  C914     1.0000 0.05386  0.16124  0.86054  Biso   1.000  C
  C915     1.0000 0.02125  0.12403  0.76141  Biso   1.000  C
  H714     1.0000 0.30038  0.36873  0.64911  Biso   1.000  H
  C916     1.0000 0.24925  0.32662  0.58425  Biso   1.000  C
  H715     1.0000 0.19096  0.26993  0.52952  Biso   1.000  H
  H716     1.0000 0.40317  0.23564  0.65095  Biso   1.000  H
  H717     1.0000 0.63127  0.93165  0.64911  Biso   1.000  H
  C917     1.0000 0.67338  0.92266  0.58425  Biso   1.000  C
  C918     1.0000 0.67336  0.92262  0.58425  Biso   1.000  C
  H718     1.0000 0.73007  0.92104  0.52952  Biso   1.000  H
  C919     1.0000 0.97077  0.10672  0.77926  Biso   1.000  C
  H719     1.0000 0.93516  0.07455  0.69572  Biso   1.000  H
  H720     1.0000 0.93514  0.07451  0.69572  Biso   1.000  H
  H721     1.0000 0.80816  0.09356  0.77393  Biso   1.000  H
  C920     1.0000 0.78318  0.13345  0.71944  Biso   1.000  C
  H722     1.0000 0.80814  0.09352  0.77393  Biso   1.000  H
  C921     1.0000 0.78627  0.11922  0.61443  Biso   1.000  C
  H723     1.0000 0.81937  0.07384  0.59264  Biso   1.000  H
  C922     1.0000 0.94529  0.96555  0.08092  Biso   1.000  C
  H724     1.0000 0.86525  0.94402  0.07491  Biso   1.000  H
  H725     1.0000 0.82286  0.78085  0.14762  Biso   1.000  H
  C923     1.0000 0.77565  0.76114  0.22382  Biso   1.000  C
  C924     1.0000 0.72797  0.80663  0.23235  Biso   1.000  C
  H726     1.0000 0.73888  0.85564  0.16143  Biso   1.000  H
  H727     1.0000 0.63717  0.66144  0.07023  Biso   1.000  H
  C925     1.0000 0.62327  0.71864  0.04482  Biso   1.000  C
  H728     1.0000 0.62526  0.78744  0.01872  Biso   1.000  H
  H729     1.0000 0.96608  0.90894  0.07964  Biso   1.000  H
  H730     1.0000 0.09108  0.05713  0.07964  Biso   1.000  H
  C926     1.0000 0.02026  0.05472  0.08092  Biso   1.000  C
  H731     1.0000 0.25099  0.97395  0.29075  Biso   1.000  H
  C927     1.0000 0.00299  0.14406  0.88073  Biso   1.000  C
  H732     1.0000 0.08238  0.18005  0.88811  Biso   1.000  H
  C928     1.0000 0.00297  0.14402  0.88073  Biso   1.000  C
  H733     1.0000 0.02767  0.11713  0.72063  Biso   1.000  H
  H734     1.0000 0.26227  0.35446  0.55493  Biso   1.000  H
  H735     1.0000 0.26225  0.35442  0.55493  Biso   1.000  H
  H736     1.0000 0.64555  0.90783  0.55493  Biso   1.000  H
  C929     1.0000 0.96217  0.11772  0.83995  Biso   1.000  C
  H737     1.0000 0.77396  0.14894  0.75192  Biso   1.000  H
  C930     1.0000 0.77625  0.14343  0.65985  Biso   1.000  C
  H738     1.0000 0.77757  0.12312  0.57351  Biso   1.000  H
  C931     1.0000 0.96607  0.02015  0.08042  Biso   1.000  C
  H739     1.0000 0.78536  0.73713  0.23983  Biso   1.000  H
  C932     1.0000 0.73968  0.76875  0.25492  Biso   1.000  C
  H740     1.0000 0.70507  0.81464  0.25483  Biso   1.000  H
  H741     1.0000 0.58599  0.69775  0.04821  Biso   1.000  H
  C933     1.0000 0.04187  0.11256  0.08092  Biso   1.000  C
  C934     1.0000 0.04185  0.11252  0.08092  Biso   1.000  C
  C935     1.0000 0.99447  0.16034  0.94215  Biso   1.000  C
  H742     1.0000 0.92717  0.10672  0.85293  Biso   1.000  H
  H743     1.0000 0.76438  0.16755  0.65095  Biso   1.000  H
  H744     1.0000 0.94289  0.03395  0.07964  Biso   1.000  H
  H745     1.0000 0.72297  0.74904  0.29075  Biso   1.000  H
  N83      1.0000 0.01466  0.13392  0.08835  Biso   1.000  N
  H746     1.0000 0.07878  0.13475  0.07491  Biso   1.000  H
  H747     1.0000 0.95946  0.14686  0.95683  Biso   1.000  H
  H748     1.0000 0.95944  0.14682  0.95683  Biso   1.000  H
  N84      1.0000 0.03339  0.19215  0.97573  Biso   1.000  N
  C936     1.0000 0.04347  0.19203  0.08652  Biso   1.000  C
  C937     1.0000 0.02059  0.20895  0.03335  Biso   1.000  C
  H749     1.0000 0.08166  0.20504  0.07854  Biso   1.000  H
  C938     1.0000 0.03798  0.21403  0.14693  Biso   1.000  C
  H750     1.0000 0.98156  0.19255  0.03794  Biso   1.000  H
  C939     1.0000 0.04647  0.26844  0.03404  Biso   1.000  C
  C940     1.0000 0.98897  0.20122  0.16914  Biso   1.000  C
  C941     1.0000 0.08296  0.25074  0.17794  Biso   1.000  C
  C942     1.0000 0.01846  0.29284  0.05175  Biso   1.000  C
  C943     1.0000 0.09986  0.29954  0.02133  Biso   1.000  C
  H751     1.0000 0.95798  0.17713  0.14762  Biso   1.000  H
  C944     1.0000 0.98546  0.22432  0.22382  Biso   1.000  C
  C945     1.0000 0.07865  0.27202  0.23235  Biso   1.000  C
  H752     1.0000 0.11678  0.26114  0.16143  Biso   1.000  H
  H753     1.0000 0.98178  0.27234  0.06005  Biso   1.000  H
  C946     1.0000 0.04367  0.34653  0.05734  Biso   1.000  C
  C947     1.0000 0.12546  0.35375  0.02684  Biso   1.000  C
  H754     1.0000 0.11917  0.28314  0.00853  Biso   1.000  H
  H755     1.0000 0.95176  0.21462  0.23983  Biso   1.000  H
  C948     1.0000 0.02908  0.26035  0.25492  Biso   1.000  C
  C949     1.0000 0.02906  0.26031  0.25492  Biso   1.000  C
  H756     1.0000 0.10957  0.29493  0.25483  Biso   1.000  H
  H757     1.0000 0.02427  0.36285  0.07023  Biso   1.000  H
  C950     1.0000 0.09536  0.37673  0.04482  Biso   1.000  C
  H758     1.0000 0.02425  0.36281  0.07023  Biso   1.000  H
  H759     1.0000 0.16216  0.37472  0.01872  Biso   1.000  H
  H760     1.0000 0.02605  0.27703  0.29075  Biso   1.000  H
  H761     1.0000 0.11176  0.41403  0.04821  Biso   1.000  H
  C951     1.0000 0.06988  0.79343  0.56902  Biso   1.000  C
  C952     1.0000 0.07738  0.75073  0.58425  Biso   1.000  C
  H762     1.0000 0.07898  0.80904  0.52952  Biso   1.000  H
  C953     1.0000 0.04886  0.81223  0.61315  Biso   1.000  C
  C954     1.0000 0.06386  0.72873  0.63925  Biso   1.000  C
  H763     1.0000 0.09215  0.73772  0.55493  Biso   1.000  H
  C955     1.0000 0.03608  0.79016  0.67035  Biso   1.000  C
  C956     1.0000 0.03606  0.79012  0.67035  Biso   1.000  C
  H764     1.0000 0.04348  0.84074  0.60324  Biso   1.000  H
  C957     1.0000 0.04327  0.74793  0.68182  Biso   1.000  C
  H765     1.0000 0.06836  0.69964  0.64911  Biso   1.000  H
  C958     1.0000 0.01086  0.80833  0.71742  Biso   1.000  C
  H766     1.0000 0.03347  0.73134  0.72081  Biso   1.000  H
  N85      1.0000 0.04345  0.86573  0.72682  Biso   1.000  N
  C959     1.0000 0.95617  0.79654  0.69843  Biso   1.000  C
  H767     1.0000 0.00819  0.79016  0.75714  Biso   1.000  H
  H768     1.0000 0.00817  0.79012  0.75714  Biso   1.000  H
  C960     1.0000 0.05476  0.88063  0.78182  Biso   1.000  C
  N86      1.0000 0.93298  0.81263  0.74802  Biso   1.000  N
  H769     1.0000 0.95898  0.81704  0.66053  Biso   1.000  H
  C961     1.0000 0.92147  0.73895  0.68563  Biso   1.000  C
  H770     1.0000 0.04117  0.85434  0.81284  Biso   1.000  H
  C962     1.0000 0.08745  0.93543  0.80123  Biso   1.000  C
  C963     1.0000 0.91887  0.84614  0.73595  Biso   1.000  C
  C964     1.0000 0.89947  0.70315  0.73251  Biso   1.000  C
  C965     1.0000 0.91197  0.72124  0.62572  Biso   1.000  C
  C966     1.0000 0.10739  0.94615  0.86054  Biso   1.000  C
  C967     1.0000 0.10276  0.97876  0.76141  Biso   1.000  C
  C968     1.0000 0.10274  0.97872  0.76141  Biso   1.000  C
  C969     1.0000 0.89327  0.86403  0.77926  Biso   1.000  C
  H771     1.0000 0.92547  0.86064  0.69572  Biso   1.000  H
  H772     1.0000 0.90647  0.71462  0.77393  Biso   1.000  H
  C970     1.0000 0.86655  0.64973  0.71944  Biso   1.000  C
  C971     1.0000 0.88077  0.66704  0.61443  Biso   1.000  C
  H773     1.0000 0.92616  0.74553  0.59264  Biso   1.000  H
  C972     1.0000 0.14106  0.99705  0.88073  Biso   1.000  C
  H774     1.0000 0.09768  0.91765  0.88811  Biso   1.000  H
  H775     1.0000 0.08948  0.97233  0.72063  Biso   1.000  H
  C973     1.0000 0.13597  0.02926  0.77926  Biso   1.000  C
  C974     1.0000 0.13595  0.02922  0.77926  Biso   1.000  C
  C975     1.0000 0.87596  0.89723  0.76141  Biso   1.000  C
  C976     1.0000 0.88228  0.84444  0.83995  Biso   1.000  C
  H776     1.0000 0.85107  0.62505  0.75192  Biso   1.000  H
  C977     1.0000 0.85656  0.63282  0.65985  Biso   1.000  C
  H777     1.0000 0.87685  0.65442  0.57351  Biso   1.000  H
  C978     1.0000 0.16586  0.00552  0.94215  Biso   1.000  C
  C979     1.0000 0.15556  0.03785  0.83995  Biso   1.000  C
  C980     1.0000 0.15388  0.07274  0.73595  Biso   1.000  C
  C981     1.0000 0.84797  0.91252  0.80123  Biso   1.000  C
  H778     1.0000 0.88286  0.91055  0.72063  Biso   1.000  H
  H779     1.0000 0.88284  0.91051  0.72063  Biso   1.000  H
  C982     1.0000 0.85597  0.85895  0.88073  Biso   1.000  C
  H780     1.0000 0.89328  0.82043  0.85293  Biso   1.000  H
  H781     1.0000 0.83245  0.59683  0.65095  Biso   1.000  H
  N87      1.0000 0.15878  0.96665  0.97573  Biso   1.000  N
  H782     1.0000 0.18735  0.04053  0.95683  Biso   1.000  H
  H783     1.0000 0.17956  0.07282  0.85293  Biso   1.000  H
  N88      1.0000 0.18737  0.12032  0.74802  Biso   1.000  N
  H784     1.0000 0.13939  0.06486  0.69572  Biso   1.000  H
  H785     1.0000 0.13937  0.06482  0.69572  Biso   1.000  H
  C983     1.0000 0.83878  0.89266  0.86054  Biso   1.000  C
  C984     1.0000 0.82588  0.94525  0.78182  Biso   1.000  C
  C985     1.0000 0.83876  0.89262  0.86054  Biso   1.000  C
  C986     1.0000 0.83968  0.83415  0.94215  Biso   1.000  C
  C987     1.0000 0.18835  0.97943  0.03335  Biso   1.000  C
  C988     1.0000 0.20347  0.15963  0.69843  Biso   1.000  C
  H786     1.0000 0.81997  0.90235  0.88811  Biso   1.000  H
  H787     1.0000 0.81995  0.90231  0.88811  Biso   1.000  H
  N89      1.0000 0.82227  0.95652  0.72682  Biso   1.000  N
  H788     1.0000 0.81319  0.95885  0.81284  Biso   1.000  H
  N90      1.0000 0.80789  0.84125  0.97573  Biso   1.000  N
  H789     1.0000 0.85316  0.81263  0.95683  Biso   1.000  H
  C989     1.0000 0.14856  0.95652  0.08652  Biso   1.000  C
  C990     1.0000 0.22197  0.95352  0.03404  Biso   1.000  C
  H790     1.0000 0.21097  0.01845  0.03794  Biso   1.000  H
  H791     1.0000 0.21095  0.01842  0.03794  Biso   1.000  H
  H792     1.0000 0.18295  0.14193  0.66053  Biso   1.000  H
  C991     1.0000 0.19167  0.20252  0.71742  Biso   1.000  C
  C992     1.0000 0.26105  0.18253  0.68563  Biso   1.000  C
  C993     1.0000 0.79746  0.98912  0.71742  Biso   1.000  C
  C994     1.0000 0.79107  0.81164  0.03335  Biso   1.000  C
  N91      1.0000 0.11927  0.98534  0.08835  Biso   1.000  N
  H793     1.0000 0.12335  0.91832  0.07854  Biso   1.000  H
  C995     1.0000 0.17607  0.96204  0.14693  Biso   1.000  C
  C996     1.0000 0.27439  0.98155  0.05175  Biso   1.000  C
  C997     1.0000 0.19968  0.90015  0.02133  Biso   1.000  C
  C998     1.0000 0.27437  0.98152  0.05175  Biso   1.000  C
  N92      1.0000 0.13427  0.17772  0.72682  Biso   1.000  N
  H794     1.0000 0.20988  0.21805  0.75714  Biso   1.000  H
  C999     1.0000 0.20985  0.24593  0.67035  Biso   1.000  C
  H795     1.0000 0.20986  0.21801  0.75714  Biso   1.000  H
  C1000    1.0000 0.29687  0.19633  0.73251  Biso   1.000  C
  C1001    1.0000 0.27877  0.19073  0.62572  Biso   1.000  C
  H796     1.0000 0.78196  0.99184  0.75714  Biso   1.000  H
  C1002    1.0000 0.75407  0.96393  0.67035  Biso   1.000  C
  C1003    1.0000 0.84036  0.04384  0.69843  Biso   1.000  C
  C1004    1.0000 0.80796  0.85142  0.08652  Biso   1.000  C
  H797     1.0000 0.80747  0.78905  0.03794  Biso   1.000  H
  C1005    1.0000 0.73157  0.77805  0.03404  Biso   1.000  C
  C1006    1.0000 0.07067  0.95814  0.08092  Biso   1.000  C
  C1007    1.0000 0.16776  0.91702  0.17794  Biso   1.000  C
  C1008    1.0000 0.21228  0.01104  0.16914  Biso   1.000  C
  C1009    1.0000 0.30285  0.95632  0.05734  Biso   1.000  C
  H798     1.0000 0.29059  0.01826  0.06005  Biso   1.000  H
  H799     1.0000 0.29057  0.01822  0.06005  Biso   1.000  H
  C1010    1.0000 0.22825  0.87452  0.02684  Biso   1.000  C
  H800     1.0000 0.16397  0.88083  0.00853  Biso   1.000  H
  C1011    1.0000 0.11937  0.17414  0.78182  Biso   1.000  C
  C1012    1.0000 0.25207  0.29532  0.68182  Biso   1.000  C
  C1013    1.0000 0.18775  0.23662  0.61315  Biso   1.000  C
  H801     1.0000 0.28537  0.19184  0.77393  Biso   1.000  H
  C1014    1.0000 0.35027  0.21683  0.71944  Biso   1.000  C
  C1015    1.0000 0.33296  0.21376  0.61443  Biso   1.000  C
  H802     1.0000 0.25447  0.18064  0.59264  Biso   1.000  H
  C1016    1.0000 0.33294  0.21372  0.61443  Biso   1.000  C
  C1017    1.0000 0.70467  0.95676  0.68182  Biso   1.000  C
  C1018    1.0000 0.76337  0.95112  0.61315  Biso   1.000  C
  C1019    1.0000 0.70465  0.95672  0.68182  Biso   1.000  C
  N93      1.0000 0.87967  0.06702  0.74802  Biso   1.000  N
  H803     1.0000 0.85808  0.04104  0.66053  Biso   1.000  H
  C1020    1.0000 0.81745  0.07854  0.68563  Biso   1.000  C
  N94      1.0000 0.86608  0.88075  0.08835  Biso   1.000  N
  H804     1.0000 0.79497  0.87665  0.07854  Biso   1.000  H
  C1021    1.0000 0.78595  0.82394  0.14693  Biso   1.000  C
  C1022    1.0000 0.70716  0.72562  0.05175  Biso   1.000  C
  C1023    1.0000 0.70047  0.80033  0.02133  Biso   1.000  C
  C1024    1.0000 0.03446  0.97974  0.08092  Biso   1.000  C
  H805     1.0000 0.05598  0.92124  0.07491  Biso   1.000  H
  C1025    1.0000 0.19339  0.92136  0.23235  Biso   1.000  C
  H806     1.0000 0.14438  0.88323  0.16143  Biso   1.000  H
  C1026    1.0000 0.19337  0.92132  0.23235  Biso   1.000  C
  H807     1.0000 0.21917  0.04203  0.14762  Biso   1.000  H
  C1027    1.0000 0.23889  0.01455  0.22382  Biso   1.000  C
  H808     1.0000 0.33856  0.97572  0.07023  Biso   1.000  H
  C1028    1.0000 0.28137  0.90464  0.04482  Biso   1.000  C
  H809     1.0000 0.21256  0.83782  0.01872  Biso   1.000  H
  C1029    1.0000 0.06457  0.15202  0.80123  Biso   1.000  C
  H810     1.0000 0.14565  0.18683  0.81284  Biso   1.000  H
  H811     1.0000 0.26869  0.30214  0.72081  Biso   1.000  H
  C1030    1.0000 0.27126  0.33514  0.63925  Biso   1.000  C
  C1031    1.0000 0.20657  0.27644  0.56902  Biso   1.000  C
  H812     1.0000 0.15928  0.20276  0.60324  Biso   1.000  H
  H813     1.0000 0.15926  0.20272  0.60324  Biso   1.000  H
  H814     1.0000 0.37499  0.22606  0.75192  Biso   1.000  H
  C1032    1.0000 0.36717  0.22373  0.65985  Biso   1.000  C
  H815     1.0000 0.37497  0.22602  0.75192  Biso   1.000  H
  H816     1.0000 0.34556  0.22243  0.57351  Biso   1.000  H
  H817     1.0000 0.69788  0.96653  0.72081  Biso   1.000  H
  C1033    1.0000 0.66486  0.93614  0.63925  Biso   1.000  C
  C1034    1.0000 0.72356  0.93015  0.56902  Biso   1.000  C
  H818     1.0000 0.79728  0.95652  0.60324  Biso   1.000  H
  C1035    1.0000 0.92725  0.08114  0.73595  Biso   1.000  C
  C1036    1.0000 0.80366  0.10053  0.73251  Biso   1.000  C
  C1037    1.0000 0.80926  0.08804  0.62572  Biso   1.000  C
  C1038    1.0000 0.88747  0.92932  0.08092  Biso   1.000  C
  C1039    1.0000 0.79879  0.78775  0.16914  Biso   1.000  C
  C1040    1.0000 0.74926  0.83222  0.17794  Biso   1.000  C
  H819     1.0000 0.72769  0.70946  0.06005  Biso   1.000  H
  C1041    1.0000 0.65349  0.69716  0.05734  Biso   1.000  C
  H820     1.0000 0.72767  0.70942  0.06005  Biso   1.000  H
  C1042    1.0000 0.65348  0.69712  0.05734  Biso   1.000  C
  C1043    1.0000 0.64627  0.77175  0.02684  Biso   1.000  C
  H821     1.0000 0.71686  0.83604  0.00853  Biso   1.000  H
  C1044    1.0000 0.97987  0.94596  0.08042  Biso   1.000  C
  C1045    1.0000 0.97985  0.94592  0.08042  Biso   1.000  C
  C1046    1.0000 0.05409  0.03395  0.08042  Biso   1.000  C
  C1047    1.0000 0.23126  0.97095  0.25492  Biso   1.000  C
  H822     1.0000 0.18537  0.89045  0.25483  Biso   1.000  H
  H823     1.0000 0.26286  0.04822  0.23983  Biso   1.000  H
  H824     1.0000 0.30226  0.88824  0.04821  Biso   1.000  H
  C1048    1.0000 0.05386  0.16124  0.86054  Biso   1.000  C
  C1049    1.0000 0.02125  0.12403  0.76141  Biso   1.000  C
  H825     1.0000 0.30038  0.36873  0.64911  Biso   1.000  H
  C1050    1.0000 0.24925  0.32662  0.58425  Biso   1.000  C
  H826     1.0000 0.19096  0.26993  0.52952  Biso   1.000  H
  H827     1.0000 0.40317  0.23564  0.65095  Biso   1.000  H
  H828     1.0000 0.63127  0.93165  0.64911  Biso   1.000  H
  C1051    1.0000 0.67338  0.92266  0.58425  Biso   1.000  C
  C1052    1.0000 0.67336  0.92262  0.58425  Biso   1.000  C
  H829     1.0000 0.73007  0.92104  0.52952  Biso   1.000  H
  C1053    1.0000 0.97077  0.10672  0.77926  Biso   1.000  C
  H830     1.0000 0.93516  0.07455  0.69572  Biso   1.000  H
  H831     1.0000 0.93514  0.07451  0.69572  Biso   1.000  H
  H832     1.0000 0.80816  0.09356  0.77393  Biso   1.000  H
  C1054    1.0000 0.78318  0.13345  0.71944  Biso   1.000  C
  H833     1.0000 0.80814  0.09352  0.77393  Biso   1.000  H
  C1055    1.0000 0.78627  0.11922  0.61443  Biso   1.000  C
  H834     1.0000 0.81937  0.07384  0.59264  Biso   1.000  H
  C1056    1.0000 0.94529  0.96555  0.08092  Biso   1.000  C
  H835     1.0000 0.86525  0.94402  0.07491  Biso   1.000  H
  H836     1.0000 0.82286  0.78085  0.14762  Biso   1.000  H
  C1057    1.0000 0.77565  0.76114  0.22382  Biso   1.000  C
  C1058    1.0000 0.72797  0.80663  0.23235  Biso   1.000  C
  H837     1.0000 0.73888  0.85564  0.16143  Biso   1.000  H
  H838     1.0000 0.63717  0.66144  0.07023  Biso   1.000  H
  C1059    1.0000 0.62327  0.71864  0.04482  Biso   1.000  C
  H839     1.0000 0.62526  0.78744  0.01872  Biso   1.000  H
  H840     1.0000 0.96608  0.90894  0.07964  Biso   1.000  H
  H841     1.0000 0.09108  0.05713  0.07964  Biso   1.000  H
  C1060    1.0000 0.02026  0.05472  0.08092  Biso   1.000  C
  H842     1.0000 0.25099  0.97395  0.29075  Biso   1.000  H
  C1061    1.0000 0.00299  0.14406  0.88073  Biso   1.000  C
  H843     1.0000 0.08238  0.18005  0.88811  Biso   1.000  H
  C1062    1.0000 0.00297  0.14402  0.88073  Biso   1.000  C
  H844     1.0000 0.02767  0.11713  0.72063  Biso   1.000  H
  H845     1.0000 0.26227  0.35446  0.55493  Biso   1.000  H
  H846     1.0000 0.26225  0.35442  0.55493  Biso   1.000  H
  H847     1.0000 0.64555  0.90783  0.55493  Biso   1.000  H
  C1063    1.0000 0.96217  0.11772  0.83995  Biso   1.000  C
  H848     1.0000 0.77396  0.14894  0.75192  Biso   1.000  H
  C1064    1.0000 0.77625  0.14343  0.65985  Biso   1.000  C
  H849     1.0000 0.77757  0.12312  0.57351  Biso   1.000  H
  C1065    1.0000 0.96607  0.02015  0.08042  Biso   1.000  C
  H850     1.0000 0.78536  0.73713  0.23983  Biso   1.000  H
  C1066    1.0000 0.73968  0.76875  0.25492  Biso   1.000  C
  H851     1.0000 0.70507  0.81464  0.25483  Biso   1.000  H
  H852     1.0000 0.58599  0.69775  0.04821  Biso   1.000  H
  C1067    1.0000 0.04187  0.11256  0.08092  Biso   1.000  C
  C1068    1.0000 0.04185  0.11252  0.08092  Biso   1.000  C
  C1069    1.0000 0.99447  0.16034  0.94215  Biso   1.000  C
  H853     1.0000 0.92717  0.10672  0.85293  Biso   1.000  H
  H854     1.0000 0.76438  0.16755  0.65095  Biso   1.000  H
  H855     1.0000 0.94289  0.03395  0.07964  Biso   1.000  H
  H856     1.0000 0.72297  0.74904  0.29075  Biso   1.000  H
  N95      1.0000 0.01466  0.13392  0.08835  Biso   1.000  N
  H857     1.0000 0.07878  0.13475  0.07491  Biso   1.000  H
  H858     1.0000 0.95946  0.14686  0.95683  Biso   1.000  H
  H859     1.0000 0.95944  0.14682  0.95683  Biso   1.000  H
  N96      1.0000 0.03339  0.19215  0.97573  Biso   1.000  N
  C1070    1.0000 0.04347  0.19203  0.08652  Biso   1.000  C
  C1071    1.0000 0.02059  0.20895  0.03335  Biso   1.000  C
  H860     1.0000 0.08166  0.20504  0.07854  Biso   1.000  H
  C1072    1.0000 0.03798  0.21403  0.14693  Biso   1.000  C
  H861     1.0000 0.98156  0.19255  0.03794  Biso   1.000  H
  C1073    1.0000 0.04647  0.26844  0.03404  Biso   1.000  C
  C1074    1.0000 0.98897  0.20122  0.16914  Biso   1.000  C
  C1075    1.0000 0.08296  0.25074  0.17794  Biso   1.000  C
  C1076    1.0000 0.01846  0.29284  0.05175  Biso   1.000  C
  C1077    1.0000 0.09986  0.29954  0.02133  Biso   1.000  C
  H862     1.0000 0.95798  0.17713  0.14762  Biso   1.000  H
  C1078    1.0000 0.98546  0.22432  0.22382  Biso   1.000  C
  C1079    1.0000 0.07865  0.27202  0.23235  Biso   1.000  C
  H863     1.0000 0.11678  0.26114  0.16143  Biso   1.000  H
  H864     1.0000 0.98178  0.27234  0.06005  Biso   1.000  H
  C1080    1.0000 0.04367  0.34653  0.05734  Biso   1.000  C
  C1081    1.0000 0.12546  0.35375  0.02684  Biso   1.000  C
  H865     1.0000 0.11917  0.28314  0.00853  Biso   1.000  H
  H866     1.0000 0.95176  0.21462  0.23983  Biso   1.000  H
  C1082    1.0000 0.02908  0.26035  0.25492  Biso   1.000  C
  C1083    1.0000 0.02906  0.26031  0.25492  Biso   1.000  C
  H867     1.0000 0.10957  0.29493  0.25483  Biso   1.000  H
  H868     1.0000 0.02427  0.36285  0.07023  Biso   1.000  H
  C1084    1.0000 0.09536  0.37673  0.04482  Biso   1.000  C
  H869     1.0000 0.02425  0.36281  0.07023  Biso   1.000  H
  H870     1.0000 0.16216  0.37472  0.01872  Biso   1.000  H
  H871     1.0000 0.02605  0.27703  0.29075  Biso   1.000  H
  H872     1.0000 0.11176  0.41403  0.04821  Biso   1.000  H
  C1085    1.0000 0.13700  0.76721  0.39919  Biso   1.000  C
  C1086    1.0000 0.15079  0.74521  0.35231  Biso   1.000  C
  H873     1.0000 0.14148  0.76019  0.44062  Biso   1.000  H
  C1087    1.0000 0.11650  0.80009  0.38612  Biso   1.000  C
  C1088    1.0000 0.17368  0.71048  0.36511  Biso   1.000  C
  C1089    1.0000 0.14260  0.75471  0.29240  Biso   1.000  C
  H874     1.0000 0.10728  0.81558  0.41860  Biso   1.000  H
  C1090    1.0000 0.10959  0.81010  0.32648  Biso   1.000  C
  C1091    1.0000 0.13080  0.65580  0.38410  Biso   1.000  C
  N97      1.0000 0.21301  0.73370  0.41470  Biso   1.000  N
  H875     1.0000 0.19140  0.70768  0.32722  Biso   1.000  H
  C1092    1.0000 0.11961  0.78590  0.28111  Biso   1.000  C
  H876     1.0000 0.15269  0.74048  0.25928  Biso   1.000  H
  H877     1.0000 0.09770  0.83419  0.31758  Biso   1.000  H
  N98      1.0000 0.15561  0.62320  0.39350  Biso   1.000  N
  H878     1.0000 0.11528  0.65848  0.42378  Biso   1.000  H
  C1093    1.0000 0.08741  0.63061  0.33699  Biso   1.000  C
  C1094    1.0000 0.26059  0.74782  0.40259  Biso   1.000  C
  H879     1.0000 0.11091  0.78980  0.24019  Biso   1.000  H
  C1095    1.0000 0.15920  0.61188  0.44851  Biso   1.000  C
  C1096    1.0000 0.03799  0.62340  0.34850  Biso   1.000  C
  C1097    1.0000 0.09671  0.61780  0.27978  Biso   1.000  C
  C1098    1.0000 0.30411  0.77340  0.44589  Biso   1.000  C
  H880     1.0000 0.26848  0.74119  0.36240  Biso   1.000  H
  C1099    1.0000 0.18131  0.57920  0.46791  Biso   1.000  C
  H881     1.0000 0.14651  0.62549  0.47952  Biso   1.000  H
  H882     1.0000 0.03122  0.63321  0.38749  Biso   1.000  H
  C1100    1.0000 0.99820  0.60282  0.30589  Biso   1.000  C
  C1101    1.0000 0.05688  0.59679  0.23570  Biso   1.000  C
  H883     1.0000 0.13062  0.62320  0.26992  Biso   1.000  H
  C1102    1.0000 0.35459  0.79071  0.42809  Biso   1.000  C
  C1103    1.0000 0.29551  0.78440  0.50658  Biso   1.000  C
  C1104    1.0000 0.20930  0.56391  0.42809  Biso   1.000  C
  C1105    1.0000 0.17210  0.55929  0.52718  Biso   1.000  C
  C1106    1.0000 0.00670  0.58930  0.25088  Biso   1.000  C
  H884     1.0000 0.96459  0.59828  0.31579  Biso   1.000  H
  H885     1.0000 0.06341  0.58772  0.19620  Biso   1.000  H
  C1107    1.0000 0.39791  0.81870  0.46791  Biso   1.000  C
  H886     1.0000 0.36101  0.78381  0.38731  Biso   1.000  H
  C1108    1.0000 0.33631  0.81070  0.54741  Biso   1.000  C
  H887     1.0000 0.26051  0.77340  0.51961  Biso   1.000  H
  C1109    1.0000 0.22661  0.53071  0.44589  Biso   1.000  C
  H888     1.0000 0.21618  0.57719  0.38731  Biso   1.000  H
  C1110    1.0000 0.18929  0.52559  0.54741  Biso   1.000  C
  H889     1.0000 0.15329  0.56899  0.55480  Biso   1.000  H
  H890     1.0000 0.97889  0.57451  0.22162  Biso   1.000  H
  C1111    1.0000 0.45270  0.84081  0.44851  Biso   1.000  C
  C1112    1.0000 0.38717  0.82788  0.52718  Biso   1.000  C
  C1113    1.0000 0.32781  0.82702  0.60879  Biso   1.000  C
  C1114    1.0000 0.25221  0.51281  0.40259  Biso   1.000  C
  C1115    1.0000 0.21561  0.51112  0.50658  Biso   1.000  C
  C1116    1.0000 0.17300  0.50079  0.60879  Biso   1.000  C
  N99      1.0000 0.46761  0.84440  0.39350  Biso   1.000  N
  H891     1.0000 0.47899  0.85351  0.47952  Biso   1.000  H
  H892     1.0000 0.41570  0.84669  0.55480  Biso   1.000  H
  N100     1.0000 0.36671  0.85879  0.64241  Biso   1.000  N
  H893     1.0000 0.29278  0.81349  0.62351  Biso   1.000  H
  N101     1.0000 0.26632  0.47931  0.41470  Biso   1.000  N
  H894     1.0000 0.25879  0.52728  0.36240  Biso   1.000  H
  H895     1.0000 0.22662  0.48711  0.51961  Biso   1.000  H
  N102     1.0000 0.14121  0.50789  0.64241  Biso   1.000  N
  H896     1.0000 0.18649  0.47931  0.62351  Biso   1.000  H
  C1117    1.0000 0.52501  0.86920  0.38410  Biso   1.000  C
  C1118    1.0000 0.35391  0.87559  0.69999  Biso   1.000  C
  C1119    1.0000 0.28949  0.46318  0.36511  Biso   1.000  C
  C1120    1.0000 0.12441  0.47832  0.69999  Biso   1.000  C
  C1121    1.0000 0.53681  0.82631  0.36511  Biso   1.000  C
  H897     1.0000 0.54320  0.88469  0.42378  Biso   1.000  H
  C1122    1.0000 0.54319  0.91260  0.33699  Biso   1.000  C
  C1123    1.0000 0.37681  0.85871  0.75320  Biso   1.000  C
  H898     1.0000 0.31488  0.85919  0.70462  Biso   1.000  H
  C1124    1.0000 0.37981  0.93511  0.70072  Biso   1.000  C
  C1125    1.0000 0.25479  0.40558  0.35231  Biso   1.000  C
  H899     1.0000 0.29230  0.48368  0.32722  Biso   1.000  H
  C1126    1.0000 0.34420  0.47501  0.38410  Biso   1.000  C
  C1127    1.0000 0.14130  0.51810  0.75320  Biso   1.000  C
  H900     1.0000 0.14078  0.45569  0.70462  Biso   1.000  H
  C1128    1.0000 0.06489  0.44469  0.70072  Biso   1.000  C
  N103     1.0000 0.52071  0.78700  0.41470  Biso   1.000  N
  H901     1.0000 0.51629  0.80861  0.32722  Biso   1.000  H
  C1129    1.0000 0.59439  0.84921  0.35231  Biso   1.000  C
  C1130    1.0000 0.58540  0.96200  0.34850  Biso   1.000  C
  C1131    1.0000 0.52109  0.90330  0.27978  Biso   1.000  C
  N104     1.0000 0.34800  0.80060  0.75499  Biso   1.000  N
  H902     1.0000 0.41498  0.87168  0.74522  Biso   1.000  H
  C1132    1.0000 0.37132  0.88071  0.81362  Biso   1.000  C
  C1133    1.0000 0.35180  0.95952  0.71838  Biso   1.000  C
  C1134    1.0000 0.43319  0.96622  0.68801  Biso   1.000  C
  C1135    1.0000 0.24529  0.38788  0.29240  Biso   1.000  C
  C1136    1.0000 0.23279  0.36979  0.39919  Biso   1.000  C
  N105     1.0000 0.37679  0.53241  0.39350  Biso   1.000  N
  H903     1.0000 0.34151  0.45679  0.42378  Biso   1.000  H
  C1137    1.0000 0.36940  0.45679  0.33699  Biso   1.000  C
  N106     1.0000 0.19940  0.54739  0.75499  Biso   1.000  N
  H904     1.0000 0.12828  0.54329  0.74522  Biso   1.000  H
  C1138    1.0000 0.11929  0.49062  0.81362  Biso   1.000  C
  C1139    1.0000 0.04050  0.39230  0.71838  Biso   1.000  C
  C1140    1.0000 0.03381  0.46701  0.68801  Biso   1.000  C
  C1141    1.0000 0.48722  0.73942  0.40259  Biso   1.000  C
  C1142    1.0000 0.63021  0.86301  0.39919  Biso   1.000  C
  C1143    1.0000 0.61211  0.85741  0.29240  Biso   1.000  C
  H905     1.0000 0.60201  0.96878  0.38749  Biso   1.000  H
  C1144    1.0000 0.60460  0.00182  0.30589  Biso   1.000  C
  C1145    1.0000 0.53991  0.94312  0.23570  Biso   1.000  C
  H906     1.0000 0.49260  0.86940  0.26992  Biso   1.000  H
  C1146    1.0000 0.37519  0.77920  0.74760  Biso   1.000  C
  C1147    1.0000 0.32231  0.86790  0.83582  Biso   1.000  C
  C1148    1.0000 0.41630  0.91741  0.84458  Biso   1.000  C
  H907     1.0000 0.31512  0.93902  0.72668  Biso   1.000  H
  C1149    1.0000 0.37701  0.01321  0.72398  Biso   1.000  C
  H908     1.0000 0.45251  0.94982  0.67521  Biso   1.000  H
  C1150    1.0000 0.45878  0.02039  0.69352  Biso   1.000  C
  C1151    1.0000 0.21411  0.33372  0.28111  Biso   1.000  C
  H909     1.0000 0.25950  0.41221  0.25928  Biso   1.000  H
  C1152    1.0000 0.19989  0.31641  0.38612  Biso   1.000  C
  H910     1.0000 0.23981  0.38130  0.44062  Biso   1.000  H
  C1153    1.0000 0.38810  0.54731  0.44851  Biso   1.000  C
  C1154    1.0000 0.37661  0.41461  0.34850  Biso   1.000  C
  C1155    1.0000 0.38220  0.47891  0.27978  Biso   1.000  C
  C1156    1.0000 0.22081  0.59600  0.74760  Biso   1.000  C
  C1157    1.0000 0.13211  0.45439  0.83582  Biso   1.000  C
  C1158    1.0000 0.08260  0.49890  0.84458  Biso   1.000  C
  H911     1.0000 0.06101  0.37610  0.72668  Biso   1.000  H
  C1159    1.0000 0.98681  0.36380  0.72398  Biso   1.000  C
  H912     1.0000 0.05018  0.50268  0.67521  Biso   1.000  H
  C1160    1.0000 0.97959  0.43838  0.69352  Biso   1.000  C
  C1161    1.0000 0.46929  0.69590  0.44589  Biso   1.000  C
  H913     1.0000 0.47271  0.73149  0.36240  Biso   1.000  H
  H914     1.0000 0.61871  0.85852  0.44062  Biso   1.000  H
  C1162    1.0000 0.68361  0.88351  0.38612  Biso   1.000  C
  C1163    1.0000 0.66628  0.88040  0.28111  Biso   1.000  C
  H915     1.0000 0.58781  0.84732  0.25928  Biso   1.000  H
  C1164    1.0000 0.58259  0.99330  0.25088  Biso   1.000  C
  H916     1.0000 0.63372  0.03541  0.31579  Biso   1.000  H
  H917     1.0000 0.52430  0.93661  0.19620  Biso   1.000  H
  C1165    1.0000 0.35360  0.72140  0.74760  Biso   1.000  C
  H918     1.0000 0.41210  0.80139  0.74159  Biso   1.000  H
  H919     1.0000 0.29131  0.84381  0.81430  Biso   1.000  H
  C1166    1.0000 0.31880  0.89100  0.89050  Biso   1.000  C
  C1167    1.0000 0.41199  0.93870  0.89899  Biso   1.000  C
  H920     1.0000 0.45010  0.92778  0.82811  Biso   1.000  H
  H921     1.0000 0.35759  0.02949  0.73691  Biso   1.000  H
  C1168    1.0000 0.42870  0.04341  0.71150  Biso   1.000  C
  H922     1.0000 0.49550  0.04140  0.68540  Biso   1.000  H
  C1169    1.0000 0.18990  0.29950  0.32648  Biso   1.000  C
  H923     1.0000 0.21019  0.32110  0.24019  Biso   1.000  H
  H924     1.0000 0.18439  0.29169  0.41860  Biso   1.000  H
  H925     1.0000 0.37451  0.52101  0.47952  Biso   1.000  H
  C1170    1.0000 0.42079  0.60211  0.46791  Biso   1.000  C
  H926     1.0000 0.36681  0.39801  0.38749  Biso   1.000  H
  C1171    1.0000 0.39719  0.39541  0.30589  Biso   1.000  C
  C1172    1.0000 0.40322  0.46011  0.23570  Biso   1.000  C
  H927     1.0000 0.37682  0.50741  0.26992  Biso   1.000  H
  C1173    1.0000 0.27861  0.63219  0.74760  Biso   1.000  C
  H928     1.0000 0.19859  0.61070  0.74159  Biso   1.000  H
  H929     1.0000 0.15618  0.44749  0.81430  Biso   1.000  H
  C1174    1.0000 0.10899  0.42782  0.89050  Biso   1.000  C
  C1175    1.0000 0.06131  0.47331  0.89899  Biso   1.000  C
  H930     1.0000 0.07222  0.52232  0.82811  Biso   1.000  H
  H931     1.0000 0.97051  0.32812  0.73691  Biso   1.000  H
  C1176    1.0000 0.95659  0.38528  0.71150  Biso   1.000  C
  H932     1.0000 0.95860  0.45411  0.68540  Biso   1.000  H
  C1177    1.0000 0.43608  0.64539  0.42809  Biso   1.000  C
  C1178    1.0000 0.48888  0.70449  0.50658  Biso   1.000  C
  H933     1.0000 0.70831  0.89270  0.41860  Biso   1.000  H
  C1179    1.0000 0.70051  0.89041  0.32648  Biso   1.000  C
  H934     1.0000 0.67890  0.88911  0.24019  Biso   1.000  H
  H935     1.0000 0.59559  0.02110  0.22162  Biso   1.000  H
  C1180    1.0000 0.29939  0.68679  0.74710  Biso   1.000  C
  C1181    1.0000 0.38740  0.70059  0.74710  Biso   1.000  C
  H936     1.0000 0.28510  0.88130  0.90651  Biso   1.000  H
  C1182    1.0000 0.36240  0.92699  0.92160  Biso   1.000  C
  H937     1.0000 0.44291  0.96161  0.92151  Biso   1.000  H
  H938     1.0000 0.44510  0.08070  0.71490  Biso   1.000  H
  H939     1.0000 0.16579  0.26350  0.31758  Biso   1.000  H
  C1183    1.0000 0.44071  0.61279  0.52718  Biso   1.000  C
  H940     1.0000 0.40170  0.36632  0.31579  Biso   1.000  H
  C1184    1.0000 0.41072  0.41741  0.25088  Biso   1.000  C
  H941     1.0000 0.41232  0.47572  0.19620  Biso   1.000  H
  C1185    1.0000 0.31319  0.61259  0.74710  Biso   1.000  C
  H942     1.0000 0.11870  0.40381  0.90651  Biso   1.000  H
  C1186    1.0000 0.07300  0.43539  0.92160  Biso   1.000  C
  H943     1.0000 0.03840  0.48132  0.92151  Biso   1.000  H
  H944     1.0000 0.91931  0.36439  0.71490  Biso   1.000  H
  H945     1.0000 0.42282  0.63901  0.38731  Biso   1.000  H
  C1187    1.0000 0.47438  0.66369  0.54741  Biso   1.000  C
  H946     1.0000 0.51290  0.73950  0.51961  Biso   1.000  H
  H947     1.0000 0.73651  0.90231  0.31758  Biso   1.000  H
  H948     1.0000 0.27621  0.70059  0.74632  Biso   1.000  H
  C1188    1.0000 0.36780  0.64642  0.74760  Biso   1.000  C
  H949     1.0000 0.42442  0.72381  0.74632  Biso   1.000  H
  H950     1.0000 0.35939  0.94371  0.95738  Biso   1.000  H
  H951     1.0000 0.43100  0.58429  0.55480  Biso   1.000  H
  H952     1.0000 0.42549  0.40440  0.22162  Biso   1.000  H
  H953     1.0000 0.29942  0.57562  0.74632  Biso   1.000  H
  H954     1.0000 0.05630  0.41572  0.95738  Biso   1.000  H
  C1189    1.0000 0.49919  0.67220  0.60879  Biso   1.000  C
  C1190    1.0000 0.40401  0.62482  0.74760  Biso   1.000  C
  N107     1.0000 0.49210  0.63329  0.64241  Biso   1.000  N
  H955     1.0000 0.52069  0.70721  0.62351  Biso   1.000  H
  N108     1.0000 0.45260  0.65202  0.75499  Biso   1.000  N
  H956     1.0000 0.38931  0.58792  0.74159  Biso   1.000  H
  C1191    1.0000 0.52169  0.64610  0.69999  Biso   1.000  C
  C1192    1.0000 0.48190  0.62320  0.75320  Biso   1.000  C
  H957     1.0000 0.54429  0.68509  0.70462  Biso   1.000  H
  C1193    1.0000 0.55530  0.62020  0.70072  Biso   1.000  C
  H958     1.0000 0.45668  0.58500  0.74522  Biso   1.000  H
  C1194    1.0000 0.50941  0.62872  0.81362  Biso   1.000  C
  C1195    1.0000 0.60771  0.64819  0.71838  Biso   1.000  C
  C1196    1.0000 0.53300  0.56678  0.68801  Biso   1.000  C
  C1197    1.0000 0.54560  0.67768  0.83582  Biso   1.000  C
  C1198    1.0000 0.50110  0.58370  0.84458  Biso   1.000  C
  H959     1.0000 0.62391  0.68490  0.72668  Biso   1.000  H
  C1199    1.0000 0.63619  0.62300  0.72398  Biso   1.000  C
  C1200    1.0000 0.56159  0.54120  0.69352  Biso   1.000  C
  H960     1.0000 0.49731  0.54751  0.67521  Biso   1.000  H
  H961     1.0000 0.55251  0.70871  0.81430  Biso   1.000  H
  C1201    1.0000 0.57221  0.68119  0.89050  Biso   1.000  C
  C1202    1.0000 0.52670  0.58799  0.89899  Biso   1.000  C
  H962     1.0000 0.47772  0.54991  0.82811  Biso   1.000  H
  H963     1.0000 0.67190  0.64240  0.73691  Biso   1.000  H
  C1203    1.0000 0.61471  0.57132  0.71150  Biso   1.000  C
  H964     1.0000 0.54590  0.50450  0.68540  Biso   1.000  H
  H965     1.0000 0.59620  0.71490  0.90651  Biso   1.000  H
  C1204    1.0000 0.56458  0.63759  0.92160  Biso   1.000  C
  H966     1.0000 0.51869  0.55709  0.92151  Biso   1.000  H
  H967     1.0000 0.63560  0.55492  0.71490  Biso   1.000  H
  H968     1.0000 0.58431  0.64058  0.95738  Biso   1.000  H
  C1205    1.0000 0.30369  0.90030  0.40300  Biso   1.000  C
  C1206    1.0000 0.26548  0.86608  0.36249  Biso   1.000  C
  C1207    1.0000 0.35621  0.92191  0.40419  Biso   1.000  C
  H969     1.0000 0.28989  0.91040  0.43649  Biso   1.000  H
  C1208    1.0000 0.28812  0.85012  0.31538  Biso   1.000  C
  H970     1.0000 0.22901  0.85481  0.36570  Biso   1.000  H
  C1209    1.0000 0.37778  0.90578  0.35369  Biso   1.000  C
  H971     1.0000 0.37761  0.94572  0.43530  Biso   1.000  H
  C1210    1.0000 0.34240  0.86971  0.31180  Biso   1.000  C
  H972     1.0000 0.26569  0.82540  0.28561  Biso   1.000  H
  H973     1.0000 0.41468  0.91950  0.34960  Biso   1.000  H
  C1211    1.0000 0.36491  0.85410  0.25469  Biso   1.000  C
  N109     1.0000 0.33858  0.79638  0.25198  Biso   1.000  N
  H974     1.0000 0.40400  0.86959  0.25859  Biso   1.000  H
  C1212    1.0000 0.35141  0.87570  0.19620  Biso   1.000  C
  C1213    1.0000 0.36869  0.77652  0.24951  Biso   1.000  C
  N110     1.0000 0.37170  0.86112  0.14230  Biso   1.000  N
  H975     1.0000 0.31240  0.85962  0.19258  Biso   1.000  H
  C1214    1.0000 0.37642  0.93460  0.20171  Biso   1.000  C
  C1215    1.0000 0.35019  0.71990  0.24758  Biso   1.000  C
  H976     1.0000 0.40570  0.80021  0.24882  Biso   1.000  H
  C1216    1.0000 0.33769  0.82989  0.10519  Biso   1.000  C
  C1217    1.0000 0.34591  0.95731  0.21432  Biso   1.000  C
  C1218    1.0000 0.42978  0.96649  0.20010  Biso   1.000  C
  C1219    1.0000 0.29670  0.68320  0.24850  Biso   1.000  C
  C1220    1.0000 0.38651  0.70331  0.24850  Biso   1.000  C
  H977     1.0000 0.30172  0.81491  0.11670  Biso   1.000  H
  C1221    1.0000 0.34899  0.81460  0.04541  Biso   1.000  C
  H978     1.0000 0.30859  0.93559  0.21602  Biso   1.000  H
  C1222    1.0000 0.36800  0.01002  0.22441  Biso   1.000  C
  H979     1.0000 0.45181  0.95230  0.19028  Biso   1.000  H
  C1223    1.0000 0.45208  0.02039  0.21290  Biso   1.000  C
  C1224    1.0000 0.28008  0.63030  0.24758  Biso   1.000  C
  H980     1.0000 0.27150  0.69459  0.24978  Biso   1.000  H
  C1225    1.0000 0.36970  0.64981  0.24758  Biso   1.000  C
  H981     1.0000 0.42311  0.72850  0.24978  Biso   1.000  H
  C1226    1.0000 0.40032  0.82761  0.02858  Biso   1.000  C
  C1227    1.0000 0.30840  0.78968  0.00399  Biso   1.000  C
  H982     1.0000 0.34601  0.02468  0.23139  Biso   1.000  H
  C1228    1.0000 0.42062  0.04171  0.22478  Biso   1.000  C
  H983     1.0000 0.48941  0.04238  0.21331  Biso   1.000  H
  C1229    1.0000 0.22352  0.59221  0.24951  Biso   1.000  C
  C1230    1.0000 0.31679  0.61350  0.24850  Biso   1.000  C
  C1231    1.0000 0.40779  0.63128  0.24951  Biso   1.000  C
  H984     1.0000 0.42802  0.84342  0.05780  Biso   1.000  H
  C1232    1.0000 0.41081  0.81759  0.96940  Biso   1.000  C
  C1233    1.0000 0.31782  0.77801  0.94330  Biso   1.000  C
  H985     1.0000 0.27359  0.78030  0.01601  Biso   1.000  H
  H986     1.0000 0.43580  0.07830  0.23308  Biso   1.000  H
  N111     1.0000 0.20360  0.54218  0.25198  Biso   1.000  N
  H987     1.0000 0.19981  0.60550  0.24882  Biso   1.000  H
  H988     1.0000 0.30539  0.57692  0.24978  Biso   1.000  H
  N112     1.0000 0.45781  0.66140  0.25198  Biso   1.000  N
  H989     1.0000 0.39449  0.59430  0.24882  Biso   1.000  H
  C1234    1.0000 0.36958  0.79228  0.92752  Biso   1.000  C
  C1235    1.0000 0.46530  0.83439  0.95128  Biso   1.000  C
  C1236    1.0000 0.27540  0.75531  0.89802  Biso   1.000  C
  C1237    1.0000 0.14591  0.51080  0.25469  Biso   1.000  C
  C1238    1.0000 0.48922  0.63511  0.25469  Biso   1.000  C
  H990     1.0000 0.37689  0.78472  0.88752  Biso   1.000  H
  N113     1.0000 0.47971  0.83979  0.89490  Biso   1.000  N
  H991     1.0000 0.49070  0.84148  0.98238  Biso   1.000  H
  N114     1.0000 0.23077  0.75018  0.90812  Biso   1.000  N
  H992     1.0000 0.28169  0.74399  0.85958  Biso   1.000  H
  C1239    1.0000 0.13030  0.47268  0.31180  Biso   1.000  C
  H993     1.0000 0.13040  0.53442  0.25859  Biso   1.000  H
  C1240    1.0000 0.12430  0.47572  0.19620  Biso   1.000  C
  H994     1.0000 0.46560  0.59600  0.25859  Biso   1.000  H
  C1241    1.0000 0.52429  0.64859  0.19620  Biso   1.000  C
  C1242    1.0000 0.52731  0.65762  0.31180  Biso   1.000  C
  C1243    1.0000 0.53548  0.85690  0.88380  Biso   1.000  C
  C1244    1.0000 0.19163  0.72842  0.85830  Biso   1.000  C
  C1245    1.0000 0.14989  0.43799  0.31538  Biso   1.000  C
  C1246    1.0000 0.09422  0.47201  0.35369  Biso   1.000  C
  N115     1.0000 0.13892  0.51061  0.14230  Biso   1.000  N
  H995     1.0000 0.14040  0.45281  0.19258  Biso   1.000  H
  C1247    1.0000 0.06539  0.44181  0.20171  Biso   1.000  C
  N116     1.0000 0.48939  0.62828  0.14230  Biso   1.000  N
  H996     1.0000 0.54722  0.68762  0.19258  Biso   1.000  H
  C1248    1.0000 0.55819  0.62359  0.20171  Biso   1.000  C
  C1249    1.0000 0.56199  0.71190  0.31538  Biso   1.000  C
  C1250    1.0000 0.52801  0.62221  0.35369  Biso   1.000  C
  C1251    1.0000 0.53681  0.80841  0.85830  Biso   1.000  C
  H997     1.0000 0.55548  0.86829  0.92330  Biso   1.000  H
  C1252    1.0000 0.55821  0.90291  0.83839  Biso   1.000  C
  C1253    1.0000 0.14308  0.67859  0.88380  Biso   1.000  C
  H998     1.0000 0.20670  0.71829  0.82320  Biso   1.000  H
  C1254    1.0000 0.17861  0.77040  0.83692  Biso   1.000  C
  C1255    1.0000 0.13391  0.39939  0.36249  Biso   1.000  C
  H999     1.0000 0.17461  0.44032  0.28561  Biso   1.000  H
  C1256    1.0000 0.07808  0.43428  0.40419  Biso   1.000  C
  H1000    1.0000 0.08051  0.49519  0.34960  Biso   1.000  H
  C1257    1.0000 0.17009  0.50781  0.10519  Biso   1.000  C
  C1258    1.0000 0.04271  0.38859  0.21432  Biso   1.000  C
  C1259    1.0000 0.03349  0.46330  0.20010  Biso   1.000  C
  C1260    1.0000 0.49220  0.66231  0.10519  Biso   1.000  C
  C1261    1.0000 0.61142  0.65411  0.21432  Biso   1.000  C
  C1262    1.0000 0.53669  0.57021  0.20010  Biso   1.000  C
  H1001    1.0000 0.55970  0.73429  0.28561  Biso   1.000  H
  C1263    1.0000 0.60060  0.73449  0.36249  Biso   1.000  C
  C1264    1.0000 0.56571  0.64382  0.40419  Biso   1.000  C
  H1002    1.0000 0.50481  0.58531  0.34960  Biso   1.000  H
  N117     1.0000 0.51938  0.76918  0.90812  Biso   1.000  N
  H1003    1.0000 0.51161  0.79331  0.82320  Biso   1.000  H
  C1265    1.0000 0.59179  0.82142  0.83692  Biso   1.000  C
  C1266    1.0000 0.60751  0.94722  0.85068  Biso   1.000  C
  C1267    1.0000 0.53218  0.90090  0.78490  Biso   1.000  C
  N118     1.0000 0.16021  0.63991  0.89490  Biso   1.000  N
  H1004    1.0000 0.13168  0.68718  0.92330  Biso   1.000  H
  C1268    1.0000 0.09709  0.65529  0.83839  Biso   1.000  C
  C1269    1.0000 0.16710  0.79812  0.87931  Biso   1.000  C
  C1270    1.0000 0.17818  0.77979  0.77471  Biso   1.000  C
  H1005    1.0000 0.14521  0.37420  0.36570  Biso   1.000  H
  C1271    1.0000 0.09969  0.40342  0.40300  Biso   1.000  C
  H1006    1.0000 0.05430  0.43192  0.43530  Biso   1.000  H
  H1007    1.0000 0.18508  0.48680  0.11670  Biso   1.000  H
  C1272    1.0000 0.18541  0.53442  0.04541  Biso   1.000  C
  H1008    1.0000 0.06440  0.37298  0.21602  Biso   1.000  H
  C1273    1.0000 0.98999  0.35800  0.22441  Biso   1.000  C
  H1009    1.0000 0.04770  0.49949  0.19028  Biso   1.000  H
  C1274    1.0000 0.97958  0.43168  0.21290  Biso   1.000  C
  H1010    1.0000 0.51320  0.69830  0.11670  Biso   1.000  H
  C1275    1.0000 0.46561  0.65099  0.04541  Biso   1.000  C
  H1011    1.0000 0.62699  0.69140  0.21602  Biso   1.000  H
  C1276    1.0000 0.64201  0.63199  0.22441  Biso   1.000  C
  C1277    1.0000 0.56832  0.54790  0.21290  Biso   1.000  C
  H1012    1.0000 0.50050  0.54822  0.19028  Biso   1.000  H
  H1013    1.0000 0.62578  0.77100  0.36570  Biso   1.000  H
  C1278    1.0000 0.59659  0.69629  0.40300  Biso   1.000  C
  H1014    1.0000 0.56812  0.62241  0.43530  Biso   1.000  H
  C1279    1.0000 0.47991  0.72460  0.89802  Biso   1.000  C
  C1280    1.0000 0.63099  0.83289  0.87931  Biso   1.000  C
  C1281    1.0000 0.60162  0.82181  0.77471  Biso   1.000  C
  H1015    1.0000 0.62601  0.94891  0.88720  Biso   1.000  H
  C1282    1.0000 0.62890  0.98830  0.80898  Biso   1.000  C
  C1283    1.0000 0.55430  0.94241  0.74430  Biso   1.000  C
  H1016    1.0000 0.49901  0.87082  0.77600  Biso   1.000  H
  C1284    1.0000 0.16560  0.63089  0.95128  Biso   1.000  C
  C1285    1.0000 0.05278  0.66030  0.85068  Biso   1.000  C
  C1286    1.0000 0.09908  0.63128  0.78490  Biso   1.000  C
  H1017    1.0000 0.16650  0.79071  0.92179  Biso   1.000  H
  C1287    1.0000 0.15631  0.83711  0.85940  Biso   1.000  C
  C1288    1.0000 0.16840  0.81901  0.75609  Biso   1.000  C
  H1018    1.0000 0.18451  0.75960  0.74540  Biso   1.000  H
  H1019    1.0000 0.08961  0.37949  0.43649  Biso   1.000  H
  C1289    1.0000 0.17239  0.57270  0.02858  Biso   1.000  C
  C1290    1.0000 0.21028  0.51869  0.00399  Biso   1.000  C
  H1020    1.0000 0.97530  0.32130  0.23139  Biso   1.000  H
  C1291    1.0000 0.95831  0.37889  0.22478  Biso   1.000  C
  H1021    1.0000 0.95762  0.44702  0.21331  Biso   1.000  H
  C1292    1.0000 0.42730  0.59970  0.02858  Biso   1.000  C
  C1293    1.0000 0.48131  0.69160  0.00399  Biso   1.000  C
  H1022    1.0000 0.67868  0.65399  0.23139  Biso   1.000  H
  C1294    1.0000 0.62111  0.57940  0.22478  Biso   1.000  C
  H1023    1.0000 0.55302  0.51061  0.21331  Biso   1.000  H
  H1024    1.0000 0.62049  0.71009  0.43649  Biso   1.000  H
  C1295    1.0000 0.46019  0.68222  0.94330  Biso   1.000  C
  H1025    1.0000 0.46228  0.71829  0.85958  Biso   1.000  H
  H1026    1.0000 0.62418  0.83348  0.92179  Biso   1.000  H
  C1296    1.0000 0.68081  0.84369  0.85940  Biso   1.000  C
  C1297    1.0000 0.65058  0.83159  0.75609  Biso   1.000  C
  H1027    1.0000 0.57511  0.81550  0.74540  Biso   1.000  H
  C1298    1.0000 0.60291  0.98629  0.75659  Biso   1.000  C
  H1028    1.0000 0.66230  0.01849  0.81719  Biso   1.000  H
  H1029    1.0000 0.53621  0.94111  0.70760  Biso   1.000  H
  C1299    1.0000 0.18240  0.59320  0.96940  Biso   1.000  C
  H1030    1.0000 0.15851  0.64922  0.98238  Biso   1.000  H
  H1031    1.0000 0.05111  0.67709  0.88720  Biso   1.000  H
  C1300    1.0000 0.01169  0.64058  0.80898  Biso   1.000  C
  C1301    1.0000 0.05760  0.61188  0.74430  Biso   1.000  C
  H1032    1.0000 0.12919  0.62821  0.77600  Biso   1.000  H
  H1033    1.0000 0.14840  0.85631  0.88862  Biso   1.000  H
  C1302    1.0000 0.15680  0.84791  0.79650  Biso   1.000  C
  H1034    1.0000 0.16969  0.82650  0.71361  Biso   1.000  H
  H1035    1.0000 0.15659  0.58460  0.05780  Biso   1.000  H
  H1036    1.0000 0.21971  0.49330  0.01601  Biso   1.000  H
  C1303    1.0000 0.22201  0.53982  0.94330  Biso   1.000  C
  H1037    1.0000 0.92169  0.35749  0.23308  Biso   1.000  H
  C1304    1.0000 0.40680  0.58922  0.96940  Biso   1.000  C
  H1038    1.0000 0.41539  0.57199  0.05780  Biso   1.000  H
  H1039    1.0000 0.50670  0.72641  0.01601  Biso   1.000  H
  H1040    1.0000 0.64249  0.56418  0.23308  Biso   1.000  H
  C1305    1.0000 0.42272  0.63041  0.92752  Biso   1.000  C
  H1041    1.0000 0.70792  0.85162  0.88862  Biso   1.000  H
  C1306    1.0000 0.69112  0.84322  0.79650  Biso   1.000  C
  H1042    1.0000 0.65680  0.83029  0.71361  Biso   1.000  H
  H1043    1.0000 0.61800  0.01491  0.72852  Biso   1.000  H
  C1307    1.0000 0.20771  0.57731  0.92752  Biso   1.000  C
  H1044    1.0000 0.98152  0.64382  0.81719  Biso   1.000  H
  C1308    1.0000 0.01370  0.61662  0.75659  Biso   1.000  C
  H1045    1.0000 0.05890  0.59509  0.70760  Biso   1.000  H
  H1046    1.0000 0.14950  0.87428  0.78242  Biso   1.000  H
  C1309    1.0000 0.24469  0.52011  0.89802  Biso   1.000  C
  C1310    1.0000 0.36909  0.53469  0.95128  Biso   1.000  C
  H1047    1.0000 0.40778  0.62308  0.88752  Biso   1.000  H
  H1048    1.0000 0.72481  0.85051  0.78242  Biso   1.000  H
  H1049    1.0000 0.21529  0.59221  0.88752  Biso   1.000  H
  H1050    1.0000 0.98509  0.60309  0.72852  Biso   1.000  H
  N119     1.0000 0.24979  0.48061  0.90812  Biso   1.000  N
  H1051    1.0000 0.25601  0.53769  0.85958  Biso   1.000  H
  N120     1.0000 0.36012  0.52031  0.89490  Biso   1.000  N
  H1052    1.0000 0.35080  0.50931  0.98238  Biso   1.000  H
  C1311    1.0000 0.27160  0.46318  0.85830  Biso   1.000  C
  C1312    1.0000 0.32138  0.46448  0.88380  Biso   1.000  C
  H1053    1.0000 0.28169  0.48841  0.82320  Biso   1.000  H
  C1313    1.0000 0.22960  0.40819  0.83692  Biso   1.000  C
  H1054    1.0000 0.31279  0.44449  0.92330  Biso   1.000  H
  C1314    1.0000 0.34470  0.44181  0.83839  Biso   1.000  C
  C1315    1.0000 0.20191  0.36900  0.87931  Biso   1.000  C
  C1316    1.0000 0.22020  0.39841  0.77471  Biso   1.000  C
  C1317    1.0000 0.33971  0.39250  0.85068  Biso   1.000  C
  C1318    1.0000 0.36869  0.46779  0.78490  Biso   1.000  C
  H1055    1.0000 0.20930  0.37578  0.92179  Biso   1.000  H
  C1319    1.0000 0.16292  0.31921  0.85940  Biso   1.000  C
  C1320    1.0000 0.18102  0.34941  0.75609  Biso   1.000  C
  H1056    1.0000 0.24041  0.42490  0.74540  Biso   1.000  H
  H1057    1.0000 0.32292  0.37401  0.88720  Biso   1.000  H
  C1321    1.0000 0.35939  0.37109  0.80898  Biso   1.000  C
  C1322    1.0000 0.38810  0.44572  0.74430  Biso   1.000  C
  H1058    1.0000 0.37180  0.50099  0.77600  Biso   1.000  H
  H1059    1.0000 0.14369  0.29209  0.88862  Biso   1.000  H
  C1323    1.0000 0.15210  0.30892  0.79650  Biso   1.000  C
  H1060    1.0000 0.17352  0.34322  0.71361  Biso   1.000  H
  H1061    1.0000 0.35618  0.33770  0.81719  Biso   1.000  H
  C1324    1.0000 0.38340  0.39711  0.75659  Biso   1.000  C
  H1062    1.0000 0.40490  0.46381  0.70760  Biso   1.000  H
  H1063    1.0000 0.12569  0.27521  0.78242  Biso   1.000  H
  H1064    1.0000 0.39691  0.38201  0.72852  Biso   1.000  H
  C1325    1.0000 0.49012  0.51455  0.46319  Biso   1.000  C
  C1326    1.0000 0.48963  0.50375  0.52608  Biso   1.000  C
  C1327    1.0000 0.50172  0.48565  0.42277  Biso   1.000  C
  H1065    1.0000 0.48284  0.54096  0.44906  Biso   1.000  H
  C1328    1.0000 0.50042  0.46476  0.54599  Biso   1.000  C
  H1066    1.0000 0.48174  0.52299  0.55525  Biso   1.000  H
  C1329    1.0000 0.51152  0.44647  0.44135  Biso   1.000  C
  H1067    1.0000 0.50303  0.49318  0.38025  Biso   1.000  H
  C1330    1.0000 0.51195  0.43708  0.50356  Biso   1.000  C
  H1068    1.0000 0.49984  0.45739  0.58847  Biso   1.000  H
  H1069    1.0000 0.51785  0.42628  0.41208  Biso   1.000  H
  C1331    1.0000 0.52494  0.39506  0.52498  Biso   1.000  C
  C1332    1.0000 0.47642  0.34527  0.55048  Biso   1.000  C
  N121     1.0000 0.56411  0.41686  0.57475  Biso   1.000  N
  H1070    1.0000 0.54004  0.38497  0.48988  Biso   1.000  H
  C1333    1.0000 0.43043  0.32197  0.50507  Biso   1.000  C
  N122     1.0000 0.49353  0.30655  0.56159  Biso   1.000  N
  H1071    1.0000 0.46502  0.35386  0.58998  Biso   1.000  H
  C1334    1.0000 0.60874  0.42198  0.56466  Biso   1.000  C
  C1335    1.0000 0.38612  0.32697  0.51736  Biso   1.000  C
  C1336    1.0000 0.43242  0.29796  0.45158  Biso   1.000  C
  C1337    1.0000 0.49894  0.29757  0.61796  Biso   1.000  C
  C1338    1.0000 0.65114  0.44465  0.60998  Biso   1.000  C
  H1072    1.0000 0.61503  0.41067  0.52626  Biso   1.000  H
  C1339    1.0000 0.34503  0.30726  0.47566  Biso   1.000  C
  H1073    1.0000 0.38445  0.34377  0.55388  Biso   1.000  H
  C1340    1.0000 0.39094  0.27856  0.41098  Biso   1.000  C
  H1074    1.0000 0.46253  0.29488  0.44268  Biso   1.000  H
  C1341    1.0000 0.51574  0.25988  0.63608  Biso   1.000  C
  H1075    1.0000 0.49183  0.31586  0.64907  Biso   1.000  H
  C1342    1.0000 0.70292  0.45896  0.59416  Biso   1.000  C
  C1343    1.0000 0.64173  0.45636  0.67067  Biso   1.000  C
  C1344    1.0000 0.34702  0.28325  0.42328  Biso   1.000  C
  H1076    1.0000 0.31484  0.31046  0.48388  Biso   1.000  H
  H1077    1.0000 0.39224  0.26177  0.37428  Biso   1.000  H
  C1345    1.0000 0.50572  0.23938  0.69526  Biso   1.000  C
  C1346    1.0000 0.54103  0.24395  0.59416  Biso   1.000  C
  C1347    1.0000 0.74415  0.48427  0.63608  Biso   1.000  C
  H1078    1.0000 0.71021  0.45135  0.55415  Biso   1.000  H
  C1348    1.0000 0.68232  0.48128  0.71205  Biso   1.000  C
  H1079    1.0000 0.60693  0.44698  0.68265  Biso   1.000  H
  H1080    1.0000 0.31843  0.26977  0.39516  Biso   1.000  H
  C1349    1.0000 0.51873  0.20106  0.71205  Biso   1.000  C
  H1081    1.0000 0.48993  0.25128  0.72448  Biso   1.000  H
  H1082    1.0000 0.54861  0.25885  0.55415  Biso   1.000  H
  C1350    1.0000 0.55533  0.20646  0.60998  Biso   1.000  C
  C1351    1.0000 0.73366  0.49429  0.69526  Biso   1.000  C
  C1352    1.0000 0.79864  0.50107  0.61796  Biso   1.000  C
  C1353    1.0000 0.67102  0.49657  0.77187  Biso   1.000  C
  C1354    1.0000 0.50343  0.17449  0.77187  Biso   1.000  C
  C1355    1.0000 0.54362  0.18537  0.67067  Biso   1.000  C
  C1356    1.0000 0.57803  0.18679  0.56466  Biso   1.000  C
  H1083    1.0000 0.76134  0.51006  0.72448  Biso   1.000  H
  N123     1.0000 0.81305  0.50647  0.56159  Biso   1.000  N
  H1084    1.0000 0.82404  0.50816  0.64907  Biso   1.000  H
  N124     1.0000 0.70502  0.52776  0.80898  Biso   1.000  N
  H1085    1.0000 0.63504  0.48155  0.78338  Biso   1.000  H
  N125     1.0000 0.47225  0.17729  0.80898  Biso   1.000  N
  H1086    1.0000 0.51842  0.15347  0.78338  Biso   1.000  H
  H1087    1.0000 0.55305  0.15998  0.68265  Biso   1.000  H
  N126     1.0000 0.58313  0.14728  0.57475  Biso   1.000  N
  H1088    1.0000 0.58935  0.20437  0.52626  Biso   1.000  H
  C1357    1.0000 0.86882  0.52358  0.55048  Biso   1.000  C
  C1358    1.0000 0.68475  0.54238  0.86288  Biso   1.000  C
  C1359    1.0000 0.45762  0.14236  0.86288  Biso   1.000  C
  C1360    1.0000 0.60494  0.12986  0.52498  Biso   1.000  C
  C1361    1.0000 0.87013  0.47505  0.52498  Biso   1.000  C
  H1089    1.0000 0.88882  0.53497  0.58998  Biso   1.000  H
  C1362    1.0000 0.89155  0.56958  0.50507  Biso   1.000  C
  C1363    1.0000 0.69825  0.52078  0.92137  Biso   1.000  C
  H1090    1.0000 0.64572  0.52626  0.85926  Biso   1.000  H
  C1364    1.0000 0.70976  0.60128  0.86839  Biso   1.000  C
  C1365    1.0000 0.47925  0.17748  0.92137  Biso   1.000  C
  H1091    1.0000 0.47372  0.11945  0.85926  Biso   1.000  H
  C1366    1.0000 0.39871  0.10845  0.86839  Biso   1.000  C
  H1092    1.0000 0.61501  0.15505  0.48988  Biso   1.000  H
  C1367    1.0000 0.65472  0.13116  0.55048  Biso   1.000  C
  C1368    1.0000 0.56294  0.07486  0.50356  Biso   1.000  C
  N127     1.0000 0.85272  0.43586  0.57475  Biso   1.000  N
  H1093    1.0000 0.84493  0.45995  0.48988  Biso   1.000  H
  C1369    1.0000 0.92511  0.48806  0.50356  Biso   1.000  C
  C1370    1.0000 0.94083  0.61386  0.51736  Biso   1.000  C
  C1371    1.0000 0.86552  0.56757  0.45158  Biso   1.000  C
  N128     1.0000 0.67192  0.46306  0.91867  Biso   1.000  N
  H1094    1.0000 0.73734  0.53627  0.92527  Biso   1.000  H
  C1372    1.0000 0.67572  0.53635  0.97849  Biso   1.000  C
  C1373    1.0000 0.67923  0.62395  0.88096  Biso   1.000  C
  C1374    1.0000 0.76312  0.63317  0.86678  Biso   1.000  C
  N129     1.0000 0.53693  0.20886  0.91867  Biso   1.000  N
  H1095    1.0000 0.46372  0.20106  0.92527  Biso   1.000  H
  C1375    1.0000 0.46364  0.13936  0.97849  Biso   1.000  C
  C1376    1.0000 0.37605  0.05527  0.88096  Biso   1.000  C
  C1377    1.0000 0.36683  0.12998  0.86678  Biso   1.000  C
  N130     1.0000 0.69346  0.18698  0.56159  Biso   1.000  N
  H1096    1.0000 0.64613  0.11117  0.58998  Biso   1.000  H
  C1378    1.0000 0.67802  0.10845  0.50507  Biso   1.000  C
  C1379    1.0000 0.53525  0.03568  0.54599  Biso   1.000  C
  C1380    1.0000 0.55352  0.06505  0.44135  Biso   1.000  C
  C1381    1.0000 0.81325  0.39127  0.56466  Biso   1.000  C
  C1382    1.0000 0.96433  0.49957  0.54599  Biso   1.000  C
  C1383    1.0000 0.93494  0.48845  0.44135  Biso   1.000  C
  H1097    1.0000 0.95933  0.61555  0.55388  Biso   1.000  H
  C1384    1.0000 0.96224  0.65497  0.47566  Biso   1.000  C
  C1385    1.0000 0.88764  0.60909  0.41098  Biso   1.000  C
  H1098    1.0000 0.83233  0.53745  0.44268  Biso   1.000  H
  C1386    1.0000 0.70201  0.44315  0.91619  Biso   1.000  C
  C1387    1.0000 0.62144  0.51676  0.98206  Biso   1.000  C
  C1388    1.0000 0.71112  0.57246  0.02037  Biso   1.000  C
  H1099    1.0000 0.64193  0.60227  0.88266  Biso   1.000  H
  C1389    1.0000 0.70132  0.67666  0.89105  Biso   1.000  C
  C1390    1.0000 0.78542  0.68706  0.87958  Biso   1.000  C
  H1100    1.0000 0.78515  0.61898  0.85697  Biso   1.000  H
  C1391    1.0000 0.55684  0.25885  0.91619  Biso   1.000  C
  C1392    1.0000 0.48323  0.10467  0.98206  Biso   1.000  C
  C1393    1.0000 0.42754  0.13865  0.02037  Biso   1.000  C
  H1101    1.0000 0.39774  0.03966  0.88266  Biso   1.000  H
  C1394    1.0000 0.32333  0.02468  0.89105  Biso   1.000  C
  C1395    1.0000 0.31292  0.09836  0.87958  Biso   1.000  C
  H1102    1.0000 0.38104  0.16617  0.85697  Biso   1.000  H
  C1396    1.0000 0.70243  0.20137  0.61796  Biso   1.000  C
  C1397    1.0000 0.67305  0.05917  0.51736  Biso   1.000  C
  C1398    1.0000 0.70203  0.13447  0.45158  Biso   1.000  C
  H1103    1.0000 0.54264  0.04246  0.58847  Biso   1.000  H
  C1399    1.0000 0.49624  0.98585  0.52608  Biso   1.000  C
  C1400    1.0000 0.51436  0.01608  0.42277  Biso   1.000  C
  H1104    1.0000 0.57375  0.09158  0.41208  Biso   1.000  H
  C1401    1.0000 0.79351  0.34885  0.60998  Biso   1.000  C
  H1105    1.0000 0.79562  0.38497  0.52626  Biso   1.000  H
  H1106    1.0000 0.95752  0.50016  0.58847  Biso   1.000  H
  C1402    1.0000 0.01415  0.51037  0.52608  Biso   1.000  C
  C1403    1.0000 0.98392  0.49827  0.42277  Biso   1.000  C
  H1107    1.0000 0.90845  0.48218  0.41208  Biso   1.000  H
  H1108    1.0000 0.99564  0.68517  0.48388  Biso   1.000  H
  C1404    1.0000 0.93625  0.65296  0.42328  Biso   1.000  C
  H1109    1.0000 0.86955  0.60778  0.37428  Biso   1.000  H
  C1405    1.0000 0.68353  0.38658  0.91426  Biso   1.000  C
  H1110    1.0000 0.73902  0.46685  0.91545  Biso   1.000  H
  H1111    1.0000 0.59903  0.49208  0.95225  Biso   1.000  H
  C1406    1.0000 0.59882  0.53276  0.02918  Biso   1.000  C
  C1407    1.0000 0.68955  0.58859  0.07087  Biso   1.000  C
  H1112    1.0000 0.74802  0.58618  0.01629  Biso   1.000  H
  H1113    1.0000 0.67934  0.69136  0.89807  Biso   1.000  H
  C1408    1.0000 0.75394  0.70835  0.89146  Biso   1.000  C
  H1114    1.0000 0.82275  0.70906  0.87995  Biso   1.000  H
  C1409    1.0000 0.61342  0.29697  0.91426  Biso   1.000  C
  H1115    1.0000 0.53315  0.27218  0.91545  Biso   1.000  H
  H1116    1.0000 0.50793  0.10695  0.95225  Biso   1.000  H
  C1410    1.0000 0.46725  0.06607  0.02918  Biso   1.000  C
  C1411    1.0000 0.41142  0.10096  0.07087  Biso   1.000  C
  H1117    1.0000 0.41385  0.16187  0.01629  Biso   1.000  H
  C1412    1.0000 0.29165  0.04557  0.89146  Biso   1.000  C
  H1118    1.0000 0.30863  0.98798  0.89807  Biso   1.000  H
  H1119    1.0000 0.29094  0.11366  0.87995  Biso   1.000  H
  H1120    1.0000 0.68413  0.17598  0.64907  Biso   1.000  H
  C1413    1.0000 0.74012  0.25586  0.63608  Biso   1.000  C
  H1121    1.0000 0.65626  0.04068  0.55388  Biso   1.000  H
  C1414    1.0000 0.69273  0.03777  0.47566  Biso   1.000  C
  C1415    1.0000 0.72142  0.11236  0.41098  Biso   1.000  C
  H1122    1.0000 0.70514  0.16767  0.44268  Biso   1.000  H
  H1123    1.0000 0.47703  0.95876  0.55525  Biso   1.000  H
  C1416    1.0000 0.48542  0.97556  0.46319  Biso   1.000  C
  H1124    1.0000 0.50684  0.00986  0.38025  Biso   1.000  H
  C1417    1.0000 0.75604  0.29705  0.59416  Biso   1.000  C
  C1418    1.0000 0.81465  0.35828  0.67067  Biso   1.000  C
  H1125    1.0000 0.04124  0.51826  0.55525  Biso   1.000  H
  C1419    1.0000 0.02444  0.50986  0.46319  Biso   1.000  C
  H1126    1.0000 0.99014  0.49697  0.38025  Biso   1.000  H
  H1127    1.0000 0.95134  0.68158  0.39516  Biso   1.000  H
  C1420    1.0000 0.63004  0.34988  0.91518  Biso   1.000  C
  C1421    1.0000 0.71985  0.36999  0.91518  Biso   1.000  C
  H1128    1.0000 0.56233  0.52145  0.03239  Biso   1.000  H
  C1422    1.0000 0.63702  0.56698  0.06968  Biso   1.000  C
  H1129    1.0000 0.71092  0.61236  0.10198  Biso   1.000  H
  H1130    1.0000 0.76914  0.74498  0.89977  Biso   1.000  H
  C1423    1.0000 0.65013  0.28018  0.91518  Biso   1.000  C
  H1131    1.0000 0.47855  0.04088  0.03239  Biso   1.000  H
  C1424    1.0000 0.43301  0.07005  0.06968  Biso   1.000  C
  H1132    1.0000 0.38762  0.09856  0.10198  Biso   1.000  H
  H1133    1.0000 0.25503  0.02417  0.89977  Biso   1.000  H
  C1425    1.0000 0.76064  0.26638  0.69526  Biso   1.000  C
  H1134    1.0000 0.68952  0.00438  0.48388  Biso   1.000  H
  C1426    1.0000 0.71671  0.06375  0.42328  Biso   1.000  C
  H1135    1.0000 0.73822  0.13045  0.37428  Biso   1.000  H
  H1136    1.0000 0.45901  0.94185  0.44906  Biso   1.000  H
  H1137    1.0000 0.74112  0.28976  0.55415  Biso   1.000  H
  C1427    1.0000 0.79895  0.31767  0.71205  Biso   1.000  C
  H1138    1.0000 0.84002  0.39305  0.68265  Biso   1.000  H
  H1139    1.0000 0.05813  0.51715  0.44906  Biso   1.000  H
  H1140    1.0000 0.60484  0.36127  0.91646  Biso   1.000  H
  C1428    1.0000 0.70302  0.31645  0.91426  Biso   1.000  C
  H1141    1.0000 0.75645  0.39518  0.91646  Biso   1.000  H
  H1142    1.0000 0.62322  0.57707  0.10317  Biso   1.000  H
  H1143    1.0000 0.63871  0.24356  0.91646  Biso   1.000  H
  H1144    1.0000 0.42295  0.04616  0.10317  Biso   1.000  H
  H1145    1.0000 0.74873  0.23867  0.72448  Biso   1.000  H
  H1146    1.0000 0.73023  0.04865  0.39516  Biso   1.000  H
  C1429    1.0000 0.82554  0.32899  0.77187  Biso   1.000  C
  C1430    1.0000 0.74113  0.29796  0.91619  Biso   1.000  C
  N131     1.0000 0.82273  0.29496  0.80898  Biso   1.000  N
  H1147    1.0000 0.84654  0.36498  0.78338  Biso   1.000  H
  N132     1.0000 0.79115  0.32808  0.91867  Biso   1.000  N
  H1148    1.0000 0.72783  0.26098  0.91545  Biso   1.000  H
  C1431    1.0000 0.85763  0.31527  0.86288  Biso   1.000  C
  C1432    1.0000 0.82255  0.30178  0.92137  Biso   1.000  C
  H1149    1.0000 0.88054  0.35426  0.85926  Biso   1.000  H
  C1433    1.0000 0.89153  0.29027  0.86839  Biso   1.000  C
  H1150    1.0000 0.79894  0.26268  0.92527  Biso   1.000  H
  C1434    1.0000 0.86062  0.32425  0.97849  Biso   1.000  C
  C1435    1.0000 0.94476  0.32079  0.88096  Biso   1.000  C
  C1436    1.0000 0.87001  0.23685  0.86678  Biso   1.000  C
  C1437    1.0000 0.89533  0.37858  0.98206  Biso   1.000  C
  C1438    1.0000 0.86133  0.28885  0.02037  Biso   1.000  C
  H1151    1.0000 0.96033  0.35808  0.88266  Biso   1.000  H
  C1439    1.0000 0.97535  0.29867  0.89105  Biso   1.000  C
  C1440    1.0000 0.90166  0.21458  0.87958  Biso   1.000  C
  H1152    1.0000 0.83382  0.21486  0.85697  Biso   1.000  H
  H1153    1.0000 0.89304  0.40097  0.95225  Biso   1.000  H
  C1441    1.0000 0.93394  0.40117  0.02918  Biso   1.000  C
  C1442    1.0000 0.89903  0.31046  0.07087  Biso   1.000  C
  H1154    1.0000 0.83813  0.25195  0.01629  Biso   1.000  H
  C1443    1.0000 0.95445  0.24608  0.89146  Biso   1.000  C
  H1155    1.0000 0.01202  0.32067  0.89807  Biso   1.000  H
  H1156    1.0000 0.88636  0.17729  0.87995  Biso   1.000  H
  H1157    1.0000 0.95912  0.43767  0.03239  Biso   1.000  H
  C1444    1.0000 0.92993  0.36297  0.06968  Biso   1.000  C
  H1158    1.0000 0.90144  0.28905  0.10198  Biso   1.000  H
  H1159    1.0000 0.97583  0.23086  0.89977  Biso   1.000  H
  H1160    1.0000 0.95383  0.37677  0.10317  Biso   1.000  H
  C1445    1.0000 0.71032  0.67985  0.39066  Biso   1.000  C
  C1446    1.0000 0.68512  0.62616  0.38506  Biso   1.000  C
  H1161    1.0000 0.69093  0.69617  0.40355  Biso   1.000  H
  C1447    1.0000 0.76202  0.71005  0.37818  Biso   1.000  C
  C1448    1.0000 0.71313  0.60175  0.36736  Biso   1.000  C
  H1162    1.0000 0.64844  0.60566  0.39337  Biso   1.000  H
  C1449    1.0000 0.79212  0.68706  0.36015  Biso   1.000  C
  H1163    1.0000 0.77844  0.74738  0.38158  Biso   1.000  H
  C1450    1.0000 0.68725  0.54226  0.36667  Biso   1.000  C
  C1451    1.0000 0.76651  0.63286  0.35465  Biso   1.000  C
  H1164    1.0000 0.82884  0.70808  0.35208  Biso   1.000  H
  C1452    1.0000 0.71013  0.52535  0.41988  Biso   1.000  C
  N133     1.0000 0.70005  0.52547  0.30905  Biso   1.000  N
  H1165    1.0000 0.64822  0.52586  0.37126  Biso   1.000  H
  H1166    1.0000 0.78583  0.61646  0.34185  Biso   1.000  H
  N134     1.0000 0.68134  0.46728  0.42167  Biso   1.000  N
  H1167    1.0000 0.74832  0.53836  0.41185  Biso   1.000  H
  C1453    1.0000 0.70464  0.54735  0.48025  Biso   1.000  C
  C1454    1.0000 0.66113  0.49366  0.27547  Biso   1.000  C
  C1455    1.0000 0.70853  0.44587  0.41429  Biso   1.000  C
  C1456    1.0000 0.65565  0.53458  0.50245  Biso   1.000  C
  C1457    1.0000 0.74962  0.58405  0.51126  Biso   1.000  C
  H1168    1.0000 0.62612  0.48017  0.29015  Biso   1.000  H
  C1458    1.0000 0.66965  0.47737  0.21405  Biso   1.000  C
  C1459    1.0000 0.68694  0.38808  0.41429  Biso   1.000  C
  H1169    1.0000 0.74544  0.46807  0.40828  Biso   1.000  H
  H1170    1.0000 0.62463  0.51045  0.48099  Biso   1.000  H
  C1460    1.0000 0.65214  0.55768  0.55718  Biso   1.000  C
  C1461    1.0000 0.74533  0.60538  0.56567  Biso   1.000  C
  H1171    1.0000 0.78344  0.59446  0.49475  Biso   1.000  H
  C1462    1.0000 0.62885  0.45108  0.17326  Biso   1.000  C
  C1463    1.0000 0.72051  0.49456  0.19386  Biso   1.000  C
  C1464    1.0000 0.63273  0.35347  0.41378  Biso   1.000  C
  C1465    1.0000 0.72074  0.36726  0.41378  Biso   1.000  C
  H1172    1.0000 0.61844  0.54798  0.57315  Biso   1.000  H
  C1466    1.0000 0.69574  0.59367  0.58828  Biso   1.000  C
  H1173    1.0000 0.77625  0.62828  0.58815  Biso   1.000  H
  C1467    1.0000 0.63745  0.44008  0.11257  Biso   1.000  C
  H1174    1.0000 0.59385  0.44008  0.18625  Biso   1.000  H
  C1468    1.0000 0.73125  0.48538  0.13455  Biso   1.000  C
  H1175    1.0000 0.74904  0.51337  0.22148  Biso   1.000  H
  C1469    1.0000 0.61195  0.29887  0.41429  Biso   1.000  C
  H1176    1.0000 0.60955  0.36726  0.41295  Biso   1.000  H
  C1470    1.0000 0.70112  0.31306  0.41429  Biso   1.000  C
  H1177    1.0000 0.75776  0.39049  0.41295  Biso   1.000  H
  H1178    1.0000 0.69271  0.61035  0.62407  Biso   1.000  H
  C1471    1.0000 0.59391  0.41445  0.06927  Biso   1.000  C
  C1472    1.0000 0.68793  0.45739  0.09477  Biso   1.000  C
  C1473    1.0000 0.78602  0.50745  0.11519  Biso   1.000  C
  C1474    1.0000 0.55414  0.26268  0.41429  Biso   1.000  C
  C1475    1.0000 0.64653  0.27927  0.41378  Biso   1.000  C
  C1476    1.0000 0.73733  0.29145  0.41429  Biso   1.000  C
  N135     1.0000 0.54635  0.40038  0.08138  Biso   1.000  N
  H1179    1.0000 0.60182  0.40787  0.02908  Biso   1.000  H
  H1180    1.0000 0.69433  0.45045  0.05395  Biso   1.000  H
  N136     1.0000 0.80095  0.51108  0.06019  Biso   1.000  N
  H1181    1.0000 0.81231  0.52015  0.14615  Biso   1.000  H
  N137     1.0000 0.53274  0.21407  0.42167  Biso   1.000  N
  H1182    1.0000 0.53193  0.27738  0.40828  Biso   1.000  H
  H1183    1.0000 0.63274  0.24225  0.41295  Biso   1.000  H
  N138     1.0000 0.78592  0.31866  0.42167  Biso   1.000  N
  H1184    1.0000 0.72263  0.25455  0.40828  Biso   1.000  H
  C1477    1.0000 0.50702  0.37716  0.03174  Biso   1.000  C
  C1478    1.0000 0.85834  0.53588  0.05078  Biso   1.000  C
  C1479    1.0000 0.47463  0.18478  0.41988  Biso   1.000  C
  C1480    1.0000 0.81524  0.28988  0.41988  Biso   1.000  C
  C1481    1.0000 0.46414  0.32248  0.05078  Biso   1.000  C
  C1482    1.0000 0.48411  0.41185  0.01895  Biso   1.000  C
  H1185    1.0000 0.52474  0.37436  0.99385  Biso   1.000  H
  C1483    1.0000 0.87015  0.49298  0.03174  Biso   1.000  C
  H1186    1.0000 0.87654  0.55137  0.09046  Biso   1.000  H
  C1484    1.0000 0.87653  0.57928  0.00367  Biso   1.000  C
  C1485    1.0000 0.45773  0.14496  0.36667  Biso   1.000  C
  H1187    1.0000 0.46162  0.20997  0.41185  Biso   1.000  H
  C1486    1.0000 0.45261  0.15726  0.48025  Biso   1.000  C
  H1188    1.0000 0.79002  0.25168  0.41185  Biso   1.000  H
  C1487    1.0000 0.85503  0.31278  0.36667  Biso   1.000  C
  C1488    1.0000 0.84273  0.29536  0.48025  Biso   1.000  C
  N139     1.0000 0.48895  0.28988  0.06019  Biso   1.000  N
  H1189    1.0000 0.44862  0.32516  0.09046  Biso   1.000  H
  C1489    1.0000 0.42073  0.29725  0.00367  Biso   1.000  C
  C1490    1.0000 0.47032  0.43385  0.06587  Biso   1.000  C
  C1491    1.0000 0.47592  0.42135  0.95908  Biso   1.000  C
  N140     1.0000 0.85405  0.45368  0.08138  Biso   1.000  N
  C1492    1.0000 0.92771  0.51585  0.01895  Biso   1.000  C
  H1190    1.0000 0.84963  0.47528  0.99385  Biso   1.000  H
  C1493    1.0000 0.91874  0.62868  0.01518  Biso   1.000  C
  C1494    1.0000 0.85443  0.56998  0.94647  Biso   1.000  C
  C1495    1.0000 0.39823  0.11137  0.36736  Biso   1.000  C
  N141     1.0000 0.47455  0.17457  0.30905  Biso   1.000  N
  H1191    1.0000 0.47412  0.12237  0.37126  Biso   1.000  H
  C1496    1.0000 0.46545  0.12107  0.50245  Biso   1.000  C
  C1497    1.0000 0.41594  0.16558  0.51126  Biso   1.000  C
  N142     1.0000 0.82544  0.29997  0.30905  Biso   1.000  N
  H1192    1.0000 0.87763  0.35177  0.37126  Biso   1.000  H
  C1498    1.0000 0.88864  0.28688  0.36736  Biso   1.000  C
  C1499    1.0000 0.87894  0.34436  0.50245  Biso   1.000  C
  C1500    1.0000 0.83444  0.25038  0.51126  Biso   1.000  C
  C1501    1.0000 0.49254  0.27856  0.11519  Biso   1.000  C
  C1502    1.0000 0.37133  0.29007  0.01518  Biso   1.000  C
  C1503    1.0000 0.43005  0.28448  0.94647  Biso   1.000  C
  H1193    1.0000 0.47482  0.42687  0.10725  Biso   1.000  H
  C1504    1.0000 0.44984  0.46677  0.05275  Biso   1.000  C
  C1505    1.0000 0.45295  0.45258  0.94775  Biso   1.000  C
  H1194    1.0000 0.48603  0.40716  0.92596  Biso   1.000  H
  C1506    1.0000 0.82054  0.40606  0.06927  Biso   1.000  C
  C1507    1.0000 0.96353  0.52965  0.06587  Biso   1.000  C
  C1508    1.0000 0.94543  0.52405  0.95908  Biso   1.000  C
  H1195    1.0000 0.93535  0.63546  0.05418  Biso   1.000  H
  C1509    1.0000 0.93792  0.66846  0.97257  Biso   1.000  C
  C1510    1.0000 0.87323  0.60976  0.90238  Biso   1.000  C
  H1196    1.0000 0.82594  0.53607  0.93656  Biso   1.000  H
  C1511    1.0000 0.36715  0.13368  0.35465  Biso   1.000  C
  C1512    1.0000 0.37384  0.05898  0.38506  Biso   1.000  C
  C1513    1.0000 0.50634  0.16747  0.27547  Biso   1.000  C
  H1197    1.0000 0.48952  0.11417  0.48099  Biso   1.000  H
  C1514    1.0000 0.44231  0.09446  0.55718  Biso   1.000  C
  C1515    1.0000 0.39463  0.13995  0.56567  Biso   1.000  C
  H1198    1.0000 0.40554  0.18895  0.49475  Biso   1.000  H
  C1516    1.0000 0.83253  0.33888  0.27547  Biso   1.000  C
  C1517    1.0000 0.94105  0.31487  0.38506  Biso   1.000  C
  C1518    1.0000 0.86634  0.23346  0.35465  Biso   1.000  C
  H1199    1.0000 0.88585  0.37539  0.48099  Biso   1.000  H
  C1519    1.0000 0.90555  0.34787  0.55718  Biso   1.000  C
  C1520    1.0000 0.86004  0.25467  0.56567  Biso   1.000  C
  H1200    1.0000 0.81104  0.21655  0.49475  Biso   1.000  H
  C1521    1.0000 0.51464  0.24588  0.13455  Biso   1.000  C
  H1201    1.0000 0.47985  0.29216  0.14615  Biso   1.000  H
  H1202    1.0000 0.36454  0.29985  0.05418  Biso   1.000  H
  C1522    1.0000 0.33152  0.26946  0.97257  Biso   1.000  C
  C1523    1.0000 0.39022  0.26346  0.90238  Biso   1.000  C
  H1203    1.0000 0.46396  0.28988  0.93656  Biso   1.000  H
  H1204    1.0000 0.44062  0.48226  0.08528  Biso   1.000  H
  C1524    1.0000 0.44293  0.47678  0.99316  Biso   1.000  C
  H1205    1.0000 0.44425  0.45648  0.90688  Biso   1.000  H
  C1525    1.0000 0.80263  0.36257  0.11257  Biso   1.000  C
  H1206    1.0000 0.80605  0.39817  0.02908  Biso   1.000  H
  H1207    1.0000 0.95203  0.52515  0.10725  Biso   1.000  H
  C1526    1.0000 0.01693  0.55015  0.05275  Biso   1.000  C
  C1527    1.0000 0.99962  0.54707  0.94775  Biso   1.000  C
  H1208    1.0000 0.92113  0.51396  0.92596  Biso   1.000  H
  H1209    1.0000 0.96705  0.70208  0.98248  Biso   1.000  H
  C1528    1.0000 0.91592  0.65998  0.91757  Biso   1.000  C
  H1210    1.0000 0.85762  0.60325  0.86288  Biso   1.000  H
  C1529    1.0000 0.31293  0.10506  0.36015  Biso   1.000  C
  H1211    1.0000 0.38352  0.16936  0.34185  Biso   1.000  H
  C1530    1.0000 0.32015  0.03047  0.39066  Biso   1.000  C
  H1212    1.0000 0.39435  0.04277  0.39337  Biso   1.000  H
  H1213    1.0000 0.51983  0.14598  0.29015  Biso   1.000  H
  C1531    1.0000 0.52263  0.19227  0.21405  Biso   1.000  C
  H1214    1.0000 0.45202  0.07045  0.57315  Biso   1.000  H
  C1532    1.0000 0.40634  0.10207  0.58828  Biso   1.000  C
  H1215    1.0000 0.37172  0.14795  0.58815  Biso   1.000  H
  H1216    1.0000 0.85401  0.37385  0.29015  Biso   1.000  H
  C1533    1.0000 0.80772  0.33036  0.21405  Biso   1.000  C
  H1217    1.0000 0.95725  0.35157  0.39337  Biso   1.000  H
  C1534    1.0000 0.96952  0.28968  0.39066  Biso   1.000  C
  C1535    1.0000 0.89493  0.20788  0.36015  Biso   1.000  C
  H1218    1.0000 0.83065  0.21419  0.34185  Biso   1.000  H
  H1219    1.0000 0.92954  0.38158  0.57315  Biso   1.000  H
  C1536    1.0000 0.89792  0.30427  0.58828  Biso   1.000  C
  H1220    1.0000 0.85203  0.22377  0.58815  Biso   1.000  H
  C1537    1.0000 0.50544  0.22597  0.19386  Biso   1.000  C
  C1538    1.0000 0.54264  0.23059  0.09477  Biso   1.000  C
  H1221    1.0000 0.29793  0.26496  0.98248  Biso   1.000  H
  C1539    1.0000 0.34004  0.25597  0.91757  Biso   1.000  C
  H1222    1.0000 0.39672  0.25436  0.86288  Biso   1.000  H
  H1223    1.0000 0.43104  0.50087  0.98427  Biso   1.000  H
  C1540    1.0000 0.76942  0.31207  0.09477  Biso   1.000  C
  C1541    1.0000 0.82222  0.37117  0.17326  Biso   1.000  C
  C1542    1.0000 0.03383  0.55705  0.99316  Biso   1.000  C
  H1224    1.0000 0.04165  0.55937  0.08528  Biso   1.000  H
  H1225    1.0000 0.01224  0.55579  0.90688  Biso   1.000  H
  H1226    1.0000 0.92893  0.68777  0.88825  Biso   1.000  H
  C1543    1.0000 0.28993  0.05196  0.37818  Biso   1.000  C
  H1227    1.0000 0.29192  0.12075  0.35208  Biso   1.000  H
  H1228    1.0000 0.30383  0.99476  0.40355  Biso   1.000  H
  C1544    1.0000 0.54893  0.17776  0.17326  Biso   1.000  C
  H1229    1.0000 0.38962  0.08235  0.62407  Biso   1.000  H
  C1545    1.0000 0.77405  0.27947  0.19386  Biso   1.000  C
  C1546    1.0000 0.94803  0.23796  0.37818  Biso   1.000  C
  H1230    1.0000 0.00524  0.30908  0.40355  Biso   1.000  H
  H1231    1.0000 0.87924  0.17117  0.35208  Biso   1.000  H
  H1232    1.0000 0.91765  0.30726  0.62407  Biso   1.000  H
  H1233    1.0000 0.48663  0.23567  0.22148  Biso   1.000  H
  C1547    1.0000 0.55993  0.19735  0.11257  Biso   1.000  C
  H1234    1.0000 0.54952  0.24387  0.05395  Biso   1.000  H
  H1235    1.0000 0.31221  0.24115  0.88825  Biso   1.000  H
  C1548    1.0000 0.75413  0.26879  0.13455  Biso   1.000  C
  H1236    1.0000 0.75615  0.30569  0.05395  Biso   1.000  H
  H1237    1.0000 0.84624  0.40618  0.18625  Biso   1.000  H
  H1238    1.0000 0.06983  0.56895  0.98427  Biso   1.000  H
  H1239    1.0000 0.25264  0.03107  0.38158  Biso   1.000  H
  H1240    1.0000 0.55994  0.15375  0.18625  Biso   1.000  H
  H1241    1.0000 0.76434  0.25097  0.22148  Biso   1.000  H
  H1242    1.0000 0.96892  0.22156  0.38158  Biso   1.000  H
  C1549    1.0000 0.58553  0.17945  0.06927  Biso   1.000  C
  C1550    1.0000 0.72142  0.21395  0.11519  Biso   1.000  C
  N143     1.0000 0.59966  0.14598  0.08138  Biso   1.000  N
  H1243    1.0000 0.59213  0.19396  0.02908  Biso   1.000  H
  N144     1.0000 0.71013  0.19909  0.06019  Biso   1.000  N
  H1244    1.0000 0.70782  0.18765  0.14615  Biso   1.000  H
  C1551    1.0000 0.62283  0.12986  0.03174  Biso   1.000  C
  C1552    1.0000 0.67753  0.14169  0.05078  Biso   1.000  C
  C1553    1.0000 0.58813  0.07226  0.01895  Biso   1.000  C
  H1245    1.0000 0.62564  0.15036  0.99385  Biso   1.000  H
  H1246    1.0000 0.67485  0.12347  0.09046  Biso   1.000  H
  C1554    1.0000 0.70274  0.12347  0.00367  Biso   1.000  C
  C1555    1.0000 0.56613  0.03647  0.06587  Biso   1.000  C
  C1556    1.0000 0.57863  0.05456  0.95908  Biso   1.000  C
  C1557    1.0000 0.70993  0.08125  0.01518  Biso   1.000  C
  C1558    1.0000 0.71552  0.14555  0.94647  Biso   1.000  C
  H1247    1.0000 0.57315  0.04798  0.10725  Biso   1.000  H
  C1559    1.0000 0.53321  0.98305  0.05275  Biso   1.000  C
  C1560    1.0000 0.54743  0.00035  0.94775  Biso   1.000  C
  H1248    1.0000 0.59284  0.07889  0.92596  Biso   1.000  H
  H1249    1.0000 0.70013  0.06465  0.05418  Biso   1.000  H
  C1561    1.0000 0.73051  0.06205  0.97257  Biso   1.000  C
  C1562    1.0000 0.73656  0.12678  0.90238  Biso   1.000  C
  H1250    1.0000 0.71014  0.17405  0.93656  Biso   1.000  H
  C1563    1.0000 0.52324  0.96618  0.99316  Biso   1.000  C
  H1251    1.0000 0.51773  0.95837  0.08528  Biso   1.000  H
  H1252    1.0000 0.54353  0.98778  0.90688  Biso   1.000  H
  H1253    1.0000 0.73502  0.03296  0.98248  Biso   1.000  H
  C1564    1.0000 0.74404  0.08405  0.91757  Biso   1.000  C
  H1254    1.0000 0.74564  0.14236  0.86288  Biso   1.000  H
  H1255    1.0000 0.49913  0.93018  0.98427  Biso   1.000  H
  H1256    1.0000 0.75882  0.07108  0.88825  Biso   1.000  H
