data_image0
_cell_length_a       30.128
_cell_length_b       30.128
_cell_length_c       20.746
_cell_angle_alpha    90
_cell_angle_beta     90
_cell_angle_gamma    120

_symmetry_space_group_name_H-M    "P 1"
_symmetry_int_tables_number       1

loop_
  _symmetry_equiv_pos_as_xyz
  'x, y, z'

loop_
  _atom_site_label
  _atom_site_occupancy
  _atom_site_fract_x
  _atom_site_fract_y
  _atom_site_fract_z
  _atom_site_thermal_displace_type
  _atom_site_B_iso_or_equiv
  _atom_site_type_symbol
  C1       1.0000 0.18986  0.11544  0.53914  Biso   1.000  C
  C2       1.0000 0.20566  0.11333  0.47011  Biso   1.000  C
  N1       1.0000 0.14036  0.07075  0.55254  Biso   1.000  N
  H1       1.0000 0.18709  0.14694  0.54464  Biso   1.000  H
  C3       1.0000 0.22967  0.11713  0.58821  Biso   1.000  C
  N2       1.0000 0.14034  0.07071  0.55254  Biso   1.000  N
  H2       1.0000 0.18707  0.14691  0.54464  Biso   1.000  H
  C4       1.0000 0.22526  0.15564  0.43073  Biso   1.000  C
  C5       1.0000 0.22524  0.15561  0.43073  Biso   1.000  C
  C6       1.0000 0.19608  0.06734  0.44356  Biso   1.000  C
  C7       1.0000 0.19606  0.06730  0.44356  Biso   1.000  C
  C8       1.0000 0.18984  0.11540  0.53914  Biso   1.000  C
  C9       1.0000 0.10458  0.07865  0.57225  Biso   1.000  C
  C10      1.0000 0.10456  0.07861  0.57225  Biso   1.000  C
  N3       1.0000 0.20966  0.11954  0.65155  Biso   1.000  N
  H3       1.0000 0.23305  0.08593  0.58445  Biso   1.000  H
  C11      1.0000 0.28057  0.16523  0.57756  Biso   1.000  C
  N4       1.0000 0.20964  0.11950  0.65155  Biso   1.000  N
  C12      1.0000 0.23788  0.15373  0.36754  Biso   1.000  C
  H4       1.0000 0.23026  0.18715  0.44765  Biso   1.000  H
  H5       1.0000 0.23024  0.18711  0.44765  Biso   1.000  H
  C13      1.0000 0.20747  0.06523  0.37795  Biso   1.000  C
  H6       1.0000 0.18177  0.03714  0.46925  Biso   1.000  H
  H7       1.0000 0.18175  0.03710  0.46925  Biso   1.000  H
  C14      1.0000 0.05098  0.03744  0.58271  Biso   1.000  C
  H8       1.0000 0.11287  0.11295  0.58055  Biso   1.000  H
  C15      1.0000 0.05097  0.03741  0.58271  Biso   1.000  C
  H9       1.0000 0.11285  0.11291  0.58055  Biso   1.000  H
  C16      1.0000 0.19547  0.08213  0.68823  Biso   1.000  C
  C17      1.0000 0.32086  0.16423  0.54685  Biso   1.000  C
  C18      1.0000 0.28778  0.21244  0.59424  Biso   1.000  C
  C19      1.0000 0.28776  0.21241  0.59424  Biso   1.000  C
  C20      1.0000 0.22705  0.10712  0.34363  Biso   1.000  C
  H10      1.0000 0.25345  0.18362  0.34151  Biso   1.000  H
  H11      1.0000 0.20098  0.03373  0.35906  Biso   1.000  H
  C21      1.0000 0.01378  0.05105  0.58214  Biso   1.000  C
  C22      1.0000 0.01376  0.05101  0.58214  Biso   1.000  C
  C23      1.0000 0.03727  0.98624  0.58214  Biso   1.000  C
  C24      1.0000 0.03725  0.98620  0.58214  Biso   1.000  C
  H12      1.0000 0.19997  0.05442  0.67502  Biso   1.000  H
  C25      1.0000 0.17127  0.07934  0.75316  Biso   1.000  C
  H13      1.0000 0.31737  0.13223  0.53495  Biso   1.000  H
  C26      1.0000 0.36666  0.20922  0.53292  Biso   1.000  C
  C27      1.0000 0.33337  0.25855  0.57953  Biso   1.000  C
  H14      1.0000 0.26117  0.21432  0.61631  Biso   1.000  H
  C28      1.0000 0.33335  0.25851  0.57953  Biso   1.000  C
  F1       1.0000 0.23748  0.10613  0.27923  Biso   1.000  F
  H15      1.0000 0.02317  0.08623  0.58112  Biso   1.000  H
  C29      1.0000 0.96255  0.01353  0.58271  Biso   1.000  C
  C30      1.0000 0.98646  0.94903  0.58271  Biso   1.000  C
  H16      1.0000 0.06307  0.97685  0.58112  Biso   1.000  H
  H17      1.0000 0.06305  0.97681  0.58112  Biso   1.000  H
  C31      1.0000 0.15886  0.11743  0.76641  Biso   1.000  C
  C32      1.0000 0.16058  0.04055  0.79606  Biso   1.000  C
  C33      1.0000 0.16056  0.04051  0.79606  Biso   1.000  C
  H18      1.0000 0.39435  0.20792  0.51301  Biso   1.000  H
  C34      1.0000 0.37037  0.25395  0.54825  Biso   1.000  C
  C35      1.0000 0.37035  0.25391  0.54825  Biso   1.000  C
  H19      1.0000 0.33778  0.29094  0.59105  Biso   1.000  H
  C36      1.0000 0.94898  0.96275  0.58214  Biso   1.000  C
  C37      1.0000 0.94896  0.96271  0.58214  Biso   1.000  C
  C38      1.0000 0.92136  0.02595  0.57225  Biso   1.000  C
  C39      1.0000 0.92135  0.02591  0.57225  Biso   1.000  C
  C40      1.0000 0.97408  0.89545  0.57225  Biso   1.000  C
  C41      1.0000 0.97406  0.89541  0.57225  Biso   1.000  C
  H20      1.0000 0.16437  0.14273  0.73513  Biso   1.000  H
  C42      1.0000 0.13805  0.11732  0.82744  Biso   1.000  C
  C43      1.0000 0.13835  0.03951  0.85631  Biso   1.000  C
  H21      1.0000 0.16808  0.01433  0.78502  Biso   1.000  H
  F2       1.0000 0.41468  0.29975  0.53524  Biso   1.000  F
  F3       1.0000 0.41466  0.29971  0.53524  Biso   1.000  F
  H22      1.0000 0.91376  0.93691  0.58112  Biso   1.000  H
  H23      1.0000 0.88708  0.99992  0.58055  Biso   1.000  H
  N5       1.0000 0.92927  0.06964  0.55254  Biso   1.000  N
  N6       1.0000 0.92925  0.06960  0.55254  Biso   1.000  N
  N7       1.0000 0.93039  0.85965  0.55254  Biso   1.000  N
  N8       1.0000 0.93037  0.85961  0.55254  Biso   1.000  N
  H24      1.0000 0.00006  0.88713  0.58055  Biso   1.000  H
  C44      1.0000 0.12835  0.07773  0.86913  Biso   1.000  C
  C45      1.0000 0.13117  0.16124  0.84291  Biso   1.000  C
  C46      1.0000 0.13115  0.16120  0.84291  Biso   1.000  C
  C47      1.0000 0.12996  0.99923  0.90152  Biso   1.000  C
  C48      1.0000 0.88457  0.07443  0.53914  Biso   1.000  C
  C49      1.0000 0.92558  0.81013  0.53914  Biso   1.000  C
  H25      1.0000 0.11349  0.07715  0.90972  Biso   1.000  H
  H26      1.0000 0.11347  0.07711  0.90972  Biso   1.000  H
  H27      1.0000 0.13466  0.18435  0.80965  Biso   1.000  H
  N9       1.0000 0.12058  0.16894  0.89984  Biso   1.000  N
  H28      1.0000 0.13464  0.18431  0.80965  Biso   1.000  H
  N10      1.0000 0.12057  0.16890  0.89984  Biso   1.000  N
  N11      1.0000 0.14826  0.97072  0.89526  Biso   1.000  N
  H29      1.0000 0.10915  0.99452  0.93825  Biso   1.000  H
  H30      1.0000 0.85308  0.04013  0.54464  Biso   1.000  H
  C50      1.0000 0.88287  0.11253  0.58821  Biso   1.000  C
  C51      1.0000 0.88668  0.09233  0.47011  Biso   1.000  C
  H31      1.0000 0.95987  0.81293  0.54464  Biso   1.000  H
  C52      1.0000 0.88746  0.77035  0.58821  Biso   1.000  C
  C53      1.0000 0.90766  0.79434  0.47011  Biso   1.000  C
  C54      1.0000 0.88744  0.77031  0.58821  Biso   1.000  C
  C55      1.0000 0.90764  0.79430  0.47011  Biso   1.000  C
  C56      1.0000 0.12097  0.21704  0.91015  Biso   1.000  C
  C57      1.0000 0.12095  0.21700  0.91015  Biso   1.000  C
  C58      1.0000 0.13676  0.93032  0.94201  Biso   1.000  C
  N12      1.0000 0.88047  0.09014  0.65155  Biso   1.000  N
  H32      1.0000 0.91408  0.14714  0.58445  Biso   1.000  H
  C59      1.0000 0.83475  0.11532  0.57756  Biso   1.000  C
  N13      1.0000 0.88046  0.09011  0.65155  Biso   1.000  N
  C60      1.0000 0.93266  0.12874  0.44356  Biso   1.000  C
  C61      1.0000 0.84437  0.06964  0.43073  Biso   1.000  C
  C62      1.0000 0.93265  0.12870  0.44356  Biso   1.000  C
  C63      1.0000 0.84435  0.06960  0.43073  Biso   1.000  C
  N14      1.0000 0.90986  0.79032  0.65155  Biso   1.000  N
  H33      1.0000 0.85287  0.76694  0.58445  Biso   1.000  H
  C64      1.0000 0.88469  0.71945  0.57756  Biso   1.000  C
  C65      1.0000 0.88467  0.71941  0.57756  Biso   1.000  C
  C66      1.0000 0.87126  0.80392  0.44356  Biso   1.000  C
  C67      1.0000 0.93037  0.77472  0.43073  Biso   1.000  C
  C68      1.0000 0.06966  0.20643  0.94201  Biso   1.000  C
  H34      1.0000 0.12364  0.23322  0.86716  Biso   1.000  H
  C69      1.0000 0.16618  0.25184  0.94804  Biso   1.000  C
  C70      1.0000 0.16616  0.25181  0.94804  Biso   1.000  C
  H35      1.0000 0.12138  0.93653  0.98135  Biso   1.000  H
  C71      1.0000 0.09609  0.87904  0.91015  Biso   1.000  C
  C72      1.0000 0.18537  0.92982  0.96144  Biso   1.000  C
  C73      1.0000 0.09607  0.87900  0.91015  Biso   1.000  C
  C74      1.0000 0.91786  0.11333  0.68823  Biso   1.000  C
  C75      1.0000 0.83576  0.15664  0.54685  Biso   1.000  C
  C76      1.0000 0.78758  0.07535  0.59424  Biso   1.000  C
  C77      1.0000 0.83574  0.15660  0.54685  Biso   1.000  C
  C78      1.0000 0.78756  0.07531  0.59424  Biso   1.000  C
  H36      1.0000 0.96286  0.14464  0.46925  Biso   1.000  H
  C79      1.0000 0.93476  0.14223  0.37795  Biso   1.000  C
  H37      1.0000 0.96284  0.14461  0.46925  Biso   1.000  H
  C80      1.0000 0.84627  0.08413  0.36754  Biso   1.000  C
  H38      1.0000 0.81285  0.04312  0.44765  Biso   1.000  H
  C81      1.0000 0.88667  0.80453  0.68823  Biso   1.000  C
  C82      1.0000 0.84335  0.67913  0.54685  Biso   1.000  C
  C83      1.0000 0.92466  0.71224  0.59424  Biso   1.000  C
  C84      1.0000 0.92464  0.71221  0.59424  Biso   1.000  C
  H39      1.0000 0.85537  0.81822  0.46925  Biso   1.000  H
  C85      1.0000 0.85777  0.79254  0.37795  Biso   1.000  C
  C86      1.0000 0.85775  0.79250  0.37795  Biso   1.000  C
  C87      1.0000 0.91586  0.76215  0.36754  Biso   1.000  C
  H40      1.0000 0.95686  0.76973  0.44765  Biso   1.000  H
  C88      1.0000 0.91584  0.76211  0.36754  Biso   1.000  C
  N15      1.0000 0.02925  0.17753  0.89526  Biso   1.000  N
  H41      1.0000 0.06348  0.18485  0.98135  Biso   1.000  H
  C89      1.0000 0.07017  0.25552  0.96144  Biso   1.000  C
  H42      1.0000 0.06346  0.18481  0.98135  Biso   1.000  H
  C90      1.0000 0.20408  0.29603  0.91565  Biso   1.000  C
  C91      1.0000 0.17368  0.24035  0.00925  Biso   1.000  C
  C92      1.0000 0.17366  0.24031  0.00925  Biso   1.000  C
  N16      1.0000 0.04835  0.87942  0.89984  Biso   1.000  N
  H43      1.0000 0.10956  0.87632  0.86716  Biso   1.000  H
  C93      1.0000 0.08565  0.83382  0.94804  Biso   1.000  C
  C94      1.0000 0.21807  0.93163  0.91565  Biso   1.000  C
  C95      1.0000 0.19587  0.92745  0.02372  Biso   1.000  C
  C96      1.0000 0.19585  0.92741  0.02372  Biso   1.000  C
  H44      1.0000 0.94557  0.14553  0.67502  Biso   1.000  H
  C97      1.0000 0.92067  0.09195  0.75316  Biso   1.000  C
  C98      1.0000 0.92065  0.09191  0.75316  Biso   1.000  C
  H45      1.0000 0.86775  0.18512  0.53495  Biso   1.000  H
  C99      1.0000 0.79078  0.15745  0.53292  Biso   1.000  C
  C100     1.0000 0.79077  0.15741  0.53292  Biso   1.000  C
  C101     1.0000 0.74149  0.07485  0.57953  Biso   1.000  C
  H46      1.0000 0.78567  0.04683  0.61631  Biso   1.000  H
  C102     1.0000 0.74147  0.07481  0.57953  Biso   1.000  C
  H47      1.0000 0.96624  0.16722  0.35906  Biso   1.000  H
  C103     1.0000 0.89287  0.11992  0.34363  Biso   1.000  C
  H48      1.0000 0.81638  0.06983  0.34151  Biso   1.000  H
  H49      1.0000 0.85449  0.80005  0.67502  Biso   1.000  H
  C104     1.0000 0.90805  0.82872  0.75316  Biso   1.000  C
  H50      1.0000 0.85447  0.80001  0.67502  Biso   1.000  H
  H51      1.0000 0.81486  0.68262  0.53495  Biso   1.000  H
  C105     1.0000 0.84255  0.63333  0.53292  Biso   1.000  C
  C106     1.0000 0.92516  0.66664  0.57953  Biso   1.000  C
  H52      1.0000 0.95316  0.73884  0.61631  Biso   1.000  H
  H53      1.0000 0.95315  0.73880  0.61631  Biso   1.000  H
  H54      1.0000 0.83276  0.79902  0.35906  Biso   1.000  H
  C107     1.0000 0.88005  0.77292  0.34363  Biso   1.000  C
  H55      1.0000 0.93016  0.74655  0.34151  Biso   1.000  H
  H56      1.0000 0.93014  0.74651  0.34151  Biso   1.000  H
  C108     1.0000 0.00077  0.13073  0.90152  Biso   1.000  C
  C109     1.0000 0.06838  0.28645  0.91565  Biso   1.000  C
  C110     1.0000 0.06836  0.28641  0.91565  Biso   1.000  C
  C111     1.0000 0.07258  0.26844  0.02372  Biso   1.000  C
  C112     1.0000 0.07256  0.26840  0.02372  Biso   1.000  C
  C113     1.0000 0.24818  0.32735  0.94934  Biso   1.000  C
  H57      1.0000 0.19928  0.30362  0.87265  Biso   1.000  H
  C114     1.0000 0.24816  0.32731  0.94934  Biso   1.000  C
  H58      1.0000 0.14826  0.20942  0.02854  Biso   1.000  H
  C115     1.0000 0.21758  0.27285  0.04391  Biso   1.000  C
  C116     1.0000 0.21756  0.27281  0.04391  Biso   1.000  C
  C117     1.0000 0.03008  0.86885  0.84291  Biso   1.000  C
  C118     1.0000 0.03006  0.86881  0.84291  Biso   1.000  C
  C119     1.0000 0.09198  0.79595  0.91565  Biso   1.000  C
  C120     1.0000 0.09196  0.79591  0.91565  Biso   1.000  C
  C121     1.0000 0.06668  0.82634  0.00925  Biso   1.000  C
  C122     1.0000 0.06666  0.82630  0.00925  Biso   1.000  C
  C123     1.0000 0.26279  0.93105  0.93102  Biso   1.000  C
  H59      1.0000 0.21047  0.93343  0.87164  Biso   1.000  H
  C124     1.0000 0.26277  0.93101  0.93102  Biso   1.000  C
  H60      1.0000 0.17276  0.92591  0.05591  Biso   1.000  H
  C125     1.0000 0.24056  0.92714  0.04203  Biso   1.000  C
  C126     1.0000 0.24054  0.92710  0.04203  Biso   1.000  C
  C127     1.0000 0.88257  0.04143  0.76641  Biso   1.000  C
  C128     1.0000 0.95948  0.12004  0.79606  Biso   1.000  C
  C129     1.0000 0.95946  0.12000  0.79606  Biso   1.000  C
  H61      1.0000 0.79206  0.18642  0.51301  Biso   1.000  H
  C130     1.0000 0.74608  0.11644  0.54825  Biso   1.000  C
  H62      1.0000 0.70906  0.04683  0.59105  Biso   1.000  H
  F4       1.0000 0.89387  0.13134  0.27923  Biso   1.000  F
  F5       1.0000 0.89385  0.13131  0.27923  Biso   1.000  F
  C131     1.0000 0.95857  0.84114  0.76641  Biso   1.000  C
  C132     1.0000 0.87996  0.83945  0.79606  Biso   1.000  C
  C133     1.0000 0.87994  0.83941  0.79606  Biso   1.000  C
  H63      1.0000 0.81356  0.60562  0.51301  Biso   1.000  H
  C134     1.0000 0.88357  0.62965  0.54825  Biso   1.000  C
  C135     1.0000 0.88355  0.62961  0.54825  Biso   1.000  C
  H64      1.0000 0.95316  0.66223  0.59105  Biso   1.000  H
  F6       1.0000 0.86865  0.76253  0.27923  Biso   1.000  F
  H65      1.0000 0.00547  0.11463  0.93825  Biso   1.000  H
  C136     1.0000 0.96047  0.09884  0.85631  Biso   1.000  C
  C137     1.0000 0.96045  0.09881  0.85631  Biso   1.000  C
  C138     1.0000 0.06897  0.33172  0.93102  Biso   1.000  C
  H66      1.0000 0.06655  0.27702  0.87164  Biso   1.000  H
  H67      1.0000 0.07406  0.24682  0.05591  Biso   1.000  H
  C139     1.0000 0.07287  0.31343  0.04203  Biso   1.000  C
  H68      1.0000 0.27507  0.35663  0.92885  Biso   1.000  H
  C140     1.0000 0.25386  0.31654  0.01301  Biso   1.000  C
  C141     1.0000 0.25384  0.31650  0.01301  Biso   1.000  C
  H69      1.0000 0.22226  0.26522  0.08705  Biso   1.000  H
  C142     1.0000 0.97927  0.86195  0.82744  Biso   1.000  C
  C143     1.0000 0.97925  0.86191  0.82744  Biso   1.000  C
  H70      1.0000 0.04966  0.86532  0.80965  Biso   1.000  H
  C144     1.0000 0.07918  0.75184  0.94934  Biso   1.000  C
  H71      1.0000 0.10437  0.80074  0.87265  Biso   1.000  H
  H72      1.0000 0.10435  0.80070  0.87265  Biso   1.000  H
  H73      1.0000 0.06115  0.85171  0.02854  Biso   1.000  H
  C145     1.0000 0.05524  0.78242  0.04391  Biso   1.000  C
  C146     1.0000 0.27208  0.93044  0.99634  Biso   1.000  C
  H74      1.0000 0.28527  0.93094  0.89902  Biso   1.000  H
  H75      1.0000 0.24778  0.92473  0.08604  Biso   1.000  H
  H76      1.0000 0.85726  0.02162  0.73513  Biso   1.000  H
  C147     1.0000 0.88268  0.02073  0.82744  Biso   1.000  C
  H77      1.0000 0.98565  0.15373  0.78502  Biso   1.000  H
  F7       1.0000 0.70026  0.11494  0.53524  Biso   1.000  F
  F8       1.0000 0.70024  0.11490  0.53524  Biso   1.000  F
  H78      1.0000 0.97835  0.83562  0.73513  Biso   1.000  H
  C148     1.0000 0.90118  0.86164  0.85631  Biso   1.000  C
  H79      1.0000 0.84627  0.83194  0.78502  Biso   1.000  H
  C149     1.0000 0.90116  0.86160  0.85631  Biso   1.000  C
  H80      1.0000 0.84625  0.83190  0.78502  Biso   1.000  H
  F9       1.0000 0.88508  0.58535  0.53524  Biso   1.000  F
  F10      1.0000 0.88506  0.58531  0.53524  Biso   1.000  F
  C150     1.0000 0.92225  0.05063  0.86913  Biso   1.000  C
  C151     1.0000 0.06959  0.34164  0.99634  Biso   1.000  C
  H81      1.0000 0.06906  0.35433  0.89902  Biso   1.000  H
  C152     1.0000 0.06957  0.34160  0.99634  Biso   1.000  C
  H82      1.0000 0.07524  0.32302  0.08604  Biso   1.000  H
  F11      1.0000 0.29757  0.34984  0.04242  Biso   1.000  F
  F12      1.0000 0.29755  0.34981  0.04242  Biso   1.000  F
  C153     1.0000 0.94936  0.87164  0.86913  Biso   1.000  C
  C154     1.0000 0.94935  0.87161  0.86913  Biso   1.000  C
  H83      1.0000 0.08156  0.72493  0.92885  Biso   1.000  H
  C155     1.0000 0.06265  0.74613  0.01301  Biso   1.000  C
  H84      1.0000 0.04298  0.77774  0.08705  Biso   1.000  H
  H85      1.0000 0.04296  0.77771  0.08705  Biso   1.000  H
  F13      1.0000 0.31576  0.92944  0.01032  Biso   1.000  F
  F14      1.0000 0.31574  0.92940  0.01032  Biso   1.000  F
  C156     1.0000 0.83877  0.96995  0.84291  Biso   1.000  C
  C157     1.0000 0.83875  0.96991  0.84291  Biso   1.000  C
  C158     1.0000 0.86926  0.87003  0.90152  Biso   1.000  C
  H86      1.0000 0.92287  0.03633  0.90972  Biso   1.000  H
  F15      1.0000 0.07056  0.38633  0.01032  Biso   1.000  F
  H87      1.0000 0.96367  0.88652  0.90972  Biso   1.000  H
  F16      1.0000 0.05226  0.70243  0.04242  Biso   1.000  F
  N17      1.0000 0.83107  0.95163  0.89984  Biso   1.000  N
  H88      1.0000 0.81568  0.95033  0.80965  Biso   1.000  H
  N18      1.0000 0.82247  0.85171  0.89526  Biso   1.000  N
  H89      1.0000 0.88538  0.89085  0.93825  Biso   1.000  H
  H90      1.0000 0.88536  0.89081  0.93825  Biso   1.000  H
  C159     1.0000 0.78295  0.90392  0.91015  Biso   1.000  C
  C160     1.0000 0.79358  0.86325  0.94201  Biso   1.000  C
  C161     1.0000 0.79356  0.86321  0.94201  Biso   1.000  C
  H91      1.0000 0.76677  0.89042  0.86716  Biso   1.000  H
  C162     1.0000 0.74816  0.91434  0.94804  Biso   1.000  C
  C163     1.0000 0.74814  0.91430  0.94804  Biso   1.000  C
  H92      1.0000 0.81517  0.87862  0.98135  Biso   1.000  H
  C164     1.0000 0.74447  0.81461  0.96144  Biso   1.000  C
  C165     1.0000 0.70394  0.90802  0.91565  Biso   1.000  C
  C166     1.0000 0.75969  0.93335  0.00925  Biso   1.000  C
  C167     1.0000 0.75967  0.93331  0.00925  Biso   1.000  C
  C168     1.0000 0.71355  0.78192  0.91565  Biso   1.000  C
  C169     1.0000 0.73157  0.80415  0.02372  Biso   1.000  C
  C170     1.0000 0.73155  0.80411  0.02372  Biso   1.000  C
  C171     1.0000 0.67267  0.92082  0.94934  Biso   1.000  C
  H93      1.0000 0.69636  0.89564  0.87265  Biso   1.000  H
  H94      1.0000 0.79058  0.93883  0.02854  Biso   1.000  H
  C172     1.0000 0.72718  0.94473  0.04391  Biso   1.000  C
  C173     1.0000 0.66827  0.73723  0.93102  Biso   1.000  C
  H95      1.0000 0.72297  0.78955  0.87164  Biso   1.000  H
  H96      1.0000 0.72296  0.78951  0.87164  Biso   1.000  H
  H97      1.0000 0.75316  0.82722  0.05591  Biso   1.000  H
  C174     1.0000 0.68657  0.75942  0.04203  Biso   1.000  C
  H98      1.0000 0.64337  0.91844  0.92885  Biso   1.000  H
  H99      1.0000 0.64335  0.91840  0.92885  Biso   1.000  H
  C175     1.0000 0.68345  0.93734  0.01301  Biso   1.000  C
  H100     1.0000 0.73476  0.95704  0.08705  Biso   1.000  H
  C176     1.0000 0.65837  0.72792  0.99634  Biso   1.000  C
  H101     1.0000 0.64567  0.71474  0.89902  Biso   1.000  H
  H102     1.0000 0.67696  0.75222  0.08604  Biso   1.000  H
  F17      1.0000 0.65018  0.94772  0.04242  Biso   1.000  F
  F18      1.0000 0.61366  0.68423  0.01032  Biso   1.000  F
  C177     1.0000 0.18986  0.11544  0.53914  Biso   1.000  C
  C178     1.0000 0.20566  0.11333  0.47011  Biso   1.000  C
  C179     1.0000 0.22967  0.11713  0.58821  Biso   1.000  C
  N19      1.0000 0.14036  0.07075  0.55254  Biso   1.000  N
  H103     1.0000 0.18709  0.14694  0.54464  Biso   1.000  H
  N20      1.0000 0.14034  0.07071  0.55254  Biso   1.000  N
  H104     1.0000 0.18707  0.14691  0.54464  Biso   1.000  H
  C180     1.0000 0.22526  0.15564  0.43073  Biso   1.000  C
  C181     1.0000 0.22524  0.15561  0.43073  Biso   1.000  C
  C182     1.0000 0.19608  0.06734  0.44356  Biso   1.000  C
  C183     1.0000 0.19606  0.06730  0.44356  Biso   1.000  C
  C184     1.0000 0.18984  0.11540  0.53914  Biso   1.000  C
  H105     1.0000 0.23305  0.08593  0.58445  Biso   1.000  H
  C185     1.0000 0.28057  0.16523  0.57756  Biso   1.000  C
  N21      1.0000 0.20966  0.11954  0.65155  Biso   1.000  N
  N22      1.0000 0.20964  0.11950  0.65155  Biso   1.000  N
  C186     1.0000 0.10458  0.07865  0.57225  Biso   1.000  C
  C187     1.0000 0.10456  0.07861  0.57225  Biso   1.000  C
  C188     1.0000 0.23788  0.15373  0.36754  Biso   1.000  C
  H106     1.0000 0.23026  0.18715  0.44765  Biso   1.000  H
  H107     1.0000 0.23024  0.18711  0.44765  Biso   1.000  H
  C189     1.0000 0.20747  0.06523  0.37795  Biso   1.000  C
  H108     1.0000 0.18177  0.03714  0.46925  Biso   1.000  H
  H109     1.0000 0.18175  0.03710  0.46925  Biso   1.000  H
  C190     1.0000 0.32086  0.16423  0.54685  Biso   1.000  C
  C191     1.0000 0.28778  0.21244  0.59424  Biso   1.000  C
  C192     1.0000 0.28776  0.21241  0.59424  Biso   1.000  C
  C193     1.0000 0.19547  0.08213  0.68823  Biso   1.000  C
  C194     1.0000 0.05098  0.03744  0.58271  Biso   1.000  C
  H110     1.0000 0.11287  0.11295  0.58055  Biso   1.000  H
  C195     1.0000 0.05097  0.03741  0.58271  Biso   1.000  C
  H111     1.0000 0.11285  0.11291  0.58055  Biso   1.000  H
  C196     1.0000 0.22705  0.10712  0.34363  Biso   1.000  C
  H112     1.0000 0.25345  0.18362  0.34151  Biso   1.000  H
  H113     1.0000 0.20098  0.03373  0.35906  Biso   1.000  H
  H114     1.0000 0.31737  0.13223  0.53495  Biso   1.000  H
  C197     1.0000 0.36666  0.20922  0.53292  Biso   1.000  C
  H115     1.0000 0.26117  0.21432  0.61631  Biso   1.000  H
  C198     1.0000 0.33337  0.25855  0.57953  Biso   1.000  C
  C199     1.0000 0.33335  0.25851  0.57953  Biso   1.000  C
  H116     1.0000 0.19997  0.05442  0.67502  Biso   1.000  H
  C200     1.0000 0.17127  0.07934  0.75316  Biso   1.000  C
  C201     1.0000 0.01378  0.05105  0.58214  Biso   1.000  C
  C202     1.0000 0.01376  0.05101  0.58214  Biso   1.000  C
  C203     1.0000 0.03727  0.98624  0.58214  Biso   1.000  C
  C204     1.0000 0.03725  0.98620  0.58214  Biso   1.000  C
  F19      1.0000 0.23748  0.10613  0.27923  Biso   1.000  F
  H117     1.0000 0.39435  0.20792  0.51301  Biso   1.000  H
  C205     1.0000 0.37037  0.25395  0.54825  Biso   1.000  C
  C206     1.0000 0.37035  0.25391  0.54825  Biso   1.000  C
  H118     1.0000 0.33778  0.29094  0.59105  Biso   1.000  H
  C207     1.0000 0.15886  0.11743  0.76641  Biso   1.000  C
  C208     1.0000 0.16058  0.04055  0.79606  Biso   1.000  C
  C209     1.0000 0.16056  0.04051  0.79606  Biso   1.000  C
  H119     1.0000 0.02317  0.08623  0.58112  Biso   1.000  H
  C210     1.0000 0.96255  0.01353  0.58271  Biso   1.000  C
  C211     1.0000 0.98646  0.94903  0.58271  Biso   1.000  C
  H120     1.0000 0.06307  0.97685  0.58112  Biso   1.000  H
  H121     1.0000 0.06305  0.97681  0.58112  Biso   1.000  H
  F20      1.0000 0.41468  0.29975  0.53524  Biso   1.000  F
  F21      1.0000 0.41466  0.29971  0.53524  Biso   1.000  F
  H122     1.0000 0.16437  0.14273  0.73513  Biso   1.000  H
  C212     1.0000 0.13805  0.11732  0.82744  Biso   1.000  C
  C213     1.0000 0.13835  0.03951  0.85631  Biso   1.000  C
  H123     1.0000 0.16808  0.01433  0.78502  Biso   1.000  H
  C214     1.0000 0.94898  0.96275  0.58214  Biso   1.000  C
  C215     1.0000 0.94896  0.96271  0.58214  Biso   1.000  C
  C216     1.0000 0.92136  0.02595  0.57225  Biso   1.000  C
  C217     1.0000 0.92135  0.02591  0.57225  Biso   1.000  C
  C218     1.0000 0.97408  0.89545  0.57225  Biso   1.000  C
  C219     1.0000 0.97406  0.89541  0.57225  Biso   1.000  C
  C220     1.0000 0.12835  0.07773  0.86913  Biso   1.000  C
  C221     1.0000 0.13117  0.16124  0.84291  Biso   1.000  C
  C222     1.0000 0.13115  0.16120  0.84291  Biso   1.000  C
  C223     1.0000 0.12996  0.99923  0.90152  Biso   1.000  C
  H124     1.0000 0.91376  0.93691  0.58112  Biso   1.000  H
  H125     1.0000 0.88708  0.99992  0.58055  Biso   1.000  H
  N23      1.0000 0.92927  0.06964  0.55254  Biso   1.000  N
  N24      1.0000 0.92925  0.06960  0.55254  Biso   1.000  N
  N25      1.0000 0.93039  0.85965  0.55254  Biso   1.000  N
  N26      1.0000 0.93037  0.85961  0.55254  Biso   1.000  N
  H126     1.0000 0.00006  0.88713  0.58055  Biso   1.000  H
  H127     1.0000 0.11349  0.07715  0.90972  Biso   1.000  H
  H128     1.0000 0.11347  0.07711  0.90972  Biso   1.000  H
  H129     1.0000 0.13466  0.18435  0.80965  Biso   1.000  H
  N27      1.0000 0.12058  0.16894  0.89984  Biso   1.000  N
  H130     1.0000 0.13464  0.18431  0.80965  Biso   1.000  H
  N28      1.0000 0.12057  0.16890  0.89984  Biso   1.000  N
  N29      1.0000 0.14826  0.97072  0.89526  Biso   1.000  N
  H131     1.0000 0.10915  0.99452  0.93825  Biso   1.000  H
  C224     1.0000 0.88457  0.07443  0.53914  Biso   1.000  C
  C225     1.0000 0.92558  0.81013  0.53914  Biso   1.000  C
  C226     1.0000 0.12097  0.21704  0.91015  Biso   1.000  C
  C227     1.0000 0.12095  0.21700  0.91015  Biso   1.000  C
  C228     1.0000 0.13676  0.93032  0.94201  Biso   1.000  C
  H132     1.0000 0.85308  0.04013  0.54464  Biso   1.000  H
  C229     1.0000 0.88287  0.11253  0.58821  Biso   1.000  C
  C230     1.0000 0.88668  0.09233  0.47011  Biso   1.000  C
  H133     1.0000 0.95987  0.81293  0.54464  Biso   1.000  H
  C231     1.0000 0.88746  0.77035  0.58821  Biso   1.000  C
  C232     1.0000 0.90766  0.79434  0.47011  Biso   1.000  C
  C233     1.0000 0.88744  0.77031  0.58821  Biso   1.000  C
  C234     1.0000 0.90764  0.79430  0.47011  Biso   1.000  C
  C235     1.0000 0.06966  0.20643  0.94201  Biso   1.000  C
  H134     1.0000 0.12364  0.23322  0.86716  Biso   1.000  H
  C236     1.0000 0.16618  0.25184  0.94804  Biso   1.000  C
  C237     1.0000 0.16616  0.25181  0.94804  Biso   1.000  C
  H135     1.0000 0.12138  0.93653  0.98135  Biso   1.000  H
  C238     1.0000 0.09609  0.87904  0.91015  Biso   1.000  C
  C239     1.0000 0.18537  0.92982  0.96144  Biso   1.000  C
  C240     1.0000 0.09607  0.87900  0.91015  Biso   1.000  C
  N30      1.0000 0.88047  0.09014  0.65155  Biso   1.000  N
  H136     1.0000 0.91408  0.14714  0.58445  Biso   1.000  H
  C241     1.0000 0.83475  0.11532  0.57756  Biso   1.000  C
  N31      1.0000 0.88046  0.09011  0.65155  Biso   1.000  N
  C242     1.0000 0.93266  0.12874  0.44356  Biso   1.000  C
  C243     1.0000 0.84437  0.06964  0.43073  Biso   1.000  C
  C244     1.0000 0.93265  0.12870  0.44356  Biso   1.000  C
  C245     1.0000 0.84435  0.06960  0.43073  Biso   1.000  C
  N32      1.0000 0.90986  0.79032  0.65155  Biso   1.000  N
  H137     1.0000 0.85287  0.76694  0.58445  Biso   1.000  H
  C246     1.0000 0.88469  0.71945  0.57756  Biso   1.000  C
  C247     1.0000 0.88467  0.71941  0.57756  Biso   1.000  C
  C248     1.0000 0.87126  0.80392  0.44356  Biso   1.000  C
  C249     1.0000 0.93037  0.77472  0.43073  Biso   1.000  C
  N33      1.0000 0.02925  0.17753  0.89526  Biso   1.000  N
  C250     1.0000 0.07017  0.25552  0.96144  Biso   1.000  C
  H138     1.0000 0.06348  0.18485  0.98135  Biso   1.000  H
  H139     1.0000 0.06346  0.18481  0.98135  Biso   1.000  H
  C251     1.0000 0.20408  0.29603  0.91565  Biso   1.000  C
  C252     1.0000 0.17368  0.24035  0.00925  Biso   1.000  C
  C253     1.0000 0.17366  0.24031  0.00925  Biso   1.000  C
  N34      1.0000 0.04835  0.87942  0.89984  Biso   1.000  N
  H140     1.0000 0.10956  0.87632  0.86716  Biso   1.000  H
  C254     1.0000 0.08565  0.83382  0.94804  Biso   1.000  C
  C255     1.0000 0.21807  0.93163  0.91565  Biso   1.000  C
  C256     1.0000 0.19587  0.92745  0.02372  Biso   1.000  C
  C257     1.0000 0.19585  0.92741  0.02372  Biso   1.000  C
  C258     1.0000 0.91786  0.11333  0.68823  Biso   1.000  C
  C259     1.0000 0.83576  0.15664  0.54685  Biso   1.000  C
  C260     1.0000 0.78758  0.07535  0.59424  Biso   1.000  C
  C261     1.0000 0.83574  0.15660  0.54685  Biso   1.000  C
  C262     1.0000 0.78756  0.07531  0.59424  Biso   1.000  C
  H141     1.0000 0.96286  0.14464  0.46925  Biso   1.000  H
  C263     1.0000 0.93476  0.14223  0.37795  Biso   1.000  C
  H142     1.0000 0.96284  0.14461  0.46925  Biso   1.000  H
  C264     1.0000 0.84627  0.08413  0.36754  Biso   1.000  C
  H143     1.0000 0.81285  0.04312  0.44765  Biso   1.000  H
  C265     1.0000 0.88667  0.80453  0.68823  Biso   1.000  C
  C266     1.0000 0.84335  0.67913  0.54685  Biso   1.000  C
  C267     1.0000 0.92466  0.71224  0.59424  Biso   1.000  C
  C268     1.0000 0.92464  0.71221  0.59424  Biso   1.000  C
  H144     1.0000 0.85537  0.81822  0.46925  Biso   1.000  H
  C269     1.0000 0.85777  0.79254  0.37795  Biso   1.000  C
  C270     1.0000 0.85775  0.79250  0.37795  Biso   1.000  C
  C271     1.0000 0.91586  0.76215  0.36754  Biso   1.000  C
  H145     1.0000 0.95686  0.76973  0.44765  Biso   1.000  H
  C272     1.0000 0.91584  0.76211  0.36754  Biso   1.000  C
  C273     1.0000 0.00077  0.13073  0.90152  Biso   1.000  C
  C274     1.0000 0.06838  0.28645  0.91565  Biso   1.000  C
  C275     1.0000 0.06836  0.28641  0.91565  Biso   1.000  C
  C276     1.0000 0.07258  0.26844  0.02372  Biso   1.000  C
  C277     1.0000 0.07256  0.26840  0.02372  Biso   1.000  C
  H146     1.0000 0.19928  0.30362  0.87265  Biso   1.000  H
  C278     1.0000 0.24818  0.32735  0.94934  Biso   1.000  C
  C279     1.0000 0.24816  0.32731  0.94934  Biso   1.000  C
  H147     1.0000 0.14826  0.20942  0.02854  Biso   1.000  H
  C280     1.0000 0.21758  0.27285  0.04391  Biso   1.000  C
  C281     1.0000 0.21756  0.27281  0.04391  Biso   1.000  C
  C282     1.0000 0.03008  0.86885  0.84291  Biso   1.000  C
  C283     1.0000 0.03006  0.86881  0.84291  Biso   1.000  C
  C284     1.0000 0.09198  0.79595  0.91565  Biso   1.000  C
  C285     1.0000 0.09196  0.79591  0.91565  Biso   1.000  C
  C286     1.0000 0.06668  0.82634  0.00925  Biso   1.000  C
  C287     1.0000 0.06666  0.82630  0.00925  Biso   1.000  C
  C288     1.0000 0.26279  0.93105  0.93102  Biso   1.000  C
  H148     1.0000 0.21047  0.93343  0.87164  Biso   1.000  H
  C289     1.0000 0.26277  0.93101  0.93102  Biso   1.000  C
  H149     1.0000 0.17276  0.92591  0.05591  Biso   1.000  H
  C290     1.0000 0.24056  0.92714  0.04203  Biso   1.000  C
  C291     1.0000 0.24054  0.92710  0.04203  Biso   1.000  C
  H150     1.0000 0.94557  0.14553  0.67502  Biso   1.000  H
  C292     1.0000 0.92067  0.09195  0.75316  Biso   1.000  C
  C293     1.0000 0.92065  0.09191  0.75316  Biso   1.000  C
  H151     1.0000 0.86775  0.18512  0.53495  Biso   1.000  H
  C294     1.0000 0.79078  0.15745  0.53292  Biso   1.000  C
  C295     1.0000 0.79077  0.15741  0.53292  Biso   1.000  C
  C296     1.0000 0.74149  0.07485  0.57953  Biso   1.000  C
  H152     1.0000 0.78567  0.04683  0.61631  Biso   1.000  H
  C297     1.0000 0.74147  0.07481  0.57953  Biso   1.000  C
  H153     1.0000 0.96624  0.16722  0.35906  Biso   1.000  H
  C298     1.0000 0.89287  0.11992  0.34363  Biso   1.000  C
  H154     1.0000 0.81638  0.06983  0.34151  Biso   1.000  H
  H155     1.0000 0.85449  0.80005  0.67502  Biso   1.000  H
  C299     1.0000 0.90805  0.82872  0.75316  Biso   1.000  C
  H156     1.0000 0.85447  0.80001  0.67502  Biso   1.000  H
  H157     1.0000 0.81486  0.68262  0.53495  Biso   1.000  H
  C300     1.0000 0.84255  0.63333  0.53292  Biso   1.000  C
  C301     1.0000 0.92516  0.66664  0.57953  Biso   1.000  C
  H158     1.0000 0.95316  0.73884  0.61631  Biso   1.000  H
  H159     1.0000 0.95315  0.73880  0.61631  Biso   1.000  H
  H160     1.0000 0.83276  0.79902  0.35906  Biso   1.000  H
  C302     1.0000 0.88005  0.77292  0.34363  Biso   1.000  C
  H161     1.0000 0.93016  0.74655  0.34151  Biso   1.000  H
  H162     1.0000 0.93014  0.74651  0.34151  Biso   1.000  H
  H163     1.0000 0.00547  0.11463  0.93825  Biso   1.000  H
  C303     1.0000 0.96047  0.09884  0.85631  Biso   1.000  C
  C304     1.0000 0.96045  0.09881  0.85631  Biso   1.000  C
  C305     1.0000 0.06897  0.33172  0.93102  Biso   1.000  C
  H164     1.0000 0.06655  0.27702  0.87164  Biso   1.000  H
  H165     1.0000 0.07406  0.24682  0.05591  Biso   1.000  H
  C306     1.0000 0.07287  0.31343  0.04203  Biso   1.000  C
  H166     1.0000 0.27507  0.35663  0.92885  Biso   1.000  H
  C307     1.0000 0.25386  0.31654  0.01301  Biso   1.000  C
  C308     1.0000 0.25384  0.31650  0.01301  Biso   1.000  C
  H167     1.0000 0.22226  0.26522  0.08705  Biso   1.000  H
  C309     1.0000 0.97927  0.86195  0.82744  Biso   1.000  C
  C310     1.0000 0.97925  0.86191  0.82744  Biso   1.000  C
  H168     1.0000 0.04966  0.86532  0.80965  Biso   1.000  H
  C311     1.0000 0.07918  0.75184  0.94934  Biso   1.000  C
  H169     1.0000 0.10437  0.80074  0.87265  Biso   1.000  H
  H170     1.0000 0.10435  0.80070  0.87265  Biso   1.000  H
  H171     1.0000 0.06115  0.85171  0.02854  Biso   1.000  H
  C312     1.0000 0.05524  0.78242  0.04391  Biso   1.000  C
  C313     1.0000 0.27208  0.93044  0.99634  Biso   1.000  C
  H172     1.0000 0.28527  0.93094  0.89902  Biso   1.000  H
  H173     1.0000 0.24778  0.92473  0.08604  Biso   1.000  H
  C314     1.0000 0.88257  0.04143  0.76641  Biso   1.000  C
  C315     1.0000 0.95948  0.12004  0.79606  Biso   1.000  C
  C316     1.0000 0.95946  0.12000  0.79606  Biso   1.000  C
  H174     1.0000 0.79206  0.18642  0.51301  Biso   1.000  H
  C317     1.0000 0.74608  0.11644  0.54825  Biso   1.000  C
  H175     1.0000 0.70906  0.04683  0.59105  Biso   1.000  H
  F22      1.0000 0.89387  0.13134  0.27923  Biso   1.000  F
  F23      1.0000 0.89385  0.13131  0.27923  Biso   1.000  F
  C318     1.0000 0.95857  0.84114  0.76641  Biso   1.000  C
  C319     1.0000 0.87996  0.83945  0.79606  Biso   1.000  C
  C320     1.0000 0.87994  0.83941  0.79606  Biso   1.000  C
  H176     1.0000 0.81356  0.60562  0.51301  Biso   1.000  H
  C321     1.0000 0.88357  0.62965  0.54825  Biso   1.000  C
  C322     1.0000 0.88355  0.62961  0.54825  Biso   1.000  C
  H177     1.0000 0.95316  0.66223  0.59105  Biso   1.000  H
  F24      1.0000 0.86865  0.76253  0.27923  Biso   1.000  F
  C323     1.0000 0.92225  0.05063  0.86913  Biso   1.000  C
  H178     1.0000 0.06906  0.35433  0.89902  Biso   1.000  H
  C324     1.0000 0.06959  0.34164  0.99634  Biso   1.000  C
  C325     1.0000 0.06957  0.34160  0.99634  Biso   1.000  C
  H179     1.0000 0.07524  0.32302  0.08604  Biso   1.000  H
  F25      1.0000 0.29757  0.34984  0.04242  Biso   1.000  F
  F26      1.0000 0.29755  0.34981  0.04242  Biso   1.000  F
  C326     1.0000 0.94936  0.87164  0.86913  Biso   1.000  C
  C327     1.0000 0.94935  0.87161  0.86913  Biso   1.000  C
  H180     1.0000 0.08156  0.72493  0.92885  Biso   1.000  H
  C328     1.0000 0.06265  0.74613  0.01301  Biso   1.000  C
  H181     1.0000 0.04298  0.77774  0.08705  Biso   1.000  H
  H182     1.0000 0.04296  0.77771  0.08705  Biso   1.000  H
  F27      1.0000 0.31576  0.92944  0.01032  Biso   1.000  F
  F28      1.0000 0.31574  0.92940  0.01032  Biso   1.000  F
  H183     1.0000 0.85726  0.02162  0.73513  Biso   1.000  H
  C329     1.0000 0.88268  0.02073  0.82744  Biso   1.000  C
  H184     1.0000 0.98565  0.15373  0.78502  Biso   1.000  H
  F29      1.0000 0.70026  0.11494  0.53524  Biso   1.000  F
  F30      1.0000 0.70024  0.11490  0.53524  Biso   1.000  F
  H185     1.0000 0.97835  0.83562  0.73513  Biso   1.000  H
  C330     1.0000 0.90118  0.86164  0.85631  Biso   1.000  C
  H186     1.0000 0.84627  0.83194  0.78502  Biso   1.000  H
  C331     1.0000 0.90116  0.86160  0.85631  Biso   1.000  C
  H187     1.0000 0.84625  0.83190  0.78502  Biso   1.000  H
  F31      1.0000 0.88508  0.58535  0.53524  Biso   1.000  F
  F32      1.0000 0.88506  0.58531  0.53524  Biso   1.000  F
  H188     1.0000 0.92287  0.03633  0.90972  Biso   1.000  H
  F33      1.0000 0.07056  0.38633  0.01032  Biso   1.000  F
  H189     1.0000 0.96367  0.88652  0.90972  Biso   1.000  H
  F34      1.0000 0.05226  0.70243  0.04242  Biso   1.000  F
  C332     1.0000 0.83877  0.96995  0.84291  Biso   1.000  C
  C333     1.0000 0.83875  0.96991  0.84291  Biso   1.000  C
  C334     1.0000 0.86926  0.87003  0.90152  Biso   1.000  C
  N35      1.0000 0.83107  0.95163  0.89984  Biso   1.000  N
  H190     1.0000 0.81568  0.95033  0.80965  Biso   1.000  H
  N36      1.0000 0.82247  0.85171  0.89526  Biso   1.000  N
  H191     1.0000 0.88538  0.89085  0.93825  Biso   1.000  H
  H192     1.0000 0.88536  0.89081  0.93825  Biso   1.000  H
  C335     1.0000 0.78295  0.90392  0.91015  Biso   1.000  C
  C336     1.0000 0.79358  0.86325  0.94201  Biso   1.000  C
  C337     1.0000 0.79356  0.86321  0.94201  Biso   1.000  C
  H193     1.0000 0.76677  0.89042  0.86716  Biso   1.000  H
  C338     1.0000 0.74816  0.91434  0.94804  Biso   1.000  C
  C339     1.0000 0.74814  0.91430  0.94804  Biso   1.000  C
  H194     1.0000 0.81517  0.87862  0.98135  Biso   1.000  H
  C340     1.0000 0.74447  0.81461  0.96144  Biso   1.000  C
  C341     1.0000 0.70394  0.90802  0.91565  Biso   1.000  C
  C342     1.0000 0.75969  0.93335  0.00925  Biso   1.000  C
  C343     1.0000 0.75967  0.93331  0.00925  Biso   1.000  C
  C344     1.0000 0.71355  0.78192  0.91565  Biso   1.000  C
  C345     1.0000 0.73157  0.80415  0.02372  Biso   1.000  C
  C346     1.0000 0.73155  0.80411  0.02372  Biso   1.000  C
  C347     1.0000 0.67267  0.92082  0.94934  Biso   1.000  C
  H195     1.0000 0.69636  0.89564  0.87265  Biso   1.000  H
  H196     1.0000 0.79058  0.93883  0.02854  Biso   1.000  H
  C348     1.0000 0.72718  0.94473  0.04391  Biso   1.000  C
  C349     1.0000 0.66827  0.73723  0.93102  Biso   1.000  C
  H197     1.0000 0.72297  0.78955  0.87164  Biso   1.000  H
  H198     1.0000 0.72296  0.78951  0.87164  Biso   1.000  H
  H199     1.0000 0.75316  0.82722  0.05591  Biso   1.000  H
  C350     1.0000 0.68657  0.75942  0.04203  Biso   1.000  C
  H200     1.0000 0.64337  0.91844  0.92885  Biso   1.000  H
  H201     1.0000 0.64335  0.91840  0.92885  Biso   1.000  H
  C351     1.0000 0.68345  0.93734  0.01301  Biso   1.000  C
  H202     1.0000 0.73476  0.95704  0.08705  Biso   1.000  H
  C352     1.0000 0.65837  0.72792  0.99634  Biso   1.000  C
  H203     1.0000 0.64567  0.71474  0.89902  Biso   1.000  H
  H204     1.0000 0.67696  0.75222  0.08604  Biso   1.000  H
  F35      1.0000 0.65018  0.94772  0.04242  Biso   1.000  F
  F36      1.0000 0.61366  0.68423  0.01032  Biso   1.000  F
  C353     1.0000 0.18986  0.11544  0.53914  Biso   1.000  C
  C354     1.0000 0.20566  0.11333  0.47011  Biso   1.000  C
  C355     1.0000 0.22967  0.11713  0.58821  Biso   1.000  C
  N37      1.0000 0.14036  0.07075  0.55254  Biso   1.000  N
  H205     1.0000 0.18709  0.14694  0.54464  Biso   1.000  H
  N38      1.0000 0.14034  0.07071  0.55254  Biso   1.000  N
  H206     1.0000 0.18707  0.14691  0.54464  Biso   1.000  H
  C356     1.0000 0.22526  0.15564  0.43073  Biso   1.000  C
  C357     1.0000 0.22524  0.15561  0.43073  Biso   1.000  C
  C358     1.0000 0.19608  0.06734  0.44356  Biso   1.000  C
  C359     1.0000 0.19606  0.06730  0.44356  Biso   1.000  C
  C360     1.0000 0.18984  0.11540  0.53914  Biso   1.000  C
  H207     1.0000 0.23305  0.08593  0.58445  Biso   1.000  H
  C361     1.0000 0.28057  0.16523  0.57756  Biso   1.000  C
  N39      1.0000 0.20966  0.11954  0.65155  Biso   1.000  N
  N40      1.0000 0.20964  0.11950  0.65155  Biso   1.000  N
  C362     1.0000 0.10458  0.07865  0.57225  Biso   1.000  C
  C363     1.0000 0.10456  0.07861  0.57225  Biso   1.000  C
  C364     1.0000 0.23788  0.15373  0.36754  Biso   1.000  C
  H208     1.0000 0.23026  0.18715  0.44765  Biso   1.000  H
  H209     1.0000 0.23024  0.18711  0.44765  Biso   1.000  H
  C365     1.0000 0.20747  0.06523  0.37795  Biso   1.000  C
  H210     1.0000 0.18177  0.03714  0.46925  Biso   1.000  H
  H211     1.0000 0.18175  0.03710  0.46925  Biso   1.000  H
  C366     1.0000 0.32086  0.16423  0.54685  Biso   1.000  C
  C367     1.0000 0.28778  0.21244  0.59424  Biso   1.000  C
  C368     1.0000 0.28776  0.21241  0.59424  Biso   1.000  C
  C369     1.0000 0.19547  0.08213  0.68823  Biso   1.000  C
  C370     1.0000 0.05098  0.03744  0.58271  Biso   1.000  C
  H212     1.0000 0.11287  0.11295  0.58055  Biso   1.000  H
  C371     1.0000 0.05097  0.03741  0.58271  Biso   1.000  C
  H213     1.0000 0.11285  0.11291  0.58055  Biso   1.000  H
  C372     1.0000 0.22705  0.10712  0.34363  Biso   1.000  C
  H214     1.0000 0.25345  0.18362  0.34151  Biso   1.000  H
  H215     1.0000 0.20098  0.03373  0.35906  Biso   1.000  H
  H216     1.0000 0.31737  0.13223  0.53495  Biso   1.000  H
  C373     1.0000 0.36666  0.20922  0.53292  Biso   1.000  C
  H217     1.0000 0.26117  0.21432  0.61631  Biso   1.000  H
  C374     1.0000 0.33337  0.25855  0.57953  Biso   1.000  C
  C375     1.0000 0.33335  0.25851  0.57953  Biso   1.000  C
  H218     1.0000 0.19997  0.05442  0.67502  Biso   1.000  H
  C376     1.0000 0.17127  0.07934  0.75316  Biso   1.000  C
  C377     1.0000 0.03727  0.98624  0.58214  Biso   1.000  C
  C378     1.0000 0.03725  0.98620  0.58214  Biso   1.000  C
  C379     1.0000 0.01378  0.05105  0.58214  Biso   1.000  C
  C380     1.0000 0.01376  0.05101  0.58214  Biso   1.000  C
  F37      1.0000 0.23748  0.10613  0.27923  Biso   1.000  F
  H219     1.0000 0.39435  0.20792  0.51301  Biso   1.000  H
  C381     1.0000 0.37037  0.25395  0.54825  Biso   1.000  C
  C382     1.0000 0.37035  0.25391  0.54825  Biso   1.000  C
  H220     1.0000 0.33778  0.29094  0.59105  Biso   1.000  H
  C383     1.0000 0.15886  0.11743  0.76641  Biso   1.000  C
  C384     1.0000 0.16058  0.04055  0.79606  Biso   1.000  C
  C385     1.0000 0.16056  0.04051  0.79606  Biso   1.000  C
  C386     1.0000 0.98646  0.94903  0.58271  Biso   1.000  C
  H221     1.0000 0.06307  0.97685  0.58112  Biso   1.000  H
  H222     1.0000 0.06305  0.97681  0.58112  Biso   1.000  H
  H223     1.0000 0.02317  0.08623  0.58112  Biso   1.000  H
  C387     1.0000 0.96255  0.01353  0.58271  Biso   1.000  C
  F38      1.0000 0.41468  0.29975  0.53524  Biso   1.000  F
  F39      1.0000 0.41466  0.29971  0.53524  Biso   1.000  F
  H224     1.0000 0.16437  0.14273  0.73513  Biso   1.000  H
  C388     1.0000 0.13805  0.11732  0.82744  Biso   1.000  C
  C389     1.0000 0.13835  0.03951  0.85631  Biso   1.000  C
  H225     1.0000 0.16808  0.01433  0.78502  Biso   1.000  H
  C390     1.0000 0.94898  0.96275  0.58214  Biso   1.000  C
  C391     1.0000 0.97408  0.89545  0.57225  Biso   1.000  C
  C392     1.0000 0.94896  0.96271  0.58214  Biso   1.000  C
  C393     1.0000 0.97406  0.89541  0.57225  Biso   1.000  C
  C394     1.0000 0.92136  0.02595  0.57225  Biso   1.000  C
  C395     1.0000 0.92135  0.02591  0.57225  Biso   1.000  C
  C396     1.0000 0.12835  0.07773  0.86913  Biso   1.000  C
  C397     1.0000 0.13117  0.16124  0.84291  Biso   1.000  C
  C398     1.0000 0.13115  0.16120  0.84291  Biso   1.000  C
  C399     1.0000 0.12996  0.99923  0.90152  Biso   1.000  C
  H226     1.0000 0.91376  0.93691  0.58112  Biso   1.000  H
  N41      1.0000 0.93039  0.85965  0.55254  Biso   1.000  N
  N42      1.0000 0.93037  0.85961  0.55254  Biso   1.000  N
  H227     1.0000 0.00006  0.88713  0.58055  Biso   1.000  H
  H228     1.0000 0.88708  0.99992  0.58055  Biso   1.000  H
  N43      1.0000 0.92927  0.06964  0.55254  Biso   1.000  N
  N44      1.0000 0.92925  0.06960  0.55254  Biso   1.000  N
  H229     1.0000 0.11349  0.07715  0.90972  Biso   1.000  H
  H230     1.0000 0.11347  0.07711  0.90972  Biso   1.000  H
  H231     1.0000 0.13466  0.18435  0.80965  Biso   1.000  H
  N45      1.0000 0.12058  0.16894  0.89984  Biso   1.000  N
  H232     1.0000 0.13464  0.18431  0.80965  Biso   1.000  H
  N46      1.0000 0.12057  0.16890  0.89984  Biso   1.000  N
  N47      1.0000 0.14826  0.97072  0.89526  Biso   1.000  N
  H233     1.0000 0.10915  0.99452  0.93825  Biso   1.000  H
  C400     1.0000 0.92558  0.81013  0.53914  Biso   1.000  C
  C401     1.0000 0.88457  0.07443  0.53914  Biso   1.000  C
  C402     1.0000 0.12097  0.21704  0.91015  Biso   1.000  C
  C403     1.0000 0.12095  0.21700  0.91015  Biso   1.000  C
  C404     1.0000 0.13676  0.93032  0.94201  Biso   1.000  C
  H234     1.0000 0.95987  0.81293  0.54464  Biso   1.000  H
  C405     1.0000 0.88746  0.77035  0.58821  Biso   1.000  C
  C406     1.0000 0.90766  0.79434  0.47011  Biso   1.000  C
  C407     1.0000 0.88744  0.77031  0.58821  Biso   1.000  C
  C408     1.0000 0.90764  0.79430  0.47011  Biso   1.000  C
  H235     1.0000 0.85308  0.04013  0.54464  Biso   1.000  H
  C409     1.0000 0.88287  0.11253  0.58821  Biso   1.000  C
  C410     1.0000 0.88668  0.09233  0.47011  Biso   1.000  C
  C411     1.0000 0.06966  0.20643  0.94201  Biso   1.000  C
  H236     1.0000 0.12364  0.23322  0.86716  Biso   1.000  H
  C412     1.0000 0.16618  0.25184  0.94804  Biso   1.000  C
  C413     1.0000 0.16616  0.25181  0.94804  Biso   1.000  C
  H237     1.0000 0.12138  0.93653  0.98135  Biso   1.000  H
  C414     1.0000 0.09609  0.87904  0.91015  Biso   1.000  C
  C415     1.0000 0.18537  0.92982  0.96144  Biso   1.000  C
  C416     1.0000 0.09607  0.87900  0.91015  Biso   1.000  C
  N48      1.0000 0.90986  0.79032  0.65155  Biso   1.000  N
  H238     1.0000 0.85287  0.76694  0.58445  Biso   1.000  H
  C417     1.0000 0.88469  0.71945  0.57756  Biso   1.000  C
  C418     1.0000 0.88467  0.71941  0.57756  Biso   1.000  C
  C419     1.0000 0.87126  0.80392  0.44356  Biso   1.000  C
  C420     1.0000 0.93037  0.77472  0.43073  Biso   1.000  C
  N49      1.0000 0.88047  0.09014  0.65155  Biso   1.000  N
  H239     1.0000 0.91408  0.14714  0.58445  Biso   1.000  H
  C421     1.0000 0.83475  0.11532  0.57756  Biso   1.000  C
  N50      1.0000 0.88046  0.09011  0.65155  Biso   1.000  N
  C422     1.0000 0.93266  0.12874  0.44356  Biso   1.000  C
  C423     1.0000 0.84437  0.06964  0.43073  Biso   1.000  C
  C424     1.0000 0.93265  0.12870  0.44356  Biso   1.000  C
  C425     1.0000 0.84435  0.06960  0.43073  Biso   1.000  C
  N51      1.0000 0.02925  0.17753  0.89526  Biso   1.000  N
  C426     1.0000 0.07017  0.25552  0.96144  Biso   1.000  C
  H240     1.0000 0.06348  0.18485  0.98135  Biso   1.000  H
  H241     1.0000 0.06346  0.18481  0.98135  Biso   1.000  H
  C427     1.0000 0.20408  0.29603  0.91565  Biso   1.000  C
  C428     1.0000 0.17368  0.24035  0.00925  Biso   1.000  C
  C429     1.0000 0.17366  0.24031  0.00925  Biso   1.000  C
  N52      1.0000 0.04835  0.87942  0.89984  Biso   1.000  N
  H242     1.0000 0.10956  0.87632  0.86716  Biso   1.000  H
  C430     1.0000 0.08565  0.83382  0.94804  Biso   1.000  C
  C431     1.0000 0.21807  0.93163  0.91565  Biso   1.000  C
  C432     1.0000 0.19587  0.92745  0.02372  Biso   1.000  C
  C433     1.0000 0.19585  0.92741  0.02372  Biso   1.000  C
  C434     1.0000 0.88667  0.80453  0.68823  Biso   1.000  C
  C435     1.0000 0.84335  0.67913  0.54685  Biso   1.000  C
  C436     1.0000 0.92466  0.71224  0.59424  Biso   1.000  C
  C437     1.0000 0.92464  0.71221  0.59424  Biso   1.000  C
  H243     1.0000 0.85537  0.81822  0.46925  Biso   1.000  H
  C438     1.0000 0.85777  0.79254  0.37795  Biso   1.000  C
  C439     1.0000 0.85775  0.79250  0.37795  Biso   1.000  C
  C440     1.0000 0.91586  0.76215  0.36754  Biso   1.000  C
  H244     1.0000 0.95686  0.76973  0.44765  Biso   1.000  H
  C441     1.0000 0.91584  0.76211  0.36754  Biso   1.000  C
  C442     1.0000 0.91786  0.11333  0.68823  Biso   1.000  C
  C443     1.0000 0.83576  0.15664  0.54685  Biso   1.000  C
  C444     1.0000 0.78758  0.07535  0.59424  Biso   1.000  C
  C445     1.0000 0.83574  0.15660  0.54685  Biso   1.000  C
  C446     1.0000 0.78756  0.07531  0.59424  Biso   1.000  C
  H245     1.0000 0.96286  0.14464  0.46925  Biso   1.000  H
  C447     1.0000 0.93476  0.14223  0.37795  Biso   1.000  C
  H246     1.0000 0.96284  0.14461  0.46925  Biso   1.000  H
  C448     1.0000 0.84627  0.08413  0.36754  Biso   1.000  C
  H247     1.0000 0.81285  0.04312  0.44765  Biso   1.000  H
  C449     1.0000 0.00077  0.13073  0.90152  Biso   1.000  C
  C450     1.0000 0.06838  0.28645  0.91565  Biso   1.000  C
  C451     1.0000 0.06836  0.28641  0.91565  Biso   1.000  C
  C452     1.0000 0.07258  0.26844  0.02372  Biso   1.000  C
  C453     1.0000 0.07256  0.26840  0.02372  Biso   1.000  C
  H248     1.0000 0.19928  0.30362  0.87265  Biso   1.000  H
  C454     1.0000 0.24818  0.32735  0.94934  Biso   1.000  C
  C455     1.0000 0.24816  0.32731  0.94934  Biso   1.000  C
  H249     1.0000 0.14826  0.20942  0.02854  Biso   1.000  H
  C456     1.0000 0.21758  0.27285  0.04391  Biso   1.000  C
  C457     1.0000 0.21756  0.27281  0.04391  Biso   1.000  C
  C458     1.0000 0.03008  0.86885  0.84291  Biso   1.000  C
  C459     1.0000 0.03006  0.86881  0.84291  Biso   1.000  C
  C460     1.0000 0.09198  0.79595  0.91565  Biso   1.000  C
  C461     1.0000 0.09196  0.79591  0.91565  Biso   1.000  C
  C462     1.0000 0.06668  0.82634  0.00925  Biso   1.000  C
  C463     1.0000 0.06666  0.82630  0.00925  Biso   1.000  C
  C464     1.0000 0.26279  0.93105  0.93102  Biso   1.000  C
  H250     1.0000 0.21047  0.93343  0.87164  Biso   1.000  H
  C465     1.0000 0.26277  0.93101  0.93102  Biso   1.000  C
  H251     1.0000 0.17276  0.92591  0.05591  Biso   1.000  H
  C466     1.0000 0.24056  0.92714  0.04203  Biso   1.000  C
  C467     1.0000 0.24054  0.92710  0.04203  Biso   1.000  C
  H252     1.0000 0.85449  0.80005  0.67502  Biso   1.000  H
  C468     1.0000 0.90805  0.82872  0.75316  Biso   1.000  C
  H253     1.0000 0.85447  0.80001  0.67502  Biso   1.000  H
  H254     1.0000 0.81486  0.68262  0.53495  Biso   1.000  H
  C469     1.0000 0.84255  0.63333  0.53292  Biso   1.000  C
  C470     1.0000 0.92516  0.66664  0.57953  Biso   1.000  C
  H255     1.0000 0.95316  0.73884  0.61631  Biso   1.000  H
  H256     1.0000 0.95315  0.73880  0.61631  Biso   1.000  H
  H257     1.0000 0.83276  0.79902  0.35906  Biso   1.000  H
  C471     1.0000 0.88005  0.77292  0.34363  Biso   1.000  C
  H258     1.0000 0.93016  0.74655  0.34151  Biso   1.000  H
  H259     1.0000 0.93014  0.74651  0.34151  Biso   1.000  H
  H260     1.0000 0.94557  0.14553  0.67502  Biso   1.000  H
  C472     1.0000 0.92067  0.09195  0.75316  Biso   1.000  C
  C473     1.0000 0.92065  0.09191  0.75316  Biso   1.000  C
  H261     1.0000 0.86775  0.18512  0.53495  Biso   1.000  H
  C474     1.0000 0.79078  0.15745  0.53292  Biso   1.000  C
  C475     1.0000 0.79077  0.15741  0.53292  Biso   1.000  C
  C476     1.0000 0.74149  0.07485  0.57953  Biso   1.000  C
  H262     1.0000 0.78567  0.04683  0.61631  Biso   1.000  H
  C477     1.0000 0.74147  0.07481  0.57953  Biso   1.000  C
  H263     1.0000 0.96624  0.16722  0.35906  Biso   1.000  H
  C478     1.0000 0.89287  0.11992  0.34363  Biso   1.000  C
  H264     1.0000 0.81638  0.06983  0.34151  Biso   1.000  H
  H265     1.0000 0.00547  0.11463  0.93825  Biso   1.000  H
  C479     1.0000 0.96047  0.09884  0.85631  Biso   1.000  C
  C480     1.0000 0.96045  0.09881  0.85631  Biso   1.000  C
  C481     1.0000 0.06897  0.33172  0.93102  Biso   1.000  C
  H266     1.0000 0.06655  0.27702  0.87164  Biso   1.000  H
  H267     1.0000 0.07406  0.24682  0.05591  Biso   1.000  H
  C482     1.0000 0.07287  0.31343  0.04203  Biso   1.000  C
  H268     1.0000 0.27507  0.35663  0.92885  Biso   1.000  H
  C483     1.0000 0.25386  0.31654  0.01301  Biso   1.000  C
  C484     1.0000 0.25384  0.31650  0.01301  Biso   1.000  C
  H269     1.0000 0.22226  0.26522  0.08705  Biso   1.000  H
  C485     1.0000 0.97927  0.86195  0.82744  Biso   1.000  C
  C486     1.0000 0.97925  0.86191  0.82744  Biso   1.000  C
  H270     1.0000 0.04966  0.86532  0.80965  Biso   1.000  H
  C487     1.0000 0.07918  0.75184  0.94934  Biso   1.000  C
  H271     1.0000 0.10437  0.80074  0.87265  Biso   1.000  H
  H272     1.0000 0.10435  0.80070  0.87265  Biso   1.000  H
  H273     1.0000 0.06115  0.85171  0.02854  Biso   1.000  H
  C488     1.0000 0.05524  0.78242  0.04391  Biso   1.000  C
  C489     1.0000 0.27208  0.93044  0.99634  Biso   1.000  C
  H274     1.0000 0.28527  0.93094  0.89902  Biso   1.000  H
  H275     1.0000 0.24778  0.92473  0.08604  Biso   1.000  H
  C490     1.0000 0.95857  0.84114  0.76641  Biso   1.000  C
  C491     1.0000 0.87996  0.83945  0.79606  Biso   1.000  C
  C492     1.0000 0.87994  0.83941  0.79606  Biso   1.000  C
  H276     1.0000 0.81356  0.60562  0.51301  Biso   1.000  H
  C493     1.0000 0.88357  0.62965  0.54825  Biso   1.000  C
  C494     1.0000 0.88355  0.62961  0.54825  Biso   1.000  C
  H277     1.0000 0.95316  0.66223  0.59105  Biso   1.000  H
  F40      1.0000 0.86865  0.76253  0.27923  Biso   1.000  F
  C495     1.0000 0.88257  0.04143  0.76641  Biso   1.000  C
  C496     1.0000 0.95948  0.12004  0.79606  Biso   1.000  C
  C497     1.0000 0.95946  0.12000  0.79606  Biso   1.000  C
  H278     1.0000 0.79206  0.18642  0.51301  Biso   1.000  H
  C498     1.0000 0.74608  0.11644  0.54825  Biso   1.000  C
  H279     1.0000 0.70906  0.04683  0.59105  Biso   1.000  H
  F41      1.0000 0.89387  0.13134  0.27923  Biso   1.000  F
  F42      1.0000 0.89385  0.13131  0.27923  Biso   1.000  F
  C499     1.0000 0.92225  0.05063  0.86913  Biso   1.000  C
  H280     1.0000 0.06906  0.35433  0.89902  Biso   1.000  H
  C500     1.0000 0.06959  0.34164  0.99634  Biso   1.000  C
  C501     1.0000 0.06957  0.34160  0.99634  Biso   1.000  C
  H281     1.0000 0.07524  0.32302  0.08604  Biso   1.000  H
  F43      1.0000 0.29757  0.34984  0.04242  Biso   1.000  F
  F44      1.0000 0.29755  0.34981  0.04242  Biso   1.000  F
  C502     1.0000 0.94936  0.87164  0.86913  Biso   1.000  C
  C503     1.0000 0.94935  0.87161  0.86913  Biso   1.000  C
  H282     1.0000 0.08156  0.72493  0.92885  Biso   1.000  H
  C504     1.0000 0.06265  0.74613  0.01301  Biso   1.000  C
  H283     1.0000 0.04298  0.77774  0.08705  Biso   1.000  H
  H284     1.0000 0.04296  0.77771  0.08705  Biso   1.000  H
  F45      1.0000 0.31576  0.92944  0.01032  Biso   1.000  F
  F46      1.0000 0.31574  0.92940  0.01032  Biso   1.000  F
  H285     1.0000 0.97835  0.83562  0.73513  Biso   1.000  H
  C505     1.0000 0.90118  0.86164  0.85631  Biso   1.000  C
  H286     1.0000 0.84627  0.83194  0.78502  Biso   1.000  H
  C506     1.0000 0.90116  0.86160  0.85631  Biso   1.000  C
  H287     1.0000 0.84625  0.83190  0.78502  Biso   1.000  H
  F47      1.0000 0.88508  0.58535  0.53524  Biso   1.000  F
  F48      1.0000 0.88506  0.58531  0.53524  Biso   1.000  F
  H288     1.0000 0.85726  0.02162  0.73513  Biso   1.000  H
  C507     1.0000 0.88268  0.02073  0.82744  Biso   1.000  C
  H289     1.0000 0.98565  0.15373  0.78502  Biso   1.000  H
  F49      1.0000 0.70026  0.11494  0.53524  Biso   1.000  F
  F50      1.0000 0.70024  0.11490  0.53524  Biso   1.000  F
  H290     1.0000 0.92287  0.03633  0.90972  Biso   1.000  H
  F51      1.0000 0.07056  0.38633  0.01032  Biso   1.000  F
  H291     1.0000 0.96367  0.88652  0.90972  Biso   1.000  H
  F52      1.0000 0.05226  0.70243  0.04242  Biso   1.000  F
  C508     1.0000 0.86926  0.87003  0.90152  Biso   1.000  C
  C509     1.0000 0.83877  0.96995  0.84291  Biso   1.000  C
  C510     1.0000 0.83875  0.96991  0.84291  Biso   1.000  C
  N53      1.0000 0.82247  0.85171  0.89526  Biso   1.000  N
  H292     1.0000 0.88538  0.89085  0.93825  Biso   1.000  H
  H293     1.0000 0.88536  0.89081  0.93825  Biso   1.000  H
  N54      1.0000 0.83107  0.95163  0.89984  Biso   1.000  N
  H294     1.0000 0.81568  0.95033  0.80965  Biso   1.000  H
  C511     1.0000 0.79358  0.86325  0.94201  Biso   1.000  C
  C512     1.0000 0.79356  0.86321  0.94201  Biso   1.000  C
  C513     1.0000 0.78295  0.90392  0.91015  Biso   1.000  C
  H295     1.0000 0.81517  0.87862  0.98135  Biso   1.000  H
  C514     1.0000 0.74447  0.81461  0.96144  Biso   1.000  C
  H296     1.0000 0.76677  0.89042  0.86716  Biso   1.000  H
  C515     1.0000 0.74816  0.91434  0.94804  Biso   1.000  C
  C516     1.0000 0.74814  0.91430  0.94804  Biso   1.000  C
  C517     1.0000 0.71355  0.78192  0.91565  Biso   1.000  C
  C518     1.0000 0.73157  0.80415  0.02372  Biso   1.000  C
  C519     1.0000 0.73155  0.80411  0.02372  Biso   1.000  C
  C520     1.0000 0.70394  0.90802  0.91565  Biso   1.000  C
  C521     1.0000 0.75969  0.93335  0.00925  Biso   1.000  C
  C522     1.0000 0.75967  0.93331  0.00925  Biso   1.000  C
  C523     1.0000 0.66827  0.73723  0.93102  Biso   1.000  C
  H297     1.0000 0.72297  0.78955  0.87164  Biso   1.000  H
  H298     1.0000 0.72296  0.78951  0.87164  Biso   1.000  H
  H299     1.0000 0.75316  0.82722  0.05591  Biso   1.000  H
  C524     1.0000 0.68657  0.75942  0.04203  Biso   1.000  C
  C525     1.0000 0.67267  0.92082  0.94934  Biso   1.000  C
  H300     1.0000 0.69636  0.89564  0.87265  Biso   1.000  H
  H301     1.0000 0.79058  0.93883  0.02854  Biso   1.000  H
  C526     1.0000 0.72718  0.94473  0.04391  Biso   1.000  C
  C527     1.0000 0.65837  0.72792  0.99634  Biso   1.000  C
  H302     1.0000 0.64567  0.71474  0.89902  Biso   1.000  H
  H303     1.0000 0.67696  0.75222  0.08604  Biso   1.000  H
  H304     1.0000 0.64337  0.91844  0.92885  Biso   1.000  H
  H305     1.0000 0.64335  0.91840  0.92885  Biso   1.000  H
  C528     1.0000 0.68345  0.93734  0.01301  Biso   1.000  C
  H306     1.0000 0.73476  0.95704  0.08705  Biso   1.000  H
  F53      1.0000 0.61366  0.68423  0.01032  Biso   1.000  F
  F54      1.0000 0.65018  0.94772  0.04242  Biso   1.000  F
  C529     1.0000 0.18986  0.11544  0.53914  Biso   1.000  C
  C530     1.0000 0.20566  0.11333  0.47011  Biso   1.000  C
  C531     1.0000 0.22967  0.11713  0.58821  Biso   1.000  C
  N55      1.0000 0.14036  0.07075  0.55254  Biso   1.000  N
  H307     1.0000 0.18709  0.14694  0.54464  Biso   1.000  H
  N56      1.0000 0.14034  0.07071  0.55254  Biso   1.000  N
  H308     1.0000 0.18707  0.14691  0.54464  Biso   1.000  H
  C532     1.0000 0.22526  0.15564  0.43073  Biso   1.000  C
  C533     1.0000 0.22524  0.15561  0.43073  Biso   1.000  C
  C534     1.0000 0.19608  0.06734  0.44356  Biso   1.000  C
  C535     1.0000 0.19606  0.06730  0.44356  Biso   1.000  C
  C536     1.0000 0.18984  0.11540  0.53914  Biso   1.000  C
  H309     1.0000 0.23305  0.08593  0.58445  Biso   1.000  H
  C537     1.0000 0.28057  0.16523  0.57756  Biso   1.000  C
  N57      1.0000 0.20966  0.11954  0.65155  Biso   1.000  N
  N58      1.0000 0.20964  0.11950  0.65155  Biso   1.000  N
  C538     1.0000 0.10458  0.07865  0.57225  Biso   1.000  C
  C539     1.0000 0.10456  0.07861  0.57225  Biso   1.000  C
  C540     1.0000 0.23788  0.15373  0.36754  Biso   1.000  C
  H310     1.0000 0.23026  0.18715  0.44765  Biso   1.000  H
  H311     1.0000 0.23024  0.18711  0.44765  Biso   1.000  H
  C541     1.0000 0.20747  0.06523  0.37795  Biso   1.000  C
  H312     1.0000 0.18177  0.03714  0.46925  Biso   1.000  H
  H313     1.0000 0.18175  0.03710  0.46925  Biso   1.000  H
  C542     1.0000 0.32086  0.16423  0.54685  Biso   1.000  C
  C543     1.0000 0.28778  0.21244  0.59424  Biso   1.000  C
  C544     1.0000 0.28776  0.21241  0.59424  Biso   1.000  C
  C545     1.0000 0.19547  0.08213  0.68823  Biso   1.000  C
  C546     1.0000 0.05098  0.03744  0.58271  Biso   1.000  C
  H314     1.0000 0.11287  0.11295  0.58055  Biso   1.000  H
  C547     1.0000 0.05097  0.03741  0.58271  Biso   1.000  C
  H315     1.0000 0.11285  0.11291  0.58055  Biso   1.000  H
  C548     1.0000 0.22705  0.10712  0.34363  Biso   1.000  C
  H316     1.0000 0.25345  0.18362  0.34151  Biso   1.000  H
  H317     1.0000 0.20098  0.03373  0.35906  Biso   1.000  H
  H318     1.0000 0.31737  0.13223  0.53495  Biso   1.000  H
  C549     1.0000 0.36666  0.20922  0.53292  Biso   1.000  C
  H319     1.0000 0.26117  0.21432  0.61631  Biso   1.000  H
  C550     1.0000 0.33337  0.25855  0.57953  Biso   1.000  C
  C551     1.0000 0.33335  0.25851  0.57953  Biso   1.000  C
  H320     1.0000 0.19997  0.05442  0.67502  Biso   1.000  H
  C552     1.0000 0.17127  0.07934  0.75316  Biso   1.000  C
  C553     1.0000 0.03727  0.98624  0.58214  Biso   1.000  C
  C554     1.0000 0.03725  0.98620  0.58214  Biso   1.000  C
  C555     1.0000 0.01378  0.05105  0.58214  Biso   1.000  C
  C556     1.0000 0.01376  0.05101  0.58214  Biso   1.000  C
  F55      1.0000 0.23748  0.10613  0.27923  Biso   1.000  F
  H321     1.0000 0.39435  0.20792  0.51301  Biso   1.000  H
  C557     1.0000 0.37037  0.25395  0.54825  Biso   1.000  C
  C558     1.0000 0.37035  0.25391  0.54825  Biso   1.000  C
  H322     1.0000 0.33778  0.29094  0.59105  Biso   1.000  H
  C559     1.0000 0.15886  0.11743  0.76641  Biso   1.000  C
  C560     1.0000 0.16058  0.04055  0.79606  Biso   1.000  C
  C561     1.0000 0.16056  0.04051  0.79606  Biso   1.000  C
  C562     1.0000 0.98646  0.94903  0.58271  Biso   1.000  C
  H323     1.0000 0.06307  0.97685  0.58112  Biso   1.000  H
  H324     1.0000 0.06305  0.97681  0.58112  Biso   1.000  H
  H325     1.0000 0.02317  0.08623  0.58112  Biso   1.000  H
  C563     1.0000 0.96255  0.01353  0.58271  Biso   1.000  C
  F56      1.0000 0.41468  0.29975  0.53524  Biso   1.000  F
  F57      1.0000 0.41466  0.29971  0.53524  Biso   1.000  F
  H326     1.0000 0.16437  0.14273  0.73513  Biso   1.000  H
  C564     1.0000 0.13805  0.11732  0.82744  Biso   1.000  C
  C565     1.0000 0.13835  0.03951  0.85631  Biso   1.000  C
  H327     1.0000 0.16808  0.01433  0.78502  Biso   1.000  H
  C566     1.0000 0.94898  0.96275  0.58214  Biso   1.000  C
  C567     1.0000 0.97408  0.89545  0.57225  Biso   1.000  C
  C568     1.0000 0.94896  0.96271  0.58214  Biso   1.000  C
  C569     1.0000 0.97406  0.89541  0.57225  Biso   1.000  C
  C570     1.0000 0.92136  0.02595  0.57225  Biso   1.000  C
  C571     1.0000 0.92135  0.02591  0.57225  Biso   1.000  C
  C572     1.0000 0.12835  0.07773  0.86913  Biso   1.000  C
  C573     1.0000 0.13117  0.16124  0.84291  Biso   1.000  C
  C574     1.0000 0.13115  0.16120  0.84291  Biso   1.000  C
  C575     1.0000 0.12996  0.99923  0.90152  Biso   1.000  C
  H328     1.0000 0.91376  0.93691  0.58112  Biso   1.000  H
  N59      1.0000 0.93039  0.85965  0.55254  Biso   1.000  N
  N60      1.0000 0.93037  0.85961  0.55254  Biso   1.000  N
  H329     1.0000 0.00006  0.88713  0.58055  Biso   1.000  H
  H330     1.0000 0.88708  0.99992  0.58055  Biso   1.000  H
  N61      1.0000 0.92927  0.06964  0.55254  Biso   1.000  N
  N62      1.0000 0.92925  0.06960  0.55254  Biso   1.000  N
  H331     1.0000 0.11349  0.07715  0.90972  Biso   1.000  H
  H332     1.0000 0.11347  0.07711  0.90972  Biso   1.000  H
  H333     1.0000 0.13466  0.18435  0.80965  Biso   1.000  H
  N63      1.0000 0.12058  0.16894  0.89984  Biso   1.000  N
  H334     1.0000 0.13464  0.18431  0.80965  Biso   1.000  H
  N64      1.0000 0.12057  0.16890  0.89984  Biso   1.000  N
  N65      1.0000 0.14826  0.97072  0.89526  Biso   1.000  N
  H335     1.0000 0.10915  0.99452  0.93825  Biso   1.000  H
  C576     1.0000 0.92558  0.81013  0.53914  Biso   1.000  C
  C577     1.0000 0.88457  0.07443  0.53914  Biso   1.000  C
  C578     1.0000 0.12097  0.21704  0.91015  Biso   1.000  C
  C579     1.0000 0.12095  0.21700  0.91015  Biso   1.000  C
  C580     1.0000 0.13676  0.93032  0.94201  Biso   1.000  C
  H336     1.0000 0.95987  0.81293  0.54464  Biso   1.000  H
  C581     1.0000 0.88746  0.77035  0.58821  Biso   1.000  C
  C582     1.0000 0.90766  0.79434  0.47011  Biso   1.000  C
  C583     1.0000 0.88744  0.77031  0.58821  Biso   1.000  C
  C584     1.0000 0.90764  0.79430  0.47011  Biso   1.000  C
  H337     1.0000 0.85308  0.04013  0.54464  Biso   1.000  H
  C585     1.0000 0.88287  0.11253  0.58821  Biso   1.000  C
  C586     1.0000 0.88668  0.09233  0.47011  Biso   1.000  C
  C587     1.0000 0.06966  0.20643  0.94201  Biso   1.000  C
  H338     1.0000 0.12364  0.23322  0.86716  Biso   1.000  H
  C588     1.0000 0.16618  0.25184  0.94804  Biso   1.000  C
  C589     1.0000 0.16616  0.25181  0.94804  Biso   1.000  C
  H339     1.0000 0.12138  0.93653  0.98135  Biso   1.000  H
  C590     1.0000 0.09609  0.87904  0.91015  Biso   1.000  C
  C591     1.0000 0.18537  0.92982  0.96144  Biso   1.000  C
  C592     1.0000 0.09607  0.87900  0.91015  Biso   1.000  C
  N66      1.0000 0.90986  0.79032  0.65155  Biso   1.000  N
  H340     1.0000 0.85287  0.76694  0.58445  Biso   1.000  H
  C593     1.0000 0.88469  0.71945  0.57756  Biso   1.000  C
  C594     1.0000 0.88467  0.71941  0.57756  Biso   1.000  C
  C595     1.0000 0.87126  0.80392  0.44356  Biso   1.000  C
  C596     1.0000 0.93037  0.77472  0.43073  Biso   1.000  C
  N67      1.0000 0.88047  0.09014  0.65155  Biso   1.000  N
  H341     1.0000 0.91408  0.14714  0.58445  Biso   1.000  H
  C597     1.0000 0.83475  0.11532  0.57756  Biso   1.000  C
  N68      1.0000 0.88046  0.09011  0.65155  Biso   1.000  N
  C598     1.0000 0.93266  0.12874  0.44356  Biso   1.000  C
  C599     1.0000 0.84437  0.06964  0.43073  Biso   1.000  C
  C600     1.0000 0.93265  0.12870  0.44356  Biso   1.000  C
  C601     1.0000 0.84435  0.06960  0.43073  Biso   1.000  C
  N69      1.0000 0.02925  0.17753  0.89526  Biso   1.000  N
  C602     1.0000 0.07017  0.25552  0.96144  Biso   1.000  C
  H342     1.0000 0.06348  0.18485  0.98135  Biso   1.000  H
  H343     1.0000 0.06346  0.18481  0.98135  Biso   1.000  H
  C603     1.0000 0.20408  0.29603  0.91565  Biso   1.000  C
  C604     1.0000 0.17368  0.24035  0.00925  Biso   1.000  C
  C605     1.0000 0.17366  0.24031  0.00925  Biso   1.000  C
  N70      1.0000 0.04835  0.87942  0.89984  Biso   1.000  N
  H344     1.0000 0.10956  0.87632  0.86716  Biso   1.000  H
  C606     1.0000 0.08565  0.83382  0.94804  Biso   1.000  C
  C607     1.0000 0.21807  0.93163  0.91565  Biso   1.000  C
  C608     1.0000 0.19587  0.92745  0.02372  Biso   1.000  C
  C609     1.0000 0.19585  0.92741  0.02372  Biso   1.000  C
  C610     1.0000 0.88667  0.80453  0.68823  Biso   1.000  C
  C611     1.0000 0.84335  0.67913  0.54685  Biso   1.000  C
  C612     1.0000 0.92466  0.71224  0.59424  Biso   1.000  C
  C613     1.0000 0.92464  0.71221  0.59424  Biso   1.000  C
  H345     1.0000 0.85537  0.81822  0.46925  Biso   1.000  H
  C614     1.0000 0.85777  0.79254  0.37795  Biso   1.000  C
  C615     1.0000 0.85775  0.79250  0.37795  Biso   1.000  C
  C616     1.0000 0.91586  0.76215  0.36754  Biso   1.000  C
  H346     1.0000 0.95686  0.76973  0.44765  Biso   1.000  H
  C617     1.0000 0.91584  0.76211  0.36754  Biso   1.000  C
  C618     1.0000 0.91786  0.11333  0.68823  Biso   1.000  C
  C619     1.0000 0.83576  0.15664  0.54685  Biso   1.000  C
  C620     1.0000 0.78758  0.07535  0.59424  Biso   1.000  C
  C621     1.0000 0.83574  0.15660  0.54685  Biso   1.000  C
  C622     1.0000 0.78756  0.07531  0.59424  Biso   1.000  C
  H347     1.0000 0.96286  0.14464  0.46925  Biso   1.000  H
  C623     1.0000 0.93476  0.14223  0.37795  Biso   1.000  C
  H348     1.0000 0.96284  0.14461  0.46925  Biso   1.000  H
  C624     1.0000 0.84627  0.08413  0.36754  Biso   1.000  C
  H349     1.0000 0.81285  0.04312  0.44765  Biso   1.000  H
  C625     1.0000 0.00077  0.13073  0.90152  Biso   1.000  C
  C626     1.0000 0.06838  0.28645  0.91565  Biso   1.000  C
  C627     1.0000 0.06836  0.28641  0.91565  Biso   1.000  C
  C628     1.0000 0.07258  0.26844  0.02372  Biso   1.000  C
  C629     1.0000 0.07256  0.26840  0.02372  Biso   1.000  C
  H350     1.0000 0.19928  0.30362  0.87265  Biso   1.000  H
  C630     1.0000 0.24818  0.32735  0.94934  Biso   1.000  C
  C631     1.0000 0.24816  0.32731  0.94934  Biso   1.000  C
  H351     1.0000 0.14826  0.20942  0.02854  Biso   1.000  H
  C632     1.0000 0.21758  0.27285  0.04391  Biso   1.000  C
  C633     1.0000 0.21756  0.27281  0.04391  Biso   1.000  C
  C634     1.0000 0.03008  0.86885  0.84291  Biso   1.000  C
  C635     1.0000 0.03006  0.86881  0.84291  Biso   1.000  C
  C636     1.0000 0.09198  0.79595  0.91565  Biso   1.000  C
  C637     1.0000 0.09196  0.79591  0.91565  Biso   1.000  C
  C638     1.0000 0.06668  0.82634  0.00925  Biso   1.000  C
  C639     1.0000 0.06666  0.82630  0.00925  Biso   1.000  C
  C640     1.0000 0.26279  0.93105  0.93102  Biso   1.000  C
  H352     1.0000 0.21047  0.93343  0.87164  Biso   1.000  H
  C641     1.0000 0.26277  0.93101  0.93102  Biso   1.000  C
  H353     1.0000 0.17276  0.92591  0.05591  Biso   1.000  H
  C642     1.0000 0.24056  0.92714  0.04203  Biso   1.000  C
  C643     1.0000 0.24054  0.92710  0.04203  Biso   1.000  C
  H354     1.0000 0.85449  0.80005  0.67502  Biso   1.000  H
  C644     1.0000 0.90805  0.82872  0.75316  Biso   1.000  C
  H355     1.0000 0.85447  0.80001  0.67502  Biso   1.000  H
  H356     1.0000 0.81486  0.68262  0.53495  Biso   1.000  H
  C645     1.0000 0.84255  0.63333  0.53292  Biso   1.000  C
  C646     1.0000 0.92516  0.66664  0.57953  Biso   1.000  C
  H357     1.0000 0.95316  0.73884  0.61631  Biso   1.000  H
  H358     1.0000 0.95315  0.73880  0.61631  Biso   1.000  H
  H359     1.0000 0.83276  0.79902  0.35906  Biso   1.000  H
  C647     1.0000 0.88005  0.77292  0.34363  Biso   1.000  C
  H360     1.0000 0.93016  0.74655  0.34151  Biso   1.000  H
  H361     1.0000 0.93014  0.74651  0.34151  Biso   1.000  H
  H362     1.0000 0.94557  0.14553  0.67502  Biso   1.000  H
  C648     1.0000 0.92067  0.09195  0.75316  Biso   1.000  C
  C649     1.0000 0.92065  0.09191  0.75316  Biso   1.000  C
  H363     1.0000 0.86775  0.18512  0.53495  Biso   1.000  H
  C650     1.0000 0.79078  0.15745  0.53292  Biso   1.000  C
  C651     1.0000 0.79077  0.15741  0.53292  Biso   1.000  C
  C652     1.0000 0.74149  0.07485  0.57953  Biso   1.000  C
  H364     1.0000 0.78567  0.04683  0.61631  Biso   1.000  H
  C653     1.0000 0.74147  0.07481  0.57953  Biso   1.000  C
  H365     1.0000 0.96624  0.16722  0.35906  Biso   1.000  H
  C654     1.0000 0.89287  0.11992  0.34363  Biso   1.000  C
  H366     1.0000 0.81638  0.06983  0.34151  Biso   1.000  H
  H367     1.0000 0.00547  0.11463  0.93825  Biso   1.000  H
  C655     1.0000 0.96047  0.09884  0.85631  Biso   1.000  C
  C656     1.0000 0.96045  0.09881  0.85631  Biso   1.000  C
  C657     1.0000 0.06897  0.33172  0.93102  Biso   1.000  C
  H368     1.0000 0.06655  0.27702  0.87164  Biso   1.000  H
  H369     1.0000 0.07406  0.24682  0.05591  Biso   1.000  H
  C658     1.0000 0.07287  0.31343  0.04203  Biso   1.000  C
  H370     1.0000 0.27507  0.35663  0.92885  Biso   1.000  H
  C659     1.0000 0.25386  0.31654  0.01301  Biso   1.000  C
  C660     1.0000 0.25384  0.31650  0.01301  Biso   1.000  C
  H371     1.0000 0.22226  0.26522  0.08705  Biso   1.000  H
  C661     1.0000 0.97927  0.86195  0.82744  Biso   1.000  C
  C662     1.0000 0.97925  0.86191  0.82744  Biso   1.000  C
  H372     1.0000 0.04966  0.86532  0.80965  Biso   1.000  H
  C663     1.0000 0.07918  0.75184  0.94934  Biso   1.000  C
  H373     1.0000 0.10437  0.80074  0.87265  Biso   1.000  H
  H374     1.0000 0.10435  0.80070  0.87265  Biso   1.000  H
  H375     1.0000 0.06115  0.85171  0.02854  Biso   1.000  H
  C664     1.0000 0.05524  0.78242  0.04391  Biso   1.000  C
  C665     1.0000 0.27208  0.93044  0.99634  Biso   1.000  C
  H376     1.0000 0.28527  0.93094  0.89902  Biso   1.000  H
  H377     1.0000 0.24778  0.92473  0.08604  Biso   1.000  H
  C666     1.0000 0.95857  0.84114  0.76641  Biso   1.000  C
  C667     1.0000 0.87996  0.83945  0.79606  Biso   1.000  C
  C668     1.0000 0.87994  0.83941  0.79606  Biso   1.000  C
  H378     1.0000 0.81356  0.60562  0.51301  Biso   1.000  H
  C669     1.0000 0.88357  0.62965  0.54825  Biso   1.000  C
  C670     1.0000 0.88355  0.62961  0.54825  Biso   1.000  C
  H379     1.0000 0.95316  0.66223  0.59105  Biso   1.000  H
  F58      1.0000 0.86865  0.76253  0.27923  Biso   1.000  F
  C671     1.0000 0.88257  0.04143  0.76641  Biso   1.000  C
  C672     1.0000 0.95948  0.12004  0.79606  Biso   1.000  C
  C673     1.0000 0.95946  0.12000  0.79606  Biso   1.000  C
  H380     1.0000 0.79206  0.18642  0.51301  Biso   1.000  H
  C674     1.0000 0.74608  0.11644  0.54825  Biso   1.000  C
  H381     1.0000 0.70906  0.04683  0.59105  Biso   1.000  H
  F59      1.0000 0.89387  0.13134  0.27923  Biso   1.000  F
  F60      1.0000 0.89385  0.13131  0.27923  Biso   1.000  F
  C675     1.0000 0.92225  0.05063  0.86913  Biso   1.000  C
  H382     1.0000 0.06906  0.35433  0.89902  Biso   1.000  H
  C676     1.0000 0.06959  0.34164  0.99634  Biso   1.000  C
  C677     1.0000 0.06957  0.34160  0.99634  Biso   1.000  C
  H383     1.0000 0.07524  0.32302  0.08604  Biso   1.000  H
  F61      1.0000 0.29757  0.34984  0.04242  Biso   1.000  F
  F62      1.0000 0.29755  0.34981  0.04242  Biso   1.000  F
  C678     1.0000 0.94936  0.87164  0.86913  Biso   1.000  C
  C679     1.0000 0.94935  0.87161  0.86913  Biso   1.000  C
  H384     1.0000 0.08156  0.72493  0.92885  Biso   1.000  H
  C680     1.0000 0.06265  0.74613  0.01301  Biso   1.000  C
  H385     1.0000 0.04298  0.77774  0.08705  Biso   1.000  H
  H386     1.0000 0.04296  0.77771  0.08705  Biso   1.000  H
  F63      1.0000 0.31576  0.92944  0.01032  Biso   1.000  F
  F64      1.0000 0.31574  0.92940  0.01032  Biso   1.000  F
  H387     1.0000 0.97835  0.83562  0.73513  Biso   1.000  H
  C681     1.0000 0.90118  0.86164  0.85631  Biso   1.000  C
  H388     1.0000 0.84627  0.83194  0.78502  Biso   1.000  H
  C682     1.0000 0.90116  0.86160  0.85631  Biso   1.000  C
  H389     1.0000 0.84625  0.83190  0.78502  Biso   1.000  H
  F65      1.0000 0.88508  0.58535  0.53524  Biso   1.000  F
  F66      1.0000 0.88506  0.58531  0.53524  Biso   1.000  F
  H390     1.0000 0.85726  0.02162  0.73513  Biso   1.000  H
  C683     1.0000 0.88268  0.02073  0.82744  Biso   1.000  C
  H391     1.0000 0.98565  0.15373  0.78502  Biso   1.000  H
  F67      1.0000 0.70026  0.11494  0.53524  Biso   1.000  F
  F68      1.0000 0.70024  0.11490  0.53524  Biso   1.000  F
  H392     1.0000 0.92287  0.03633  0.90972  Biso   1.000  H
  F69      1.0000 0.07056  0.38633  0.01032  Biso   1.000  F
  H393     1.0000 0.96367  0.88652  0.90972  Biso   1.000  H
  F70      1.0000 0.05226  0.70243  0.04242  Biso   1.000  F
  C684     1.0000 0.86926  0.87003  0.90152  Biso   1.000  C
  C685     1.0000 0.83877  0.96995  0.84291  Biso   1.000  C
  C686     1.0000 0.83875  0.96991  0.84291  Biso   1.000  C
  N71      1.0000 0.82247  0.85171  0.89526  Biso   1.000  N
  H394     1.0000 0.88538  0.89085  0.93825  Biso   1.000  H
  H395     1.0000 0.88536  0.89081  0.93825  Biso   1.000  H
  N72      1.0000 0.83107  0.95163  0.89984  Biso   1.000  N
  H396     1.0000 0.81568  0.95033  0.80965  Biso   1.000  H
  C687     1.0000 0.79358  0.86325  0.94201  Biso   1.000  C
  C688     1.0000 0.79356  0.86321  0.94201  Biso   1.000  C
  C689     1.0000 0.78295  0.90392  0.91015  Biso   1.000  C
  H397     1.0000 0.81517  0.87862  0.98135  Biso   1.000  H
  C690     1.0000 0.74447  0.81461  0.96144  Biso   1.000  C
  H398     1.0000 0.76677  0.89042  0.86716  Biso   1.000  H
  C691     1.0000 0.74816  0.91434  0.94804  Biso   1.000  C
  C692     1.0000 0.74814  0.91430  0.94804  Biso   1.000  C
  C693     1.0000 0.71355  0.78192  0.91565  Biso   1.000  C
  C694     1.0000 0.73157  0.80415  0.02372  Biso   1.000  C
  C695     1.0000 0.73155  0.80411  0.02372  Biso   1.000  C
  C696     1.0000 0.70394  0.90802  0.91565  Biso   1.000  C
  C697     1.0000 0.75969  0.93335  0.00925  Biso   1.000  C
  C698     1.0000 0.75967  0.93331  0.00925  Biso   1.000  C
  C699     1.0000 0.66827  0.73723  0.93102  Biso   1.000  C
  H399     1.0000 0.72297  0.78955  0.87164  Biso   1.000  H
  H400     1.0000 0.72296  0.78951  0.87164  Biso   1.000  H
  H401     1.0000 0.75316  0.82722  0.05591  Biso   1.000  H
  C700     1.0000 0.68657  0.75942  0.04203  Biso   1.000  C
  C701     1.0000 0.67267  0.92082  0.94934  Biso   1.000  C
  H402     1.0000 0.69636  0.89564  0.87265  Biso   1.000  H
  H403     1.0000 0.79058  0.93883  0.02854  Biso   1.000  H
  C702     1.0000 0.72718  0.94473  0.04391  Biso   1.000  C
  C703     1.0000 0.65837  0.72792  0.99634  Biso   1.000  C
  H404     1.0000 0.64567  0.71474  0.89902  Biso   1.000  H
  H405     1.0000 0.67696  0.75222  0.08604  Biso   1.000  H
  H406     1.0000 0.64337  0.91844  0.92885  Biso   1.000  H
  H407     1.0000 0.64335  0.91840  0.92885  Biso   1.000  H
  C704     1.0000 0.68345  0.93734  0.01301  Biso   1.000  C
  H408     1.0000 0.73476  0.95704  0.08705  Biso   1.000  H
  F71      1.0000 0.61366  0.68423  0.01032  Biso   1.000  F
  F72      1.0000 0.65018  0.94772  0.04242  Biso   1.000  F
  C705     1.0000 0.11545  0.18987  0.46086  Biso   1.000  C
  C706     1.0000 0.11712  0.22965  0.41179  Biso   1.000  C
  N73      1.0000 0.07074  0.14035  0.44746  Biso   1.000  N
  H409     1.0000 0.14694  0.18707  0.45536  Biso   1.000  H
  C707     1.0000 0.11332  0.20566  0.52989  Biso   1.000  C
  H410     1.0000 0.14692  0.18703  0.45536  Biso   1.000  H
  N74      1.0000 0.11955  0.20968  0.34845  Biso   1.000  N
  N75      1.0000 0.11953  0.20965  0.34845  Biso   1.000  N
  H411     1.0000 0.08593  0.23306  0.41555  Biso   1.000  H
  C708     1.0000 0.16524  0.28055  0.42244  Biso   1.000  C
  C709     1.0000 0.07863  0.10455  0.42775  Biso   1.000  C
  C710     1.0000 0.06734  0.19608  0.55644  Biso   1.000  C
  C711     1.0000 0.15566  0.22528  0.56927  Biso   1.000  C
  C712     1.0000 0.06732  0.19604  0.55644  Biso   1.000  C
  C713     1.0000 0.15564  0.22524  0.56927  Biso   1.000  C
  C714     1.0000 0.08213  0.19547  0.31177  Biso   1.000  C
  C715     1.0000 0.16422  0.32087  0.45315  Biso   1.000  C
  C716     1.0000 0.21242  0.28776  0.40576  Biso   1.000  C
  C717     1.0000 0.03744  0.05097  0.41729  Biso   1.000  C
  H412     1.0000 0.11293  0.11287  0.41945  Biso   1.000  H
  C718     1.0000 0.03742  0.05094  0.41729  Biso   1.000  C
  H413     1.0000 0.11291  0.11283  0.41945  Biso   1.000  H
  H414     1.0000 0.03715  0.18178  0.53075  Biso   1.000  H
  C719     1.0000 0.06523  0.20746  0.62205  Biso   1.000  C
  H415     1.0000 0.03713  0.18174  0.53075  Biso   1.000  H
  C720     1.0000 0.15371  0.23785  0.63246  Biso   1.000  C
  H416     1.0000 0.18713  0.23027  0.55235  Biso   1.000  H
  C721     1.0000 0.07933  0.17128  0.24684  Biso   1.000  C
  C722     1.0000 0.07931  0.17124  0.24684  Biso   1.000  C
  H417     1.0000 0.05444  0.19995  0.32498  Biso   1.000  H
  H418     1.0000 0.13224  0.31738  0.46505  Biso   1.000  H
  C723     1.0000 0.20922  0.36667  0.46708  Biso   1.000  C
  H419     1.0000 0.13222  0.31734  0.46505  Biso   1.000  H
  C724     1.0000 0.25852  0.33336  0.42047  Biso   1.000  C
  H420     1.0000 0.21432  0.26116  0.38369  Biso   1.000  H
  C725     1.0000 0.05102  0.01376  0.41786  Biso   1.000  C
  C726     1.0000 0.98623  0.03725  0.41786  Biso   1.000  C
  H421     1.0000 0.03374  0.20098  0.64094  Biso   1.000  H
  C727     1.0000 0.10714  0.22708  0.65637  Biso   1.000  C
  H422     1.0000 0.03372  0.20095  0.64094  Biso   1.000  H
  C728     1.0000 0.10712  0.22705  0.65637  Biso   1.000  C
  H423     1.0000 0.18362  0.25345  0.65849  Biso   1.000  H
  C729     1.0000 0.11744  0.15886  0.23359  Biso   1.000  C
  C730     1.0000 0.04051  0.16055  0.20394  Biso   1.000  C
  H424     1.0000 0.20794  0.39438  0.48699  Biso   1.000  H
  C731     1.0000 0.25391  0.37035  0.45175  Biso   1.000  C
  H425     1.0000 0.20792  0.39434  0.48699  Biso   1.000  H
  H426     1.0000 0.29093  0.33777  0.40895  Biso   1.000  H
  H427     1.0000 0.29091  0.33773  0.40895  Biso   1.000  H
  H428     1.0000 0.08622  0.02315  0.41888  Biso   1.000  H
  C732     1.0000 0.01354  0.96256  0.41729  Biso   1.000  C
  C733     1.0000 0.94902  0.98647  0.41729  Biso   1.000  C
  H429     1.0000 0.97684  0.06309  0.41888  Biso   1.000  H
  H430     1.0000 0.97682  0.06305  0.41888  Biso   1.000  H
  F73      1.0000 0.10612  0.23747  0.72077  Biso   1.000  F
  H431     1.0000 0.14273  0.16438  0.26487  Biso   1.000  H
  C734     1.0000 0.11732  0.13805  0.17256  Biso   1.000  C
  H432     1.0000 0.14271  0.16434  0.26487  Biso   1.000  H
  C735     1.0000 0.03954  0.13836  0.14369  Biso   1.000  C
  H433     1.0000 0.01433  0.16806  0.21498  Biso   1.000  H
  F74      1.0000 0.29973  0.41465  0.46476  Biso   1.000  F
  C736     1.0000 0.96272  0.94895  0.41786  Biso   1.000  C
  C737     1.0000 0.02593  0.92135  0.42775  Biso   1.000  C
  C738     1.0000 0.89542  0.97405  0.42775  Biso   1.000  C
  C739     1.0000 0.07772  0.12836  0.13087  Biso   1.000  C
  C740     1.0000 0.16124  0.13115  0.15709  Biso   1.000  C
  C741     1.0000 0.99923  0.12997  0.09848  Biso   1.000  C
  H434     1.0000 0.93693  0.91377  0.41888  Biso   1.000  H
  H435     1.0000 0.99992  0.88705  0.41945  Biso   1.000  H
  N76      1.0000 0.06961  0.92925  0.44746  Biso   1.000  N
  N77      1.0000 0.85963  0.93036  0.44746  Biso   1.000  N
  H436     1.0000 0.88715  0.00008  0.41945  Biso   1.000  H
  H437     1.0000 0.88713  0.00004  0.41945  Biso   1.000  H
  H438     1.0000 0.07716  0.11348  0.09028  Biso   1.000  H
  H439     1.0000 0.07714  0.11345  0.09028  Biso   1.000  H
  H440     1.0000 0.18434  0.13468  0.19035  Biso   1.000  H
  N78      1.0000 0.16892  0.12058  0.10016  Biso   1.000  N
  H441     1.0000 0.18432  0.13464  0.19035  Biso   1.000  H
  N79      1.0000 0.16890  0.12054  0.10016  Biso   1.000  N
  N80      1.0000 0.97075  0.14829  0.10474  Biso   1.000  N
  H442     1.0000 0.99453  0.10915  0.06175  Biso   1.000  H
  N81      1.0000 0.97073  0.14825  0.10474  Biso   1.000  N
  C742     1.0000 0.07442  0.88456  0.46086  Biso   1.000  C
  C743     1.0000 0.81014  0.92557  0.46086  Biso   1.000  C
  C744     1.0000 0.21704  0.12096  0.08985  Biso   1.000  C
  C745     1.0000 0.93033  0.13675  0.05799  Biso   1.000  C
  C746     1.0000 0.11254  0.88287  0.41179  Biso   1.000  C
  C747     1.0000 0.11252  0.88284  0.41179  Biso   1.000  C
  H443     1.0000 0.04014  0.85306  0.45536  Biso   1.000  H
  C748     1.0000 0.09233  0.88667  0.52989  Biso   1.000  C
  H444     1.0000 0.81295  0.95987  0.45536  Biso   1.000  H
  C749     1.0000 0.77034  0.88747  0.41179  Biso   1.000  C
  C750     1.0000 0.79435  0.90767  0.52989  Biso   1.000  C
  H445     1.0000 0.81293  0.95983  0.45536  Biso   1.000  H
  C751     1.0000 0.77032  0.88744  0.41179  Biso   1.000  C
  C752     1.0000 0.79433  0.90763  0.52989  Biso   1.000  C
  C753     1.0000 0.20644  0.06968  0.05799  Biso   1.000  C
  H446     1.0000 0.23324  0.12368  0.13284  Biso   1.000  H
  C754     1.0000 0.25184  0.16618  0.05196  Biso   1.000  C
  C755     1.0000 0.20642  0.06964  0.05799  Biso   1.000  C
  H447     1.0000 0.23322  0.12364  0.13284  Biso   1.000  H
  C756     1.0000 0.25182  0.16615  0.05196  Biso   1.000  C
  H448     1.0000 0.93655  0.12138  0.01865  Biso   1.000  H
  C757     1.0000 0.87903  0.09608  0.08985  Biso   1.000  C
  C758     1.0000 0.92985  0.18539  0.03856  Biso   1.000  C
  H449     1.0000 0.93653  0.12134  0.01865  Biso   1.000  H
  C759     1.0000 0.87901  0.09605  0.08985  Biso   1.000  C
  C760     1.0000 0.92983  0.18535  0.03856  Biso   1.000  C
  N82      1.0000 0.09012  0.88046  0.34845  Biso   1.000  N
  H450     1.0000 0.14712  0.91407  0.41555  Biso   1.000  H
  C761     1.0000 0.11534  0.83477  0.42244  Biso   1.000  C
  H451     1.0000 0.14711  0.91403  0.41555  Biso   1.000  H
  C762     1.0000 0.11532  0.83474  0.42244  Biso   1.000  C
  C763     1.0000 0.12874  0.93266  0.55644  Biso   1.000  C
  C764     1.0000 0.06962  0.84436  0.56927  Biso   1.000  C
  N83      1.0000 0.79033  0.90986  0.34845  Biso   1.000  N
  H452     1.0000 0.76695  0.85286  0.41555  Biso   1.000  H
  C765     1.0000 0.71942  0.88468  0.42244  Biso   1.000  C
  C766     1.0000 0.71940  0.88464  0.42244  Biso   1.000  C
  C767     1.0000 0.80393  0.87126  0.55644  Biso   1.000  C
  C768     1.0000 0.77473  0.93036  0.56927  Biso   1.000  C
  N84      1.0000 0.17755  0.02928  0.10474  Biso   1.000  N
  H453     1.0000 0.18485  0.06347  0.01865  Biso   1.000  H
  C769     1.0000 0.25555  0.07018  0.03856  Biso   1.000  C
  N85      1.0000 0.17753  0.02924  0.10474  Biso   1.000  N
  C770     1.0000 0.25553  0.07014  0.03856  Biso   1.000  C
  C771     1.0000 0.29603  0.20405  0.08435  Biso   1.000  C
  C772     1.0000 0.24034  0.17366  0.99075  Biso   1.000  C
  N86      1.0000 0.87943  0.04837  0.10016  Biso   1.000  N
  H454     1.0000 0.87635  0.10958  0.13284  Biso   1.000  H
  C773     1.0000 0.83382  0.08566  0.05196  Biso   1.000  C
  H455     1.0000 0.87633  0.10954  0.13284  Biso   1.000  H
  C774     1.0000 0.92742  0.19585  0.97628  Biso   1.000  C
  C775     1.0000 0.93163  0.21808  0.08435  Biso   1.000  C
  C776     1.0000 0.93161  0.21804  0.08435  Biso   1.000  C
  C777     1.0000 0.11334  0.91787  0.31177  Biso   1.000  C
  C778     1.0000 0.15663  0.83577  0.45315  Biso   1.000  C
  C779     1.0000 0.07534  0.78756  0.40576  Biso   1.000  C
  H456     1.0000 0.14463  0.96286  0.53075  Biso   1.000  H
  C780     1.0000 0.14224  0.93477  0.62205  Biso   1.000  C
  C781     1.0000 0.08415  0.84627  0.63246  Biso   1.000  C
  H457     1.0000 0.04311  0.81285  0.55235  Biso   1.000  H
  C782     1.0000 0.08413  0.84623  0.63246  Biso   1.000  C
  C783     1.0000 0.80453  0.88667  0.31177  Biso   1.000  C
  C784     1.0000 0.67911  0.84336  0.45315  Biso   1.000  C
  C785     1.0000 0.71223  0.92465  0.40576  Biso   1.000  C
  H458     1.0000 0.81821  0.85536  0.53075  Biso   1.000  H
  C786     1.0000 0.79253  0.85777  0.62205  Biso   1.000  C
  C787     1.0000 0.76214  0.91587  0.63246  Biso   1.000  C
  H459     1.0000 0.76973  0.95688  0.55235  Biso   1.000  H
  C788     1.0000 0.76212  0.91584  0.63246  Biso   1.000  C
  H460     1.0000 0.76971  0.95684  0.55235  Biso   1.000  H
  C789     1.0000 0.13073  0.00077  0.09848  Biso   1.000  C
  C790     1.0000 0.28644  0.06837  0.08435  Biso   1.000  C
  C791     1.0000 0.28643  0.06834  0.08435  Biso   1.000  C
  C792     1.0000 0.26842  0.07255  0.97628  Biso   1.000  C
  C793     1.0000 0.32735  0.24816  0.05066  Biso   1.000  C
  H461     1.0000 0.30363  0.19926  0.12735  Biso   1.000  H
  H462     1.0000 0.20943  0.14829  0.97146  Biso   1.000  H
  C794     1.0000 0.27282  0.21758  0.95609  Biso   1.000  C
  H463     1.0000 0.20941  0.14825  0.97146  Biso   1.000  H
  C795     1.0000 0.27280  0.21754  0.95609  Biso   1.000  C
  C796     1.0000 0.86881  0.03005  0.15709  Biso   1.000  C
  C797     1.0000 0.82634  0.06665  0.99075  Biso   1.000  C
  C798     1.0000 0.79593  0.09198  0.08435  Biso   1.000  C
  C799     1.0000 0.79591  0.09195  0.08435  Biso   1.000  C
  H464     1.0000 0.92594  0.17278  0.94409  Biso   1.000  H
  C800     1.0000 0.92715  0.24058  0.95797  Biso   1.000  C
  H465     1.0000 0.92592  0.17274  0.94409  Biso   1.000  H
  C801     1.0000 0.92713  0.24054  0.95797  Biso   1.000  C
  C802     1.0000 0.93104  0.26277  0.06898  Biso   1.000  C
  H466     1.0000 0.93343  0.21045  0.12836  Biso   1.000  H
  C803     1.0000 0.09194  0.92066  0.24684  Biso   1.000  C
  H467     1.0000 0.14555  0.94558  0.32498  Biso   1.000  H
  H468     1.0000 0.14553  0.94554  0.32498  Biso   1.000  H
  H469     1.0000 0.18515  0.86777  0.46505  Biso   1.000  H
  C804     1.0000 0.15744  0.79078  0.46708  Biso   1.000  C
  H470     1.0000 0.18513  0.86774  0.46505  Biso   1.000  H
  C805     1.0000 0.15742  0.79074  0.46708  Biso   1.000  C
  C806     1.0000 0.07482  0.74145  0.42047  Biso   1.000  C
  H471     1.0000 0.04685  0.78568  0.38369  Biso   1.000  H
  H472     1.0000 0.04683  0.78564  0.38369  Biso   1.000  H
  H473     1.0000 0.16725  0.96627  0.64094  Biso   1.000  H
  C807     1.0000 0.11993  0.89288  0.65637  Biso   1.000  C
  H474     1.0000 0.16723  0.96623  0.64094  Biso   1.000  H
  C808     1.0000 0.11991  0.89284  0.65637  Biso   1.000  C
  H475     1.0000 0.06983  0.81638  0.65849  Biso   1.000  H
  H476     1.0000 0.06981  0.81634  0.65849  Biso   1.000  H
  C809     1.0000 0.82873  0.90805  0.24684  Biso   1.000  C
  H477     1.0000 0.80005  0.85447  0.32498  Biso   1.000  H
  H478     1.0000 0.80003  0.85444  0.32498  Biso   1.000  H
  H479     1.0000 0.68263  0.81488  0.46505  Biso   1.000  H
  C810     1.0000 0.63334  0.84255  0.46708  Biso   1.000  C
  H480     1.0000 0.68261  0.81484  0.46505  Biso   1.000  H
  C811     1.0000 0.66664  0.92515  0.42047  Biso   1.000  C
  H481     1.0000 0.73883  0.95317  0.38369  Biso   1.000  H
  H482     1.0000 0.79902  0.83278  0.64094  Biso   1.000  H
  C812     1.0000 0.77295  0.88008  0.65637  Biso   1.000  C
  H483     1.0000 0.79901  0.83274  0.64094  Biso   1.000  H
  C813     1.0000 0.77293  0.88004  0.65637  Biso   1.000  C
  H484     1.0000 0.74655  0.93017  0.65849  Biso   1.000  H
  H485     1.0000 0.11463  0.00548  0.06175  Biso   1.000  H
  H486     1.0000 0.11461  0.00544  0.06175  Biso   1.000  H
  C814     1.0000 0.09884  0.96049  0.14369  Biso   1.000  C
  C815     1.0000 0.09882  0.96045  0.14369  Biso   1.000  C
  C816     1.0000 0.33174  0.06895  0.06898  Biso   1.000  C
  H487     1.0000 0.27705  0.06657  0.12836  Biso   1.000  H
  H488     1.0000 0.27703  0.06653  0.12836  Biso   1.000  H
  H489     1.0000 0.24685  0.07409  0.94409  Biso   1.000  H
  C817     1.0000 0.31341  0.07286  0.95797  Biso   1.000  C
  H490     1.0000 0.24683  0.07405  0.94409  Biso   1.000  H
  H491     1.0000 0.35663  0.27507  0.07115  Biso   1.000  H
  C818     1.0000 0.31653  0.25387  0.98699  Biso   1.000  C
  C819     1.0000 0.31651  0.25384  0.98699  Biso   1.000  C
  H492     1.0000 0.26524  0.22226  0.91295  Biso   1.000  H
  C820     1.0000 0.86194  0.97927  0.17256  Biso   1.000  C
  H493     1.0000 0.86535  0.04967  0.19035  Biso   1.000  H
  H494     1.0000 0.86533  0.04963  0.19035  Biso   1.000  H
  H495     1.0000 0.85175  0.06117  0.97146  Biso   1.000  H
  C821     1.0000 0.78245  0.05527  0.95609  Biso   1.000  C
  C822     1.0000 0.75185  0.07918  0.05066  Biso   1.000  C
  H496     1.0000 0.80072  0.10436  0.12735  Biso   1.000  H
  C823     1.0000 0.75183  0.07914  0.05066  Biso   1.000  C
  H497     1.0000 0.92474  0.24778  0.91396  Biso   1.000  H
  H498     1.0000 0.92472  0.24774  0.91396  Biso   1.000  H
  C824     1.0000 0.93045  0.27208  0.00366  Biso   1.000  C
  C825     1.0000 0.93043  0.27204  0.00366  Biso   1.000  C
  H499     1.0000 0.93094  0.28526  0.10098  Biso   1.000  H
  C826     1.0000 0.12003  0.95945  0.20394  Biso   1.000  C
  C827     1.0000 0.04142  0.88257  0.23359  Biso   1.000  C
  H500     1.0000 0.18643  0.79208  0.48699  Biso   1.000  H
  C828     1.0000 0.11642  0.74605  0.45175  Biso   1.000  C
  H501     1.0000 0.18641  0.79204  0.48699  Biso   1.000  H
  H502     1.0000 0.04684  0.70906  0.40895  Biso   1.000  H
  F75      1.0000 0.13135  0.89387  0.72077  Biso   1.000  F
  F76      1.0000 0.13133  0.89384  0.72077  Biso   1.000  F
  C829     1.0000 0.84114  0.95857  0.23359  Biso   1.000  C
  C830     1.0000 0.83944  0.87996  0.20394  Biso   1.000  C
  H503     1.0000 0.60564  0.81358  0.48699  Biso   1.000  H
  C831     1.0000 0.62965  0.88356  0.45175  Biso   1.000  C
  H504     1.0000 0.60562  0.81354  0.48699  Biso   1.000  H
  H505     1.0000 0.66222  0.95317  0.40895  Biso   1.000  H
  F77      1.0000 0.76253  0.86866  0.72077  Biso   1.000  F
  C832     1.0000 0.05062  0.92227  0.13087  Biso   1.000  C
  C833     1.0000 0.05060  0.92224  0.13087  Biso   1.000  C
  C834     1.0000 0.34164  0.06956  0.00366  Biso   1.000  C
  H506     1.0000 0.35433  0.06906  0.10098  Biso   1.000  H
  H507     1.0000 0.32305  0.07527  0.91396  Biso   1.000  H
  H508     1.0000 0.32303  0.07523  0.91396  Biso   1.000  H
  F78      1.0000 0.34983  0.29757  0.95758  Biso   1.000  F
  C835     1.0000 0.87163  0.94937  0.13087  Biso   1.000  C
  H509     1.0000 0.77772  0.04296  0.91295  Biso   1.000  H
  C836     1.0000 0.74612  0.06266  0.98699  Biso   1.000  C
  H510     1.0000 0.72493  0.08156  0.07115  Biso   1.000  H
  F79      1.0000 0.92943  0.31577  0.98968  Biso   1.000  F
  F80      1.0000 0.92941  0.31573  0.98968  Biso   1.000  F
  H511     1.0000 0.15375  0.98567  0.21498  Biso   1.000  H
  C837     1.0000 0.02074  0.88268  0.17256  Biso   1.000  C
  C838     1.0000 0.02072  0.88264  0.17256  Biso   1.000  C
  H512     1.0000 0.02164  0.85727  0.26487  Biso   1.000  H
  H513     1.0000 0.02162  0.85723  0.26487  Biso   1.000  H
  F81      1.0000 0.11493  0.70025  0.46476  Biso   1.000  F
  H514     1.0000 0.83565  0.97838  0.26487  Biso   1.000  H
  H515     1.0000 0.83563  0.97835  0.26487  Biso   1.000  H
  C839     1.0000 0.86162  0.90116  0.14369  Biso   1.000  C
  H516     1.0000 0.83193  0.84627  0.21498  Biso   1.000  H
  H517     1.0000 0.83191  0.84623  0.21498  Biso   1.000  H
  F82      1.0000 0.58532  0.88506  0.46476  Biso   1.000  F
  H518     1.0000 0.03634  0.92285  0.09028  Biso   1.000  H
  F83      1.0000 0.38632  0.07056  0.98968  Biso   1.000  F
  H519     1.0000 0.88654  0.96367  0.09028  Biso   1.000  H
  F84      1.0000 0.70245  0.05228  0.95758  Biso   1.000  F
  F85      1.0000 0.70243  0.05224  0.95758  Biso   1.000  F
  C840     1.0000 0.96993  0.83876  0.15709  Biso   1.000  C
  C841     1.0000 0.87004  0.86927  0.09848  Biso   1.000  C
  N87      1.0000 0.95164  0.83106  0.10016  Biso   1.000  N
  H520     1.0000 0.95031  0.81565  0.19035  Biso   1.000  H
  N88      1.0000 0.85172  0.82247  0.10474  Biso   1.000  N
  H521     1.0000 0.89084  0.88537  0.06175  Biso   1.000  H
  N89      1.0000 0.85170  0.82243  0.10474  Biso   1.000  N
  C842     1.0000 0.90393  0.78296  0.08985  Biso   1.000  C
  C843     1.0000 0.86323  0.79357  0.05799  Biso   1.000  C
  C844     1.0000 0.86321  0.79354  0.05799  Biso   1.000  C
  H522     1.0000 0.89043  0.76678  0.13284  Biso   1.000  H
  C845     1.0000 0.91434  0.74816  0.05196  Biso   1.000  C
  H523     1.0000 0.89041  0.76674  0.13284  Biso   1.000  H
  H524     1.0000 0.87863  0.81515  0.01865  Biso   1.000  H
  C846     1.0000 0.81465  0.74448  0.03856  Biso   1.000  C
  C847     1.0000 0.81463  0.74444  0.03856  Biso   1.000  C
  C848     1.0000 0.93333  0.75965  0.99075  Biso   1.000  C
  C849     1.0000 0.90804  0.70397  0.08435  Biso   1.000  C
  C850     1.0000 0.80414  0.73156  0.97628  Biso   1.000  C
  C851     1.0000 0.78193  0.71355  0.08435  Biso   1.000  C
  H525     1.0000 0.93884  0.79058  0.97146  Biso   1.000  H
  C852     1.0000 0.94473  0.72715  0.95609  Biso   1.000  C
  H526     1.0000 0.93882  0.79055  0.97146  Biso   1.000  H
  C853     1.0000 0.92083  0.67265  0.05066  Biso   1.000  C
  H527     1.0000 0.89565  0.69638  0.12735  Biso   1.000  H
  H528     1.0000 0.89563  0.69634  0.12735  Biso   1.000  H
  H529     1.0000 0.82723  0.75318  0.94409  Biso   1.000  H
  C854     1.0000 0.75944  0.68657  0.95797  Biso   1.000  C
  H530     1.0000 0.82721  0.75314  0.94409  Biso   1.000  H
  C855     1.0000 0.73726  0.66828  0.06898  Biso   1.000  C
  H531     1.0000 0.78953  0.72298  0.12836  Biso   1.000  H
  C856     1.0000 0.73724  0.66825  0.06898  Biso   1.000  C
  H532     1.0000 0.78951  0.72294  0.12836  Biso   1.000  H
  H533     1.0000 0.95704  0.73478  0.91295  Biso   1.000  H
  C857     1.0000 0.93732  0.68346  0.98699  Biso   1.000  C
  H534     1.0000 0.95702  0.73474  0.91295  Biso   1.000  H
  H535     1.0000 0.91844  0.64337  0.07115  Biso   1.000  H
  H536     1.0000 0.91842  0.64333  0.07115  Biso   1.000  H
  H537     1.0000 0.75223  0.67698  0.91396  Biso   1.000  H
  H538     1.0000 0.75221  0.67695  0.91396  Biso   1.000  H
  C858     1.0000 0.72794  0.65836  0.00366  Biso   1.000  C
  H539     1.0000 0.71473  0.64567  0.10098  Biso   1.000  H
  H540     1.0000 0.71471  0.64563  0.10098  Biso   1.000  H
  F86      1.0000 0.94772  0.65016  0.95758  Biso   1.000  F
  F87      1.0000 0.68422  0.61367  0.98968  Biso   1.000  F
  C859     1.0000 0.11545  0.18987  0.46086  Biso   1.000  C
  C860     1.0000 0.11712  0.22965  0.41179  Biso   1.000  C
  N90      1.0000 0.07074  0.14035  0.44746  Biso   1.000  N
  C861     1.0000 0.11332  0.20566  0.52989  Biso   1.000  C
  H541     1.0000 0.14694  0.18707  0.45536  Biso   1.000  H
  H542     1.0000 0.14692  0.18703  0.45536  Biso   1.000  H
  N91      1.0000 0.11955  0.20968  0.34845  Biso   1.000  N
  N92      1.0000 0.11953  0.20965  0.34845  Biso   1.000  N
  H543     1.0000 0.08593  0.23306  0.41555  Biso   1.000  H
  C862     1.0000 0.16524  0.28055  0.42244  Biso   1.000  C
  C863     1.0000 0.07863  0.10455  0.42775  Biso   1.000  C
  C864     1.0000 0.06734  0.19608  0.55644  Biso   1.000  C
  C865     1.0000 0.15566  0.22528  0.56927  Biso   1.000  C
  C866     1.0000 0.06732  0.19604  0.55644  Biso   1.000  C
  C867     1.0000 0.15564  0.22524  0.56927  Biso   1.000  C
  C868     1.0000 0.08213  0.19547  0.31177  Biso   1.000  C
  C869     1.0000 0.16422  0.32087  0.45315  Biso   1.000  C
  C870     1.0000 0.21242  0.28776  0.40576  Biso   1.000  C
  C871     1.0000 0.03744  0.05097  0.41729  Biso   1.000  C
  H544     1.0000 0.11293  0.11287  0.41945  Biso   1.000  H
  C872     1.0000 0.03742  0.05094  0.41729  Biso   1.000  C
  H545     1.0000 0.11291  0.11283  0.41945  Biso   1.000  H
  C873     1.0000 0.06523  0.20746  0.62205  Biso   1.000  C
  H546     1.0000 0.03715  0.18178  0.53075  Biso   1.000  H
  H547     1.0000 0.03713  0.18174  0.53075  Biso   1.000  H
  C874     1.0000 0.15371  0.23785  0.63246  Biso   1.000  C
  H548     1.0000 0.18713  0.23027  0.55235  Biso   1.000  H
  C875     1.0000 0.07933  0.17128  0.24684  Biso   1.000  C
  C876     1.0000 0.07931  0.17124  0.24684  Biso   1.000  C
  H549     1.0000 0.05444  0.19995  0.32498  Biso   1.000  H
  C877     1.0000 0.20922  0.36667  0.46708  Biso   1.000  C
  H550     1.0000 0.13224  0.31738  0.46505  Biso   1.000  H
  H551     1.0000 0.13222  0.31734  0.46505  Biso   1.000  H
  C878     1.0000 0.25852  0.33336  0.42047  Biso   1.000  C
  H552     1.0000 0.21432  0.26116  0.38369  Biso   1.000  H
  C879     1.0000 0.05102  0.01376  0.41786  Biso   1.000  C
  C880     1.0000 0.98623  0.03725  0.41786  Biso   1.000  C
  H553     1.0000 0.03374  0.20098  0.64094  Biso   1.000  H
  C881     1.0000 0.10714  0.22708  0.65637  Biso   1.000  C
  H554     1.0000 0.03372  0.20095  0.64094  Biso   1.000  H
  C882     1.0000 0.10712  0.22705  0.65637  Biso   1.000  C
  H555     1.0000 0.18362  0.25345  0.65849  Biso   1.000  H
  C883     1.0000 0.11744  0.15886  0.23359  Biso   1.000  C
  C884     1.0000 0.04051  0.16055  0.20394  Biso   1.000  C
  C885     1.0000 0.25391  0.37035  0.45175  Biso   1.000  C
  H556     1.0000 0.20794  0.39438  0.48699  Biso   1.000  H
  H557     1.0000 0.20792  0.39434  0.48699  Biso   1.000  H
  H558     1.0000 0.29093  0.33777  0.40895  Biso   1.000  H
  H559     1.0000 0.29091  0.33773  0.40895  Biso   1.000  H
  H560     1.0000 0.08622  0.02315  0.41888  Biso   1.000  H
  C886     1.0000 0.01354  0.96256  0.41729  Biso   1.000  C
  C887     1.0000 0.94902  0.98647  0.41729  Biso   1.000  C
  H561     1.0000 0.97684  0.06309  0.41888  Biso   1.000  H
  H562     1.0000 0.97682  0.06305  0.41888  Biso   1.000  H
  F88      1.0000 0.10612  0.23747  0.72077  Biso   1.000  F
  C888     1.0000 0.11732  0.13805  0.17256  Biso   1.000  C
  H563     1.0000 0.14273  0.16438  0.26487  Biso   1.000  H
  H564     1.0000 0.14271  0.16434  0.26487  Biso   1.000  H
  C889     1.0000 0.03954  0.13836  0.14369  Biso   1.000  C
  H565     1.0000 0.01433  0.16806  0.21498  Biso   1.000  H
  F89      1.0000 0.29973  0.41465  0.46476  Biso   1.000  F
  C890     1.0000 0.96272  0.94895  0.41786  Biso   1.000  C
  C891     1.0000 0.02593  0.92135  0.42775  Biso   1.000  C
  C892     1.0000 0.89542  0.97405  0.42775  Biso   1.000  C
  C893     1.0000 0.07772  0.12836  0.13087  Biso   1.000  C
  C894     1.0000 0.16124  0.13115  0.15709  Biso   1.000  C
  C895     1.0000 0.99923  0.12997  0.09848  Biso   1.000  C
  H566     1.0000 0.93693  0.91377  0.41888  Biso   1.000  H
  H567     1.0000 0.99992  0.88705  0.41945  Biso   1.000  H
  N93      1.0000 0.06961  0.92925  0.44746  Biso   1.000  N
  N94      1.0000 0.85963  0.93036  0.44746  Biso   1.000  N
  H568     1.0000 0.88715  0.00008  0.41945  Biso   1.000  H
  H569     1.0000 0.88713  0.00004  0.41945  Biso   1.000  H
  H570     1.0000 0.07716  0.11348  0.09028  Biso   1.000  H
  H571     1.0000 0.07714  0.11345  0.09028  Biso   1.000  H
  H572     1.0000 0.18434  0.13468  0.19035  Biso   1.000  H
  N95      1.0000 0.16892  0.12058  0.10016  Biso   1.000  N
  H573     1.0000 0.18432  0.13464  0.19035  Biso   1.000  H
  N96      1.0000 0.16890  0.12054  0.10016  Biso   1.000  N
  N97      1.0000 0.97075  0.14829  0.10474  Biso   1.000  N
  H574     1.0000 0.99453  0.10915  0.06175  Biso   1.000  H
  N98      1.0000 0.97073  0.14825  0.10474  Biso   1.000  N
  C896     1.0000 0.07442  0.88456  0.46086  Biso   1.000  C
  C897     1.0000 0.81014  0.92557  0.46086  Biso   1.000  C
  C898     1.0000 0.21704  0.12096  0.08985  Biso   1.000  C
  C899     1.0000 0.93033  0.13675  0.05799  Biso   1.000  C
  C900     1.0000 0.11254  0.88287  0.41179  Biso   1.000  C
  C901     1.0000 0.11252  0.88284  0.41179  Biso   1.000  C
  H575     1.0000 0.04014  0.85306  0.45536  Biso   1.000  H
  C902     1.0000 0.09233  0.88667  0.52989  Biso   1.000  C
  H576     1.0000 0.81295  0.95987  0.45536  Biso   1.000  H
  C903     1.0000 0.77034  0.88747  0.41179  Biso   1.000  C
  C904     1.0000 0.79435  0.90767  0.52989  Biso   1.000  C
  H577     1.0000 0.81293  0.95983  0.45536  Biso   1.000  H
  C905     1.0000 0.77032  0.88744  0.41179  Biso   1.000  C
  C906     1.0000 0.79433  0.90763  0.52989  Biso   1.000  C
  C907     1.0000 0.20644  0.06968  0.05799  Biso   1.000  C
  H578     1.0000 0.23324  0.12368  0.13284  Biso   1.000  H
  C908     1.0000 0.25184  0.16618  0.05196  Biso   1.000  C
  C909     1.0000 0.20642  0.06964  0.05799  Biso   1.000  C
  H579     1.0000 0.23322  0.12364  0.13284  Biso   1.000  H
  C910     1.0000 0.25182  0.16615  0.05196  Biso   1.000  C
  H580     1.0000 0.93655  0.12138  0.01865  Biso   1.000  H
  C911     1.0000 0.87903  0.09608  0.08985  Biso   1.000  C
  C912     1.0000 0.92985  0.18539  0.03856  Biso   1.000  C
  H581     1.0000 0.93653  0.12134  0.01865  Biso   1.000  H
  C913     1.0000 0.87901  0.09605  0.08985  Biso   1.000  C
  C914     1.0000 0.92983  0.18535  0.03856  Biso   1.000  C
  N99      1.0000 0.09012  0.88046  0.34845  Biso   1.000  N
  H582     1.0000 0.14712  0.91407  0.41555  Biso   1.000  H
  C915     1.0000 0.11534  0.83477  0.42244  Biso   1.000  C
  H583     1.0000 0.14711  0.91403  0.41555  Biso   1.000  H
  C916     1.0000 0.11532  0.83474  0.42244  Biso   1.000  C
  C917     1.0000 0.12874  0.93266  0.55644  Biso   1.000  C
  C918     1.0000 0.06962  0.84436  0.56927  Biso   1.000  C
  N100     1.0000 0.79033  0.90986  0.34845  Biso   1.000  N
  H584     1.0000 0.76695  0.85286  0.41555  Biso   1.000  H
  C919     1.0000 0.71942  0.88468  0.42244  Biso   1.000  C
  C920     1.0000 0.71940  0.88464  0.42244  Biso   1.000  C
  C921     1.0000 0.80393  0.87126  0.55644  Biso   1.000  C
  C922     1.0000 0.77473  0.93036  0.56927  Biso   1.000  C
  H585     1.0000 0.18485  0.06347  0.01865  Biso   1.000  H
  N101     1.0000 0.17755  0.02928  0.10474  Biso   1.000  N
  C923     1.0000 0.25555  0.07018  0.03856  Biso   1.000  C
  N102     1.0000 0.17753  0.02924  0.10474  Biso   1.000  N
  C924     1.0000 0.25553  0.07014  0.03856  Biso   1.000  C
  C925     1.0000 0.29603  0.20405  0.08435  Biso   1.000  C
  C926     1.0000 0.24034  0.17366  0.99075  Biso   1.000  C
  N103     1.0000 0.87943  0.04837  0.10016  Biso   1.000  N
  H586     1.0000 0.87635  0.10958  0.13284  Biso   1.000  H
  C927     1.0000 0.83382  0.08566  0.05196  Biso   1.000  C
  H587     1.0000 0.87633  0.10954  0.13284  Biso   1.000  H
  C928     1.0000 0.92742  0.19585  0.97628  Biso   1.000  C
  C929     1.0000 0.93163  0.21808  0.08435  Biso   1.000  C
  C930     1.0000 0.93161  0.21804  0.08435  Biso   1.000  C
  C931     1.0000 0.11334  0.91787  0.31177  Biso   1.000  C
  C932     1.0000 0.15663  0.83577  0.45315  Biso   1.000  C
  C933     1.0000 0.07534  0.78756  0.40576  Biso   1.000  C
  H588     1.0000 0.14463  0.96286  0.53075  Biso   1.000  H
  C934     1.0000 0.14224  0.93477  0.62205  Biso   1.000  C
  C935     1.0000 0.08415  0.84627  0.63246  Biso   1.000  C
  H589     1.0000 0.04311  0.81285  0.55235  Biso   1.000  H
  C936     1.0000 0.08413  0.84623  0.63246  Biso   1.000  C
  C937     1.0000 0.80453  0.88667  0.31177  Biso   1.000  C
  C938     1.0000 0.67911  0.84336  0.45315  Biso   1.000  C
  C939     1.0000 0.71223  0.92465  0.40576  Biso   1.000  C
  H590     1.0000 0.81821  0.85536  0.53075  Biso   1.000  H
  C940     1.0000 0.79253  0.85777  0.62205  Biso   1.000  C
  C941     1.0000 0.76214  0.91587  0.63246  Biso   1.000  C
  H591     1.0000 0.76973  0.95688  0.55235  Biso   1.000  H
  C942     1.0000 0.76212  0.91584  0.63246  Biso   1.000  C
  H592     1.0000 0.76971  0.95684  0.55235  Biso   1.000  H
  C943     1.0000 0.13073  0.00077  0.09848  Biso   1.000  C
  C944     1.0000 0.28644  0.06837  0.08435  Biso   1.000  C
  C945     1.0000 0.28643  0.06834  0.08435  Biso   1.000  C
  C946     1.0000 0.26842  0.07255  0.97628  Biso   1.000  C
  C947     1.0000 0.32735  0.24816  0.05066  Biso   1.000  C
  H593     1.0000 0.30363  0.19926  0.12735  Biso   1.000  H
  H594     1.0000 0.20943  0.14829  0.97146  Biso   1.000  H
  C948     1.0000 0.27282  0.21758  0.95609  Biso   1.000  C
  H595     1.0000 0.20941  0.14825  0.97146  Biso   1.000  H
  C949     1.0000 0.27280  0.21754  0.95609  Biso   1.000  C
  C950     1.0000 0.86881  0.03005  0.15709  Biso   1.000  C
  C951     1.0000 0.82634  0.06665  0.99075  Biso   1.000  C
  C952     1.0000 0.79593  0.09198  0.08435  Biso   1.000  C
  C953     1.0000 0.79591  0.09195  0.08435  Biso   1.000  C
  H596     1.0000 0.92594  0.17278  0.94409  Biso   1.000  H
  C954     1.0000 0.92715  0.24058  0.95797  Biso   1.000  C
  H597     1.0000 0.92592  0.17274  0.94409  Biso   1.000  H
  C955     1.0000 0.92713  0.24054  0.95797  Biso   1.000  C
  C956     1.0000 0.93104  0.26277  0.06898  Biso   1.000  C
  H598     1.0000 0.93343  0.21045  0.12836  Biso   1.000  H
  C957     1.0000 0.09194  0.92066  0.24684  Biso   1.000  C
  H599     1.0000 0.14555  0.94558  0.32498  Biso   1.000  H
  H600     1.0000 0.14553  0.94554  0.32498  Biso   1.000  H
  H601     1.0000 0.18515  0.86777  0.46505  Biso   1.000  H
  C958     1.0000 0.15744  0.79078  0.46708  Biso   1.000  C
  H602     1.0000 0.18513  0.86774  0.46505  Biso   1.000  H
  C959     1.0000 0.15742  0.79074  0.46708  Biso   1.000  C
  C960     1.0000 0.07482  0.74145  0.42047  Biso   1.000  C
  H603     1.0000 0.04685  0.78568  0.38369  Biso   1.000  H
  H604     1.0000 0.04683  0.78564  0.38369  Biso   1.000  H
  H605     1.0000 0.16725  0.96627  0.64094  Biso   1.000  H
  C961     1.0000 0.11993  0.89288  0.65637  Biso   1.000  C
  H606     1.0000 0.16723  0.96623  0.64094  Biso   1.000  H
  C962     1.0000 0.11991  0.89284  0.65637  Biso   1.000  C
  H607     1.0000 0.06983  0.81638  0.65849  Biso   1.000  H
  H608     1.0000 0.06981  0.81634  0.65849  Biso   1.000  H
  C963     1.0000 0.82873  0.90805  0.24684  Biso   1.000  C
  H609     1.0000 0.80005  0.85447  0.32498  Biso   1.000  H
  H610     1.0000 0.80003  0.85444  0.32498  Biso   1.000  H
  H611     1.0000 0.68263  0.81488  0.46505  Biso   1.000  H
  C964     1.0000 0.63334  0.84255  0.46708  Biso   1.000  C
  H612     1.0000 0.68261  0.81484  0.46505  Biso   1.000  H
  C965     1.0000 0.66664  0.92515  0.42047  Biso   1.000  C
  H613     1.0000 0.73883  0.95317  0.38369  Biso   1.000  H
  H614     1.0000 0.79902  0.83278  0.64094  Biso   1.000  H
  C966     1.0000 0.77295  0.88008  0.65637  Biso   1.000  C
  H615     1.0000 0.79901  0.83274  0.64094  Biso   1.000  H
  C967     1.0000 0.77293  0.88004  0.65637  Biso   1.000  C
  H616     1.0000 0.74655  0.93017  0.65849  Biso   1.000  H
  H617     1.0000 0.11463  0.00548  0.06175  Biso   1.000  H
  H618     1.0000 0.11461  0.00544  0.06175  Biso   1.000  H
  C968     1.0000 0.09884  0.96049  0.14369  Biso   1.000  C
  C969     1.0000 0.09882  0.96045  0.14369  Biso   1.000  C
  C970     1.0000 0.33174  0.06895  0.06898  Biso   1.000  C
  H619     1.0000 0.27705  0.06657  0.12836  Biso   1.000  H
  H620     1.0000 0.27703  0.06653  0.12836  Biso   1.000  H
  H621     1.0000 0.24685  0.07409  0.94409  Biso   1.000  H
  C971     1.0000 0.31341  0.07286  0.95797  Biso   1.000  C
  H622     1.0000 0.24683  0.07405  0.94409  Biso   1.000  H
  H623     1.0000 0.35663  0.27507  0.07115  Biso   1.000  H
  C972     1.0000 0.31653  0.25387  0.98699  Biso   1.000  C
  C973     1.0000 0.31651  0.25384  0.98699  Biso   1.000  C
  H624     1.0000 0.26524  0.22226  0.91295  Biso   1.000  H
  C974     1.0000 0.86194  0.97927  0.17256  Biso   1.000  C
  H625     1.0000 0.86535  0.04967  0.19035  Biso   1.000  H
  H626     1.0000 0.86533  0.04963  0.19035  Biso   1.000  H
  H627     1.0000 0.85175  0.06117  0.97146  Biso   1.000  H
  C975     1.0000 0.78245  0.05527  0.95609  Biso   1.000  C
  C976     1.0000 0.75185  0.07918  0.05066  Biso   1.000  C
  H628     1.0000 0.80072  0.10436  0.12735  Biso   1.000  H
  C977     1.0000 0.75183  0.07914  0.05066  Biso   1.000  C
  H629     1.0000 0.92474  0.24778  0.91396  Biso   1.000  H
  H630     1.0000 0.92472  0.24774  0.91396  Biso   1.000  H
  C978     1.0000 0.93045  0.27208  0.00366  Biso   1.000  C
  C979     1.0000 0.93043  0.27204  0.00366  Biso   1.000  C
  H631     1.0000 0.93094  0.28526  0.10098  Biso   1.000  H
  C980     1.0000 0.12003  0.95945  0.20394  Biso   1.000  C
  C981     1.0000 0.04142  0.88257  0.23359  Biso   1.000  C
  H632     1.0000 0.18643  0.79208  0.48699  Biso   1.000  H
  C982     1.0000 0.11642  0.74605  0.45175  Biso   1.000  C
  H633     1.0000 0.18641  0.79204  0.48699  Biso   1.000  H
  H634     1.0000 0.04684  0.70906  0.40895  Biso   1.000  H
  F90      1.0000 0.13135  0.89387  0.72077  Biso   1.000  F
  F91      1.0000 0.13133  0.89384  0.72077  Biso   1.000  F
  C983     1.0000 0.84114  0.95857  0.23359  Biso   1.000  C
  C984     1.0000 0.83944  0.87996  0.20394  Biso   1.000  C
  H635     1.0000 0.60564  0.81358  0.48699  Biso   1.000  H
  C985     1.0000 0.62965  0.88356  0.45175  Biso   1.000  C
  H636     1.0000 0.60562  0.81354  0.48699  Biso   1.000  H
  H637     1.0000 0.66222  0.95317  0.40895  Biso   1.000  H
  F92      1.0000 0.76253  0.86866  0.72077  Biso   1.000  F
  C986     1.0000 0.05062  0.92227  0.13087  Biso   1.000  C
  C987     1.0000 0.05060  0.92224  0.13087  Biso   1.000  C
  C988     1.0000 0.34164  0.06956  0.00366  Biso   1.000  C
  H638     1.0000 0.35433  0.06906  0.10098  Biso   1.000  H
  H639     1.0000 0.32305  0.07527  0.91396  Biso   1.000  H
  H640     1.0000 0.32303  0.07523  0.91396  Biso   1.000  H
  F93      1.0000 0.34983  0.29757  0.95758  Biso   1.000  F
  C989     1.0000 0.87163  0.94937  0.13087  Biso   1.000  C
  H641     1.0000 0.77772  0.04296  0.91295  Biso   1.000  H
  C990     1.0000 0.74612  0.06266  0.98699  Biso   1.000  C
  H642     1.0000 0.72493  0.08156  0.07115  Biso   1.000  H
  F94      1.0000 0.92943  0.31577  0.98968  Biso   1.000  F
  F95      1.0000 0.92941  0.31573  0.98968  Biso   1.000  F
  H643     1.0000 0.15375  0.98567  0.21498  Biso   1.000  H
  C991     1.0000 0.02074  0.88268  0.17256  Biso   1.000  C
  C992     1.0000 0.02072  0.88264  0.17256  Biso   1.000  C
  H644     1.0000 0.02164  0.85727  0.26487  Biso   1.000  H
  H645     1.0000 0.02162  0.85723  0.26487  Biso   1.000  H
  F96      1.0000 0.11493  0.70025  0.46476  Biso   1.000  F
  H646     1.0000 0.83565  0.97838  0.26487  Biso   1.000  H
  H647     1.0000 0.83563  0.97835  0.26487  Biso   1.000  H
  C993     1.0000 0.86162  0.90116  0.14369  Biso   1.000  C
  H648     1.0000 0.83193  0.84627  0.21498  Biso   1.000  H
  H649     1.0000 0.83191  0.84623  0.21498  Biso   1.000  H
  F97      1.0000 0.58532  0.88506  0.46476  Biso   1.000  F
  H650     1.0000 0.03634  0.92285  0.09028  Biso   1.000  H
  F98      1.0000 0.38632  0.07056  0.98968  Biso   1.000  F
  H651     1.0000 0.88654  0.96367  0.09028  Biso   1.000  H
  F99      1.0000 0.70245  0.05228  0.95758  Biso   1.000  F
  F100     1.0000 0.70243  0.05224  0.95758  Biso   1.000  F
  C994     1.0000 0.96993  0.83876  0.15709  Biso   1.000  C
  C995     1.0000 0.87004  0.86927  0.09848  Biso   1.000  C
  N104     1.0000 0.95164  0.83106  0.10016  Biso   1.000  N
  H652     1.0000 0.95031  0.81565  0.19035  Biso   1.000  H
  N105     1.0000 0.85172  0.82247  0.10474  Biso   1.000  N
  H653     1.0000 0.89084  0.88537  0.06175  Biso   1.000  H
  N106     1.0000 0.85170  0.82243  0.10474  Biso   1.000  N
  C996     1.0000 0.90393  0.78296  0.08985  Biso   1.000  C
  C997     1.0000 0.86323  0.79357  0.05799  Biso   1.000  C
  C998     1.0000 0.86321  0.79354  0.05799  Biso   1.000  C
  H654     1.0000 0.89043  0.76678  0.13284  Biso   1.000  H
  C999     1.0000 0.91434  0.74816  0.05196  Biso   1.000  C
  H655     1.0000 0.89041  0.76674  0.13284  Biso   1.000  H
  H656     1.0000 0.87863  0.81515  0.01865  Biso   1.000  H
  C1000    1.0000 0.81465  0.74448  0.03856  Biso   1.000  C
  C1001    1.0000 0.81463  0.74444  0.03856  Biso   1.000  C
  C1002    1.0000 0.93333  0.75965  0.99075  Biso   1.000  C
  C1003    1.0000 0.90804  0.70397  0.08435  Biso   1.000  C
  C1004    1.0000 0.80414  0.73156  0.97628  Biso   1.000  C
  C1005    1.0000 0.78193  0.71355  0.08435  Biso   1.000  C
  H657     1.0000 0.93884  0.79058  0.97146  Biso   1.000  H
  C1006    1.0000 0.94473  0.72715  0.95609  Biso   1.000  C
  H658     1.0000 0.93882  0.79055  0.97146  Biso   1.000  H
  C1007    1.0000 0.92083  0.67265  0.05066  Biso   1.000  C
  H659     1.0000 0.89565  0.69638  0.12735  Biso   1.000  H
  H660     1.0000 0.89563  0.69634  0.12735  Biso   1.000  H
  H661     1.0000 0.82723  0.75318  0.94409  Biso   1.000  H
  C1008    1.0000 0.75944  0.68657  0.95797  Biso   1.000  C
  H662     1.0000 0.82721  0.75314  0.94409  Biso   1.000  H
  C1009    1.0000 0.73726  0.66828  0.06898  Biso   1.000  C
  H663     1.0000 0.78953  0.72298  0.12836  Biso   1.000  H
  C1010    1.0000 0.73724  0.66825  0.06898  Biso   1.000  C
  H664     1.0000 0.78951  0.72294  0.12836  Biso   1.000  H
  H665     1.0000 0.95704  0.73478  0.91295  Biso   1.000  H
  C1011    1.0000 0.93732  0.68346  0.98699  Biso   1.000  C
  H666     1.0000 0.95702  0.73474  0.91295  Biso   1.000  H
  H667     1.0000 0.91844  0.64337  0.07115  Biso   1.000  H
  H668     1.0000 0.91842  0.64333  0.07115  Biso   1.000  H
  H669     1.0000 0.75223  0.67698  0.91396  Biso   1.000  H
  H670     1.0000 0.75221  0.67695  0.91396  Biso   1.000  H
  C1012    1.0000 0.72794  0.65836  0.00366  Biso   1.000  C
  H671     1.0000 0.71473  0.64567  0.10098  Biso   1.000  H
  H672     1.0000 0.71471  0.64563  0.10098  Biso   1.000  H
  F101     1.0000 0.94772  0.65016  0.95758  Biso   1.000  F
  F102     1.0000 0.68422  0.61367  0.98968  Biso   1.000  F
  C1013    1.0000 0.11545  0.18987  0.46086  Biso   1.000  C
  C1014    1.0000 0.11712  0.22965  0.41179  Biso   1.000  C
  N107     1.0000 0.07074  0.14035  0.44746  Biso   1.000  N
  C1015    1.0000 0.11332  0.20566  0.52989  Biso   1.000  C
  H673     1.0000 0.14694  0.18707  0.45536  Biso   1.000  H
  H674     1.0000 0.14692  0.18703  0.45536  Biso   1.000  H
  N108     1.0000 0.11955  0.20968  0.34845  Biso   1.000  N
  N109     1.0000 0.11953  0.20965  0.34845  Biso   1.000  N
  H675     1.0000 0.08593  0.23306  0.41555  Biso   1.000  H
  C1016    1.0000 0.16524  0.28055  0.42244  Biso   1.000  C
  C1017    1.0000 0.07863  0.10455  0.42775  Biso   1.000  C
  C1018    1.0000 0.06734  0.19608  0.55644  Biso   1.000  C
  C1019    1.0000 0.15566  0.22528  0.56927  Biso   1.000  C
  C1020    1.0000 0.06732  0.19604  0.55644  Biso   1.000  C
  C1021    1.0000 0.15564  0.22524  0.56927  Biso   1.000  C
  C1022    1.0000 0.08213  0.19547  0.31177  Biso   1.000  C
  C1023    1.0000 0.16422  0.32087  0.45315  Biso   1.000  C
  C1024    1.0000 0.21242  0.28776  0.40576  Biso   1.000  C
  C1025    1.0000 0.03744  0.05097  0.41729  Biso   1.000  C
  H676     1.0000 0.11293  0.11287  0.41945  Biso   1.000  H
  C1026    1.0000 0.03742  0.05094  0.41729  Biso   1.000  C
  H677     1.0000 0.11291  0.11283  0.41945  Biso   1.000  H
  C1027    1.0000 0.06523  0.20746  0.62205  Biso   1.000  C
  H678     1.0000 0.03715  0.18178  0.53075  Biso   1.000  H
  H679     1.0000 0.03713  0.18174  0.53075  Biso   1.000  H
  C1028    1.0000 0.15371  0.23785  0.63246  Biso   1.000  C
  H680     1.0000 0.18713  0.23027  0.55235  Biso   1.000  H
  C1029    1.0000 0.07933  0.17128  0.24684  Biso   1.000  C
  C1030    1.0000 0.07931  0.17124  0.24684  Biso   1.000  C
  H681     1.0000 0.05444  0.19995  0.32498  Biso   1.000  H
  C1031    1.0000 0.20922  0.36667  0.46708  Biso   1.000  C
  H682     1.0000 0.13224  0.31738  0.46505  Biso   1.000  H
  H683     1.0000 0.13222  0.31734  0.46505  Biso   1.000  H
  C1032    1.0000 0.25852  0.33336  0.42047  Biso   1.000  C
  H684     1.0000 0.21432  0.26116  0.38369  Biso   1.000  H
  C1033    1.0000 0.05102  0.01376  0.41786  Biso   1.000  C
  C1034    1.0000 0.98623  0.03725  0.41786  Biso   1.000  C
  H685     1.0000 0.03374  0.20098  0.64094  Biso   1.000  H
  C1035    1.0000 0.10714  0.22708  0.65637  Biso   1.000  C
  H686     1.0000 0.03372  0.20095  0.64094  Biso   1.000  H
  C1036    1.0000 0.10712  0.22705  0.65637  Biso   1.000  C
  H687     1.0000 0.18362  0.25345  0.65849  Biso   1.000  H
  C1037    1.0000 0.11744  0.15886  0.23359  Biso   1.000  C
  C1038    1.0000 0.04051  0.16055  0.20394  Biso   1.000  C
  C1039    1.0000 0.25391  0.37035  0.45175  Biso   1.000  C
  H688     1.0000 0.20794  0.39438  0.48699  Biso   1.000  H
  H689     1.0000 0.20792  0.39434  0.48699  Biso   1.000  H
  H690     1.0000 0.29093  0.33777  0.40895  Biso   1.000  H
  H691     1.0000 0.29091  0.33773  0.40895  Biso   1.000  H
  H692     1.0000 0.08622  0.02315  0.41888  Biso   1.000  H
  C1040    1.0000 0.01354  0.96256  0.41729  Biso   1.000  C
  C1041    1.0000 0.94902  0.98647  0.41729  Biso   1.000  C
  H693     1.0000 0.97684  0.06309  0.41888  Biso   1.000  H
  H694     1.0000 0.97682  0.06305  0.41888  Biso   1.000  H
  F103     1.0000 0.10612  0.23747  0.72077  Biso   1.000  F
  C1042    1.0000 0.11732  0.13805  0.17256  Biso   1.000  C
  H695     1.0000 0.14273  0.16438  0.26487  Biso   1.000  H
  H696     1.0000 0.14271  0.16434  0.26487  Biso   1.000  H
  C1043    1.0000 0.03954  0.13836  0.14369  Biso   1.000  C
  H697     1.0000 0.01433  0.16806  0.21498  Biso   1.000  H
  F104     1.0000 0.29973  0.41465  0.46476  Biso   1.000  F
  C1044    1.0000 0.96272  0.94895  0.41786  Biso   1.000  C
  C1045    1.0000 0.02593  0.92135  0.42775  Biso   1.000  C
  C1046    1.0000 0.89542  0.97405  0.42775  Biso   1.000  C
  C1047    1.0000 0.07772  0.12836  0.13087  Biso   1.000  C
  C1048    1.0000 0.16124  0.13115  0.15709  Biso   1.000  C
  C1049    1.0000 0.99923  0.12997  0.09848  Biso   1.000  C
  H698     1.0000 0.93693  0.91377  0.41888  Biso   1.000  H
  H699     1.0000 0.99992  0.88705  0.41945  Biso   1.000  H
  N110     1.0000 0.06961  0.92925  0.44746  Biso   1.000  N
  N111     1.0000 0.85963  0.93036  0.44746  Biso   1.000  N
  H700     1.0000 0.88715  0.00008  0.41945  Biso   1.000  H
  H701     1.0000 0.88713  0.00004  0.41945  Biso   1.000  H
  H702     1.0000 0.07716  0.11348  0.09028  Biso   1.000  H
  H703     1.0000 0.07714  0.11345  0.09028  Biso   1.000  H
  H704     1.0000 0.18434  0.13468  0.19035  Biso   1.000  H
  N112     1.0000 0.16892  0.12058  0.10016  Biso   1.000  N
  H705     1.0000 0.18432  0.13464  0.19035  Biso   1.000  H
  N113     1.0000 0.16890  0.12054  0.10016  Biso   1.000  N
  N114     1.0000 0.97075  0.14829  0.10474  Biso   1.000  N
  H706     1.0000 0.99453  0.10915  0.06175  Biso   1.000  H
  N115     1.0000 0.97073  0.14825  0.10474  Biso   1.000  N
  C1050    1.0000 0.07442  0.88456  0.46086  Biso   1.000  C
  C1051    1.0000 0.81014  0.92557  0.46086  Biso   1.000  C
  C1052    1.0000 0.21704  0.12096  0.08985  Biso   1.000  C
  C1053    1.0000 0.93033  0.13675  0.05799  Biso   1.000  C
  C1054    1.0000 0.11254  0.88287  0.41179  Biso   1.000  C
  C1055    1.0000 0.11252  0.88284  0.41179  Biso   1.000  C
  H707     1.0000 0.04014  0.85306  0.45536  Biso   1.000  H
  C1056    1.0000 0.09233  0.88667  0.52989  Biso   1.000  C
  H708     1.0000 0.81295  0.95987  0.45536  Biso   1.000  H
  C1057    1.0000 0.77034  0.88747  0.41179  Biso   1.000  C
  C1058    1.0000 0.79435  0.90767  0.52989  Biso   1.000  C
  H709     1.0000 0.81293  0.95983  0.45536  Biso   1.000  H
  C1059    1.0000 0.77032  0.88744  0.41179  Biso   1.000  C
  C1060    1.0000 0.79433  0.90763  0.52989  Biso   1.000  C
  C1061    1.0000 0.20644  0.06968  0.05799  Biso   1.000  C
  H710     1.0000 0.23324  0.12368  0.13284  Biso   1.000  H
  C1062    1.0000 0.25184  0.16618  0.05196  Biso   1.000  C
  C1063    1.0000 0.20642  0.06964  0.05799  Biso   1.000  C
  H711     1.0000 0.23322  0.12364  0.13284  Biso   1.000  H
  C1064    1.0000 0.25182  0.16615  0.05196  Biso   1.000  C
  H712     1.0000 0.93655  0.12138  0.01865  Biso   1.000  H
  C1065    1.0000 0.87903  0.09608  0.08985  Biso   1.000  C
  C1066    1.0000 0.92985  0.18539  0.03856  Biso   1.000  C
  H713     1.0000 0.93653  0.12134  0.01865  Biso   1.000  H
  C1067    1.0000 0.87901  0.09605  0.08985  Biso   1.000  C
  C1068    1.0000 0.92983  0.18535  0.03856  Biso   1.000  C
  N116     1.0000 0.09012  0.88046  0.34845  Biso   1.000  N
  H714     1.0000 0.14712  0.91407  0.41555  Biso   1.000  H
  C1069    1.0000 0.11534  0.83477  0.42244  Biso   1.000  C
  H715     1.0000 0.14711  0.91403  0.41555  Biso   1.000  H
  C1070    1.0000 0.11532  0.83474  0.42244  Biso   1.000  C
  C1071    1.0000 0.12874  0.93266  0.55644  Biso   1.000  C
  C1072    1.0000 0.06962  0.84436  0.56927  Biso   1.000  C
  N117     1.0000 0.79033  0.90986  0.34845  Biso   1.000  N
  H716     1.0000 0.76695  0.85286  0.41555  Biso   1.000  H
  C1073    1.0000 0.71942  0.88468  0.42244  Biso   1.000  C
  C1074    1.0000 0.71940  0.88464  0.42244  Biso   1.000  C
  C1075    1.0000 0.80393  0.87126  0.55644  Biso   1.000  C
  C1076    1.0000 0.77473  0.93036  0.56927  Biso   1.000  C
  H717     1.0000 0.18485  0.06347  0.01865  Biso   1.000  H
  N118     1.0000 0.17755  0.02928  0.10474  Biso   1.000  N
  C1077    1.0000 0.25555  0.07018  0.03856  Biso   1.000  C
  N119     1.0000 0.17753  0.02924  0.10474  Biso   1.000  N
  C1078    1.0000 0.25553  0.07014  0.03856  Biso   1.000  C
  C1079    1.0000 0.29603  0.20405  0.08435  Biso   1.000  C
  C1080    1.0000 0.24034  0.17366  0.99075  Biso   1.000  C
  N120     1.0000 0.87943  0.04837  0.10016  Biso   1.000  N
  H718     1.0000 0.87635  0.10958  0.13284  Biso   1.000  H
  C1081    1.0000 0.83382  0.08566  0.05196  Biso   1.000  C
  H719     1.0000 0.87633  0.10954  0.13284  Biso   1.000  H
  C1082    1.0000 0.92742  0.19585  0.97628  Biso   1.000  C
  C1083    1.0000 0.93163  0.21808  0.08435  Biso   1.000  C
  C1084    1.0000 0.93161  0.21804  0.08435  Biso   1.000  C
  C1085    1.0000 0.11334  0.91787  0.31177  Biso   1.000  C
  C1086    1.0000 0.15663  0.83577  0.45315  Biso   1.000  C
  C1087    1.0000 0.07534  0.78756  0.40576  Biso   1.000  C
  H720     1.0000 0.14463  0.96286  0.53075  Biso   1.000  H
  C1088    1.0000 0.14224  0.93477  0.62205  Biso   1.000  C
  C1089    1.0000 0.08415  0.84627  0.63246  Biso   1.000  C
  H721     1.0000 0.04311  0.81285  0.55235  Biso   1.000  H
  C1090    1.0000 0.08413  0.84623  0.63246  Biso   1.000  C
  C1091    1.0000 0.80453  0.88667  0.31177  Biso   1.000  C
  C1092    1.0000 0.67911  0.84336  0.45315  Biso   1.000  C
  C1093    1.0000 0.71223  0.92465  0.40576  Biso   1.000  C
  H722     1.0000 0.81821  0.85536  0.53075  Biso   1.000  H
  C1094    1.0000 0.79253  0.85777  0.62205  Biso   1.000  C
  C1095    1.0000 0.76214  0.91587  0.63246  Biso   1.000  C
  H723     1.0000 0.76973  0.95688  0.55235  Biso   1.000  H
  C1096    1.0000 0.76212  0.91584  0.63246  Biso   1.000  C
  H724     1.0000 0.76971  0.95684  0.55235  Biso   1.000  H
  C1097    1.0000 0.13073  0.00077  0.09848  Biso   1.000  C
  C1098    1.0000 0.26842  0.07255  0.97628  Biso   1.000  C
  C1099    1.0000 0.28644  0.06837  0.08435  Biso   1.000  C
  C1100    1.0000 0.28643  0.06834  0.08435  Biso   1.000  C
  C1101    1.0000 0.32735  0.24816  0.05066  Biso   1.000  C
  H725     1.0000 0.30363  0.19926  0.12735  Biso   1.000  H
  H726     1.0000 0.20943  0.14829  0.97146  Biso   1.000  H
  C1102    1.0000 0.27282  0.21758  0.95609  Biso   1.000  C
  H727     1.0000 0.20941  0.14825  0.97146  Biso   1.000  H
  C1103    1.0000 0.27280  0.21754  0.95609  Biso   1.000  C
  C1104    1.0000 0.86881  0.03005  0.15709  Biso   1.000  C
  C1105    1.0000 0.82634  0.06665  0.99075  Biso   1.000  C
  C1106    1.0000 0.79593  0.09198  0.08435  Biso   1.000  C
  C1107    1.0000 0.79591  0.09195  0.08435  Biso   1.000  C
  H728     1.0000 0.92594  0.17278  0.94409  Biso   1.000  H
  C1108    1.0000 0.92715  0.24058  0.95797  Biso   1.000  C
  H729     1.0000 0.92592  0.17274  0.94409  Biso   1.000  H
  C1109    1.0000 0.92713  0.24054  0.95797  Biso   1.000  C
  C1110    1.0000 0.93104  0.26277  0.06898  Biso   1.000  C
  H730     1.0000 0.93343  0.21045  0.12836  Biso   1.000  H
  C1111    1.0000 0.09194  0.92066  0.24684  Biso   1.000  C
  H731     1.0000 0.14555  0.94558  0.32498  Biso   1.000  H
  H732     1.0000 0.14553  0.94554  0.32498  Biso   1.000  H
  H733     1.0000 0.18515  0.86777  0.46505  Biso   1.000  H
  C1112    1.0000 0.15744  0.79078  0.46708  Biso   1.000  C
  H734     1.0000 0.18513  0.86774  0.46505  Biso   1.000  H
  C1113    1.0000 0.15742  0.79074  0.46708  Biso   1.000  C
  C1114    1.0000 0.07482  0.74145  0.42047  Biso   1.000  C
  H735     1.0000 0.04685  0.78568  0.38369  Biso   1.000  H
  H736     1.0000 0.04683  0.78564  0.38369  Biso   1.000  H
  H737     1.0000 0.16725  0.96627  0.64094  Biso   1.000  H
  C1115    1.0000 0.11993  0.89288  0.65637  Biso   1.000  C
  H738     1.0000 0.16723  0.96623  0.64094  Biso   1.000  H
  C1116    1.0000 0.11991  0.89284  0.65637  Biso   1.000  C
  H739     1.0000 0.06983  0.81638  0.65849  Biso   1.000  H
  H740     1.0000 0.06981  0.81634  0.65849  Biso   1.000  H
  C1117    1.0000 0.82873  0.90805  0.24684  Biso   1.000  C
  H741     1.0000 0.80005  0.85447  0.32498  Biso   1.000  H
  H742     1.0000 0.80003  0.85444  0.32498  Biso   1.000  H
  H743     1.0000 0.68263  0.81488  0.46505  Biso   1.000  H
  C1118    1.0000 0.63334  0.84255  0.46708  Biso   1.000  C
  H744     1.0000 0.68261  0.81484  0.46505  Biso   1.000  H
  C1119    1.0000 0.66664  0.92515  0.42047  Biso   1.000  C
  H745     1.0000 0.73883  0.95317  0.38369  Biso   1.000  H
  H746     1.0000 0.79902  0.83278  0.64094  Biso   1.000  H
  C1120    1.0000 0.77295  0.88008  0.65637  Biso   1.000  C
  H747     1.0000 0.79901  0.83274  0.64094  Biso   1.000  H
  C1121    1.0000 0.77293  0.88004  0.65637  Biso   1.000  C
  H748     1.0000 0.74655  0.93017  0.65849  Biso   1.000  H
  C1122    1.0000 0.09884  0.96049  0.14369  Biso   1.000  C
  C1123    1.0000 0.09882  0.96045  0.14369  Biso   1.000  C
  H749     1.0000 0.11463  0.00548  0.06175  Biso   1.000  H
  H750     1.0000 0.11461  0.00544  0.06175  Biso   1.000  H
  H751     1.0000 0.24685  0.07409  0.94409  Biso   1.000  H
  C1124    1.0000 0.31341  0.07286  0.95797  Biso   1.000  C
  H752     1.0000 0.24683  0.07405  0.94409  Biso   1.000  H
  C1125    1.0000 0.33174  0.06895  0.06898  Biso   1.000  C
  H753     1.0000 0.27705  0.06657  0.12836  Biso   1.000  H
  H754     1.0000 0.27703  0.06653  0.12836  Biso   1.000  H
  H755     1.0000 0.35663  0.27507  0.07115  Biso   1.000  H
  C1126    1.0000 0.31653  0.25387  0.98699  Biso   1.000  C
  C1127    1.0000 0.31651  0.25384  0.98699  Biso   1.000  C
  H756     1.0000 0.26524  0.22226  0.91295  Biso   1.000  H
  C1128    1.0000 0.86194  0.97927  0.17256  Biso   1.000  C
  H757     1.0000 0.86535  0.04967  0.19035  Biso   1.000  H
  H758     1.0000 0.86533  0.04963  0.19035  Biso   1.000  H
  H759     1.0000 0.85175  0.06117  0.97146  Biso   1.000  H
  C1129    1.0000 0.78245  0.05527  0.95609  Biso   1.000  C
  C1130    1.0000 0.75185  0.07918  0.05066  Biso   1.000  C
  H760     1.0000 0.80072  0.10436  0.12735  Biso   1.000  H
  C1131    1.0000 0.75183  0.07914  0.05066  Biso   1.000  C
  H761     1.0000 0.92474  0.24778  0.91396  Biso   1.000  H
  H762     1.0000 0.92472  0.24774  0.91396  Biso   1.000  H
  C1132    1.0000 0.93045  0.27208  0.00366  Biso   1.000  C
  C1133    1.0000 0.93043  0.27204  0.00366  Biso   1.000  C
  H763     1.0000 0.93094  0.28526  0.10098  Biso   1.000  H
  C1134    1.0000 0.12003  0.95945  0.20394  Biso   1.000  C
  C1135    1.0000 0.04142  0.88257  0.23359  Biso   1.000  C
  H764     1.0000 0.18643  0.79208  0.48699  Biso   1.000  H
  C1136    1.0000 0.11642  0.74605  0.45175  Biso   1.000  C
  H765     1.0000 0.18641  0.79204  0.48699  Biso   1.000  H
  H766     1.0000 0.04684  0.70906  0.40895  Biso   1.000  H
  F105     1.0000 0.13135  0.89387  0.72077  Biso   1.000  F
  F106     1.0000 0.13133  0.89384  0.72077  Biso   1.000  F
  C1137    1.0000 0.84114  0.95857  0.23359  Biso   1.000  C
  C1138    1.0000 0.83944  0.87996  0.20394  Biso   1.000  C
  H767     1.0000 0.60564  0.81358  0.48699  Biso   1.000  H
  C1139    1.0000 0.62965  0.88356  0.45175  Biso   1.000  C
  H768     1.0000 0.60562  0.81354  0.48699  Biso   1.000  H
  H769     1.0000 0.66222  0.95317  0.40895  Biso   1.000  H
  F107     1.0000 0.76253  0.86866  0.72077  Biso   1.000  F
  C1140    1.0000 0.05062  0.92227  0.13087  Biso   1.000  C
  C1141    1.0000 0.05060  0.92224  0.13087  Biso   1.000  C
  C1142    1.0000 0.34164  0.06956  0.00366  Biso   1.000  C
  H770     1.0000 0.32305  0.07527  0.91396  Biso   1.000  H
  H771     1.0000 0.32303  0.07523  0.91396  Biso   1.000  H
  H772     1.0000 0.35433  0.06906  0.10098  Biso   1.000  H
  F108     1.0000 0.34983  0.29757  0.95758  Biso   1.000  F
  C1143    1.0000 0.87163  0.94937  0.13087  Biso   1.000  C
  H773     1.0000 0.77772  0.04296  0.91295  Biso   1.000  H
  C1144    1.0000 0.74612  0.06266  0.98699  Biso   1.000  C
  H774     1.0000 0.72493  0.08156  0.07115  Biso   1.000  H
  F109     1.0000 0.92943  0.31577  0.98968  Biso   1.000  F
  F110     1.0000 0.92941  0.31573  0.98968  Biso   1.000  F
  H775     1.0000 0.15375  0.98567  0.21498  Biso   1.000  H
  C1145    1.0000 0.02074  0.88268  0.17256  Biso   1.000  C
  C1146    1.0000 0.02072  0.88264  0.17256  Biso   1.000  C
  H776     1.0000 0.02164  0.85727  0.26487  Biso   1.000  H
  H777     1.0000 0.02162  0.85723  0.26487  Biso   1.000  H
  F111     1.0000 0.11493  0.70025  0.46476  Biso   1.000  F
  H778     1.0000 0.83565  0.97838  0.26487  Biso   1.000  H
  H779     1.0000 0.83563  0.97835  0.26487  Biso   1.000  H
  C1147    1.0000 0.86162  0.90116  0.14369  Biso   1.000  C
  H780     1.0000 0.83193  0.84627  0.21498  Biso   1.000  H
  H781     1.0000 0.83191  0.84623  0.21498  Biso   1.000  H
  F112     1.0000 0.58532  0.88506  0.46476  Biso   1.000  F
  H782     1.0000 0.03634  0.92285  0.09028  Biso   1.000  H
  F113     1.0000 0.38632  0.07056  0.98968  Biso   1.000  F
  H783     1.0000 0.88654  0.96367  0.09028  Biso   1.000  H
  F114     1.0000 0.70245  0.05228  0.95758  Biso   1.000  F
  F115     1.0000 0.70243  0.05224  0.95758  Biso   1.000  F
  C1148    1.0000 0.96993  0.83876  0.15709  Biso   1.000  C
  C1149    1.0000 0.87004  0.86927  0.09848  Biso   1.000  C
  N121     1.0000 0.95164  0.83106  0.10016  Biso   1.000  N
  H784     1.0000 0.95031  0.81565  0.19035  Biso   1.000  H
  N122     1.0000 0.85172  0.82247  0.10474  Biso   1.000  N
  H785     1.0000 0.89084  0.88537  0.06175  Biso   1.000  H
  N123     1.0000 0.85170  0.82243  0.10474  Biso   1.000  N
  C1150    1.0000 0.90393  0.78296  0.08985  Biso   1.000  C
  C1151    1.0000 0.86323  0.79357  0.05799  Biso   1.000  C
  C1152    1.0000 0.86321  0.79354  0.05799  Biso   1.000  C
  H786     1.0000 0.89043  0.76678  0.13284  Biso   1.000  H
  C1153    1.0000 0.91434  0.74816  0.05196  Biso   1.000  C
  H787     1.0000 0.89041  0.76674  0.13284  Biso   1.000  H
  H788     1.0000 0.87863  0.81515  0.01865  Biso   1.000  H
  C1154    1.0000 0.81465  0.74448  0.03856  Biso   1.000  C
  C1155    1.0000 0.81463  0.74444  0.03856  Biso   1.000  C
  C1156    1.0000 0.93333  0.75965  0.99075  Biso   1.000  C
  C1157    1.0000 0.90804  0.70397  0.08435  Biso   1.000  C
  C1158    1.0000 0.80414  0.73156  0.97628  Biso   1.000  C
  C1159    1.0000 0.78193  0.71355  0.08435  Biso   1.000  C
  H789     1.0000 0.93884  0.79058  0.97146  Biso   1.000  H
  C1160    1.0000 0.94473  0.72715  0.95609  Biso   1.000  C
  H790     1.0000 0.93882  0.79055  0.97146  Biso   1.000  H
  C1161    1.0000 0.92083  0.67265  0.05066  Biso   1.000  C
  H791     1.0000 0.89565  0.69638  0.12735  Biso   1.000  H
  H792     1.0000 0.89563  0.69634  0.12735  Biso   1.000  H
  H793     1.0000 0.82723  0.75318  0.94409  Biso   1.000  H
  C1162    1.0000 0.75944  0.68657  0.95797  Biso   1.000  C
  H794     1.0000 0.82721  0.75314  0.94409  Biso   1.000  H
  C1163    1.0000 0.73726  0.66828  0.06898  Biso   1.000  C
  H795     1.0000 0.78953  0.72298  0.12836  Biso   1.000  H
  C1164    1.0000 0.73724  0.66825  0.06898  Biso   1.000  C
  H796     1.0000 0.78951  0.72294  0.12836  Biso   1.000  H
  H797     1.0000 0.95704  0.73478  0.91295  Biso   1.000  H
  C1165    1.0000 0.93732  0.68346  0.98699  Biso   1.000  C
  H798     1.0000 0.95702  0.73474  0.91295  Biso   1.000  H
  H799     1.0000 0.91844  0.64337  0.07115  Biso   1.000  H
  H800     1.0000 0.91842  0.64333  0.07115  Biso   1.000  H
  H801     1.0000 0.75223  0.67698  0.91396  Biso   1.000  H
  H802     1.0000 0.75221  0.67695  0.91396  Biso   1.000  H
  C1166    1.0000 0.72794  0.65836  0.00366  Biso   1.000  C
  H803     1.0000 0.71473  0.64567  0.10098  Biso   1.000  H
  H804     1.0000 0.71471  0.64563  0.10098  Biso   1.000  H
  F116     1.0000 0.94772  0.65016  0.95758  Biso   1.000  F
  F117     1.0000 0.68422  0.61367  0.98968  Biso   1.000  F
  C1167    1.0000 0.11545  0.18987  0.46086  Biso   1.000  C
  C1168    1.0000 0.11712  0.22965  0.41179  Biso   1.000  C
  N124     1.0000 0.07074  0.14035  0.44746  Biso   1.000  N
  C1169    1.0000 0.11332  0.20566  0.52989  Biso   1.000  C
  H805     1.0000 0.14694  0.18707  0.45536  Biso   1.000  H
  H806     1.0000 0.14692  0.18703  0.45536  Biso   1.000  H
  N125     1.0000 0.11955  0.20968  0.34845  Biso   1.000  N
  N126     1.0000 0.11953  0.20965  0.34845  Biso   1.000  N
  H807     1.0000 0.08593  0.23306  0.41555  Biso   1.000  H
  C1170    1.0000 0.16524  0.28055  0.42244  Biso   1.000  C
  C1171    1.0000 0.07863  0.10455  0.42775  Biso   1.000  C
  C1172    1.0000 0.06734  0.19608  0.55644  Biso   1.000  C
  C1173    1.0000 0.15566  0.22528  0.56927  Biso   1.000  C
  C1174    1.0000 0.06732  0.19604  0.55644  Biso   1.000  C
  C1175    1.0000 0.15564  0.22524  0.56927  Biso   1.000  C
  C1176    1.0000 0.08213  0.19547  0.31177  Biso   1.000  C
  C1177    1.0000 0.16422  0.32087  0.45315  Biso   1.000  C
  C1178    1.0000 0.21242  0.28776  0.40576  Biso   1.000  C
  C1179    1.0000 0.03744  0.05097  0.41729  Biso   1.000  C
  H808     1.0000 0.11293  0.11287  0.41945  Biso   1.000  H
  C1180    1.0000 0.03742  0.05094  0.41729  Biso   1.000  C
  H809     1.0000 0.11291  0.11283  0.41945  Biso   1.000  H
  C1181    1.0000 0.06523  0.20746  0.62205  Biso   1.000  C
  H810     1.0000 0.03715  0.18178  0.53075  Biso   1.000  H
  H811     1.0000 0.03713  0.18174  0.53075  Biso   1.000  H
  C1182    1.0000 0.15371  0.23785  0.63246  Biso   1.000  C
  H812     1.0000 0.18713  0.23027  0.55235  Biso   1.000  H
  C1183    1.0000 0.07933  0.17128  0.24684  Biso   1.000  C
  C1184    1.0000 0.07931  0.17124  0.24684  Biso   1.000  C
  H813     1.0000 0.05444  0.19995  0.32498  Biso   1.000  H
  C1185    1.0000 0.20922  0.36667  0.46708  Biso   1.000  C
  H814     1.0000 0.13224  0.31738  0.46505  Biso   1.000  H
  H815     1.0000 0.13222  0.31734  0.46505  Biso   1.000  H
  C1186    1.0000 0.25852  0.33336  0.42047  Biso   1.000  C
  H816     1.0000 0.21432  0.26116  0.38369  Biso   1.000  H
  C1187    1.0000 0.05102  0.01376  0.41786  Biso   1.000  C
  C1188    1.0000 0.98623  0.03725  0.41786  Biso   1.000  C
  H817     1.0000 0.03374  0.20098  0.64094  Biso   1.000  H
  C1189    1.0000 0.10714  0.22708  0.65637  Biso   1.000  C
  H818     1.0000 0.03372  0.20095  0.64094  Biso   1.000  H
  C1190    1.0000 0.10712  0.22705  0.65637  Biso   1.000  C
  H819     1.0000 0.18362  0.25345  0.65849  Biso   1.000  H
  C1191    1.0000 0.11744  0.15886  0.23359  Biso   1.000  C
  C1192    1.0000 0.04051  0.16055  0.20394  Biso   1.000  C
  C1193    1.0000 0.25391  0.37035  0.45175  Biso   1.000  C
  H820     1.0000 0.20794  0.39438  0.48699  Biso   1.000  H
  H821     1.0000 0.20792  0.39434  0.48699  Biso   1.000  H
  H822     1.0000 0.29093  0.33777  0.40895  Biso   1.000  H
  H823     1.0000 0.29091  0.33773  0.40895  Biso   1.000  H
  H824     1.0000 0.08622  0.02315  0.41888  Biso   1.000  H
  C1194    1.0000 0.01354  0.96256  0.41729  Biso   1.000  C
  C1195    1.0000 0.94902  0.98647  0.41729  Biso   1.000  C
  H825     1.0000 0.97684  0.06309  0.41888  Biso   1.000  H
  H826     1.0000 0.97682  0.06305  0.41888  Biso   1.000  H
  F118     1.0000 0.10612  0.23747  0.72077  Biso   1.000  F
  C1196    1.0000 0.11732  0.13805  0.17256  Biso   1.000  C
  H827     1.0000 0.14273  0.16438  0.26487  Biso   1.000  H
  H828     1.0000 0.14271  0.16434  0.26487  Biso   1.000  H
  C1197    1.0000 0.03954  0.13836  0.14369  Biso   1.000  C
  H829     1.0000 0.01433  0.16806  0.21498  Biso   1.000  H
  F119     1.0000 0.29973  0.41465  0.46476  Biso   1.000  F
  C1198    1.0000 0.96272  0.94895  0.41786  Biso   1.000  C
  C1199    1.0000 0.02593  0.92135  0.42775  Biso   1.000  C
  C1200    1.0000 0.89542  0.97405  0.42775  Biso   1.000  C
  C1201    1.0000 0.07772  0.12836  0.13087  Biso   1.000  C
  C1202    1.0000 0.16124  0.13115  0.15709  Biso   1.000  C
  C1203    1.0000 0.99923  0.12997  0.09848  Biso   1.000  C
  H830     1.0000 0.93693  0.91377  0.41888  Biso   1.000  H
  H831     1.0000 0.99992  0.88705  0.41945  Biso   1.000  H
  N127     1.0000 0.06961  0.92925  0.44746  Biso   1.000  N
  N128     1.0000 0.85963  0.93036  0.44746  Biso   1.000  N
  H832     1.0000 0.88715  0.00008  0.41945  Biso   1.000  H
  H833     1.0000 0.88713  0.00004  0.41945  Biso   1.000  H
  H834     1.0000 0.07716  0.11348  0.09028  Biso   1.000  H
  H835     1.0000 0.07714  0.11345  0.09028  Biso   1.000  H
  H836     1.0000 0.18434  0.13468  0.19035  Biso   1.000  H
  N129     1.0000 0.16892  0.12058  0.10016  Biso   1.000  N
  H837     1.0000 0.18432  0.13464  0.19035  Biso   1.000  H
  N130     1.0000 0.16890  0.12054  0.10016  Biso   1.000  N
  N131     1.0000 0.97075  0.14829  0.10474  Biso   1.000  N
  H838     1.0000 0.99453  0.10915  0.06175  Biso   1.000  H
  N132     1.0000 0.97073  0.14825  0.10474  Biso   1.000  N
  C1204    1.0000 0.07442  0.88456  0.46086  Biso   1.000  C
  C1205    1.0000 0.81014  0.92557  0.46086  Biso   1.000  C
  C1206    1.0000 0.21704  0.12096  0.08985  Biso   1.000  C
  C1207    1.0000 0.93033  0.13675  0.05799  Biso   1.000  C
  C1208    1.0000 0.11254  0.88287  0.41179  Biso   1.000  C
  C1209    1.0000 0.11252  0.88284  0.41179  Biso   1.000  C
  H839     1.0000 0.04014  0.85306  0.45536  Biso   1.000  H
  C1210    1.0000 0.09233  0.88667  0.52989  Biso   1.000  C
  H840     1.0000 0.81295  0.95987  0.45536  Biso   1.000  H
  C1211    1.0000 0.77034  0.88747  0.41179  Biso   1.000  C
  C1212    1.0000 0.79435  0.90767  0.52989  Biso   1.000  C
  H841     1.0000 0.81293  0.95983  0.45536  Biso   1.000  H
  C1213    1.0000 0.77032  0.88744  0.41179  Biso   1.000  C
  C1214    1.0000 0.79433  0.90763  0.52989  Biso   1.000  C
  C1215    1.0000 0.20644  0.06968  0.05799  Biso   1.000  C
  H842     1.0000 0.23324  0.12368  0.13284  Biso   1.000  H
  C1216    1.0000 0.25184  0.16618  0.05196  Biso   1.000  C
  C1217    1.0000 0.20642  0.06964  0.05799  Biso   1.000  C
  H843     1.0000 0.23322  0.12364  0.13284  Biso   1.000  H
  C1218    1.0000 0.25182  0.16615  0.05196  Biso   1.000  C
  H844     1.0000 0.93655  0.12138  0.01865  Biso   1.000  H
  C1219    1.0000 0.87903  0.09608  0.08985  Biso   1.000  C
  C1220    1.0000 0.92985  0.18539  0.03856  Biso   1.000  C
  H845     1.0000 0.93653  0.12134  0.01865  Biso   1.000  H
  C1221    1.0000 0.87901  0.09605  0.08985  Biso   1.000  C
  C1222    1.0000 0.92983  0.18535  0.03856  Biso   1.000  C
  N133     1.0000 0.09012  0.88046  0.34845  Biso   1.000  N
  H846     1.0000 0.14712  0.91407  0.41555  Biso   1.000  H
  C1223    1.0000 0.11534  0.83477  0.42244  Biso   1.000  C
  H847     1.0000 0.14711  0.91403  0.41555  Biso   1.000  H
  C1224    1.0000 0.11532  0.83474  0.42244  Biso   1.000  C
  C1225    1.0000 0.12874  0.93266  0.55644  Biso   1.000  C
  C1226    1.0000 0.06962  0.84436  0.56927  Biso   1.000  C
  N134     1.0000 0.79033  0.90986  0.34845  Biso   1.000  N
  H848     1.0000 0.76695  0.85286  0.41555  Biso   1.000  H
  C1227    1.0000 0.71942  0.88468  0.42244  Biso   1.000  C
  C1228    1.0000 0.71940  0.88464  0.42244  Biso   1.000  C
  C1229    1.0000 0.80393  0.87126  0.55644  Biso   1.000  C
  C1230    1.0000 0.77473  0.93036  0.56927  Biso   1.000  C
  H849     1.0000 0.18485  0.06347  0.01865  Biso   1.000  H
  N135     1.0000 0.17755  0.02928  0.10474  Biso   1.000  N
  C1231    1.0000 0.25555  0.07018  0.03856  Biso   1.000  C
  N136     1.0000 0.17753  0.02924  0.10474  Biso   1.000  N
  C1232    1.0000 0.25553  0.07014  0.03856  Biso   1.000  C
  C1233    1.0000 0.29603  0.20405  0.08435  Biso   1.000  C
  C1234    1.0000 0.24034  0.17366  0.99075  Biso   1.000  C
  N137     1.0000 0.87943  0.04837  0.10016  Biso   1.000  N
  H850     1.0000 0.87635  0.10958  0.13284  Biso   1.000  H
  C1235    1.0000 0.83382  0.08566  0.05196  Biso   1.000  C
  H851     1.0000 0.87633  0.10954  0.13284  Biso   1.000  H
  C1236    1.0000 0.92742  0.19585  0.97628  Biso   1.000  C
  C1237    1.0000 0.93163  0.21808  0.08435  Biso   1.000  C
  C1238    1.0000 0.93161  0.21804  0.08435  Biso   1.000  C
  C1239    1.0000 0.11334  0.91787  0.31177  Biso   1.000  C
  C1240    1.0000 0.15663  0.83577  0.45315  Biso   1.000  C
  C1241    1.0000 0.07534  0.78756  0.40576  Biso   1.000  C
  H852     1.0000 0.14463  0.96286  0.53075  Biso   1.000  H
  C1242    1.0000 0.14224  0.93477  0.62205  Biso   1.000  C
  C1243    1.0000 0.08415  0.84627  0.63246  Biso   1.000  C
  H853     1.0000 0.04311  0.81285  0.55235  Biso   1.000  H
  C1244    1.0000 0.08413  0.84623  0.63246  Biso   1.000  C
  C1245    1.0000 0.80453  0.88667  0.31177  Biso   1.000  C
  C1246    1.0000 0.67911  0.84336  0.45315  Biso   1.000  C
  C1247    1.0000 0.71223  0.92465  0.40576  Biso   1.000  C
  H854     1.0000 0.81821  0.85536  0.53075  Biso   1.000  H
  C1248    1.0000 0.79253  0.85777  0.62205  Biso   1.000  C
  C1249    1.0000 0.76214  0.91587  0.63246  Biso   1.000  C
  H855     1.0000 0.76973  0.95688  0.55235  Biso   1.000  H
  C1250    1.0000 0.76212  0.91584  0.63246  Biso   1.000  C
  H856     1.0000 0.76971  0.95684  0.55235  Biso   1.000  H
  C1251    1.0000 0.13073  0.00077  0.09848  Biso   1.000  C
  C1252    1.0000 0.26842  0.07255  0.97628  Biso   1.000  C
  C1253    1.0000 0.28644  0.06837  0.08435  Biso   1.000  C
  C1254    1.0000 0.28643  0.06834  0.08435  Biso   1.000  C
  C1255    1.0000 0.32735  0.24816  0.05066  Biso   1.000  C
  H857     1.0000 0.30363  0.19926  0.12735  Biso   1.000  H
  H858     1.0000 0.20943  0.14829  0.97146  Biso   1.000  H
  C1256    1.0000 0.27282  0.21758  0.95609  Biso   1.000  C
  H859     1.0000 0.20941  0.14825  0.97146  Biso   1.000  H
  C1257    1.0000 0.27280  0.21754  0.95609  Biso   1.000  C
  C1258    1.0000 0.86881  0.03005  0.15709  Biso   1.000  C
  C1259    1.0000 0.82634  0.06665  0.99075  Biso   1.000  C
  C1260    1.0000 0.79593  0.09198  0.08435  Biso   1.000  C
  C1261    1.0000 0.79591  0.09195  0.08435  Biso   1.000  C
  H860     1.0000 0.92594  0.17278  0.94409  Biso   1.000  H
  C1262    1.0000 0.92715  0.24058  0.95797  Biso   1.000  C
  H861     1.0000 0.92592  0.17274  0.94409  Biso   1.000  H
  C1263    1.0000 0.92713  0.24054  0.95797  Biso   1.000  C
  C1264    1.0000 0.93104  0.26277  0.06898  Biso   1.000  C
  H862     1.0000 0.93343  0.21045  0.12836  Biso   1.000  H
  C1265    1.0000 0.09194  0.92066  0.24684  Biso   1.000  C
  H863     1.0000 0.14555  0.94558  0.32498  Biso   1.000  H
  H864     1.0000 0.14553  0.94554  0.32498  Biso   1.000  H
  H865     1.0000 0.18515  0.86777  0.46505  Biso   1.000  H
  C1266    1.0000 0.15744  0.79078  0.46708  Biso   1.000  C
  H866     1.0000 0.18513  0.86774  0.46505  Biso   1.000  H
  C1267    1.0000 0.15742  0.79074  0.46708  Biso   1.000  C
  C1268    1.0000 0.07482  0.74145  0.42047  Biso   1.000  C
  H867     1.0000 0.04685  0.78568  0.38369  Biso   1.000  H
  H868     1.0000 0.04683  0.78564  0.38369  Biso   1.000  H
  H869     1.0000 0.16725  0.96627  0.64094  Biso   1.000  H
  C1269    1.0000 0.11993  0.89288  0.65637  Biso   1.000  C
  H870     1.0000 0.16723  0.96623  0.64094  Biso   1.000  H
  C1270    1.0000 0.11991  0.89284  0.65637  Biso   1.000  C
  H871     1.0000 0.06983  0.81638  0.65849  Biso   1.000  H
  H872     1.0000 0.06981  0.81634  0.65849  Biso   1.000  H
  C1271    1.0000 0.82873  0.90805  0.24684  Biso   1.000  C
  H873     1.0000 0.80005  0.85447  0.32498  Biso   1.000  H
  H874     1.0000 0.80003  0.85444  0.32498  Biso   1.000  H
  H875     1.0000 0.68263  0.81488  0.46505  Biso   1.000  H
  C1272    1.0000 0.63334  0.84255  0.46708  Biso   1.000  C
  H876     1.0000 0.68261  0.81484  0.46505  Biso   1.000  H
  C1273    1.0000 0.66664  0.92515  0.42047  Biso   1.000  C
  H877     1.0000 0.73883  0.95317  0.38369  Biso   1.000  H
  H878     1.0000 0.79902  0.83278  0.64094  Biso   1.000  H
  C1274    1.0000 0.77295  0.88008  0.65637  Biso   1.000  C
  H879     1.0000 0.79901  0.83274  0.64094  Biso   1.000  H
  C1275    1.0000 0.77293  0.88004  0.65637  Biso   1.000  C
  H880     1.0000 0.74655  0.93017  0.65849  Biso   1.000  H
  C1276    1.0000 0.09884  0.96049  0.14369  Biso   1.000  C
  C1277    1.0000 0.09882  0.96045  0.14369  Biso   1.000  C
  H881     1.0000 0.11463  0.00548  0.06175  Biso   1.000  H
  H882     1.0000 0.11461  0.00544  0.06175  Biso   1.000  H
  H883     1.0000 0.24685  0.07409  0.94409  Biso   1.000  H
  C1278    1.0000 0.31341  0.07286  0.95797  Biso   1.000  C
  H884     1.0000 0.24683  0.07405  0.94409  Biso   1.000  H
  C1279    1.0000 0.33174  0.06895  0.06898  Biso   1.000  C
  H885     1.0000 0.27705  0.06657  0.12836  Biso   1.000  H
  H886     1.0000 0.27703  0.06653  0.12836  Biso   1.000  H
  H887     1.0000 0.35663  0.27507  0.07115  Biso   1.000  H
  C1280    1.0000 0.31653  0.25387  0.98699  Biso   1.000  C
  C1281    1.0000 0.31651  0.25384  0.98699  Biso   1.000  C
  H888     1.0000 0.26524  0.22226  0.91295  Biso   1.000  H
  C1282    1.0000 0.86194  0.97927  0.17256  Biso   1.000  C
  H889     1.0000 0.86535  0.04967  0.19035  Biso   1.000  H
  H890     1.0000 0.86533  0.04963  0.19035  Biso   1.000  H
  H891     1.0000 0.85175  0.06117  0.97146  Biso   1.000  H
  C1283    1.0000 0.78245  0.05527  0.95609  Biso   1.000  C
  C1284    1.0000 0.75185  0.07918  0.05066  Biso   1.000  C
  H892     1.0000 0.80072  0.10436  0.12735  Biso   1.000  H
  C1285    1.0000 0.75183  0.07914  0.05066  Biso   1.000  C
  H893     1.0000 0.92474  0.24778  0.91396  Biso   1.000  H
  H894     1.0000 0.92472  0.24774  0.91396  Biso   1.000  H
  C1286    1.0000 0.93045  0.27208  0.00366  Biso   1.000  C
  C1287    1.0000 0.93043  0.27204  0.00366  Biso   1.000  C
  H895     1.0000 0.93094  0.28526  0.10098  Biso   1.000  H
  C1288    1.0000 0.12003  0.95945  0.20394  Biso   1.000  C
  C1289    1.0000 0.04142  0.88257  0.23359  Biso   1.000  C
  H896     1.0000 0.18643  0.79208  0.48699  Biso   1.000  H
  C1290    1.0000 0.11642  0.74605  0.45175  Biso   1.000  C
  H897     1.0000 0.18641  0.79204  0.48699  Biso   1.000  H
  H898     1.0000 0.04684  0.70906  0.40895  Biso   1.000  H
  F120     1.0000 0.13135  0.89387  0.72077  Biso   1.000  F
  F121     1.0000 0.13133  0.89384  0.72077  Biso   1.000  F
  C1291    1.0000 0.84114  0.95857  0.23359  Biso   1.000  C
  C1292    1.0000 0.83944  0.87996  0.20394  Biso   1.000  C
  H899     1.0000 0.60564  0.81358  0.48699  Biso   1.000  H
  C1293    1.0000 0.62965  0.88356  0.45175  Biso   1.000  C
  H900     1.0000 0.60562  0.81354  0.48699  Biso   1.000  H
  H901     1.0000 0.66222  0.95317  0.40895  Biso   1.000  H
  F122     1.0000 0.76253  0.86866  0.72077  Biso   1.000  F
  C1294    1.0000 0.05062  0.92227  0.13087  Biso   1.000  C
  C1295    1.0000 0.05060  0.92224  0.13087  Biso   1.000  C
  C1296    1.0000 0.34164  0.06956  0.00366  Biso   1.000  C
  H902     1.0000 0.32305  0.07527  0.91396  Biso   1.000  H
  H903     1.0000 0.32303  0.07523  0.91396  Biso   1.000  H
  H904     1.0000 0.35433  0.06906  0.10098  Biso   1.000  H
  F123     1.0000 0.34983  0.29757  0.95758  Biso   1.000  F
  C1297    1.0000 0.87163  0.94937  0.13087  Biso   1.000  C
  H905     1.0000 0.77772  0.04296  0.91295  Biso   1.000  H
  C1298    1.0000 0.74612  0.06266  0.98699  Biso   1.000  C
  H906     1.0000 0.72493  0.08156  0.07115  Biso   1.000  H
  F124     1.0000 0.92943  0.31577  0.98968  Biso   1.000  F
  F125     1.0000 0.92941  0.31573  0.98968  Biso   1.000  F
  H907     1.0000 0.15375  0.98567  0.21498  Biso   1.000  H
  C1299    1.0000 0.02074  0.88268  0.17256  Biso   1.000  C
  C1300    1.0000 0.02072  0.88264  0.17256  Biso   1.000  C
  H908     1.0000 0.02164  0.85727  0.26487  Biso   1.000  H
  H909     1.0000 0.02162  0.85723  0.26487  Biso   1.000  H
  F126     1.0000 0.11493  0.70025  0.46476  Biso   1.000  F
  H910     1.0000 0.83565  0.97838  0.26487  Biso   1.000  H
  H911     1.0000 0.83563  0.97835  0.26487  Biso   1.000  H
  C1301    1.0000 0.86162  0.90116  0.14369  Biso   1.000  C
  H912     1.0000 0.83193  0.84627  0.21498  Biso   1.000  H
  H913     1.0000 0.83191  0.84623  0.21498  Biso   1.000  H
  F127     1.0000 0.58532  0.88506  0.46476  Biso   1.000  F
  H914     1.0000 0.03634  0.92285  0.09028  Biso   1.000  H
  F128     1.0000 0.38632  0.07056  0.98968  Biso   1.000  F
  H915     1.0000 0.88654  0.96367  0.09028  Biso   1.000  H
  F129     1.0000 0.70245  0.05228  0.95758  Biso   1.000  F
  F130     1.0000 0.70243  0.05224  0.95758  Biso   1.000  F
  C1302    1.0000 0.96993  0.83876  0.15709  Biso   1.000  C
  C1303    1.0000 0.87004  0.86927  0.09848  Biso   1.000  C
  N138     1.0000 0.95164  0.83106  0.10016  Biso   1.000  N
  H916     1.0000 0.95031  0.81565  0.19035  Biso   1.000  H
  N139     1.0000 0.85172  0.82247  0.10474  Biso   1.000  N
  H917     1.0000 0.89084  0.88537  0.06175  Biso   1.000  H
  N140     1.0000 0.85170  0.82243  0.10474  Biso   1.000  N
  C1304    1.0000 0.90393  0.78296  0.08985  Biso   1.000  C
  C1305    1.0000 0.86323  0.79357  0.05799  Biso   1.000  C
  C1306    1.0000 0.86321  0.79354  0.05799  Biso   1.000  C
  H918     1.0000 0.89043  0.76678  0.13284  Biso   1.000  H
  C1307    1.0000 0.91434  0.74816  0.05196  Biso   1.000  C
  H919     1.0000 0.89041  0.76674  0.13284  Biso   1.000  H
  H920     1.0000 0.87863  0.81515  0.01865  Biso   1.000  H
  C1308    1.0000 0.81465  0.74448  0.03856  Biso   1.000  C
  C1309    1.0000 0.81463  0.74444  0.03856  Biso   1.000  C
  C1310    1.0000 0.93333  0.75965  0.99075  Biso   1.000  C
  C1311    1.0000 0.90804  0.70397  0.08435  Biso   1.000  C
  C1312    1.0000 0.80414  0.73156  0.97628  Biso   1.000  C
  C1313    1.0000 0.78193  0.71355  0.08435  Biso   1.000  C
  H921     1.0000 0.93884  0.79058  0.97146  Biso   1.000  H
  C1314    1.0000 0.94473  0.72715  0.95609  Biso   1.000  C
  H922     1.0000 0.93882  0.79055  0.97146  Biso   1.000  H
  C1315    1.0000 0.92083  0.67265  0.05066  Biso   1.000  C
  H923     1.0000 0.89565  0.69638  0.12735  Biso   1.000  H
  H924     1.0000 0.89563  0.69634  0.12735  Biso   1.000  H
  H925     1.0000 0.82723  0.75318  0.94409  Biso   1.000  H
  C1316    1.0000 0.75944  0.68657  0.95797  Biso   1.000  C
  H926     1.0000 0.82721  0.75314  0.94409  Biso   1.000  H
  C1317    1.0000 0.73726  0.66828  0.06898  Biso   1.000  C
  H927     1.0000 0.78953  0.72298  0.12836  Biso   1.000  H
  C1318    1.0000 0.73724  0.66825  0.06898  Biso   1.000  C
  H928     1.0000 0.78951  0.72294  0.12836  Biso   1.000  H
  H929     1.0000 0.95704  0.73478  0.91295  Biso   1.000  H
  C1319    1.0000 0.93732  0.68346  0.98699  Biso   1.000  C
  H930     1.0000 0.95702  0.73474  0.91295  Biso   1.000  H
  H931     1.0000 0.91844  0.64337  0.07115  Biso   1.000  H
  H932     1.0000 0.91842  0.64333  0.07115  Biso   1.000  H
  H933     1.0000 0.75223  0.67698  0.91396  Biso   1.000  H
  H934     1.0000 0.75221  0.67695  0.91396  Biso   1.000  H
  C1320    1.0000 0.72794  0.65836  0.00366  Biso   1.000  C
  H935     1.0000 0.71473  0.64567  0.10098  Biso   1.000  H
  H936     1.0000 0.71471  0.64563  0.10098  Biso   1.000  H
  F131     1.0000 0.94772  0.65016  0.95758  Biso   1.000  F
  F132     1.0000 0.68422  0.61367  0.98968  Biso   1.000  F
  C1321    1.0000 0.27067  0.35015  0.65362  Biso   1.000  C
  C1322    1.0000 0.27808  0.39384  0.62272  Biso   1.000  C
  F133     1.0000 0.28107  0.31685  0.62422  Biso   1.000  F
  C1323    1.0000 0.25418  0.33934  0.71734  Biso   1.000  C
  C1324    1.0000 0.26668  0.42634  0.65743  Biso   1.000  C
  H937     1.0000 0.29037  0.40143  0.57963  Biso   1.000  H
  C1325    1.0000 0.24137  0.37062  0.75104  Biso   1.000  C
  H938     1.0000 0.25177  0.31002  0.73783  Biso   1.000  H
  C1326    1.0000 0.24768  0.41485  0.71864  Biso   1.000  C
  H939     1.0000 0.27217  0.45724  0.63815  Biso   1.000  H
  H940     1.0000 0.22898  0.36303  0.79403  Biso   1.000  H
  C1327    1.0000 0.23727  0.44965  0.75653  Biso   1.000  C
  N141     1.0000 0.28499  0.49775  0.76685  Biso   1.000  N
  C1328    1.0000 0.19656  0.46022  0.72462  Biso   1.000  C
  H941     1.0000 0.22375  0.43343  0.79953  Biso   1.000  H
  C1329    1.0000 0.30328  0.50545  0.82373  Biso   1.000  C
  N142     1.0000 0.18505  0.48912  0.77143  Biso   1.000  N
  H942     1.0000 0.21198  0.48184  0.68534  Biso   1.000  H
  C1330    1.0000 0.14798  0.41113  0.70524  Biso   1.000  C
  C1331    1.0000 0.35406  0.54933  0.83925  Biso   1.000  C
  H943     1.0000 0.28365  0.48234  0.85703  Biso   1.000  H
  C1332    1.0000 0.20337  0.53592  0.76511  Biso   1.000  C
  C1333    1.0000 0.13749  0.39825  0.64292  Biso   1.000  C
  C1334    1.0000 0.11527  0.38024  0.75104  Biso   1.000  C
  C1335    1.0000 0.37475  0.54922  0.90022  Biso   1.000  C
  C1336    1.0000 0.38395  0.58892  0.79755  Biso   1.000  C
  C1337    1.0000 0.19497  0.56785  0.81032  Biso   1.000  C
  H944     1.0000 0.22416  0.55202  0.72843  Biso   1.000  H
  H945     1.0000 0.16056  0.41983  0.61072  Biso   1.000  H
  C1338    1.0000 0.09277  0.35322  0.62465  Biso   1.000  C
  C1339    1.0000 0.07058  0.33494  0.73561  Biso   1.000  C
  H946     1.0000 0.12285  0.38963  0.79504  Biso   1.000  H
  C1340    1.0000 0.42526  0.58732  0.91353  Biso   1.000  C
  H947     1.0000 0.35496  0.52392  0.93155  Biso   1.000  H
  H948     1.0000 0.36968  0.58954  0.75692  Biso   1.000  H
  C1341    1.0000 0.43216  0.62714  0.81032  Biso   1.000  C
  C1342    1.0000 0.20495  0.61602  0.79755  Biso   1.000  C
  C1343    1.0000 0.17279  0.54665  0.87063  Biso   1.000  C
  H949     1.0000 0.08555  0.34364  0.58064  Biso   1.000  H
  C1344    1.0000 0.06129  0.32505  0.67035  Biso   1.000  C
  H950     1.0000 0.04806  0.31232  0.76762  Biso   1.000  H
  C1345    1.0000 0.44667  0.58452  0.97845  Biso   1.000  C
  C1346    1.0000 0.45337  0.62614  0.87063  Biso   1.000  C
  C1347    1.0000 0.46405  0.66742  0.76511  Biso   1.000  C
  C1348    1.0000 0.19527  0.64592  0.83925  Biso   1.000  C
  H951     1.0000 0.21987  0.63032  0.75692  Biso   1.000  H
  C1349    1.0000 0.16207  0.57474  0.91353  Biso   1.000  C
  H952     1.0000 0.16525  0.51292  0.88162  Biso   1.000  H
  F134     1.0000 0.01755  0.28032  0.65632  Biso   1.000  F
  H953     1.0000 0.47888  0.61223  0.99161  Biso   1.000  H
  N143     1.0000 0.42347  0.54715  0.01514  Biso   1.000  N
  H954     1.0000 0.48707  0.65232  0.88162  Biso   1.000  H
  N144     1.0000 0.51087  0.69593  0.77143  Biso   1.000  N
  H955     1.0000 0.44796  0.67213  0.72843  Biso   1.000  H
  C1350    1.0000 0.17447  0.62522  0.90022  Biso   1.000  C
  C1351    1.0000 0.20216  0.69674  0.82373  Biso   1.000  C
  C1352    1.0000 0.13785  0.55332  0.97845  Biso   1.000  C
  C1353    1.0000 0.44587  0.54953  0.07842  Biso   1.000  C
  C1354    1.0000 0.53977  0.73633  0.72462  Biso   1.000  C
  H956     1.0000 0.16897  0.64503  0.93155  Biso   1.000  H
  N145     1.0000 0.21276  0.71502  0.76685  Biso   1.000  N
  H957     1.0000 0.19867  0.71632  0.85703  Biso   1.000  H
  H958     1.0000 0.13337  0.52113  0.99161  Biso   1.000  H
  N146     1.0000 0.12367  0.57655  0.01514  Biso   1.000  N
  C1355    1.0000 0.40776  0.55125  0.12754  Biso   1.000  C
  H959     1.0000 0.48045  0.58072  0.08223  Biso   1.000  H
  C1356    1.0000 0.44867  0.50143  0.08913  Biso   1.000  C
  H960     1.0000 0.51817  0.73012  0.68534  Biso   1.000  H
  C1357    1.0000 0.55039  0.78765  0.75653  Biso   1.000  C
  C1358    1.0000 0.58887  0.73683  0.70524  Biso   1.000  C
  C1359    1.0000 0.21236  0.76274  0.75653  Biso   1.000  C
  C1360    1.0000 0.10367  0.55412  0.07842  Biso   1.000  C
  N147     1.0000 0.40295  0.59594  0.11414  Biso   1.000  N
  H961     1.0000 0.37349  0.51975  0.12205  Biso   1.000  H
  C1361    1.0000 0.42566  0.55332  0.19652  Biso   1.000  C
  C1362    1.0000 0.48996  0.50242  0.11983  Biso   1.000  C
  C1363    1.0000 0.40868  0.45425  0.07245  Biso   1.000  C
  N148     1.0000 0.50225  0.78723  0.76685  Biso   1.000  N
  H962     1.0000 0.56657  0.79033  0.79953  Biso   1.000  H
  C1364    1.0000 0.58516  0.83283  0.71864  Biso   1.000  C
  C1365    1.0000 0.60176  0.73924  0.64292  Biso   1.000  C
  C1366    1.0000 0.61977  0.73503  0.75104  Biso   1.000  C
  C1367    1.0000 0.26367  0.80344  0.72462  Biso   1.000  C
  H963     1.0000 0.20967  0.77623  0.79953  Biso   1.000  H
  C1368    1.0000 0.16717  0.75235  0.71864  Biso   1.000  C
  C1369    1.0000 0.14346  0.59222  0.12754  Biso   1.000  C
  H964     1.0000 0.10027  0.51952  0.08223  Biso   1.000  H
  C1370    1.0000 0.05275  0.55133  0.08913  Biso   1.000  C
  C1371    1.0000 0.35928  0.58804  0.09443  Biso   1.000  C
  C1372    1.0000 0.46208  0.59935  0.22313  Biso   1.000  C
  C1373    1.0000 0.40296  0.51105  0.23595  Biso   1.000  C
  H965     1.0000 0.51847  0.53442  0.13174  Biso   1.000  H
  C1374    1.0000 0.49076  0.45743  0.13371  Biso   1.000  C
  C1375    1.0000 0.40817  0.40814  0.08715  Biso   1.000  C
  H966     1.0000 0.38017  0.45233  0.05032  Biso   1.000  H
  C1376    1.0000 0.49458  0.79784  0.82373  Biso   1.000  C
  C1377    1.0000 0.57369  0.84035  0.65743  Biso   1.000  C
  C1378    1.0000 0.62938  0.87074  0.75104  Biso   1.000  C
  H967     1.0000 0.58017  0.74074  0.61072  Biso   1.000  H
  C1379    1.0000 0.64676  0.73955  0.62465  Biso   1.000  C
  C1380    1.0000 0.66508  0.73564  0.73561  Biso   1.000  C
  H968     1.0000 0.61037  0.73322  0.79504  Biso   1.000  H
  N149     1.0000 0.30408  0.81494  0.77143  Biso   1.000  N
  H969     1.0000 0.26988  0.78803  0.68534  Biso   1.000  H
  C1381    1.0000 0.26318  0.85204  0.70524  Biso   1.000  C
  C1382    1.0000 0.15969  0.73334  0.65743  Biso   1.000  C
  C1383    1.0000 0.12925  0.75863  0.75104  Biso   1.000  C
  N150     1.0000 0.19298  0.59705  0.11414  Biso   1.000  N
  H970     1.0000 0.14627  0.62652  0.12205  Biso   1.000  H
  C1384    1.0000 0.12768  0.57432  0.19652  Biso   1.000  C
  C1385    1.0000 0.01246  0.51005  0.11983  Biso   1.000  C
  C1386    1.0000 0.04557  0.59134  0.07245  Biso   1.000  C
  C1387    1.0000 0.34688  0.62924  0.08392  Biso   1.000  C
  H971     1.0000 0.33326  0.55374  0.08614  Biso   1.000  H
  H972     1.0000 0.47798  0.62955  0.19744  Biso   1.000  H
  C1388    1.0000 0.47556  0.60142  0.28873  Biso   1.000  C
  C1389    1.0000 0.41747  0.51292  0.29914  Biso   1.000  C
  H973     1.0000 0.37645  0.47954  0.21903  Biso   1.000  H
  H974     1.0000 0.51976  0.45873  0.15362  Biso   1.000  H
  C1390    1.0000 0.44976  0.41274  0.11843  Biso   1.000  C
  H975     1.0000 0.38017  0.37571  0.07563  Biso   1.000  H
  C1391    1.0000 0.45066  0.80474  0.83925  Biso   1.000  C
  H976     1.0000 0.51767  0.80133  0.85703  Biso   1.000  H
  H977     1.0000 0.54276  0.81494  0.63815  Biso   1.000  H
  C1392    1.0000 0.60615  0.88423  0.62272  Biso   1.000  C
  C1393    1.0000 0.66067  0.91482  0.71734  Biso   1.000  C
  H978     1.0000 0.63697  0.86595  0.79403  Biso   1.000  H
  H979     1.0000 0.65638  0.74192  0.58064  Biso   1.000  H
  C1394    1.0000 0.67498  0.73625  0.67035  Biso   1.000  C
  H980     1.0000 0.68766  0.73572  0.76762  Biso   1.000  H
  C1395    1.0000 0.33256  0.79662  0.76511  Biso   1.000  C
  C1396    1.0000 0.26076  0.86254  0.64292  Biso   1.000  C
  C1397    1.0000 0.26495  0.88473  0.75104  Biso   1.000  C
  H981     1.0000 0.18507  0.72782  0.63815  Biso   1.000  H
  C1398    1.0000 0.11577  0.72192  0.62272  Biso   1.000  C
  C1399    1.0000 0.08518  0.74583  0.71734  Biso   1.000  C
  H982     1.0000 0.13407  0.77105  0.79403  Biso   1.000  H
  C1400    1.0000 0.22876  0.64074  0.09443  Biso   1.000  C
  C1401    1.0000 0.13727  0.53795  0.22313  Biso   1.000  C
  C1402    1.0000 0.10807  0.59705  0.23595  Biso   1.000  C
  C1403    1.0000 0.96668  0.50924  0.13371  Biso   1.000  C
  H983     1.0000 0.01596  0.48153  0.13174  Biso   1.000  H
  C1404    1.0000 0.99998  0.59184  0.08715  Biso   1.000  C
  H984     1.0000 0.07216  0.61982  0.05032  Biso   1.000  H
  C1405    1.0000 0.38437  0.68045  0.08455  Biso   1.000  C
  C1406    1.0000 0.29607  0.61564  0.08455  Biso   1.000  C
  H985     1.0000 0.50058  0.63292  0.30763  Biso   1.000  H
  C1407    1.0000 0.45326  0.55953  0.32305  Biso   1.000  C
  H986     1.0000 0.40316  0.48303  0.32512  Biso   1.000  H
  F135     1.0000 0.44827  0.36694  0.13145  Biso   1.000  F
  C1408    1.0000 0.45076  0.82551  0.90022  Biso   1.000  C
  C1409    1.0000 0.41106  0.79504  0.79755  Biso   1.000  C
  H987     1.0000 0.59858  0.88894  0.57963  Biso   1.000  H
  C1410    1.0000 0.64985  0.92053  0.65362  Biso   1.000  C
  H988     1.0000 0.68996  0.94172  0.73783  Biso   1.000  H
  F136     1.0000 0.71966  0.73725  0.65632  Biso   1.000  F
  C1411    1.0000 0.37288  0.80505  0.81032  Biso   1.000  C
  H989     1.0000 0.32788  0.77584  0.72843  Biso   1.000  H
  H990     1.0000 0.25926  0.83943  0.61072  Biso   1.000  H
  C1412    1.0000 0.26047  0.90723  0.62465  Biso   1.000  C
  C1413    1.0000 0.26436  0.92942  0.73561  Biso   1.000  C
  H991     1.0000 0.26677  0.87714  0.79504  Biso   1.000  H
  H992     1.0000 0.11105  0.70961  0.57963  Biso   1.000  H
  C1414    1.0000 0.07944  0.72931  0.65362  Biso   1.000  C
  H993     1.0000 0.05827  0.74825  0.73783  Biso   1.000  H
  C1415    1.0000 0.28235  0.65312  0.08392  Biso   1.000  C
  H994     1.0000 0.22048  0.66673  0.08614  Biso   1.000  H
  H995     1.0000 0.15156  0.52205  0.19744  Biso   1.000  H
  C1416    1.0000 0.12586  0.52442  0.28873  Biso   1.000  C
  C1417    1.0000 0.09546  0.58252  0.29914  Biso   1.000  C
  H996     1.0000 0.10306  0.62353  0.21903  Biso   1.000  H
  H997     1.0000 0.93897  0.48023  0.15362  Biso   1.000  H
  C1418    1.0000 0.96297  0.55022  0.11843  Biso   1.000  C
  H998     1.0000 0.99555  0.61982  0.07563  Biso   1.000  H
  H999     1.0000 0.41957  0.68984  0.08551  Biso   1.000  H
  C1419    1.0000 0.37076  0.71763  0.08392  Biso   1.000  C
  H1000    1.0000 0.27026  0.58042  0.08551  Biso   1.000  H
  F137     1.0000 0.46468  0.56052  0.38745  Biso   1.000  F
  C1420    1.0000 0.41266  0.83793  0.91353  Biso   1.000  C
  H1001    1.0000 0.47606  0.83103  0.93155  Biso   1.000  H
  H1002    1.0000 0.41048  0.78014  0.75692  Biso   1.000  H
  F138     1.0000 0.68315  0.96422  0.62422  Biso   1.000  F
  C1421    1.0000 0.37386  0.82724  0.87063  Biso   1.000  C
  H1003    1.0000 0.25807  0.91443  0.58064  Biso   1.000  H
  C1422    1.0000 0.26378  0.93873  0.67035  Biso   1.000  C
  H1004    1.0000 0.26426  0.95192  0.76762  Biso   1.000  H
  F139     1.0000 0.03578  0.71893  0.62422  Biso   1.000  F
  C1423    1.0000 0.31958  0.70394  0.08455  Biso   1.000  C
  H1005    1.0000 0.13235  0.49943  0.30763  Biso   1.000  H
  C1424    1.0000 0.10628  0.54673  0.32305  Biso   1.000  C
  H1006    1.0000 0.07988  0.59682  0.32512  Biso   1.000  H
  F140     1.0000 0.91866  0.55175  0.13145  Biso   1.000  F
  C1425    1.0000 0.41198  0.77124  0.09443  Biso   1.000  C
  C1426    1.0000 0.41546  0.86212  0.97845  Biso   1.000  C
  H1007    1.0000 0.34767  0.83475  0.88162  Biso   1.000  H
  F141     1.0000 0.26275  0.98242  0.65632  Biso   1.000  F
  H1008    1.0000 0.31017  0.72974  0.08551  Biso   1.000  H
  F142     1.0000 0.09587  0.53534  0.38745  Biso   1.000  F
  N151     1.0000 0.40408  0.80704  0.11414  Biso   1.000  N
  H1009    1.0000 0.44625  0.77952  0.08614  Biso   1.000  H
  H1010    1.0000 0.38778  0.86664  0.99161  Biso   1.000  H
  N152     1.0000 0.45287  0.87634  0.01514  Biso   1.000  N
  C1427    1.0000 0.44877  0.85652  0.12754  Biso   1.000  C
  C1428    1.0000 0.45046  0.89634  0.07842  Biso   1.000  C
  H1011    1.0000 0.48027  0.85372  0.12205  Biso   1.000  H
  C1429    1.0000 0.44666  0.87235  0.19652  Biso   1.000  C
  H1012    1.0000 0.41925  0.89971  0.08223  Biso   1.000  H
  C1430    1.0000 0.49858  0.94724  0.08913  Biso   1.000  C
  C1431    1.0000 0.40066  0.86273  0.22313  Biso   1.000  C
  C1432    1.0000 0.48898  0.89193  0.23595  Biso   1.000  C
  C1433    1.0000 0.49754  0.98752  0.11983  Biso   1.000  C
  C1434    1.0000 0.54576  0.95444  0.07245  Biso   1.000  C
  H1013    1.0000 0.37048  0.84843  0.19744  Biso   1.000  H
  C1435    1.0000 0.39857  0.87415  0.28873  Biso   1.000  C
  C1436    1.0000 0.48706  0.90454  0.29914  Biso   1.000  C
  H1014    1.0000 0.52045  0.89692  0.21903  Biso   1.000  H
  H1015    1.0000 0.46556  0.98403  0.13174  Biso   1.000  H
  C1437    1.0000 0.54255  0.03332  0.13371  Biso   1.000  C
  H1016    1.0000 0.54767  0.92785  0.05032  Biso   1.000  H
  C1438    1.0000 0.59185  0.00001  0.08715  Biso   1.000  C
  H1017    1.0000 0.36707  0.86764  0.30763  Biso   1.000  H
  C1439    1.0000 0.44046  0.89374  0.32305  Biso   1.000  C
  H1018    1.0000 0.51696  0.92014  0.32512  Biso   1.000  H
  H1019    1.0000 0.54127  0.06103  0.15362  Biso   1.000  H
  C1440    1.0000 0.58726  0.03704  0.11843  Biso   1.000  C
  H1020    1.0000 0.62426  0.00442  0.07563  Biso   1.000  H
  F143     1.0000 0.43945  0.90412  0.38745  Biso   1.000  F
  F144     1.0000 0.63308  0.08134  0.13145  Biso   1.000  F
  C1441    1.0000 0.35011  0.27066  0.34638  Biso   1.000  C
  C1442    1.0000 0.33935  0.25418  0.28266  Biso   1.000  C
  F145     1.0000 0.31684  0.28105  0.37578  Biso   1.000  F
  C1443    1.0000 0.39384  0.27806  0.37728  Biso   1.000  C
  H1021    1.0000 0.31003  0.25177  0.26217  Biso   1.000  H
  C1444    1.0000 0.37062  0.24138  0.24896  Biso   1.000  C
  C1445    1.0000 0.42635  0.26668  0.34257  Biso   1.000  C
  H1022    1.0000 0.40142  0.29036  0.42037  Biso   1.000  H
  C1446    1.0000 0.41482  0.24767  0.28136  Biso   1.000  C
  H1023    1.0000 0.36302  0.22896  0.20597  Biso   1.000  H
  H1024    1.0000 0.45724  0.27216  0.36185  Biso   1.000  H
  C1447    1.0000 0.44963  0.23728  0.24347  Biso   1.000  C
  N153     1.0000 0.49773  0.28496  0.23315  Biso   1.000  N
  C1448    1.0000 0.46024  0.19658  0.27538  Biso   1.000  C
  H1025    1.0000 0.43344  0.22375  0.20047  Biso   1.000  H
  C1449    1.0000 0.50543  0.30328  0.17627  Biso   1.000  C
  N154     1.0000 0.48915  0.18508  0.22857  Biso   1.000  N
  H1026    1.0000 0.48185  0.21198  0.31466  Biso   1.000  H
  C1450    1.0000 0.41115  0.14798  0.29476  Biso   1.000  C
  C1451    1.0000 0.54934  0.35406  0.16075  Biso   1.000  C
  H1027    1.0000 0.48234  0.28365  0.14297  Biso   1.000  H
  C1452    1.0000 0.53593  0.20336  0.23489  Biso   1.000  C
  C1453    1.0000 0.39823  0.13748  0.35708  Biso   1.000  C
  C1454    1.0000 0.38021  0.11525  0.24896  Biso   1.000  C
  C1455    1.0000 0.54923  0.37476  0.09978  Biso   1.000  C
  C1456    1.0000 0.58892  0.38395  0.20245  Biso   1.000  C
  C1457    1.0000 0.56784  0.19497  0.18968  Biso   1.000  C
  H1028    1.0000 0.55204  0.22417  0.27157  Biso   1.000  H
  H1029    1.0000 0.41983  0.16055  0.38928  Biso   1.000  H
  C1458    1.0000 0.35323  0.09275  0.37535  Biso   1.000  C
  C1459    1.0000 0.33493  0.07056  0.26439  Biso   1.000  C
  H1030    1.0000 0.38964  0.12287  0.20496  Biso   1.000  H
  C1460    1.0000 0.58734  0.42527  0.08647  Biso   1.000  C
  H1031    1.0000 0.52395  0.35498  0.06845  Biso   1.000  H
  H1032    1.0000 0.58954  0.36966  0.24308  Biso   1.000  H
  C1461    1.0000 0.62713  0.43217  0.18968  Biso   1.000  C
  C1462    1.0000 0.61603  0.20497  0.20245  Biso   1.000  C
  C1463    1.0000 0.54662  0.17278  0.12937  Biso   1.000  C
  H1033    1.0000 0.34364  0.08558  0.41936  Biso   1.000  H
  C1464    1.0000 0.32505  0.06128  0.32965  Biso   1.000  C
  H1034    1.0000 0.31233  0.04806  0.23238  Biso   1.000  H
  C1465    1.0000 0.58452  0.44666  0.02155  Biso   1.000  C
  C1466    1.0000 0.62614  0.45336  0.12937  Biso   1.000  C
  C1467    1.0000 0.66744  0.46406  0.23489  Biso   1.000  C
  C1468    1.0000 0.64593  0.19527  0.16075  Biso   1.000  C
  H1035    1.0000 0.63035  0.21988  0.24308  Biso   1.000  H
  C1469    1.0000 0.57473  0.16208  0.08647  Biso   1.000  C
  H1036    1.0000 0.51293  0.16526  0.11838  Biso   1.000  H
  F146     1.0000 0.28032  0.01755  0.34368  Biso   1.000  F
  H1037    1.0000 0.61223  0.47885  0.00839  Biso   1.000  H
  N155     1.0000 0.54714  0.42347  0.98486  Biso   1.000  N
  H1038    1.0000 0.65232  0.48705  0.11838  Biso   1.000  H
  N156     1.0000 0.69591  0.51085  0.22857  Biso   1.000  N
  H1039    1.0000 0.67213  0.44796  0.27157  Biso   1.000  H
  C1470    1.0000 0.62524  0.17446  0.09978  Biso   1.000  C
  C1471    1.0000 0.69674  0.20217  0.17627  Biso   1.000  C
  C1472    1.0000 0.55333  0.13786  0.02155  Biso   1.000  C
  C1473    1.0000 0.54953  0.44585  0.92158  Biso   1.000  C
  C1474    1.0000 0.73632  0.53975  0.27538  Biso   1.000  C
  H1040    1.0000 0.64503  0.16898  0.06845  Biso   1.000  H
  N157     1.0000 0.71501  0.21275  0.23315  Biso   1.000  N
  H1041    1.0000 0.71634  0.19868  0.14297  Biso   1.000  H
  H1042    1.0000 0.52115  0.13338  0.00839  Biso   1.000  H
  N158     1.0000 0.57654  0.12368  0.98486  Biso   1.000  N
  C1475    1.0000 0.55123  0.40776  0.87246  Biso   1.000  C
  H1043    1.0000 0.58074  0.48046  0.91777  Biso   1.000  H
  C1476    1.0000 0.50141  0.44865  0.91087  Biso   1.000  C
  H1044    1.0000 0.73014  0.51817  0.31466  Biso   1.000  H
  C1477    1.0000 0.78763  0.55037  0.24347  Biso   1.000  C
  C1478    1.0000 0.73684  0.58885  0.29476  Biso   1.000  C
  C1479    1.0000 0.76275  0.21237  0.24347  Biso   1.000  C
  C1480    1.0000 0.55413  0.10367  0.92158  Biso   1.000  C
  N159     1.0000 0.59593  0.40296  0.88586  Biso   1.000  N
  H1045    1.0000 0.51974  0.37345  0.87795  Biso   1.000  H
  C1481    1.0000 0.55334  0.42565  0.80348  Biso   1.000  C
  C1482    1.0000 0.50242  0.48997  0.88017  Biso   1.000  C
  C1483    1.0000 0.45424  0.40868  0.92755  Biso   1.000  C
  N160     1.0000 0.78725  0.50227  0.23315  Biso   1.000  N
  H1046    1.0000 0.79033  0.56658  0.20047  Biso   1.000  H
  C1484    1.0000 0.83285  0.58517  0.28136  Biso   1.000  C
  C1485    1.0000 0.73925  0.60176  0.35708  Biso   1.000  C
  C1486    1.0000 0.73504  0.61978  0.24896  Biso   1.000  C
  C1487    1.0000 0.80343  0.26365  0.27538  Biso   1.000  C
  H1047    1.0000 0.77624  0.20968  0.20047  Biso   1.000  H
  C1488    1.0000 0.75234  0.16718  0.28136  Biso   1.000  C
  C1489    1.0000 0.59224  0.14346  0.87246  Biso   1.000  C
  H1048    1.0000 0.51953  0.10026  0.91777  Biso   1.000  H
  C1490    1.0000 0.55135  0.05278  0.91087  Biso   1.000  C
  C1491    1.0000 0.58803  0.35927  0.90557  Biso   1.000  C
  C1492    1.0000 0.59933  0.46206  0.77687  Biso   1.000  C
  C1493    1.0000 0.51103  0.40296  0.76405  Biso   1.000  C
  H1049    1.0000 0.53443  0.51848  0.86826  Biso   1.000  H
  C1494    1.0000 0.45745  0.49077  0.86629  Biso   1.000  C
  C1495    1.0000 0.40815  0.40818  0.91285  Biso   1.000  C
  H1050    1.0000 0.45233  0.38016  0.94968  Biso   1.000  H
  C1496    1.0000 0.79783  0.49457  0.17627  Biso   1.000  C
  C1497    1.0000 0.84034  0.57367  0.34257  Biso   1.000  C
  C1498    1.0000 0.87074  0.62936  0.24896  Biso   1.000  C
  H1051    1.0000 0.74072  0.58015  0.38928  Biso   1.000  H
  C1499    1.0000 0.73954  0.64676  0.37535  Biso   1.000  C
  C1500    1.0000 0.73565  0.66508  0.26439  Biso   1.000  C
  H1052    1.0000 0.73322  0.61035  0.20496  Biso   1.000  H
  N161     1.0000 0.81495  0.30408  0.22857  Biso   1.000  N
  H1053    1.0000 0.78804  0.26986  0.31466  Biso   1.000  H
  C1501    1.0000 0.85203  0.26315  0.29476  Biso   1.000  C
  C1502    1.0000 0.73335  0.15967  0.34257  Biso   1.000  C
  C1503    1.0000 0.75864  0.12928  0.24896  Biso   1.000  C
  N162     1.0000 0.59705  0.19297  0.88586  Biso   1.000  N
  H1054    1.0000 0.62653  0.14625  0.87795  Biso   1.000  H
  C1504    1.0000 0.57432  0.12767  0.80348  Biso   1.000  C
  C1505    1.0000 0.51001  0.01246  0.88017  Biso   1.000  C
  C1506    1.0000 0.59133  0.04557  0.92755  Biso   1.000  C
  C1507    1.0000 0.62922  0.34685  0.91608  Biso   1.000  C
  H1055    1.0000 0.55374  0.33325  0.91386  Biso   1.000  H
  H1056    1.0000 0.62952  0.47797  0.80256  Biso   1.000  H
  C1508    1.0000 0.60143  0.47556  0.71127  Biso   1.000  C
  C1509    1.0000 0.51293  0.41745  0.70086  Biso   1.000  C
  H1057    1.0000 0.47953  0.37648  0.78097  Biso   1.000  H
  H1058    1.0000 0.45874  0.51978  0.84638  Biso   1.000  H
  C1510    1.0000 0.41275  0.44976  0.88157  Biso   1.000  C
  H1059    1.0000 0.37572  0.38016  0.92437  Biso   1.000  H
  C1511    1.0000 0.80474  0.45068  0.16075  Biso   1.000  C
  H1060    1.0000 0.80132  0.51768  0.14297  Biso   1.000  H
  H1061    1.0000 0.81494  0.54278  0.36185  Biso   1.000  H
  C1512    1.0000 0.88424  0.60617  0.37728  Biso   1.000  C
  C1513    1.0000 0.91484  0.66067  0.28266  Biso   1.000  C
  H1062    1.0000 0.86594  0.63695  0.20597  Biso   1.000  H
  H1063    1.0000 0.74192  0.65638  0.41936  Biso   1.000  H
  C1514    1.0000 0.73625  0.67497  0.32965  Biso   1.000  C
  H1064    1.0000 0.73572  0.68765  0.23238  Biso   1.000  H
  C1515    1.0000 0.79662  0.33256  0.23489  Biso   1.000  C
  C1516    1.0000 0.86253  0.26077  0.35708  Biso   1.000  C
  C1517    1.0000 0.88473  0.26495  0.24896  Biso   1.000  C
  H1065    1.0000 0.72783  0.18508  0.36185  Biso   1.000  H
  C1518    1.0000 0.72193  0.11578  0.37728  Biso   1.000  C
  C1519    1.0000 0.74585  0.08516  0.28266  Biso   1.000  C
  H1066    1.0000 0.77103  0.13407  0.20597  Biso   1.000  H
  C1520    1.0000 0.64074  0.22877  0.90557  Biso   1.000  C
  C1521    1.0000 0.53794  0.13729  0.77687  Biso   1.000  C
  C1522    1.0000 0.59706  0.10808  0.76405  Biso   1.000  C
  C1523    1.0000 0.50922  0.96666  0.86629  Biso   1.000  C
  H1067    1.0000 0.48154  0.01598  0.86826  Biso   1.000  H
  C1524    1.0000 0.59182  0.99996  0.91285  Biso   1.000  C
  H1068    1.0000 0.61983  0.07217  0.94968  Biso   1.000  H
  C1525    1.0000 0.68044  0.38438  0.91545  Biso   1.000  C
  C1526    1.0000 0.61564  0.29607  0.91545  Biso   1.000  C
  H1069    1.0000 0.63293  0.50058  0.69237  Biso   1.000  H
  C1527    1.0000 0.55954  0.45325  0.67695  Biso   1.000  C
  H1070    1.0000 0.48304  0.40316  0.67488  Biso   1.000  H
  F147     1.0000 0.36692  0.44827  0.86855  Biso   1.000  F
  C1528    1.0000 0.82552  0.45076  0.09978  Biso   1.000  C
  C1529    1.0000 0.79501  0.41105  0.20245  Biso   1.000  C
  H1071    1.0000 0.88894  0.59858  0.42037  Biso   1.000  H
  C1530    1.0000 0.92052  0.64986  0.34638  Biso   1.000  C
  H1072    1.0000 0.94173  0.68995  0.26217  Biso   1.000  H
  F148     1.0000 0.73722  0.71966  0.34368  Biso   1.000  F
  C1531    1.0000 0.80503  0.37288  0.18968  Biso   1.000  C
  H1073    1.0000 0.77583  0.32788  0.27157  Biso   1.000  H
  H1074    1.0000 0.83944  0.25928  0.38928  Biso   1.000  H
  C1532    1.0000 0.90722  0.26047  0.37535  Biso   1.000  C
  C1533    1.0000 0.92945  0.26438  0.26439  Biso   1.000  C
  H1075    1.0000 0.87714  0.26675  0.20496  Biso   1.000  H
  H1076    1.0000 0.70964  0.11107  0.42037  Biso   1.000  H
  C1534    1.0000 0.72932  0.07945  0.34638  Biso   1.000  C
  H1077    1.0000 0.74823  0.05826  0.26217  Biso   1.000  H
  C1535    1.0000 0.65312  0.28235  0.91608  Biso   1.000  C
  H1078    1.0000 0.66672  0.22045  0.91386  Biso   1.000  H
  H1079    1.0000 0.52205  0.15158  0.80256  Biso   1.000  H
  C1536    1.0000 0.52443  0.12586  0.71127  Biso   1.000  C
  C1537    1.0000 0.58252  0.09547  0.70086  Biso   1.000  C
  H1080    1.0000 0.62352  0.10306  0.78097  Biso   1.000  H
  H1081    1.0000 0.48025  0.93898  0.84638  Biso   1.000  H
  C1538    1.0000 0.55023  0.96298  0.88157  Biso   1.000  C
  H1082    1.0000 0.61982  0.99555  0.92437  Biso   1.000  H
  H1083    1.0000 0.68983  0.41956  0.91449  Biso   1.000  H
  C1539    1.0000 0.71765  0.37077  0.91608  Biso   1.000  C
  H1084    1.0000 0.58044  0.27028  0.91449  Biso   1.000  H
  F149     1.0000 0.56053  0.46467  0.61255  Biso   1.000  F
  C1540    1.0000 0.83794  0.41266  0.08647  Biso   1.000  C
  H1085    1.0000 0.83103  0.47605  0.06845  Biso   1.000  H
  H1086    1.0000 0.78015  0.41048  0.24308  Biso   1.000  H
  F150     1.0000 0.96423  0.68317  0.37578  Biso   1.000  F
  C1541    1.0000 0.82724  0.37387  0.12937  Biso   1.000  C
  H1087    1.0000 0.91444  0.25805  0.41936  Biso   1.000  H
  C1542    1.0000 0.93874  0.26376  0.32965  Biso   1.000  C
  H1088    1.0000 0.95193  0.26426  0.23238  Biso   1.000  H
  F151     1.0000 0.71892  0.03576  0.37578  Biso   1.000  F
  C1543    1.0000 0.70393  0.31957  0.91545  Biso   1.000  C
  H1089    1.0000 0.49944  0.13238  0.69237  Biso   1.000  H
  C1544    1.0000 0.54673  0.10628  0.67695  Biso   1.000  C
  H1090    1.0000 0.59683  0.07987  0.67488  Biso   1.000  H
  F152     1.0000 0.55174  0.91867  0.86855  Biso   1.000  F
  C1545    1.0000 0.77124  0.41197  0.90557  Biso   1.000  C
  C1546    1.0000 0.86214  0.41546  0.02155  Biso   1.000  C
  H1091    1.0000 0.83474  0.34766  0.11838  Biso   1.000  H
  F153     1.0000 0.98242  0.26277  0.34368  Biso   1.000  F
  H1092    1.0000 0.72974  0.31018  0.91449  Biso   1.000  H
  F154     1.0000 0.53531  0.09585  0.61255  Biso   1.000  F
  N163     1.0000 0.80702  0.40408  0.88586  Biso   1.000  N
  H1093    1.0000 0.77953  0.44627  0.91386  Biso   1.000  H
  H1094    1.0000 0.86664  0.38775  0.00839  Biso   1.000  H
  N164     1.0000 0.87633  0.45287  0.98486  Biso   1.000  N
  C1547    1.0000 0.85652  0.44876  0.87246  Biso   1.000  C
  C1548    1.0000 0.89633  0.45045  0.92158  Biso   1.000  C
  H1095    1.0000 0.85375  0.48027  0.87795  Biso   1.000  H
  C1549    1.0000 0.87233  0.44666  0.80348  Biso   1.000  C
  H1096    1.0000 0.89972  0.41925  0.91777  Biso   1.000  H
  C1550    1.0000 0.94723  0.49855  0.91087  Biso   1.000  C
  C1551    1.0000 0.86274  0.40067  0.77687  Biso   1.000  C
  C1552    1.0000 0.89192  0.48897  0.76405  Biso   1.000  C
  C1553    1.0000 0.98753  0.49755  0.88017  Biso   1.000  C
  C1554    1.0000 0.95444  0.54577  0.92755  Biso   1.000  C
  H1097    1.0000 0.84844  0.37046  0.80256  Biso   1.000  H
  C1555    1.0000 0.87413  0.39856  0.71127  Biso   1.000  C
  C1556    1.0000 0.90454  0.48705  0.70086  Biso   1.000  C
  H1098    1.0000 0.89692  0.52047  0.78097  Biso   1.000  H
  H1099    1.0000 0.98404  0.46555  0.86826  Biso   1.000  H
  C1557    1.0000 0.03332  0.54255  0.86629  Biso   1.000  C
  H1100    1.0000 0.92785  0.54769  0.94968  Biso   1.000  H
  C1558    1.0000 0.00003  0.59188  0.91285  Biso   1.000  C
  H1101    1.0000 0.86764  0.36705  0.69237  Biso   1.000  H
  C1559    1.0000 0.89372  0.44045  0.67695  Biso   1.000  C
  H1102    1.0000 0.92012  0.51695  0.67488  Biso   1.000  H
  H1103    1.0000 0.06104  0.54129  0.84638  Biso   1.000  H
  C1560    1.0000 0.03703  0.58728  0.88157  Biso   1.000  C
  H1104    1.0000 0.00444  0.62426  0.92437  Biso   1.000  H
  F155     1.0000 0.90414  0.43945  0.61255  Biso   1.000  F
  F156     1.0000 0.08134  0.63308  0.86855  Biso   1.000  F
  C1561    1.0000 0.29631  0.21689  0.78512  Biso   1.000  C
  C1562    1.0000 0.30002  0.17592  0.80040  Biso   1.000  C
  C1563    1.0000 0.33332  0.25851  0.75378  Biso   1.000  C
  F157     1.0000 0.25198  0.21838  0.79808  Biso   1.000  F
  C1564    1.0000 0.34578  0.17669  0.78651  Biso   1.000  C
  H1105    1.0000 0.27230  0.14691  0.82030  Biso   1.000  H
  C1565    1.0000 0.37891  0.25801  0.73908  Biso   1.000  C
  H1106    1.0000 0.32889  0.28649  0.74231  Biso   1.000  H
  C1566    1.0000 0.38608  0.21800  0.75581  Biso   1.000  C
  H1107    1.0000 0.34930  0.14821  0.79842  Biso   1.000  H
  H1108    1.0000 0.40549  0.28649  0.71701  Biso   1.000  H
  C1567    1.0000 0.43701  0.22080  0.74511  Biso   1.000  C
  N165     1.0000 0.45699  0.24318  0.68182  Biso   1.000  N
  C1568    1.0000 0.47680  0.25890  0.79418  Biso   1.000  C
  H1109    1.0000 0.43361  0.18619  0.74892  Biso   1.000  H
  C1569    1.0000 0.47119  0.21999  0.64509  Biso   1.000  C
  N166     1.0000 0.52629  0.26369  0.78078  Biso   1.000  N
  H1110    1.0000 0.47961  0.29320  0.78868  Biso   1.000  H
  C1570    1.0000 0.46101  0.24100  0.86320  Biso   1.000  C
  C1571    1.0000 0.49541  0.24142  0.58021  Biso   1.000  C
  H1111    1.0000 0.46671  0.18780  0.65830  Biso   1.000  H
  C1572    1.0000 0.56210  0.30742  0.76111  Biso   1.000  C
  C1573    1.0000 0.47059  0.20459  0.88981  Biso   1.000  C
  C1574    1.0000 0.44139  0.26369  0.90258  Biso   1.000  C
  C1575    1.0000 0.50780  0.29189  0.56690  Biso   1.000  C
  C1576    1.0000 0.50611  0.21329  0.53731  Biso   1.000  C
  C1577    1.0000 0.61569  0.31980  0.75060  Biso   1.000  C
  H1112    1.0000 0.55382  0.33340  0.75282  Biso   1.000  H
  H1113    1.0000 0.48487  0.18868  0.86412  Biso   1.000  H
  C1578    1.0000 0.45920  0.19110  0.95541  Biso   1.000  C
  C1579    1.0000 0.42880  0.24920  0.96578  Biso   1.000  C
  H1114    1.0000 0.43639  0.29021  0.88571  Biso   1.000  H
  C1580    1.0000 0.52861  0.31259  0.50588  Biso   1.000  C
  H1115    1.0000 0.50231  0.31171  0.59819  Biso   1.000  H
  C1581    1.0000 0.52829  0.23448  0.47701  Biso   1.000  C
  H1116    1.0000 0.49859  0.17960  0.54830  Biso   1.000  H
  C1582    1.0000 0.62941  0.28231  0.75118  Biso   1.000  C
  C1583    1.0000 0.65291  0.37062  0.75118  Biso   1.000  C
  H1117    1.0000 0.46569  0.16611  0.97431  Biso   1.000  H
  C1584    1.0000 0.43961  0.21340  0.98968  Biso   1.000  C
  H1118    1.0000 0.41321  0.26349  0.99181  Biso   1.000  H
  C1585    1.0000 0.53550  0.36341  0.49041  Biso   1.000  C
  C1586    1.0000 0.53829  0.28270  0.46419  Biso   1.000  C
  C1587    1.0000 0.53671  0.20259  0.43179  Biso   1.000  C
  H1119    1.0000 0.60360  0.24709  0.75219  Biso   1.000  H
  C1588    1.0000 0.68022  0.29592  0.75060  Biso   1.000  C
  C1589    1.0000 0.70410  0.38430  0.75060  Biso   1.000  C
  H1120    1.0000 0.64351  0.39641  0.75219  Biso   1.000  H
  F158     1.0000 0.42921  0.20202  0.05408  Biso   1.000  F
  N167     1.0000 0.54610  0.38169  0.43348  Biso   1.000  N
  H1121    1.0000 0.53201  0.38300  0.52372  Biso   1.000  H
  H1122    1.0000 0.55320  0.29699  0.42360  Biso   1.000  H
  N168     1.0000 0.51839  0.15580  0.43811  Biso   1.000  N
  H1123    1.0000 0.55750  0.21869  0.39511  Biso   1.000  H
  C1590    1.0000 0.71769  0.34708  0.75118  Biso   1.000  C
  C1591    1.0000 0.69261  0.25472  0.76111  Biso   1.000  C
  C1592    1.0000 0.74531  0.43792  0.76111  Biso   1.000  C
  C1593    1.0000 0.54569  0.42941  0.42321  Biso   1.000  C
  C1594    1.0000 0.52989  0.12690  0.39130  Biso   1.000  C
  H1124    1.0000 0.75290  0.35651  0.75219  Biso   1.000  H
  N169     1.0000 0.73629  0.26261  0.78078  Biso   1.000  N
  H1125    1.0000 0.66660  0.22042  0.75282  Biso   1.000  H
  N170     1.0000 0.73742  0.47372  0.78078  Biso   1.000  N
  H1126    1.0000 0.77959  0.44620  0.75282  Biso   1.000  H
  C1595    1.0000 0.50048  0.41899  0.38528  Biso   1.000  C
  C1596    1.0000 0.59701  0.47011  0.39130  Biso   1.000  C
  H1127    1.0000 0.54301  0.44290  0.46621  Biso   1.000  H
  H1128    1.0000 0.54531  0.14852  0.35202  Biso   1.000  H
  C1597    1.0000 0.57059  0.11628  0.42321  Biso   1.000  C
  C1598    1.0000 0.48131  0.07780  0.37188  Biso   1.000  C
  C1599    1.0000 0.74108  0.21789  0.79418  Biso   1.000  C
  C1600    1.0000 0.78211  0.52319  0.79418  Biso   1.000  C
  C1601    1.0000 0.49302  0.40001  0.32411  Biso   1.000  C
  C1602    1.0000 0.46259  0.42531  0.41772  Biso   1.000  C
  N171     1.0000 0.63741  0.48161  0.43811  Biso   1.000  N
  H1129    1.0000 0.60322  0.45471  0.35202  Biso   1.000  H
  C1603    1.0000 0.59652  0.51871  0.37188  Biso   1.000  C
  N172     1.0000 0.61830  0.16438  0.43348  Biso   1.000  N
  H1130    1.0000 0.55709  0.10011  0.46621  Biso   1.000  H
  C1604    1.0000 0.58100  0.08148  0.38528  Biso   1.000  C
  C1605    1.0000 0.47081  0.06489  0.30960  Biso   1.000  C
  C1606    1.0000 0.44861  0.04691  0.41772  Biso   1.000  C
  C1607    1.0000 0.77920  0.21620  0.74511  Biso   1.000  C
  H1131    1.0000 0.70681  0.18638  0.78868  Biso   1.000  H
  C1608    1.0000 0.75899  0.21999  0.86320  Biso   1.000  C
  C1609    1.0000 0.78380  0.56302  0.74511  Biso   1.000  C
  H1132    1.0000 0.81360  0.52040  0.78868  Biso   1.000  H
  C1610    1.0000 0.77998  0.53899  0.86320  Biso   1.000  C
  C1611    1.0000 0.44911  0.38859  0.28941  Biso   1.000  C
  H1133    1.0000 0.51841  0.39449  0.30478  Biso   1.000  H
  C1612    1.0000 0.41852  0.41251  0.38398  Biso   1.000  C
  H1134    1.0000 0.46738  0.43769  0.46072  Biso   1.000  H
  C1613    1.0000 0.66589  0.46329  0.43179  Biso   1.000  C
  C1614    1.0000 0.59410  0.52921  0.30960  Biso   1.000  C
  C1615    1.0000 0.59829  0.55140  0.41772  Biso   1.000  C
  C1616    1.0000 0.63659  0.17209  0.49041  Biso   1.000  C
  C1617    1.0000 0.60001  0.09302  0.32411  Biso   1.000  C
  C1618    1.0000 0.57471  0.03729  0.41772  Biso   1.000  C
  H1135    1.0000 0.49390  0.08650  0.27740  Biso   1.000  H
  C1619    1.0000 0.42610  0.01989  0.29129  Biso   1.000  C
  C1620    1.0000 0.40392  0.00161  0.40229  Biso   1.000  C
  H1136    1.0000 0.45619  0.05630  0.46168  Biso   1.000  H
  N173     1.0000 0.75679  0.21379  0.68182  Biso   1.000  N
  H1137    1.0000 0.81379  0.24740  0.74892  Biso   1.000  H
  C1621    1.0000 0.78201  0.16810  0.75581  Biso   1.000  C
  C1622    1.0000 0.79540  0.26599  0.88981  Biso   1.000  C
  C1623    1.0000 0.73628  0.17768  0.90258  Biso   1.000  C
  N174     1.0000 0.78621  0.54301  0.68182  Biso   1.000  N
  H1138    1.0000 0.75259  0.56639  0.74892  Biso   1.000  H
  C1624    1.0000 0.83192  0.61391  0.75581  Biso   1.000  C
  C1625    1.0000 0.73400  0.52940  0.88981  Biso   1.000  C
  C1626    1.0000 0.82232  0.55861  0.90258  Biso   1.000  C
  C1627    1.0000 0.41278  0.39599  0.32030  Biso   1.000  C
  H1139    1.0000 0.44438  0.37629  0.24631  Biso   1.000  H
  H1140    1.0000 0.39159  0.41488  0.40451  Biso   1.000  H
  C1628    1.0000 0.70620  0.47168  0.47701  Biso   1.000  C
  H1141    1.0000 0.66122  0.44252  0.39511  Biso   1.000  H
  H1142    1.0000 0.59260  0.50610  0.27740  Biso   1.000  H
  C1629    1.0000 0.59381  0.57390  0.29129  Biso   1.000  C
  C1630    1.0000 0.59770  0.59609  0.40229  Biso   1.000  C
  H1143    1.0000 0.60011  0.54381  0.46168  Biso   1.000  H
  C1631    1.0000 0.68740  0.21601  0.50588  Biso   1.000  C
  H1144    1.0000 0.61699  0.14901  0.52372  Biso   1.000  H
  H1145    1.0000 0.60550  0.12391  0.30478  Biso   1.000  H
  C1632    1.0000 0.61141  0.06052  0.28941  Biso   1.000  C
  C1633    1.0000 0.58751  0.00602  0.38398  Biso   1.000  C
  H1146    1.0000 0.56232  0.02970  0.46072  Biso   1.000  H
  H1147    1.0000 0.41889  0.01031  0.24728  Biso   1.000  H
  C1634    1.0000 0.39461  0.99168  0.33698  Biso   1.000  C
  H1148    1.0000 0.38139  0.97900  0.43430  Biso   1.000  H
  C1635    1.0000 0.78000  0.25119  0.64509  Biso   1.000  C
  C1636    1.0000 0.82330  0.16910  0.78651  Biso   1.000  C
  C1637    1.0000 0.74200  0.12088  0.73908  Biso   1.000  C
  H1149    1.0000 0.81130  0.29619  0.86412  Biso   1.000  H
  C1638    1.0000 0.80890  0.26809  0.95541  Biso   1.000  C
  C1639    1.0000 0.75081  0.17960  0.96578  Biso   1.000  C
  H1150    1.0000 0.70979  0.14622  0.88571  Biso   1.000  H
  C1640    1.0000 0.74880  0.52879  0.64509  Biso   1.000  C
  C1641    1.0000 0.83088  0.65419  0.78651  Biso   1.000  C
  C1642    1.0000 0.87910  0.62112  0.73908  Biso   1.000  C
  H1151    1.0000 0.70382  0.51511  0.86412  Biso   1.000  H
  C1643    1.0000 0.73189  0.54079  0.95541  Biso   1.000  C
  C1644    1.0000 0.82039  0.57122  0.96578  Biso   1.000  C
  H1152    1.0000 0.85379  0.56359  0.88571  Biso   1.000  H
  F159     1.0000 0.36912  0.38560  0.29090  Biso   1.000  F
  C1645    1.0000 0.74438  0.46168  0.46419  Biso   1.000  C
  C1646    1.0000 0.70719  0.49391  0.53731  Biso   1.000  C
  H1153    1.0000 0.59140  0.58111  0.24728  Biso   1.000  H
  C1647    1.0000 0.59711  0.60541  0.33698  Biso   1.000  C
  H1154    1.0000 0.59760  0.61859  0.43430  Biso   1.000  H
  C1648    1.0000 0.70809  0.21589  0.56690  Biso   1.000  C
  C1649    1.0000 0.71728  0.25560  0.46419  Biso   1.000  C
  H1155    1.0000 0.62370  0.06811  0.24631  Biso   1.000  H
  C1650    1.0000 0.60399  0.01679  0.32030  Biso   1.000  C
  H1156    1.0000 0.58510  0.97670  0.40451  Biso   1.000  H
  F160     1.0000 0.35089  0.94699  0.32300  Biso   1.000  F
  C1651    1.0000 0.75860  0.25399  0.58021  Biso   1.000  C
  H1157    1.0000 0.81221  0.27890  0.65830  Biso   1.000  H
  H1158    1.0000 0.85181  0.20110  0.79842  Biso   1.000  H
  C1652    1.0000 0.82410  0.12410  0.80040  Biso   1.000  C
  C1653    1.0000 0.74150  0.07481  0.75378  Biso   1.000  C
  H1159    1.0000 0.71351  0.11900  0.71701  Biso   1.000  H
  H1160    1.0000 0.83391  0.29960  0.97431  Biso   1.000  H
  C1654    1.0000 0.78659  0.22620  0.98968  Biso   1.000  C
  H1161    1.0000 0.73650  0.14970  0.99181  Biso   1.000  H
  C1655    1.0000 0.74600  0.50461  0.58021  Biso   1.000  C
  H1162    1.0000 0.72112  0.53331  0.65830  Biso   1.000  H
  H1163    1.0000 0.79890  0.65071  0.79842  Biso   1.000  H
  C1656    1.0000 0.87589  0.70000  0.80040  Biso   1.000  C
  C1657    1.0000 0.92519  0.66669  0.75378  Biso   1.000  C
  H1164    1.0000 0.88098  0.59448  0.71701  Biso   1.000  H
  H1165    1.0000 0.70041  0.53431  0.97431  Biso   1.000  H
  C1658    1.0000 0.77380  0.56041  0.98968  Biso   1.000  C
  H1166    1.0000 0.85030  0.58682  0.99181  Biso   1.000  H
  C1659    1.0000 0.78400  0.47142  0.50588  Biso   1.000  C
  H1167    1.0000 0.74382  0.44681  0.42360  Biso   1.000  H
  H1168    1.0000 0.68099  0.50139  0.54830  Biso   1.000  H
  F161     1.0000 0.59609  0.64910  0.32300  Biso   1.000  F
  H1169    1.0000 0.68830  0.19060  0.59819  Biso   1.000  H
  C1660    1.0000 0.76550  0.29381  0.47701  Biso   1.000  C
  H1170    1.0000 0.70302  0.25621  0.42360  Biso   1.000  H
  F162     1.0000 0.61438  0.98348  0.29090  Biso   1.000  F
  C1661    1.0000 0.78671  0.29281  0.53731  Biso   1.000  C
  H1171    1.0000 0.85310  0.12540  0.82030  Biso   1.000  H
  C1662    1.0000 0.78310  0.07941  0.78512  Biso   1.000  C
  H1172    1.0000 0.71351  0.04239  0.74231  Biso   1.000  H
  F163     1.0000 0.79801  0.22720  0.05408  Biso   1.000  F
  C1663    1.0000 0.78410  0.49219  0.56690  Biso   1.000  C
  H1173    1.0000 0.87461  0.72771  0.82030  Biso   1.000  H
  C1664    1.0000 0.92060  0.70371  0.78512  Biso   1.000  C
  H1174    1.0000 0.95759  0.67110  0.74231  Biso   1.000  H
  F164     1.0000 0.77279  0.57080  0.05408  Biso   1.000  F
  C1665    1.0000 0.82792  0.46452  0.49041  Biso   1.000  C
  C1666    1.0000 0.79739  0.33409  0.43179  Biso   1.000  C
  H1175    1.0000 0.82041  0.31899  0.54830  Biso   1.000  H
  F165     1.0000 0.78161  0.03361  0.79808  Biso   1.000  F
  H1176    1.0000 0.80940  0.49771  0.59819  Biso   1.000  H
  F166     1.0000 0.96641  0.74802  0.79808  Biso   1.000  F
  H1177    1.0000 0.85100  0.46800  0.52372  Biso   1.000  H
  N175     1.0000 0.83559  0.45390  0.43348  Biso   1.000  N
  N176     1.0000 0.84421  0.36261  0.43811  Biso   1.000  N
  H1178    1.0000 0.78129  0.33881  0.39511  Biso   1.000  H
  C1667    1.0000 0.88371  0.45428  0.42321  Biso   1.000  C
  C1668    1.0000 0.87310  0.40300  0.39130  Biso   1.000  C
  H1179    1.0000 0.89990  0.45701  0.46621  Biso   1.000  H
  C1669    1.0000 0.91850  0.49951  0.38528  Biso   1.000  C
  H1180    1.0000 0.85151  0.39679  0.35202  Biso   1.000  H
  C1670    1.0000 0.92221  0.40350  0.37188  Biso   1.000  C
  C1671    1.0000 0.90700  0.50698  0.32411  Biso   1.000  C
  C1672    1.0000 0.96271  0.53741  0.41772  Biso   1.000  C
  C1673    1.0000 0.93510  0.40592  0.30960  Biso   1.000  C
  C1674    1.0000 0.95311  0.40170  0.41772  Biso   1.000  C
  H1181    1.0000 0.87609  0.48161  0.30478  Biso   1.000  H
  C1675    1.0000 0.93949  0.55090  0.28941  Biso   1.000  C
  C1676    1.0000 0.99401  0.58149  0.38398  Biso   1.000  C
  H1182    1.0000 0.97029  0.53258  0.46072  Biso   1.000  H
  H1183    1.0000 0.91351  0.40741  0.27740  Biso   1.000  H
  C1677    1.0000 0.98008  0.40618  0.29129  Biso   1.000  C
  C1678    1.0000 0.99842  0.40231  0.40229  Biso   1.000  C
  H1184    1.0000 0.94371  0.39990  0.46168  Biso   1.000  H
  H1185    1.0000 0.93192  0.55562  0.24631  Biso   1.000  H
  C1679    1.0000 0.98319  0.58720  0.32030  Biso   1.000  C
  H1186    1.0000 0.02330  0.60839  0.40451  Biso   1.000  H
  H1187    1.0000 0.98971  0.40860  0.24728  Biso   1.000  H
  C1680    1.0000 0.00830  0.40289  0.33698  Biso   1.000  C
  H1188    1.0000 0.02100  0.40239  0.43430  Biso   1.000  H
  F167     1.0000 0.01649  0.63089  0.29090  Biso   1.000  F
  F168     1.0000 0.05298  0.40388  0.32300  Biso   1.000  F
  C1681    1.0000 0.21689  0.29630  0.21488  Biso   1.000  C
  F169     1.0000 0.21840  0.25200  0.20192  Biso   1.000  F
  C1682    1.0000 0.17588  0.29998  0.19960  Biso   1.000  C
  C1683    1.0000 0.25849  0.33329  0.24622  Biso   1.000  C
  C1684    1.0000 0.17667  0.34578  0.21349  Biso   1.000  C
  H1189    1.0000 0.14691  0.27231  0.17970  Biso   1.000  H
  H1190    1.0000 0.28650  0.32892  0.25769  Biso   1.000  H
  C1685    1.0000 0.25799  0.37890  0.26092  Biso   1.000  C
  C1686    1.0000 0.21801  0.38610  0.24419  Biso   1.000  C
  H1191    1.0000 0.14820  0.34931  0.20158  Biso   1.000  H
  H1192    1.0000 0.28649  0.40549  0.28299  Biso   1.000  H
  C1687    1.0000 0.22079  0.43700  0.25489  Biso   1.000  C
  N177     1.0000 0.24321  0.45701  0.31818  Biso   1.000  N
  C1688    1.0000 0.25890  0.47678  0.20582  Biso   1.000  C
  H1193    1.0000 0.18619  0.43359  0.25108  Biso   1.000  H
  C1689    1.0000 0.21999  0.47119  0.35491  Biso   1.000  C
  N178     1.0000 0.26371  0.52630  0.21922  Biso   1.000  N
  H1194    1.0000 0.29321  0.47962  0.21132  Biso   1.000  H
  C1690    1.0000 0.24098  0.46099  0.13680  Biso   1.000  C
  H1195    1.0000 0.18781  0.46670  0.34170  Biso   1.000  H
  C1691    1.0000 0.24140  0.49541  0.41979  Biso   1.000  C
  C1692    1.0000 0.30740  0.56210  0.23889  Biso   1.000  C
  C1693    1.0000 0.20460  0.47061  0.11019  Biso   1.000  C
  C1694    1.0000 0.26372  0.44141  0.09742  Biso   1.000  C
  C1695    1.0000 0.29190  0.50779  0.43310  Biso   1.000  C
  C1696    1.0000 0.21329  0.50610  0.46269  Biso   1.000  C
  C1697    1.0000 0.31981  0.61572  0.24940  Biso   1.000  C
  H1196    1.0000 0.33340  0.55382  0.24718  Biso   1.000  H
  H1197    1.0000 0.18872  0.48491  0.13588  Biso   1.000  H
  C1698    1.0000 0.19109  0.45919  0.04459  Biso   1.000  C
  C1699    1.0000 0.24918  0.42880  0.03422  Biso   1.000  C
  H1198    1.0000 0.29019  0.43639  0.11429  Biso   1.000  H
  H1199    1.0000 0.31170  0.50231  0.40181  Biso   1.000  H
  C1700    1.0000 0.31259  0.52860  0.49412  Biso   1.000  C
  C1701    1.0000 0.23451  0.52829  0.52299  Biso   1.000  C
  H1200    1.0000 0.17959  0.49859  0.45170  Biso   1.000  H
  C1702    1.0000 0.28230  0.62940  0.24882  Biso   1.000  C
  C1703    1.0000 0.37059  0.65289  0.24882  Biso   1.000  C
  H1201    1.0000 0.16610  0.46571  0.02569  Biso   1.000  H
  C1704    1.0000 0.21340  0.43960  0.01032  Biso   1.000  C
  H1202    1.0000 0.26349  0.41320  0.00819  Biso   1.000  H
  C1705    1.0000 0.28269  0.53830  0.53581  Biso   1.000  C
  C1706    1.0000 0.36341  0.53550  0.50959  Biso   1.000  C
  C1707    1.0000 0.20259  0.53669  0.56821  Biso   1.000  C
  H1203    1.0000 0.24710  0.60360  0.24781  Biso   1.000  H
  C1708    1.0000 0.29590  0.68022  0.24940  Biso   1.000  C
  C1709    1.0000 0.38431  0.70410  0.24940  Biso   1.000  C
  H1204    1.0000 0.39640  0.64350  0.24781  Biso   1.000  H
  F170     1.0000 0.20200  0.42922  0.94592  Biso   1.000  F
  H1205    1.0000 0.29702  0.55320  0.57640  Biso   1.000  H
  N179     1.0000 0.38169  0.54611  0.56652  Biso   1.000  N
  H1206    1.0000 0.38301  0.53201  0.47628  Biso   1.000  H
  N180     1.0000 0.15581  0.51840  0.56189  Biso   1.000  N
  H1207    1.0000 0.21870  0.55750  0.60489  Biso   1.000  H
  C1710    1.0000 0.34710  0.71770  0.24882  Biso   1.000  C
  C1711    1.0000 0.25469  0.69260  0.23889  Biso   1.000  C
  C1712    1.0000 0.43790  0.74530  0.23889  Biso   1.000  C
  C1713    1.0000 0.42941  0.54569  0.57679  Biso   1.000  C
  C1714    1.0000 0.12691  0.52990  0.60870  Biso   1.000  C
  H1208    1.0000 0.35649  0.75289  0.24781  Biso   1.000  H
  N181     1.0000 0.26260  0.73629  0.21922  Biso   1.000  N
  H1209    1.0000 0.22042  0.66661  0.24718  Biso   1.000  H
  N182     1.0000 0.47369  0.73740  0.21922  Biso   1.000  N
  H1210    1.0000 0.44619  0.77960  0.24718  Biso   1.000  H
  C1715    1.0000 0.47011  0.59701  0.60870  Biso   1.000  C
  H1211    1.0000 0.44291  0.54301  0.53379  Biso   1.000  H
  C1716    1.0000 0.41900  0.50051  0.61472  Biso   1.000  C
  H1212    1.0000 0.14852  0.54531  0.64798  Biso   1.000  H
  C1717    1.0000 0.11629  0.57060  0.57679  Biso   1.000  C
  C1718    1.0000 0.07781  0.48130  0.62812  Biso   1.000  C
  C1719    1.0000 0.21789  0.74108  0.20582  Biso   1.000  C
  C1720    1.0000 0.52318  0.78209  0.20582  Biso   1.000  C
  N183     1.0000 0.48161  0.63741  0.56189  Biso   1.000  N
  H1213    1.0000 0.45470  0.60318  0.64798  Biso   1.000  H
  C1721    1.0000 0.51872  0.59651  0.62812  Biso   1.000  C
  C1722    1.0000 0.40001  0.49299  0.67589  Biso   1.000  C
  C1723    1.0000 0.42531  0.46260  0.58228  Biso   1.000  C
  N184     1.0000 0.16439  0.61828  0.56652  Biso   1.000  N
  H1214    1.0000 0.10012  0.55711  0.53379  Biso   1.000  H
  C1724    1.0000 0.08149  0.58099  0.61472  Biso   1.000  C
  C1725    1.0000 0.06490  0.47080  0.69040  Biso   1.000  C
  C1726    1.0000 0.04690  0.44861  0.58228  Biso   1.000  C
  H1215    1.0000 0.18642  0.70682  0.21132  Biso   1.000  H
  C1727    1.0000 0.21621  0.77922  0.25489  Biso   1.000  C
  C1728    1.0000 0.22002  0.75902  0.13680  Biso   1.000  C
  H1216    1.0000 0.52041  0.81359  0.21132  Biso   1.000  H
  C1729    1.0000 0.56301  0.78382  0.25489  Biso   1.000  C
  C1730    1.0000 0.53899  0.77998  0.13680  Biso   1.000  C
  C1731    1.0000 0.46329  0.66588  0.56821  Biso   1.000  C
  C1732    1.0000 0.52919  0.59410  0.69040  Biso   1.000  C
  C1733    1.0000 0.55141  0.59831  0.58228  Biso   1.000  C
  H1217    1.0000 0.39449  0.51840  0.69522  Biso   1.000  H
  C1734    1.0000 0.38859  0.44911  0.71059  Biso   1.000  C
  C1735    1.0000 0.41251  0.41849  0.61602  Biso   1.000  C
  H1218    1.0000 0.43769  0.46739  0.53928  Biso   1.000  H
  C1736    1.0000 0.17209  0.63660  0.50959  Biso   1.000  C
  C1737    1.0000 0.09302  0.60000  0.67589  Biso   1.000  C
  C1738    1.0000 0.03729  0.57471  0.58228  Biso   1.000  C
  H1219    1.0000 0.08651  0.49391  0.72260  Biso   1.000  H
  C1739    1.0000 0.01991  0.42611  0.70871  Biso   1.000  C
  C1740    1.0000 0.00160  0.40388  0.59771  Biso   1.000  C
  H1220    1.0000 0.05630  0.45620  0.53832  Biso   1.000  H
  N185     1.0000 0.21380  0.75679  0.31818  Biso   1.000  N
  H1221    1.0000 0.24741  0.81379  0.25108  Biso   1.000  H
  C1741    1.0000 0.16809  0.78201  0.24419  Biso   1.000  C
  C1742    1.0000 0.26599  0.79539  0.11019  Biso   1.000  C
  C1743    1.0000 0.17769  0.73629  0.09742  Biso   1.000  C
  N186     1.0000 0.54299  0.78619  0.31818  Biso   1.000  N
  H1222    1.0000 0.56640  0.75262  0.25108  Biso   1.000  H
  C1744    1.0000 0.61391  0.83191  0.24419  Biso   1.000  C
  C1745    1.0000 0.52940  0.73399  0.11019  Biso   1.000  C
  C1746    1.0000 0.55859  0.82229  0.09742  Biso   1.000  C
  C1747    1.0000 0.47170  0.70620  0.52299  Biso   1.000  C
  H1223    1.0000 0.44249  0.66121  0.60489  Biso   1.000  H
  H1224    1.0000 0.50611  0.59260  0.72260  Biso   1.000  H
  C1748    1.0000 0.57388  0.59379  0.70871  Biso   1.000  C
  C1749    1.0000 0.59612  0.59770  0.59771  Biso   1.000  C
  H1225    1.0000 0.54382  0.60012  0.53832  Biso   1.000  H
  H1226    1.0000 0.37631  0.44440  0.75369  Biso   1.000  H
  C1750    1.0000 0.39600  0.41281  0.67970  Biso   1.000  C
  H1227    1.0000 0.41489  0.39158  0.59549  Biso   1.000  H
  C1751    1.0000 0.21600  0.68739  0.49412  Biso   1.000  C
  H1228    1.0000 0.14902  0.61702  0.47628  Biso   1.000  H
  H1229    1.0000 0.12390  0.60548  0.69522  Biso   1.000  H
  C1752    1.0000 0.06050  0.61138  0.71059  Biso   1.000  C
  C1753    1.0000 0.00601  0.58751  0.61602  Biso   1.000  C
  H1230    1.0000 0.02968  0.56229  0.53928  Biso   1.000  H
  H1231    1.0000 0.01030  0.41891  0.75272  Biso   1.000  H
  C1754    1.0000 0.99172  0.39461  0.66302  Biso   1.000  C
  H1232    1.0000 0.97900  0.38139  0.56570  Biso   1.000  H
  C1755    1.0000 0.25118  0.77998  0.35491  Biso   1.000  C
  C1756    1.0000 0.16908  0.82329  0.21349  Biso   1.000  C
  C1757    1.0000 0.12090  0.74200  0.26092  Biso   1.000  C
  H1233    1.0000 0.29618  0.81130  0.13588  Biso   1.000  H
  C1758    1.0000 0.26811  0.80892  0.04459  Biso   1.000  C
  C1759    1.0000 0.17961  0.75082  0.03422  Biso   1.000  C
  H1234    1.0000 0.14619  0.70981  0.11429  Biso   1.000  H
  C1760    1.0000 0.52880  0.74878  0.35491  Biso   1.000  C
  C1761    1.0000 0.65421  0.83092  0.21349  Biso   1.000  C
  C1762    1.0000 0.62111  0.87909  0.26092  Biso   1.000  C
  H1235    1.0000 0.51510  0.70379  0.13588  Biso   1.000  H
  C1763    1.0000 0.54080  0.73188  0.04459  Biso   1.000  C
  C1764    1.0000 0.57122  0.82042  0.03422  Biso   1.000  C
  H1236    1.0000 0.56358  0.85380  0.11429  Biso   1.000  H
  C1765    1.0000 0.46169  0.74442  0.53581  Biso   1.000  C
  C1766    1.0000 0.49390  0.70720  0.46269  Biso   1.000  C
  H1237    1.0000 0.58112  0.59142  0.75272  Biso   1.000  H
  C1767    1.0000 0.60540  0.59709  0.66302  Biso   1.000  C
  H1238    1.0000 0.61860  0.59759  0.56570  Biso   1.000  H
  F171     1.0000 0.38558  0.36908  0.70910  Biso   1.000  F
  C1768    1.0000 0.21590  0.70808  0.43310  Biso   1.000  C
  C1769    1.0000 0.25560  0.71732  0.53581  Biso   1.000  C
  H1239    1.0000 0.06808  0.62369  0.75369  Biso   1.000  H
  C1770    1.0000 0.01678  0.60399  0.67970  Biso   1.000  C
  H1240    1.0000 0.97669  0.58509  0.59549  Biso   1.000  H
  F172     1.0000 0.94700  0.35092  0.67700  Biso   1.000  F
  H1241    1.0000 0.27892  0.81222  0.34170  Biso   1.000  H
  C1771    1.0000 0.25400  0.75860  0.41979  Biso   1.000  C
  H1242    1.0000 0.20110  0.85181  0.20158  Biso   1.000  H
  C1772    1.0000 0.12411  0.82410  0.19960  Biso   1.000  C
  C1773    1.0000 0.07481  0.74150  0.24622  Biso   1.000  C
  H1243    1.0000 0.11899  0.71349  0.28299  Biso   1.000  H
  H1244    1.0000 0.29959  0.83391  0.02569  Biso   1.000  H
  C1774    1.0000 0.22622  0.78661  0.01032  Biso   1.000  C
  H1245    1.0000 0.14971  0.73648  0.00819  Biso   1.000  H
  H1246    1.0000 0.53332  0.72111  0.34170  Biso   1.000  H
  C1775    1.0000 0.50460  0.74599  0.41979  Biso   1.000  C
  H1247    1.0000 0.65072  0.79892  0.20158  Biso   1.000  H
  C1776    1.0000 0.70001  0.87591  0.19960  Biso   1.000  C
  C1777    1.0000 0.66670  0.92520  0.24622  Biso   1.000  C
  H1248    1.0000 0.59452  0.88101  0.28299  Biso   1.000  H
  H1249    1.0000 0.53432  0.70042  0.02569  Biso   1.000  H
  C1778    1.0000 0.56040  0.77381  0.01032  Biso   1.000  C
  H1250    1.0000 0.58680  0.85031  0.00819  Biso   1.000  H
  C1779    1.0000 0.47140  0.78401  0.49412  Biso   1.000  C
  H1251    1.0000 0.44681  0.74380  0.57640  Biso   1.000  H
  H1252    1.0000 0.50141  0.68099  0.45170  Biso   1.000  H
  F173     1.0000 0.64908  0.59609  0.67700  Biso   1.000  F
  H1253    1.0000 0.19061  0.68831  0.40181  Biso   1.000  H
  H1254    1.0000 0.25620  0.70298  0.57640  Biso   1.000  H
  C1780    1.0000 0.29379  0.76550  0.52299  Biso   1.000  C
  F174     1.0000 0.98352  0.61441  0.70910  Biso   1.000  F
  C1781    1.0000 0.29281  0.78669  0.46269  Biso   1.000  C
  H1255    1.0000 0.12541  0.85311  0.17970  Biso   1.000  H
  C1782    1.0000 0.07941  0.78309  0.21488  Biso   1.000  C
  H1256    1.0000 0.04238  0.71349  0.25769  Biso   1.000  H
  F175     1.0000 0.22720  0.79800  0.94592  Biso   1.000  F
  C1783    1.0000 0.49218  0.78408  0.43310  Biso   1.000  C
  H1257    1.0000 0.72770  0.87461  0.17970  Biso   1.000  H
  C1784    1.0000 0.70370  0.92060  0.21488  Biso   1.000  C
  H1258    1.0000 0.67111  0.95759  0.25769  Biso   1.000  H
  F176     1.0000 0.57082  0.77282  0.94592  Biso   1.000  F
  C1785    1.0000 0.46450  0.82789  0.50959  Biso   1.000  C
  C1786    1.0000 0.33410  0.79738  0.56821  Biso   1.000  C
  H1259    1.0000 0.31900  0.82042  0.45170  Biso   1.000  H
  F177     1.0000 0.03359  0.78159  0.20192  Biso   1.000  F
  H1260    1.0000 0.49771  0.80942  0.40181  Biso   1.000  H
  F178     1.0000 0.74800  0.96640  0.20192  Biso   1.000  F
  H1261    1.0000 0.46799  0.85100  0.47628  Biso   1.000  H
  N187     1.0000 0.45391  0.83559  0.56652  Biso   1.000  N
  N188     1.0000 0.36260  0.84422  0.56189  Biso   1.000  N
  H1262    1.0000 0.33880  0.78129  0.60489  Biso   1.000  H
  C1787    1.0000 0.45429  0.88369  0.57679  Biso   1.000  C
  C1788    1.0000 0.40300  0.87312  0.60870  Biso   1.000  C
  H1263    1.0000 0.45699  0.89991  0.53379  Biso   1.000  H
  C1789    1.0000 0.49951  0.91849  0.61472  Biso   1.000  C
  H1264    1.0000 0.39681  0.85150  0.64798  Biso   1.000  H
  C1790    1.0000 0.40352  0.92221  0.62812  Biso   1.000  C
  C1791    1.0000 0.50700  0.90700  0.67589  Biso   1.000  C
  C1792    1.0000 0.53740  0.96268  0.58228  Biso   1.000  C
  C1793    1.0000 0.40591  0.93509  0.69040  Biso   1.000  C
  C1794    1.0000 0.40170  0.95310  0.58228  Biso   1.000  C
  H1265    1.0000 0.48160  0.87611  0.69522  Biso   1.000  H
  C1795    1.0000 0.55090  0.93950  0.71059  Biso   1.000  C
  C1796    1.0000 0.58150  0.99400  0.61602  Biso   1.000  C
  H1266    1.0000 0.53262  0.97031  0.53928  Biso   1.000  H
  H1267    1.0000 0.40740  0.91351  0.72260  Biso   1.000  H
  C1797    1.0000 0.40620  0.98009  0.70871  Biso   1.000  C
  C1798    1.0000 0.40232  0.99841  0.59771  Biso   1.000  C
  H1268    1.0000 0.39990  0.94371  0.53832  Biso   1.000  H
  H1269    1.0000 0.55561  0.93191  0.75369  Biso   1.000  H
  C1799    1.0000 0.58719  0.98319  0.67970  Biso   1.000  C
  H1270    1.0000 0.60841  0.02332  0.59549  Biso   1.000  H
  H1271    1.0000 0.40859  0.98970  0.75272  Biso   1.000  H
  C1800    1.0000 0.40291  0.00829  0.66302  Biso   1.000  C
  H1272    1.0000 0.40240  0.02102  0.56570  Biso   1.000  H
  F179     1.0000 0.63089  0.01650  0.70910  Biso   1.000  F
  F180     1.0000 0.40388  0.05298  0.67700  Biso   1.000  F
