data_image0
_cell_length_a       29.175
_cell_length_b       29.175
_cell_length_c       10.882
_cell_angle_alpha    90
_cell_angle_beta     90
_cell_angle_gamma    120

_symmetry_space_group_name_H-M    "P 1"
_symmetry_int_tables_number       1

loop_
  _symmetry_equiv_pos_as_xyz
  'x, y, z'

loop_
  _atom_site_label
  _atom_site_occupancy
  _atom_site_fract_x
  _atom_site_fract_y
  _atom_site_fract_z
  _atom_site_thermal_displace_type
  _atom_site_B_iso_or_equiv
  _atom_site_type_symbol
  C1       1.0000 0.83840  0.93904  0.71522  Biso   1.000  C
  C2       1.0000 0.85449  0.99021  0.67965  Biso   1.000  C
  C3       1.0000 0.85447  0.99025  0.67965  Biso   1.000  C
  C4       1.0000 0.84875  0.92891  0.83542  Biso   1.000  C
  H1       1.0000 0.82038  0.91082  0.65879  Biso   1.000  H
  C5       1.0000 0.84877  0.92895  0.83542  Biso   1.000  C
  H2       1.0000 0.82034  0.91082  0.65879  Biso   1.000  H
  C6       1.0000 0.83867  0.00122  0.55909  Biso   1.000  C
  C7       1.0000 0.83836  0.93904  0.71522  Biso   1.000  C
  C8       1.0000 0.87967  0.03153  0.76199  Biso   1.000  C
  C9       1.0000 0.87598  0.97102  0.91720  Biso   1.000  C
  C10      1.0000 0.82898  0.87421  0.87199  Biso   1.000  C
  C11      1.0000 0.87595  0.97102  0.91720  Biso   1.000  C
  C12      1.0000 0.82897  0.87425  0.87199  Biso   1.000  C
  N1       1.0000 0.80667  0.96381  0.48824  Biso   1.000  N
  H3       1.0000 0.85258  0.03692  0.53373  Biso   1.000  H
  H4       1.0000 0.85251  0.03692  0.53373  Biso   1.000  H
  H5       1.0000 0.88959  0.06652  0.73755  Biso   1.000  H
  C13      1.0000 0.89086  0.02203  0.88256  Biso   1.000  C
  H6       1.0000 0.88956  0.06652  0.73755  Biso   1.000  H
  H7       1.0000 0.88416  0.96441  0.99743  Biso   1.000  H
  H8       1.0000 0.88418  0.96445  0.99743  Biso   1.000  H
  N2       1.0000 0.82427  0.85861  0.98447  Biso   1.000  N
  H9       1.0000 0.81888  0.84832  0.80904  Biso   1.000  H
  H10      1.0000 0.81885  0.84832  0.80904  Biso   1.000  H
  C14      1.0000 0.79028  0.98012  0.37631  Biso   1.000  C
  C15      1.0000 0.79025  0.98012  0.37631  Biso   1.000  C
  C16      1.0000 0.91576  0.06573  0.97023  Biso   1.000  C
  C17      1.0000 0.80326  0.80111  0.00395  Biso   1.000  C
  C18      1.0000 0.80328  0.80115  0.00395  Biso   1.000  C
  C19      1.0000 0.73089  0.95463  0.36988  Biso   1.000  C
  C20      1.0000 0.73085  0.95463  0.36988  Biso   1.000  C
  C21      1.0000 0.81000  0.96183  0.26365  Biso   1.000  C
  C22      1.0000 0.80997  0.96183  0.26365  Biso   1.000  C
  H11      1.0000 0.80667  0.01954  0.37502  Biso   1.000  H
  N3       1.0000 0.92386  0.11093  0.95065  Biso   1.000  N
  H12      1.0000 0.92634  0.05892  0.04742  Biso   1.000  H
  H13      1.0000 0.78956  0.78152  0.92474  Biso   1.000  H
  C23      1.0000 0.84999  0.79612  0.04935  Biso   1.000  C
  C24      1.0000 0.75877  0.78211  0.09787  Biso   1.000  C
  C25      1.0000 0.84995  0.79612  0.04935  Biso   1.000  C
  C26      1.0000 0.75879  0.78215  0.09787  Biso   1.000  C
  C27      1.0000 0.69899  0.90132  0.38734  Biso   1.000  C
  C28      1.0000 0.69895  0.90132  0.38734  Biso   1.000  C
  C29      1.0000 0.70736  0.98360  0.33836  Biso   1.000  C
  C30      1.0000 0.70738  0.98364  0.33836  Biso   1.000  C
  N4       1.0000 0.86768  0.98910  0.26447  Biso   1.000  N
  H14      1.0000 0.79566  0.92281  0.26879  Biso   1.000  H
  C31      1.0000 0.79046  0.97430  0.14666  Biso   1.000  C
  N5       1.0000 0.86767  0.98914  0.26447  Biso   1.000  N
  H15      1.0000 0.79568  0.92285  0.26879  Biso   1.000  H
  C32      1.0000 0.79048  0.97434  0.14666  Biso   1.000  C
  C33      1.0000 0.94619  0.15003  0.04935  Biso   1.000  C
  C34      1.0000 0.94615  0.15003  0.04935  Biso   1.000  C
  N6       1.0000 0.88908  0.81294  0.95065  Biso   1.000  N
  H16      1.0000 0.86607  0.81931  0.12277  Biso   1.000  H
  C35      1.0000 0.83208  0.73932  0.08372  Biso   1.000  C
  H17      1.0000 0.86606  0.81935  0.12277  Biso   1.000  H
  C36      1.0000 0.76319  0.80562  0.20814  Biso   1.000  C
  C37      1.0000 0.71098  0.73521  0.07058  Biso   1.000  C
  C38      1.0000 0.76315  0.80562  0.20814  Biso   1.000  C
  C39      1.0000 0.71097  0.73525  0.07058  Biso   1.000  C
  C40      1.0000 0.64506  0.87840  0.36804  Biso   1.000  C
  C41      1.0000 0.64508  0.87844  0.36804  Biso   1.000  C
  H18      1.0000 0.71367  0.88022  0.41242  Biso   1.000  H
  C42      1.0000 0.65569  0.96033  0.32255  Biso   1.000  C
  C43      1.0000 0.65566  0.96033  0.32255  Biso   1.000  C
  H19      1.0000 0.72847  0.02081  0.32779  Biso   1.000  H
  H20      1.0000 0.72849  0.02085  0.32779  Biso   1.000  H
  C44      1.0000 0.88797  0.96073  0.27642  Biso   1.000  C
  C45      1.0000 0.75050  0.92803  0.07581  Biso   1.000  C
  C46      1.0000 0.75046  0.92803  0.07581  Biso   1.000  C
  C47      1.0000 0.80496  0.02243  0.11294  Biso   1.000  C
  C48      1.0000 0.80493  0.02243  0.11294  Biso   1.000  C
  C49      1.0000 0.99785  0.19673  0.00395  Biso   1.000  C
  H21      1.0000 0.95328  0.13392  0.12277  Biso   1.000  H
  C50      1.0000 0.90725  0.16792  0.08372  Biso   1.000  C
  H22      1.0000 0.95325  0.13392  0.12277  Biso   1.000  H
  C51      1.0000 0.90722  0.16792  0.08372  Biso   1.000  C
  C52      1.0000 0.93428  0.85003  0.97023  Biso   1.000  C
  C53      1.0000 0.93425  0.85003  0.97023  Biso   1.000  C
  C54      1.0000 0.82000  0.70323  0.99375  Biso   1.000  C
  C55      1.0000 0.81996  0.70323  0.99375  Biso   1.000  C
  C56      1.0000 0.82787  0.72583  0.20640  Biso   1.000  C
  H23      1.0000 0.79519  0.83712  0.22817  Biso   1.000  H
  C57      1.0000 0.72199  0.78472  0.29232  Biso   1.000  C
  H24      1.0000 0.79515  0.83712  0.22817  Biso   1.000  H
  C58      1.0000 0.72196  0.78472  0.29232  Biso   1.000  C
  H25      1.0000 0.70648  0.71811  0.99357  Biso   1.000  H
  H26      1.0000 0.70646  0.71815  0.99357  Biso   1.000  H
  C59      1.0000 0.67108  0.71451  0.15585  Biso   1.000  C
  C60      1.0000 0.67107  0.71455  0.15585  Biso   1.000  C
  C61      1.0000 0.62188  0.90813  0.33845  Biso   1.000  C
  H27      1.0000 0.62347  0.84112  0.37539  Biso   1.000  H
  H28      1.0000 0.64119  0.98170  0.29829  Biso   1.000  H
  H29      1.0000 0.64117  0.98174  0.29829  Biso   1.000  H
  C62      1.0000 0.94598  0.98091  0.27945  Biso   1.000  C
  H30      1.0000 0.86485  0.92360  0.28414  Biso   1.000  H
  C63      1.0000 0.94597  0.98095  0.27945  Biso   1.000  C
  H31      1.0000 0.86487  0.92364  0.28414  Biso   1.000  H
  H32      1.0000 0.74039  0.89364  0.10485  Biso   1.000  H
  H33      1.0000 0.74036  0.89364  0.10485  Biso   1.000  H
  C64      1.0000 0.72859  0.93263  0.97519  Biso   1.000  C
  C65      1.0000 0.72856  0.93263  0.97519  Biso   1.000  C
  H34      1.0000 0.82964  0.05211  0.15944  Biso   1.000  H
  C66      1.0000 0.78209  0.02852  0.00331  Biso   1.000  C
  H35      1.0000 0.82966  0.05215  0.15944  Biso   1.000  H
  C67      1.0000 0.78203  0.02852  0.00331  Biso   1.000  C
  H36      1.0000 0.99198  0.21043  0.92474  Biso   1.000  H
  H37      1.0000 0.99195  0.21043  0.92474  Biso   1.000  H
  N7       1.0000 0.03437  0.17572  0.98447  Biso   1.000  N
  C68      1.0000 0.02339  0.24122  0.09787  Biso   1.000  C
  C69      1.0000 0.02332  0.24122  0.09787  Biso   1.000  C
  C70      1.0000 0.88328  0.18003  0.99375  Biso   1.000  C
  C71      1.0000 0.89797  0.17212  0.20640  Biso   1.000  C
  C72      1.0000 0.97799  0.86883  0.88256  Biso   1.000  C
  C73      1.0000 0.97796  0.86883  0.88256  Biso   1.000  C
  H38      1.0000 0.94107  0.86744  0.04742  Biso   1.000  H
  H39      1.0000 0.82030  0.71233  0.90985  Biso   1.000  H
  H40      1.0000 0.82026  0.71233  0.90985  Biso   1.000  H
  C74      1.0000 0.80628  0.64920  0.02996  Biso   1.000  C
  C75      1.0000 0.80627  0.64924  0.02996  Biso   1.000  C
  H41      1.0000 0.83279  0.75144  0.26686  Biso   1.000  H
  C76      1.0000 0.81688  0.67671  0.24288  Biso   1.000  C
  H42      1.0000 0.83275  0.75144  0.26686  Biso   1.000  H
  C77      1.0000 0.81687  0.67675  0.24288  Biso   1.000  C
  H43      1.0000 0.72638  0.80103  0.37034  Biso   1.000  H
  C78      1.0000 0.67426  0.73992  0.26264  Biso   1.000  C
  H44      1.0000 0.64028  0.68142  0.13977  Biso   1.000  H
  H45      1.0000 0.64025  0.68142  0.13977  Biso   1.000  H
  H46      1.0000 0.58467  0.89281  0.32972  Biso   1.000  H
  H47      1.0000 0.58466  0.89285  0.32972  Biso   1.000  H
  C79      1.0000 0.96417  0.94592  0.27964  Biso   1.000  C
  C80      1.0000 0.98176  0.03581  0.27964  Biso   1.000  C
  C81      1.0000 0.98178  0.03585  0.27964  Biso   1.000  C
  C82      1.0000 0.74830  0.99144  0.94064  Biso   1.000  C
  H48      1.0000 0.70347  0.90342  0.92832  Biso   1.000  H
  C83      1.0000 0.74826  0.99144  0.94064  Biso   1.000  C
  H49      1.0000 0.79349  0.06351  0.97592  Biso   1.000  H
  H50      1.0000 0.79347  0.06355  0.97592  Biso   1.000  H
  C84      1.0000 0.04528  0.17101  0.87199  Biso   1.000  C
  C85      1.0000 0.04523  0.17105  0.87199  Biso   1.000  C
  C86      1.0000 0.04244  0.23683  0.20814  Biso   1.000  C
  C87      1.0000 0.02426  0.28903  0.07058  Biso   1.000  C
  H51      1.0000 0.89203  0.17971  0.90985  Biso   1.000  H
  C88      1.0000 0.84293  0.19372  0.02996  Biso   1.000  C
  H52      1.0000 0.91865  0.16721  0.26686  Biso   1.000  H
  C89      1.0000 0.85984  0.18312  0.24288  Biso   1.000  C
  H53      1.0000 0.91864  0.16725  0.26686  Biso   1.000  H
  C90      1.0000 0.96847  0.84813  0.76199  Biso   1.000  C
  C91      1.0000 0.02898  0.90492  0.91720  Biso   1.000  C
  C92      1.0000 0.02895  0.90492  0.91720  Biso   1.000  C
  H54      1.0000 0.79977  0.62281  0.97032  Biso   1.000  H
  H55      1.0000 0.79979  0.62285  0.97032  Biso   1.000  H
  C93      1.0000 0.80330  0.63844  0.15429  Biso   1.000  C
  C94      1.0000 0.80326  0.63844  0.15429  Biso   1.000  C
  H56      1.0000 0.81857  0.66911  0.32715  Biso   1.000  H
  H57      1.0000 0.81859  0.66915  0.32715  Biso   1.000  H
  H58      1.0000 0.64467  0.72741  0.31584  Biso   1.000  H
  H59      1.0000 0.64469  0.72745  0.31584  Biso   1.000  H
  H60      1.0000 0.93998  0.90892  0.27982  Biso   1.000  H
  H61      1.0000 0.93994  0.90892  0.27982  Biso   1.000  H
  C95      1.0000 0.01908  0.96504  0.27945  Biso   1.000  C
  H62      1.0000 0.96895  0.06003  0.27982  Biso   1.000  H
  C96      1.0000 0.03494  0.05401  0.27945  Biso   1.000  C
  C97      1.0000 0.03496  0.05405  0.27945  Biso   1.000  C
  H63      1.0000 0.73407  0.99912  0.87015  Biso   1.000  H
  C98      1.0000 0.08015  0.15122  0.83542  Biso   1.000  C
  H64      1.0000 0.02947  0.18114  0.80904  Biso   1.000  H
  H65      1.0000 0.04192  0.20481  0.22817  Biso   1.000  H
  C99      1.0000 0.06277  0.27803  0.29232  Biso   1.000  C
  H66      1.0000 0.04194  0.20485  0.22817  Biso   1.000  H
  H67      1.0000 0.01165  0.29350  0.99357  Biso   1.000  H
  H68      1.0000 0.01167  0.29354  0.99357  Biso   1.000  H
  C100     1.0000 0.04345  0.32892  0.15585  Biso   1.000  C
  C101     1.0000 0.04342  0.32892  0.15585  Biso   1.000  C
  H69      1.0000 0.82307  0.20022  0.97032  Biso   1.000  H
  C102     1.0000 0.83518  0.19673  0.15429  Biso   1.000  C
  H70      1.0000 0.85059  0.18142  0.32715  Biso   1.000  H
  H71      1.0000 0.85052  0.18142  0.32715  Biso   1.000  H
  C103     1.0000 0.00977  0.86423  0.67965  Biso   1.000  C
  H72      1.0000 0.93347  0.82303  0.73755  Biso   1.000  H
  H73      1.0000 0.03559  0.91972  0.99743  Biso   1.000  H
  C104     1.0000 0.07108  0.91980  0.83542  Biso   1.000  C
  H74      1.0000 0.03556  0.91972  0.99743  Biso   1.000  H
  C105     1.0000 0.07106  0.91984  0.83542  Biso   1.000  C
  H75      1.0000 0.79117  0.60302  0.18011  Biso   1.000  H
  C106     1.0000 0.03927  0.92720  0.27642  Biso   1.000  C
  C107     1.0000 0.03929  0.92724  0.27642  Biso   1.000  C
  C108     1.0000 0.05407  0.01823  0.27964  Biso   1.000  C
  C109     1.0000 0.07276  0.11203  0.27642  Biso   1.000  C
  C110     1.0000 0.07273  0.11203  0.27642  Biso   1.000  C
  C111     1.0000 0.09507  0.12403  0.91720  Biso   1.000  C
  C112     1.0000 0.10064  0.16163  0.71522  Biso   1.000  C
  H76      1.0000 0.07466  0.27363  0.37034  Biso   1.000  H
  C113     1.0000 0.06567  0.32572  0.26264  Biso   1.000  C
  H77      1.0000 0.04113  0.35972  0.13977  Biso   1.000  H
  H78      1.0000 0.81187  0.20880  0.18011  Biso   1.000  H
  H79      1.0000 0.81183  0.20884  0.18011  Biso   1.000  H
  C114     1.0000 0.99877  0.83744  0.55909  Biso   1.000  C
  C115     1.0000 0.06098  0.89934  0.71522  Biso   1.000  C
  C116     1.0000 0.12579  0.95471  0.87199  Biso   1.000  C
  C117     1.0000 0.12577  0.95475  0.87199  Biso   1.000  C
  N8       1.0000 0.01088  0.87852  0.26447  Biso   1.000  N
  H80      1.0000 0.07637  0.94121  0.28414  Biso   1.000  H
  N9       1.0000 0.01085  0.87852  0.26447  Biso   1.000  N
  H81      1.0000 0.09104  0.03102  0.27982  Biso   1.000  H
  N10      1.0000 0.12147  0.13234  0.26447  Biso   1.000  N
  H82      1.0000 0.05876  0.13511  0.28414  Biso   1.000  H
  H83      1.0000 0.05878  0.13515  0.28414  Biso   1.000  H
  C118     1.0000 0.13118  0.10911  0.88256  Biso   1.000  C
  H84      1.0000 0.08025  0.11583  0.99743  Biso   1.000  H
  C119     1.0000 0.13116  0.10915  0.88256  Biso   1.000  C
  C120     1.0000 0.13574  0.14552  0.67965  Biso   1.000  C
  H85      1.0000 0.09049  0.17963  0.65879  Biso   1.000  H
  H86      1.0000 0.09042  0.17963  0.65879  Biso   1.000  H
  H87      1.0000 0.08277  0.35532  0.31584  Biso   1.000  H
  N11      1.0000 0.03618  0.84282  0.48824  Biso   1.000  N
  N12      1.0000 0.03615  0.84282  0.48824  Biso   1.000  N
  H88      1.0000 0.96309  0.81563  0.53373  Biso   1.000  H
  H89      1.0000 0.96305  0.81563  0.53373  Biso   1.000  H
  H90      1.0000 0.08917  0.90951  0.65879  Biso   1.000  H
  H91      1.0000 0.08919  0.90955  0.65879  Biso   1.000  H
  N13      1.0000 0.14139  0.96563  0.98447  Biso   1.000  N
  H92      1.0000 0.15168  0.97050  0.80904  Biso   1.000  H
  N14      1.0000 0.14136  0.96563  0.98447  Biso   1.000  N
  H93      1.0000 0.15166  0.97054  0.80904  Biso   1.000  H
  C121     1.0000 0.03818  0.84813  0.26365  Biso   1.000  C
  C122     1.0000 0.03815  0.84813  0.26365  Biso   1.000  C
  C123     1.0000 0.15188  0.19000  0.26365  Biso   1.000  C
  C124     1.0000 0.15183  0.19004  0.26365  Biso   1.000  C
  C125     1.0000 0.15182  0.12031  0.76199  Biso   1.000  C
  C126     1.0000 0.15184  0.12035  0.76199  Biso   1.000  C
  C127     1.0000 0.15191  0.12035  0.76199  Biso   1.000  C
  C128     1.0000 0.14999  0.08421  0.97023  Biso   1.000  C
  C129     1.0000 0.14994  0.08425  0.97023  Biso   1.000  C
  C130     1.0000 0.15001  0.08425  0.97023  Biso   1.000  C
  C131     1.0000 0.16256  0.16131  0.55909  Biso   1.000  C
  C132     1.0000 0.16258  0.16135  0.55909  Biso   1.000  C
  C133     1.0000 0.01987  0.81013  0.37631  Biso   1.000  C
  C134     1.0000 0.19885  0.00213  0.00395  Biso   1.000  C
  H94      1.0000 0.07717  0.87282  0.26879  Biso   1.000  H
  C135     1.0000 0.02567  0.81611  0.14666  Biso   1.000  C
  C136     1.0000 0.02566  0.81615  0.14666  Biso   1.000  C
  H95      1.0000 0.12714  0.20433  0.26879  Biso   1.000  H
  C137     1.0000 0.18984  0.20971  0.37631  Biso   1.000  C
  C138     1.0000 0.18385  0.20952  0.14666  Biso   1.000  C
  H96      1.0000 0.17697  0.11041  0.73755  Biso   1.000  H
  H97      1.0000 0.17699  0.11045  0.73755  Biso   1.000  H
  N15      1.0000 0.18705  0.07614  0.95065  Biso   1.000  N
  H98      1.0000 0.13255  0.07360  0.04742  Biso   1.000  H
  H99      1.0000 0.13257  0.07364  0.04742  Biso   1.000  H
  N16      1.0000 0.15714  0.19333  0.48824  Biso   1.000  N
  H100     1.0000 0.18437  0.14742  0.53373  Biso   1.000  H
  H101     1.0000 0.98047  0.78714  0.37502  Biso   1.000  H
  C139     1.0000 0.04538  0.77621  0.36988  Biso   1.000  C
  C140     1.0000 0.04537  0.77625  0.36988  Biso   1.000  C
  C141     1.0000 0.20386  0.05382  0.04935  Biso   1.000  C
  C142     1.0000 0.21788  0.97664  0.09787  Biso   1.000  C
  H102     1.0000 0.21849  0.00802  0.92474  Biso   1.000  H
  H103     1.0000 0.21842  0.00802  0.92474  Biso   1.000  H
  C143     1.0000 0.97758  0.78251  0.11294  Biso   1.000  C
  C144     1.0000 0.97756  0.78254  0.11294  Biso   1.000  C
  C145     1.0000 0.07199  0.82244  0.07581  Biso   1.000  C
  C146     1.0000 0.07196  0.82244  0.07581  Biso   1.000  C
  H104     1.0000 0.21284  0.19333  0.37502  Biso   1.000  H
  C147     1.0000 0.22373  0.26912  0.36988  Biso   1.000  C
  C148     1.0000 0.21746  0.19503  0.11294  Biso   1.000  C
  C149     1.0000 0.17757  0.24953  0.07581  Biso   1.000  C
  C150     1.0000 0.01640  0.72373  0.33836  Biso   1.000  C
  C151     1.0000 0.09869  0.79762  0.38734  Biso   1.000  C
  C152     1.0000 0.01636  0.72373  0.33836  Biso   1.000  C
  C153     1.0000 0.09866  0.79762  0.38734  Biso   1.000  C
  H105     1.0000 0.18067  0.04673  0.12277  Biso   1.000  H
  C154     1.0000 0.26067  0.09272  0.08372  Biso   1.000  C
  C155     1.0000 0.19437  0.95752  0.20814  Biso   1.000  C
  C156     1.0000 0.26480  0.97573  0.07058  Biso   1.000  C
  C157     1.0000 0.26476  0.97573  0.07058  Biso   1.000  C
  H106     1.0000 0.94787  0.77752  0.15944  Biso   1.000  H
  C158     1.0000 0.97149  0.75353  0.00331  Biso   1.000  C
  C159     1.0000 0.97145  0.75353  0.00331  Biso   1.000  C
  C160     1.0000 0.06737  0.79592  0.97519  Biso   1.000  C
  H107     1.0000 0.10639  0.84674  0.10485  Biso   1.000  H
  C161     1.0000 0.27624  0.29263  0.33836  Biso   1.000  C
  C162     1.0000 0.20239  0.30102  0.38734  Biso   1.000  C
  C163     1.0000 0.20232  0.30102  0.38734  Biso   1.000  C
  H108     1.0000 0.22246  0.17033  0.15944  Biso   1.000  H
  C164     1.0000 0.24645  0.21791  0.00331  Biso   1.000  C
  C165     1.0000 0.24647  0.21795  0.00331  Biso   1.000  C
  C166     1.0000 0.20404  0.27142  0.97519  Biso   1.000  C
  H109     1.0000 0.15324  0.25962  0.10485  Biso   1.000  H
  H110     1.0000 0.97918  0.70762  0.32779  Biso   1.000  H
  C167     1.0000 0.03969  0.69531  0.32255  Biso   1.000  C
  C168     1.0000 0.03965  0.69531  0.32255  Biso   1.000  C
  C169     1.0000 0.12159  0.76663  0.36804  Biso   1.000  C
  H111     1.0000 0.11977  0.83340  0.41242  Biso   1.000  H
  C170     1.0000 0.12155  0.76663  0.36804  Biso   1.000  C
  H112     1.0000 0.11975  0.83344  0.41242  Biso   1.000  H
  C171     1.0000 0.29676  0.11671  0.99375  Biso   1.000  C
  C172     1.0000 0.29678  0.11674  0.99375  Biso   1.000  C
  C173     1.0000 0.27416  0.10202  0.20640  Biso   1.000  C
  H113     1.0000 0.16289  0.95804  0.22817  Biso   1.000  H
  C174     1.0000 0.21528  0.93722  0.29232  Biso   1.000  C
  H114     1.0000 0.16286  0.95804  0.22817  Biso   1.000  H
  H115     1.0000 0.28189  0.98831  0.99357  Biso   1.000  H
  H116     1.0000 0.28187  0.98835  0.99357  Biso   1.000  H
  C175     1.0000 0.28550  0.95653  0.15585  Biso   1.000  C
  C176     1.0000 0.28546  0.95653  0.15585  Biso   1.000  C
  H117     1.0000 0.93647  0.72991  0.97592  Biso   1.000  H
  H118     1.0000 0.93649  0.72994  0.97592  Biso   1.000  H
  C177     1.0000 0.00857  0.75682  0.94064  Biso   1.000  C
  H119     1.0000 0.09657  0.80004  0.92832  Biso   1.000  H
  H120     1.0000 0.29239  0.27154  0.32779  Biso   1.000  H
  C178     1.0000 0.30465  0.34432  0.32255  Biso   1.000  C
  H121     1.0000 0.29232  0.27154  0.32779  Biso   1.000  H
  C179     1.0000 0.23335  0.35493  0.36804  Biso   1.000  C
  H122     1.0000 0.16660  0.28634  0.41242  Biso   1.000  H
  H123     1.0000 0.16656  0.28634  0.41242  Biso   1.000  H
  H124     1.0000 0.27002  0.20651  0.97592  Biso   1.000  H
  C180     1.0000 0.24313  0.25171  0.94064  Biso   1.000  C
  H125     1.0000 0.27004  0.20655  0.97592  Biso   1.000  H
  C181     1.0000 0.24315  0.25175  0.94064  Biso   1.000  C
  H126     1.0000 0.27008  0.20655  0.97592  Biso   1.000  H
  C182     1.0000 0.24322  0.25175  0.94064  Biso   1.000  C
  H127     1.0000 0.19996  0.29651  0.92832  Biso   1.000  H
  H128     1.0000 0.19998  0.29655  0.92832  Biso   1.000  H
  H129     1.0000 0.01828  0.65942  0.29829  Biso   1.000  H
  C183     1.0000 0.09187  0.71372  0.33845  Biso   1.000  C
  H130     1.0000 0.01824  0.65942  0.29829  Biso   1.000  H
  H131     1.0000 0.15887  0.78231  0.37539  Biso   1.000  H
  H132     1.0000 0.15889  0.78235  0.37539  Biso   1.000  H
  H133     1.0000 0.28764  0.10792  0.90985  Biso   1.000  H
  C184     1.0000 0.35075  0.15704  0.02996  Biso   1.000  C
  C185     1.0000 0.35072  0.15704  0.02996  Biso   1.000  C
  H134     1.0000 0.24853  0.08132  0.26686  Biso   1.000  H
  C186     1.0000 0.32325  0.14014  0.24288  Biso   1.000  C
  C187     1.0000 0.32332  0.14014  0.24288  Biso   1.000  C
  H135     1.0000 0.19897  0.92530  0.37034  Biso   1.000  H
  C188     1.0000 0.26007  0.93433  0.26264  Biso   1.000  C
  H136     1.0000 0.19899  0.92534  0.37034  Biso   1.000  H
  H137     1.0000 0.31859  0.95883  0.13977  Biso   1.000  H
  H138     1.0000 0.31856  0.95883  0.13977  Biso   1.000  H
  H139     1.0000 0.00088  0.73493  0.87015  Biso   1.000  H
  H140     1.0000 0.00085  0.73493  0.87015  Biso   1.000  H
  H141     1.0000 0.34059  0.35881  0.29829  Biso   1.000  H
  C189     1.0000 0.28628  0.37812  0.33845  Biso   1.000  C
  H142     1.0000 0.34054  0.35885  0.29829  Biso   1.000  H
  C190     1.0000 0.28622  0.37812  0.33845  Biso   1.000  C
  H143     1.0000 0.21766  0.37654  0.37539  Biso   1.000  H
  H144     1.0000 0.21763  0.37654  0.37539  Biso   1.000  H
  H145     1.0000 0.26507  0.26592  0.87015  Biso   1.000  H
  H146     1.0000 0.10718  0.69183  0.32972  Biso   1.000  H
  H147     1.0000 0.10715  0.69183  0.32972  Biso   1.000  H
  H148     1.0000 0.37718  0.17690  0.97032  Biso   1.000  H
  H149     1.0000 0.37713  0.17694  0.97032  Biso   1.000  H
  C191     1.0000 0.36158  0.16483  0.15429  Biso   1.000  C
  H150     1.0000 0.33088  0.14944  0.32715  Biso   1.000  H
  H151     1.0000 0.27257  0.91723  0.31584  Biso   1.000  H
  H152     1.0000 0.30818  0.41532  0.32972  Biso   1.000  H
  H153     1.0000 0.39693  0.18810  0.18011  Biso   1.000  H
  H154     1.0000 0.39695  0.18814  0.18011  Biso   1.000  H
  C192     1.0000 0.83840  0.93904  0.71522  Biso   1.000  C
  C193     1.0000 0.85449  0.99021  0.67965  Biso   1.000  C
  C194     1.0000 0.85447  0.99025  0.67965  Biso   1.000  C
  C195     1.0000 0.84875  0.92891  0.83542  Biso   1.000  C
  H155     1.0000 0.82038  0.91082  0.65879  Biso   1.000  H
  C196     1.0000 0.84877  0.92895  0.83542  Biso   1.000  C
  H156     1.0000 0.82034  0.91082  0.65879  Biso   1.000  H
  C197     1.0000 0.83867  0.00122  0.55909  Biso   1.000  C
  C198     1.0000 0.83836  0.93904  0.71522  Biso   1.000  C
  C199     1.0000 0.87967  0.03153  0.76199  Biso   1.000  C
  C200     1.0000 0.87598  0.97102  0.91720  Biso   1.000  C
  C201     1.0000 0.82898  0.87421  0.87199  Biso   1.000  C
  C202     1.0000 0.87595  0.97102  0.91720  Biso   1.000  C
  C203     1.0000 0.82897  0.87425  0.87199  Biso   1.000  C
  N17      1.0000 0.80667  0.96381  0.48824  Biso   1.000  N
  H157     1.0000 0.85258  0.03692  0.53373  Biso   1.000  H
  H158     1.0000 0.85251  0.03692  0.53373  Biso   1.000  H
  C204     1.0000 0.89086  0.02203  0.88256  Biso   1.000  C
  H159     1.0000 0.88959  0.06652  0.73755  Biso   1.000  H
  H160     1.0000 0.88956  0.06652  0.73755  Biso   1.000  H
  H161     1.0000 0.88416  0.96441  0.99743  Biso   1.000  H
  H162     1.0000 0.88418  0.96445  0.99743  Biso   1.000  H
  N18      1.0000 0.82427  0.85861  0.98447  Biso   1.000  N
  H163     1.0000 0.81888  0.84832  0.80904  Biso   1.000  H
  H164     1.0000 0.81885  0.84832  0.80904  Biso   1.000  H
  C205     1.0000 0.79028  0.98012  0.37631  Biso   1.000  C
  C206     1.0000 0.79025  0.98012  0.37631  Biso   1.000  C
  C207     1.0000 0.91576  0.06573  0.97023  Biso   1.000  C
  C208     1.0000 0.80326  0.80111  0.00395  Biso   1.000  C
  C209     1.0000 0.80328  0.80115  0.00395  Biso   1.000  C
  H165     1.0000 0.80667  0.01954  0.37502  Biso   1.000  H
  C210     1.0000 0.73089  0.95463  0.36988  Biso   1.000  C
  C211     1.0000 0.73085  0.95463  0.36988  Biso   1.000  C
  C212     1.0000 0.81000  0.96183  0.26365  Biso   1.000  C
  C213     1.0000 0.80997  0.96183  0.26365  Biso   1.000  C
  N19      1.0000 0.92386  0.11093  0.95065  Biso   1.000  N
  H166     1.0000 0.92634  0.05892  0.04742  Biso   1.000  H
  H167     1.0000 0.78956  0.78152  0.92474  Biso   1.000  H
  C214     1.0000 0.84999  0.79612  0.04935  Biso   1.000  C
  C215     1.0000 0.75877  0.78211  0.09787  Biso   1.000  C
  C216     1.0000 0.84995  0.79612  0.04935  Biso   1.000  C
  C217     1.0000 0.75879  0.78215  0.09787  Biso   1.000  C
  C218     1.0000 0.69899  0.90132  0.38734  Biso   1.000  C
  C219     1.0000 0.69895  0.90132  0.38734  Biso   1.000  C
  C220     1.0000 0.70736  0.98360  0.33836  Biso   1.000  C
  C221     1.0000 0.70738  0.98364  0.33836  Biso   1.000  C
  N20      1.0000 0.86768  0.98910  0.26447  Biso   1.000  N
  H168     1.0000 0.79566  0.92281  0.26879  Biso   1.000  H
  C222     1.0000 0.79046  0.97430  0.14666  Biso   1.000  C
  N21      1.0000 0.86767  0.98914  0.26447  Biso   1.000  N
  H169     1.0000 0.79568  0.92285  0.26879  Biso   1.000  H
  C223     1.0000 0.79048  0.97434  0.14666  Biso   1.000  C
  C224     1.0000 0.94619  0.15003  0.04935  Biso   1.000  C
  C225     1.0000 0.94615  0.15003  0.04935  Biso   1.000  C
  N22      1.0000 0.88908  0.81294  0.95065  Biso   1.000  N
  H170     1.0000 0.86607  0.81931  0.12277  Biso   1.000  H
  C226     1.0000 0.83208  0.73932  0.08372  Biso   1.000  C
  H171     1.0000 0.86606  0.81935  0.12277  Biso   1.000  H
  C227     1.0000 0.76319  0.80562  0.20814  Biso   1.000  C
  C228     1.0000 0.71098  0.73521  0.07058  Biso   1.000  C
  C229     1.0000 0.76315  0.80562  0.20814  Biso   1.000  C
  C230     1.0000 0.71097  0.73525  0.07058  Biso   1.000  C
  C231     1.0000 0.64506  0.87840  0.36804  Biso   1.000  C
  C232     1.0000 0.64508  0.87844  0.36804  Biso   1.000  C
  H172     1.0000 0.71367  0.88022  0.41242  Biso   1.000  H
  C233     1.0000 0.65569  0.96033  0.32255  Biso   1.000  C
  C234     1.0000 0.65566  0.96033  0.32255  Biso   1.000  C
  H173     1.0000 0.72847  0.02081  0.32779  Biso   1.000  H
  H174     1.0000 0.72849  0.02085  0.32779  Biso   1.000  H
  C235     1.0000 0.88797  0.96073  0.27642  Biso   1.000  C
  C236     1.0000 0.75050  0.92803  0.07581  Biso   1.000  C
  C237     1.0000 0.75046  0.92803  0.07581  Biso   1.000  C
  C238     1.0000 0.80496  0.02243  0.11294  Biso   1.000  C
  C239     1.0000 0.80493  0.02243  0.11294  Biso   1.000  C
  C240     1.0000 0.99785  0.19673  0.00395  Biso   1.000  C
  H175     1.0000 0.95328  0.13392  0.12277  Biso   1.000  H
  C241     1.0000 0.90725  0.16792  0.08372  Biso   1.000  C
  H176     1.0000 0.95325  0.13392  0.12277  Biso   1.000  H
  C242     1.0000 0.90722  0.16792  0.08372  Biso   1.000  C
  C243     1.0000 0.93428  0.85003  0.97023  Biso   1.000  C
  C244     1.0000 0.93425  0.85003  0.97023  Biso   1.000  C
  C245     1.0000 0.82000  0.70323  0.99375  Biso   1.000  C
  C246     1.0000 0.81996  0.70323  0.99375  Biso   1.000  C
  C247     1.0000 0.82787  0.72583  0.20640  Biso   1.000  C
  H177     1.0000 0.79519  0.83712  0.22817  Biso   1.000  H
  C248     1.0000 0.72199  0.78472  0.29232  Biso   1.000  C
  H178     1.0000 0.79515  0.83712  0.22817  Biso   1.000  H
  C249     1.0000 0.72196  0.78472  0.29232  Biso   1.000  C
  H179     1.0000 0.70648  0.71811  0.99357  Biso   1.000  H
  H180     1.0000 0.70646  0.71815  0.99357  Biso   1.000  H
  C250     1.0000 0.67108  0.71451  0.15585  Biso   1.000  C
  C251     1.0000 0.67107  0.71455  0.15585  Biso   1.000  C
  C252     1.0000 0.62188  0.90813  0.33845  Biso   1.000  C
  H181     1.0000 0.62347  0.84112  0.37539  Biso   1.000  H
  H182     1.0000 0.64119  0.98170  0.29829  Biso   1.000  H
  H183     1.0000 0.64117  0.98174  0.29829  Biso   1.000  H
  C253     1.0000 0.94598  0.98091  0.27945  Biso   1.000  C
  H184     1.0000 0.86485  0.92360  0.28414  Biso   1.000  H
  C254     1.0000 0.94597  0.98095  0.27945  Biso   1.000  C
  H185     1.0000 0.86487  0.92364  0.28414  Biso   1.000  H
  H186     1.0000 0.74039  0.89364  0.10485  Biso   1.000  H
  H187     1.0000 0.74036  0.89364  0.10485  Biso   1.000  H
  C255     1.0000 0.72859  0.93263  0.97519  Biso   1.000  C
  C256     1.0000 0.72856  0.93263  0.97519  Biso   1.000  C
  H188     1.0000 0.82964  0.05211  0.15944  Biso   1.000  H
  C257     1.0000 0.78209  0.02852  0.00331  Biso   1.000  C
  H189     1.0000 0.82966  0.05215  0.15944  Biso   1.000  H
  C258     1.0000 0.78203  0.02852  0.00331  Biso   1.000  C
  H190     1.0000 0.99198  0.21043  0.92474  Biso   1.000  H
  H191     1.0000 0.99195  0.21043  0.92474  Biso   1.000  H
  N23      1.0000 0.03437  0.17572  0.98447  Biso   1.000  N
  C259     1.0000 0.02339  0.24122  0.09787  Biso   1.000  C
  C260     1.0000 0.02332  0.24122  0.09787  Biso   1.000  C
  C261     1.0000 0.88328  0.18003  0.99375  Biso   1.000  C
  C262     1.0000 0.89797  0.17212  0.20640  Biso   1.000  C
  C263     1.0000 0.97799  0.86883  0.88256  Biso   1.000  C
  C264     1.0000 0.97796  0.86883  0.88256  Biso   1.000  C
  H192     1.0000 0.94107  0.86744  0.04742  Biso   1.000  H
  H193     1.0000 0.82030  0.71233  0.90985  Biso   1.000  H
  H194     1.0000 0.82026  0.71233  0.90985  Biso   1.000  H
  C265     1.0000 0.80628  0.64920  0.02996  Biso   1.000  C
  C266     1.0000 0.80627  0.64924  0.02996  Biso   1.000  C
  H195     1.0000 0.83279  0.75144  0.26686  Biso   1.000  H
  C267     1.0000 0.81688  0.67671  0.24288  Biso   1.000  C
  H196     1.0000 0.83275  0.75144  0.26686  Biso   1.000  H
  C268     1.0000 0.81687  0.67675  0.24288  Biso   1.000  C
  H197     1.0000 0.72638  0.80103  0.37034  Biso   1.000  H
  C269     1.0000 0.67426  0.73992  0.26264  Biso   1.000  C
  H198     1.0000 0.64028  0.68142  0.13977  Biso   1.000  H
  H199     1.0000 0.64025  0.68142  0.13977  Biso   1.000  H
  H200     1.0000 0.58467  0.89281  0.32972  Biso   1.000  H
  H201     1.0000 0.58466  0.89285  0.32972  Biso   1.000  H
  C270     1.0000 0.96417  0.94592  0.27964  Biso   1.000  C
  C271     1.0000 0.98176  0.03581  0.27964  Biso   1.000  C
  C272     1.0000 0.98178  0.03585  0.27964  Biso   1.000  C
  C273     1.0000 0.74830  0.99144  0.94064  Biso   1.000  C
  H202     1.0000 0.70347  0.90342  0.92832  Biso   1.000  H
  C274     1.0000 0.74826  0.99144  0.94064  Biso   1.000  C
  H203     1.0000 0.79349  0.06351  0.97592  Biso   1.000  H
  H204     1.0000 0.79347  0.06355  0.97592  Biso   1.000  H
  C275     1.0000 0.04528  0.17101  0.87199  Biso   1.000  C
  C276     1.0000 0.04523  0.17105  0.87199  Biso   1.000  C
  C277     1.0000 0.02426  0.28903  0.07058  Biso   1.000  C
  C278     1.0000 0.04244  0.23683  0.20814  Biso   1.000  C
  H205     1.0000 0.89203  0.17971  0.90985  Biso   1.000  H
  C279     1.0000 0.84293  0.19372  0.02996  Biso   1.000  C
  H206     1.0000 0.91865  0.16721  0.26686  Biso   1.000  H
  C280     1.0000 0.85984  0.18312  0.24288  Biso   1.000  C
  H207     1.0000 0.91864  0.16725  0.26686  Biso   1.000  H
  C281     1.0000 0.96847  0.84813  0.76199  Biso   1.000  C
  C282     1.0000 0.02898  0.90492  0.91720  Biso   1.000  C
  C283     1.0000 0.02895  0.90492  0.91720  Biso   1.000  C
  H208     1.0000 0.79977  0.62281  0.97032  Biso   1.000  H
  H209     1.0000 0.79979  0.62285  0.97032  Biso   1.000  H
  C284     1.0000 0.80330  0.63844  0.15429  Biso   1.000  C
  C285     1.0000 0.80326  0.63844  0.15429  Biso   1.000  C
  H210     1.0000 0.81857  0.66911  0.32715  Biso   1.000  H
  H211     1.0000 0.81859  0.66915  0.32715  Biso   1.000  H
  H212     1.0000 0.64467  0.72741  0.31584  Biso   1.000  H
  H213     1.0000 0.64469  0.72745  0.31584  Biso   1.000  H
  H214     1.0000 0.93998  0.90892  0.27982  Biso   1.000  H
  H215     1.0000 0.93994  0.90892  0.27982  Biso   1.000  H
  C286     1.0000 0.01908  0.96504  0.27945  Biso   1.000  C
  H216     1.0000 0.96895  0.06003  0.27982  Biso   1.000  H
  C287     1.0000 0.03494  0.05401  0.27945  Biso   1.000  C
  C288     1.0000 0.03496  0.05405  0.27945  Biso   1.000  C
  H217     1.0000 0.73407  0.99912  0.87015  Biso   1.000  H
  C289     1.0000 0.08015  0.15122  0.83542  Biso   1.000  C
  H218     1.0000 0.02947  0.18114  0.80904  Biso   1.000  H
  H219     1.0000 0.01165  0.29350  0.99357  Biso   1.000  H
  H220     1.0000 0.01167  0.29354  0.99357  Biso   1.000  H
  C290     1.0000 0.04345  0.32892  0.15585  Biso   1.000  C
  C291     1.0000 0.04342  0.32892  0.15585  Biso   1.000  C
  H221     1.0000 0.04192  0.20481  0.22817  Biso   1.000  H
  C292     1.0000 0.06277  0.27803  0.29232  Biso   1.000  C
  H222     1.0000 0.04194  0.20485  0.22817  Biso   1.000  H
  H223     1.0000 0.82307  0.20022  0.97032  Biso   1.000  H
  C293     1.0000 0.83518  0.19673  0.15429  Biso   1.000  C
  H224     1.0000 0.85059  0.18142  0.32715  Biso   1.000  H
  H225     1.0000 0.85052  0.18142  0.32715  Biso   1.000  H
  C294     1.0000 0.00977  0.86423  0.67965  Biso   1.000  C
  H226     1.0000 0.93347  0.82303  0.73755  Biso   1.000  H
  H227     1.0000 0.03559  0.91972  0.99743  Biso   1.000  H
  C295     1.0000 0.07108  0.91980  0.83542  Biso   1.000  C
  H228     1.0000 0.03556  0.91972  0.99743  Biso   1.000  H
  C296     1.0000 0.07106  0.91984  0.83542  Biso   1.000  C
  H229     1.0000 0.79117  0.60302  0.18011  Biso   1.000  H
  C297     1.0000 0.03927  0.92720  0.27642  Biso   1.000  C
  C298     1.0000 0.03929  0.92724  0.27642  Biso   1.000  C
  C299     1.0000 0.05407  0.01823  0.27964  Biso   1.000  C
  C300     1.0000 0.07276  0.11203  0.27642  Biso   1.000  C
  C301     1.0000 0.07273  0.11203  0.27642  Biso   1.000  C
  C302     1.0000 0.09507  0.12403  0.91720  Biso   1.000  C
  C303     1.0000 0.10064  0.16163  0.71522  Biso   1.000  C
  C304     1.0000 0.06567  0.32572  0.26264  Biso   1.000  C
  H230     1.0000 0.04113  0.35972  0.13977  Biso   1.000  H
  H231     1.0000 0.07466  0.27363  0.37034  Biso   1.000  H
  H232     1.0000 0.81187  0.20880  0.18011  Biso   1.000  H
  H233     1.0000 0.81183  0.20884  0.18011  Biso   1.000  H
  C305     1.0000 0.99877  0.83744  0.55909  Biso   1.000  C
  C306     1.0000 0.06098  0.89934  0.71522  Biso   1.000  C
  C307     1.0000 0.12579  0.95471  0.87199  Biso   1.000  C
  C308     1.0000 0.12577  0.95475  0.87199  Biso   1.000  C
  N24      1.0000 0.01088  0.87852  0.26447  Biso   1.000  N
  H234     1.0000 0.07637  0.94121  0.28414  Biso   1.000  H
  N25      1.0000 0.01085  0.87852  0.26447  Biso   1.000  N
  H235     1.0000 0.09104  0.03102  0.27982  Biso   1.000  H
  N26      1.0000 0.12147  0.13234  0.26447  Biso   1.000  N
  H236     1.0000 0.05876  0.13511  0.28414  Biso   1.000  H
  H237     1.0000 0.05878  0.13515  0.28414  Biso   1.000  H
  C309     1.0000 0.13118  0.10911  0.88256  Biso   1.000  C
  H238     1.0000 0.08025  0.11583  0.99743  Biso   1.000  H
  C310     1.0000 0.13116  0.10915  0.88256  Biso   1.000  C
  C311     1.0000 0.13574  0.14552  0.67965  Biso   1.000  C
  H239     1.0000 0.09049  0.17963  0.65879  Biso   1.000  H
  H240     1.0000 0.09042  0.17963  0.65879  Biso   1.000  H
  H241     1.0000 0.08277  0.35532  0.31584  Biso   1.000  H
  N27      1.0000 0.03618  0.84282  0.48824  Biso   1.000  N
  N28      1.0000 0.03615  0.84282  0.48824  Biso   1.000  N
  H242     1.0000 0.96309  0.81563  0.53373  Biso   1.000  H
  H243     1.0000 0.96305  0.81563  0.53373  Biso   1.000  H
  H244     1.0000 0.08917  0.90951  0.65879  Biso   1.000  H
  H245     1.0000 0.08919  0.90955  0.65879  Biso   1.000  H
  N29      1.0000 0.14139  0.96563  0.98447  Biso   1.000  N
  H246     1.0000 0.15168  0.97050  0.80904  Biso   1.000  H
  N30      1.0000 0.14136  0.96563  0.98447  Biso   1.000  N
  H247     1.0000 0.15166  0.97054  0.80904  Biso   1.000  H
  C312     1.0000 0.03818  0.84813  0.26365  Biso   1.000  C
  C313     1.0000 0.03815  0.84813  0.26365  Biso   1.000  C
  C314     1.0000 0.15188  0.19000  0.26365  Biso   1.000  C
  C315     1.0000 0.15183  0.19004  0.26365  Biso   1.000  C
  C316     1.0000 0.15182  0.12031  0.76199  Biso   1.000  C
  C317     1.0000 0.15184  0.12035  0.76199  Biso   1.000  C
  C318     1.0000 0.15191  0.12035  0.76199  Biso   1.000  C
  C319     1.0000 0.14999  0.08421  0.97023  Biso   1.000  C
  C320     1.0000 0.14994  0.08425  0.97023  Biso   1.000  C
  C321     1.0000 0.15001  0.08425  0.97023  Biso   1.000  C
  C322     1.0000 0.16256  0.16131  0.55909  Biso   1.000  C
  C323     1.0000 0.16258  0.16135  0.55909  Biso   1.000  C
  C324     1.0000 0.01987  0.81013  0.37631  Biso   1.000  C
  C325     1.0000 0.19885  0.00213  0.00395  Biso   1.000  C
  H248     1.0000 0.07717  0.87282  0.26879  Biso   1.000  H
  C326     1.0000 0.02567  0.81611  0.14666  Biso   1.000  C
  C327     1.0000 0.02566  0.81615  0.14666  Biso   1.000  C
  C328     1.0000 0.18984  0.20971  0.37631  Biso   1.000  C
  C329     1.0000 0.18385  0.20952  0.14666  Biso   1.000  C
  H249     1.0000 0.12714  0.20433  0.26879  Biso   1.000  H
  H250     1.0000 0.17697  0.11041  0.73755  Biso   1.000  H
  H251     1.0000 0.17699  0.11045  0.73755  Biso   1.000  H
  N31      1.0000 0.18705  0.07614  0.95065  Biso   1.000  N
  H252     1.0000 0.13255  0.07360  0.04742  Biso   1.000  H
  H253     1.0000 0.13257  0.07364  0.04742  Biso   1.000  H
  N32      1.0000 0.15714  0.19333  0.48824  Biso   1.000  N
  H254     1.0000 0.18437  0.14742  0.53373  Biso   1.000  H
  H255     1.0000 0.98047  0.78714  0.37502  Biso   1.000  H
  C330     1.0000 0.04538  0.77621  0.36988  Biso   1.000  C
  C331     1.0000 0.04537  0.77625  0.36988  Biso   1.000  C
  C332     1.0000 0.20386  0.05382  0.04935  Biso   1.000  C
  C333     1.0000 0.21788  0.97664  0.09787  Biso   1.000  C
  H256     1.0000 0.21849  0.00802  0.92474  Biso   1.000  H
  H257     1.0000 0.21842  0.00802  0.92474  Biso   1.000  H
  C334     1.0000 0.97758  0.78251  0.11294  Biso   1.000  C
  C335     1.0000 0.97756  0.78254  0.11294  Biso   1.000  C
  C336     1.0000 0.07199  0.82244  0.07581  Biso   1.000  C
  C337     1.0000 0.07196  0.82244  0.07581  Biso   1.000  C
  H258     1.0000 0.21284  0.19333  0.37502  Biso   1.000  H
  C338     1.0000 0.22373  0.26912  0.36988  Biso   1.000  C
  C339     1.0000 0.21746  0.19503  0.11294  Biso   1.000  C
  C340     1.0000 0.17757  0.24953  0.07581  Biso   1.000  C
  C341     1.0000 0.01640  0.72373  0.33836  Biso   1.000  C
  C342     1.0000 0.09869  0.79762  0.38734  Biso   1.000  C
  C343     1.0000 0.01636  0.72373  0.33836  Biso   1.000  C
  C344     1.0000 0.09866  0.79762  0.38734  Biso   1.000  C
  H259     1.0000 0.18067  0.04673  0.12277  Biso   1.000  H
  C345     1.0000 0.26067  0.09272  0.08372  Biso   1.000  C
  C346     1.0000 0.19437  0.95752  0.20814  Biso   1.000  C
  C347     1.0000 0.26480  0.97573  0.07058  Biso   1.000  C
  C348     1.0000 0.26476  0.97573  0.07058  Biso   1.000  C
  H260     1.0000 0.94787  0.77752  0.15944  Biso   1.000  H
  C349     1.0000 0.97149  0.75353  0.00331  Biso   1.000  C
  C350     1.0000 0.97145  0.75353  0.00331  Biso   1.000  C
  C351     1.0000 0.06737  0.79592  0.97519  Biso   1.000  C
  H261     1.0000 0.10639  0.84674  0.10485  Biso   1.000  H
  C352     1.0000 0.27624  0.29263  0.33836  Biso   1.000  C
  C353     1.0000 0.20239  0.30102  0.38734  Biso   1.000  C
  C354     1.0000 0.20232  0.30102  0.38734  Biso   1.000  C
  H262     1.0000 0.22246  0.17033  0.15944  Biso   1.000  H
  C355     1.0000 0.24645  0.21791  0.00331  Biso   1.000  C
  C356     1.0000 0.24647  0.21795  0.00331  Biso   1.000  C
  C357     1.0000 0.20404  0.27142  0.97519  Biso   1.000  C
  H263     1.0000 0.15324  0.25962  0.10485  Biso   1.000  H
  H264     1.0000 0.97918  0.70762  0.32779  Biso   1.000  H
  C358     1.0000 0.03969  0.69531  0.32255  Biso   1.000  C
  C359     1.0000 0.03965  0.69531  0.32255  Biso   1.000  C
  C360     1.0000 0.12159  0.76663  0.36804  Biso   1.000  C
  H265     1.0000 0.11977  0.83340  0.41242  Biso   1.000  H
  C361     1.0000 0.12155  0.76663  0.36804  Biso   1.000  C
  H266     1.0000 0.11975  0.83344  0.41242  Biso   1.000  H
  C362     1.0000 0.29676  0.11671  0.99375  Biso   1.000  C
  C363     1.0000 0.29678  0.11674  0.99375  Biso   1.000  C
  C364     1.0000 0.27416  0.10202  0.20640  Biso   1.000  C
  H267     1.0000 0.16289  0.95804  0.22817  Biso   1.000  H
  C365     1.0000 0.21528  0.93722  0.29232  Biso   1.000  C
  H268     1.0000 0.16286  0.95804  0.22817  Biso   1.000  H
  H269     1.0000 0.28189  0.98831  0.99357  Biso   1.000  H
  H270     1.0000 0.28187  0.98835  0.99357  Biso   1.000  H
  C366     1.0000 0.28550  0.95653  0.15585  Biso   1.000  C
  C367     1.0000 0.28546  0.95653  0.15585  Biso   1.000  C
  H271     1.0000 0.93647  0.72991  0.97592  Biso   1.000  H
  H272     1.0000 0.93649  0.72994  0.97592  Biso   1.000  H
  C368     1.0000 0.00857  0.75682  0.94064  Biso   1.000  C
  H273     1.0000 0.09657  0.80004  0.92832  Biso   1.000  H
  C369     1.0000 0.30465  0.34432  0.32255  Biso   1.000  C
  H274     1.0000 0.29239  0.27154  0.32779  Biso   1.000  H
  H275     1.0000 0.29232  0.27154  0.32779  Biso   1.000  H
  C370     1.0000 0.23335  0.35493  0.36804  Biso   1.000  C
  H276     1.0000 0.16660  0.28634  0.41242  Biso   1.000  H
  H277     1.0000 0.16656  0.28634  0.41242  Biso   1.000  H
  H278     1.0000 0.27002  0.20651  0.97592  Biso   1.000  H
  C371     1.0000 0.24313  0.25171  0.94064  Biso   1.000  C
  H279     1.0000 0.27004  0.20655  0.97592  Biso   1.000  H
  C372     1.0000 0.24315  0.25175  0.94064  Biso   1.000  C
  H280     1.0000 0.27008  0.20655  0.97592  Biso   1.000  H
  C373     1.0000 0.24322  0.25175  0.94064  Biso   1.000  C
  H281     1.0000 0.19996  0.29651  0.92832  Biso   1.000  H
  H282     1.0000 0.19998  0.29655  0.92832  Biso   1.000  H
  H283     1.0000 0.01828  0.65942  0.29829  Biso   1.000  H
  C374     1.0000 0.09187  0.71372  0.33845  Biso   1.000  C
  H284     1.0000 0.01824  0.65942  0.29829  Biso   1.000  H
  H285     1.0000 0.15887  0.78231  0.37539  Biso   1.000  H
  H286     1.0000 0.15889  0.78235  0.37539  Biso   1.000  H
  H287     1.0000 0.28764  0.10792  0.90985  Biso   1.000  H
  C375     1.0000 0.35075  0.15704  0.02996  Biso   1.000  C
  C376     1.0000 0.35072  0.15704  0.02996  Biso   1.000  C
  H288     1.0000 0.24853  0.08132  0.26686  Biso   1.000  H
  C377     1.0000 0.32325  0.14014  0.24288  Biso   1.000  C
  C378     1.0000 0.32332  0.14014  0.24288  Biso   1.000  C
  H289     1.0000 0.19897  0.92530  0.37034  Biso   1.000  H
  C379     1.0000 0.26007  0.93433  0.26264  Biso   1.000  C
  H290     1.0000 0.19899  0.92534  0.37034  Biso   1.000  H
  H291     1.0000 0.31859  0.95883  0.13977  Biso   1.000  H
  H292     1.0000 0.31856  0.95883  0.13977  Biso   1.000  H
  H293     1.0000 0.00088  0.73493  0.87015  Biso   1.000  H
  H294     1.0000 0.00085  0.73493  0.87015  Biso   1.000  H
  H295     1.0000 0.34059  0.35881  0.29829  Biso   1.000  H
  C380     1.0000 0.28628  0.37812  0.33845  Biso   1.000  C
  H296     1.0000 0.34054  0.35885  0.29829  Biso   1.000  H
  C381     1.0000 0.28622  0.37812  0.33845  Biso   1.000  C
  H297     1.0000 0.21766  0.37654  0.37539  Biso   1.000  H
  H298     1.0000 0.21763  0.37654  0.37539  Biso   1.000  H
  H299     1.0000 0.26507  0.26592  0.87015  Biso   1.000  H
  H300     1.0000 0.10718  0.69183  0.32972  Biso   1.000  H
  H301     1.0000 0.10715  0.69183  0.32972  Biso   1.000  H
  H302     1.0000 0.37718  0.17690  0.97032  Biso   1.000  H
  H303     1.0000 0.37713  0.17694  0.97032  Biso   1.000  H
  C382     1.0000 0.36158  0.16483  0.15429  Biso   1.000  C
  H304     1.0000 0.33088  0.14944  0.32715  Biso   1.000  H
  H305     1.0000 0.27257  0.91723  0.31584  Biso   1.000  H
  H306     1.0000 0.30818  0.41532  0.32972  Biso   1.000  H
  H307     1.0000 0.39693  0.18810  0.18011  Biso   1.000  H
  H308     1.0000 0.39695  0.18814  0.18011  Biso   1.000  H
  C383     1.0000 0.83840  0.93904  0.71522  Biso   1.000  C
  C384     1.0000 0.85449  0.99021  0.67965  Biso   1.000  C
  C385     1.0000 0.85447  0.99025  0.67965  Biso   1.000  C
  C386     1.0000 0.84875  0.92891  0.83542  Biso   1.000  C
  H309     1.0000 0.82038  0.91082  0.65879  Biso   1.000  H
  C387     1.0000 0.84877  0.92895  0.83542  Biso   1.000  C
  H310     1.0000 0.82034  0.91082  0.65879  Biso   1.000  H
  C388     1.0000 0.83867  0.00122  0.55909  Biso   1.000  C
  C389     1.0000 0.83836  0.93904  0.71522  Biso   1.000  C
  C390     1.0000 0.87967  0.03153  0.76199  Biso   1.000  C
  C391     1.0000 0.87598  0.97102  0.91720  Biso   1.000  C
  C392     1.0000 0.82898  0.87421  0.87199  Biso   1.000  C
  C393     1.0000 0.87595  0.97102  0.91720  Biso   1.000  C
  C394     1.0000 0.82897  0.87425  0.87199  Biso   1.000  C
  N33      1.0000 0.80667  0.96381  0.48824  Biso   1.000  N
  H311     1.0000 0.85258  0.03692  0.53373  Biso   1.000  H
  H312     1.0000 0.85251  0.03692  0.53373  Biso   1.000  H
  C395     1.0000 0.89086  0.02203  0.88256  Biso   1.000  C
  H313     1.0000 0.88959  0.06652  0.73755  Biso   1.000  H
  H314     1.0000 0.88956  0.06652  0.73755  Biso   1.000  H
  H315     1.0000 0.88416  0.96441  0.99743  Biso   1.000  H
  H316     1.0000 0.88418  0.96445  0.99743  Biso   1.000  H
  N34      1.0000 0.82427  0.85861  0.98447  Biso   1.000  N
  H317     1.0000 0.81888  0.84832  0.80904  Biso   1.000  H
  H318     1.0000 0.81885  0.84832  0.80904  Biso   1.000  H
  C396     1.0000 0.79028  0.98012  0.37631  Biso   1.000  C
  C397     1.0000 0.79025  0.98012  0.37631  Biso   1.000  C
  C398     1.0000 0.91576  0.06573  0.97023  Biso   1.000  C
  C399     1.0000 0.80326  0.80111  0.00395  Biso   1.000  C
  C400     1.0000 0.80328  0.80115  0.00395  Biso   1.000  C
  H319     1.0000 0.80667  0.01954  0.37502  Biso   1.000  H
  C401     1.0000 0.73089  0.95463  0.36988  Biso   1.000  C
  C402     1.0000 0.73085  0.95463  0.36988  Biso   1.000  C
  C403     1.0000 0.81000  0.96183  0.26365  Biso   1.000  C
  C404     1.0000 0.80997  0.96183  0.26365  Biso   1.000  C
  N35      1.0000 0.92386  0.11093  0.95065  Biso   1.000  N
  H320     1.0000 0.92634  0.05892  0.04742  Biso   1.000  H
  H321     1.0000 0.78956  0.78152  0.92474  Biso   1.000  H
  C405     1.0000 0.84999  0.79612  0.04935  Biso   1.000  C
  C406     1.0000 0.75877  0.78211  0.09787  Biso   1.000  C
  C407     1.0000 0.84995  0.79612  0.04935  Biso   1.000  C
  C408     1.0000 0.75879  0.78215  0.09787  Biso   1.000  C
  C409     1.0000 0.70736  0.98360  0.33836  Biso   1.000  C
  C410     1.0000 0.70738  0.98364  0.33836  Biso   1.000  C
  C411     1.0000 0.69899  0.90132  0.38734  Biso   1.000  C
  C412     1.0000 0.69895  0.90132  0.38734  Biso   1.000  C
  N36      1.0000 0.86768  0.98910  0.26447  Biso   1.000  N
  H322     1.0000 0.79566  0.92281  0.26879  Biso   1.000  H
  C413     1.0000 0.79046  0.97430  0.14666  Biso   1.000  C
  N37      1.0000 0.86767  0.98914  0.26447  Biso   1.000  N
  H323     1.0000 0.79568  0.92285  0.26879  Biso   1.000  H
  C414     1.0000 0.79048  0.97434  0.14666  Biso   1.000  C
  C415     1.0000 0.94619  0.15003  0.04935  Biso   1.000  C
  C416     1.0000 0.94615  0.15003  0.04935  Biso   1.000  C
  N38      1.0000 0.88908  0.81294  0.95065  Biso   1.000  N
  H324     1.0000 0.86607  0.81931  0.12277  Biso   1.000  H
  C417     1.0000 0.83208  0.73932  0.08372  Biso   1.000  C
  H325     1.0000 0.86606  0.81935  0.12277  Biso   1.000  H
  C418     1.0000 0.76319  0.80562  0.20814  Biso   1.000  C
  C419     1.0000 0.71098  0.73521  0.07058  Biso   1.000  C
  C420     1.0000 0.76315  0.80562  0.20814  Biso   1.000  C
  C421     1.0000 0.71097  0.73525  0.07058  Biso   1.000  C
  C422     1.0000 0.65569  0.96033  0.32255  Biso   1.000  C
  C423     1.0000 0.65566  0.96033  0.32255  Biso   1.000  C
  H326     1.0000 0.72847  0.02081  0.32779  Biso   1.000  H
  H327     1.0000 0.72849  0.02085  0.32779  Biso   1.000  H
  C424     1.0000 0.64506  0.87840  0.36804  Biso   1.000  C
  C425     1.0000 0.64508  0.87844  0.36804  Biso   1.000  C
  H328     1.0000 0.71367  0.88022  0.41242  Biso   1.000  H
  C426     1.0000 0.88797  0.96073  0.27642  Biso   1.000  C
  C427     1.0000 0.75050  0.92803  0.07581  Biso   1.000  C
  C428     1.0000 0.75046  0.92803  0.07581  Biso   1.000  C
  C429     1.0000 0.80496  0.02243  0.11294  Biso   1.000  C
  C430     1.0000 0.80493  0.02243  0.11294  Biso   1.000  C
  C431     1.0000 0.99785  0.19673  0.00395  Biso   1.000  C
  H329     1.0000 0.95328  0.13392  0.12277  Biso   1.000  H
  C432     1.0000 0.90725  0.16792  0.08372  Biso   1.000  C
  H330     1.0000 0.95325  0.13392  0.12277  Biso   1.000  H
  C433     1.0000 0.90722  0.16792  0.08372  Biso   1.000  C
  C434     1.0000 0.93428  0.85003  0.97023  Biso   1.000  C
  C435     1.0000 0.93425  0.85003  0.97023  Biso   1.000  C
  C436     1.0000 0.82000  0.70323  0.99375  Biso   1.000  C
  C437     1.0000 0.81996  0.70323  0.99375  Biso   1.000  C
  C438     1.0000 0.82787  0.72583  0.20640  Biso   1.000  C
  H331     1.0000 0.79519  0.83712  0.22817  Biso   1.000  H
  C439     1.0000 0.72199  0.78472  0.29232  Biso   1.000  C
  H332     1.0000 0.79515  0.83712  0.22817  Biso   1.000  H
  C440     1.0000 0.72196  0.78472  0.29232  Biso   1.000  C
  H333     1.0000 0.70648  0.71811  0.99357  Biso   1.000  H
  H334     1.0000 0.70646  0.71815  0.99357  Biso   1.000  H
  C441     1.0000 0.67108  0.71451  0.15585  Biso   1.000  C
  C442     1.0000 0.67107  0.71455  0.15585  Biso   1.000  C
  C443     1.0000 0.62188  0.90813  0.33845  Biso   1.000  C
  H335     1.0000 0.64119  0.98170  0.29829  Biso   1.000  H
  H336     1.0000 0.64117  0.98174  0.29829  Biso   1.000  H
  H337     1.0000 0.62347  0.84112  0.37539  Biso   1.000  H
  C444     1.0000 0.94598  0.98091  0.27945  Biso   1.000  C
  H338     1.0000 0.86485  0.92360  0.28414  Biso   1.000  H
  C445     1.0000 0.94597  0.98095  0.27945  Biso   1.000  C
  H339     1.0000 0.86487  0.92364  0.28414  Biso   1.000  H
  C446     1.0000 0.72859  0.93263  0.97519  Biso   1.000  C
  C447     1.0000 0.72856  0.93263  0.97519  Biso   1.000  C
  H340     1.0000 0.74039  0.89364  0.10485  Biso   1.000  H
  H341     1.0000 0.74036  0.89364  0.10485  Biso   1.000  H
  H342     1.0000 0.82964  0.05211  0.15944  Biso   1.000  H
  C448     1.0000 0.78209  0.02852  0.00331  Biso   1.000  C
  H343     1.0000 0.82966  0.05215  0.15944  Biso   1.000  H
  C449     1.0000 0.78203  0.02852  0.00331  Biso   1.000  C
  H344     1.0000 0.99198  0.21043  0.92474  Biso   1.000  H
  H345     1.0000 0.99195  0.21043  0.92474  Biso   1.000  H
  N39      1.0000 0.03437  0.17572  0.98447  Biso   1.000  N
  C450     1.0000 0.02339  0.24122  0.09787  Biso   1.000  C
  C451     1.0000 0.02332  0.24122  0.09787  Biso   1.000  C
  C452     1.0000 0.88328  0.18003  0.99375  Biso   1.000  C
  C453     1.0000 0.89797  0.17212  0.20640  Biso   1.000  C
  C454     1.0000 0.97799  0.86883  0.88256  Biso   1.000  C
  C455     1.0000 0.97796  0.86883  0.88256  Biso   1.000  C
  H346     1.0000 0.94107  0.86744  0.04742  Biso   1.000  H
  H347     1.0000 0.82030  0.71233  0.90985  Biso   1.000  H
  H348     1.0000 0.82026  0.71233  0.90985  Biso   1.000  H
  C456     1.0000 0.80628  0.64920  0.02996  Biso   1.000  C
  C457     1.0000 0.80627  0.64924  0.02996  Biso   1.000  C
  H349     1.0000 0.83279  0.75144  0.26686  Biso   1.000  H
  C458     1.0000 0.81688  0.67671  0.24288  Biso   1.000  C
  H350     1.0000 0.83275  0.75144  0.26686  Biso   1.000  H
  C459     1.0000 0.81687  0.67675  0.24288  Biso   1.000  C
  H351     1.0000 0.72638  0.80103  0.37034  Biso   1.000  H
  C460     1.0000 0.67426  0.73992  0.26264  Biso   1.000  C
  H352     1.0000 0.64028  0.68142  0.13977  Biso   1.000  H
  H353     1.0000 0.64025  0.68142  0.13977  Biso   1.000  H
  H354     1.0000 0.58467  0.89281  0.32972  Biso   1.000  H
  H355     1.0000 0.58466  0.89285  0.32972  Biso   1.000  H
  C461     1.0000 0.96417  0.94592  0.27964  Biso   1.000  C
  C462     1.0000 0.98176  0.03581  0.27964  Biso   1.000  C
  C463     1.0000 0.98178  0.03585  0.27964  Biso   1.000  C
  C464     1.0000 0.74830  0.99144  0.94064  Biso   1.000  C
  H356     1.0000 0.70347  0.90342  0.92832  Biso   1.000  H
  C465     1.0000 0.74826  0.99144  0.94064  Biso   1.000  C
  H357     1.0000 0.79349  0.06351  0.97592  Biso   1.000  H
  H358     1.0000 0.79347  0.06355  0.97592  Biso   1.000  H
  C466     1.0000 0.04528  0.17101  0.87199  Biso   1.000  C
  C467     1.0000 0.04523  0.17105  0.87199  Biso   1.000  C
  C468     1.0000 0.02426  0.28903  0.07058  Biso   1.000  C
  C469     1.0000 0.04244  0.23683  0.20814  Biso   1.000  C
  H359     1.0000 0.89203  0.17971  0.90985  Biso   1.000  H
  C470     1.0000 0.84293  0.19372  0.02996  Biso   1.000  C
  H360     1.0000 0.91865  0.16721  0.26686  Biso   1.000  H
  C471     1.0000 0.85984  0.18312  0.24288  Biso   1.000  C
  H361     1.0000 0.91864  0.16725  0.26686  Biso   1.000  H
  C472     1.0000 0.96847  0.84813  0.76199  Biso   1.000  C
  C473     1.0000 0.02898  0.90492  0.91720  Biso   1.000  C
  C474     1.0000 0.02895  0.90492  0.91720  Biso   1.000  C
  H362     1.0000 0.79977  0.62281  0.97032  Biso   1.000  H
  H363     1.0000 0.79979  0.62285  0.97032  Biso   1.000  H
  C475     1.0000 0.80330  0.63844  0.15429  Biso   1.000  C
  C476     1.0000 0.80326  0.63844  0.15429  Biso   1.000  C
  H364     1.0000 0.81857  0.66911  0.32715  Biso   1.000  H
  H365     1.0000 0.81859  0.66915  0.32715  Biso   1.000  H
  H366     1.0000 0.64467  0.72741  0.31584  Biso   1.000  H
  H367     1.0000 0.64469  0.72745  0.31584  Biso   1.000  H
  H368     1.0000 0.93998  0.90892  0.27982  Biso   1.000  H
  H369     1.0000 0.93994  0.90892  0.27982  Biso   1.000  H
  C477     1.0000 0.01908  0.96504  0.27945  Biso   1.000  C
  H370     1.0000 0.96895  0.06003  0.27982  Biso   1.000  H
  C478     1.0000 0.03494  0.05401  0.27945  Biso   1.000  C
  C479     1.0000 0.03496  0.05405  0.27945  Biso   1.000  C
  H371     1.0000 0.73407  0.99912  0.87015  Biso   1.000  H
  C480     1.0000 0.08015  0.15122  0.83542  Biso   1.000  C
  H372     1.0000 0.02947  0.18114  0.80904  Biso   1.000  H
  H373     1.0000 0.01165  0.29350  0.99357  Biso   1.000  H
  H374     1.0000 0.01167  0.29354  0.99357  Biso   1.000  H
  C481     1.0000 0.04345  0.32892  0.15585  Biso   1.000  C
  C482     1.0000 0.04342  0.32892  0.15585  Biso   1.000  C
  H375     1.0000 0.04192  0.20481  0.22817  Biso   1.000  H
  C483     1.0000 0.06277  0.27803  0.29232  Biso   1.000  C
  H376     1.0000 0.04194  0.20485  0.22817  Biso   1.000  H
  H377     1.0000 0.82307  0.20022  0.97032  Biso   1.000  H
  C484     1.0000 0.83518  0.19673  0.15429  Biso   1.000  C
  H378     1.0000 0.85059  0.18142  0.32715  Biso   1.000  H
  H379     1.0000 0.85052  0.18142  0.32715  Biso   1.000  H
  C485     1.0000 0.00977  0.86423  0.67965  Biso   1.000  C
  H380     1.0000 0.93347  0.82303  0.73755  Biso   1.000  H
  H381     1.0000 0.03559  0.91972  0.99743  Biso   1.000  H
  C486     1.0000 0.07108  0.91980  0.83542  Biso   1.000  C
  H382     1.0000 0.03556  0.91972  0.99743  Biso   1.000  H
  C487     1.0000 0.07106  0.91984  0.83542  Biso   1.000  C
  H383     1.0000 0.79117  0.60302  0.18011  Biso   1.000  H
  C488     1.0000 0.03927  0.92720  0.27642  Biso   1.000  C
  C489     1.0000 0.03929  0.92724  0.27642  Biso   1.000  C
  C490     1.0000 0.05407  0.01823  0.27964  Biso   1.000  C
  C491     1.0000 0.07276  0.11203  0.27642  Biso   1.000  C
  C492     1.0000 0.07273  0.11203  0.27642  Biso   1.000  C
  C493     1.0000 0.09507  0.12403  0.91720  Biso   1.000  C
  C494     1.0000 0.10064  0.16163  0.71522  Biso   1.000  C
  C495     1.0000 0.06567  0.32572  0.26264  Biso   1.000  C
  H384     1.0000 0.04113  0.35972  0.13977  Biso   1.000  H
  H385     1.0000 0.07466  0.27363  0.37034  Biso   1.000  H
  H386     1.0000 0.81187  0.20880  0.18011  Biso   1.000  H
  H387     1.0000 0.81183  0.20884  0.18011  Biso   1.000  H
  C496     1.0000 0.99877  0.83744  0.55909  Biso   1.000  C
  C497     1.0000 0.06098  0.89934  0.71522  Biso   1.000  C
  C498     1.0000 0.12579  0.95471  0.87199  Biso   1.000  C
  C499     1.0000 0.12577  0.95475  0.87199  Biso   1.000  C
  N40      1.0000 0.01088  0.87852  0.26447  Biso   1.000  N
  H388     1.0000 0.07637  0.94121  0.28414  Biso   1.000  H
  N41      1.0000 0.01085  0.87852  0.26447  Biso   1.000  N
  H389     1.0000 0.09104  0.03102  0.27982  Biso   1.000  H
  N42      1.0000 0.12147  0.13234  0.26447  Biso   1.000  N
  H390     1.0000 0.05876  0.13511  0.28414  Biso   1.000  H
  H391     1.0000 0.05878  0.13515  0.28414  Biso   1.000  H
  C500     1.0000 0.13118  0.10911  0.88256  Biso   1.000  C
  H392     1.0000 0.08025  0.11583  0.99743  Biso   1.000  H
  C501     1.0000 0.13116  0.10915  0.88256  Biso   1.000  C
  C502     1.0000 0.13574  0.14552  0.67965  Biso   1.000  C
  H393     1.0000 0.09049  0.17963  0.65879  Biso   1.000  H
  H394     1.0000 0.09042  0.17963  0.65879  Biso   1.000  H
  H395     1.0000 0.08277  0.35532  0.31584  Biso   1.000  H
  N43      1.0000 0.03618  0.84282  0.48824  Biso   1.000  N
  N44      1.0000 0.03615  0.84282  0.48824  Biso   1.000  N
  H396     1.0000 0.96309  0.81563  0.53373  Biso   1.000  H
  H397     1.0000 0.96305  0.81563  0.53373  Biso   1.000  H
  H398     1.0000 0.08917  0.90951  0.65879  Biso   1.000  H
  H399     1.0000 0.08919  0.90955  0.65879  Biso   1.000  H
  N45      1.0000 0.14139  0.96563  0.98447  Biso   1.000  N
  H400     1.0000 0.15168  0.97050  0.80904  Biso   1.000  H
  N46      1.0000 0.14136  0.96563  0.98447  Biso   1.000  N
  H401     1.0000 0.15166  0.97054  0.80904  Biso   1.000  H
  C503     1.0000 0.03818  0.84813  0.26365  Biso   1.000  C
  C504     1.0000 0.03815  0.84813  0.26365  Biso   1.000  C
  C505     1.0000 0.15188  0.19000  0.26365  Biso   1.000  C
  C506     1.0000 0.15183  0.19004  0.26365  Biso   1.000  C
  C507     1.0000 0.15182  0.12031  0.76199  Biso   1.000  C
  C508     1.0000 0.15184  0.12035  0.76199  Biso   1.000  C
  C509     1.0000 0.15191  0.12035  0.76199  Biso   1.000  C
  C510     1.0000 0.14999  0.08421  0.97023  Biso   1.000  C
  C511     1.0000 0.14994  0.08425  0.97023  Biso   1.000  C
  C512     1.0000 0.15001  0.08425  0.97023  Biso   1.000  C
  C513     1.0000 0.16256  0.16131  0.55909  Biso   1.000  C
  C514     1.0000 0.16258  0.16135  0.55909  Biso   1.000  C
  C515     1.0000 0.01987  0.81013  0.37631  Biso   1.000  C
  C516     1.0000 0.19885  0.00213  0.00395  Biso   1.000  C
  H402     1.0000 0.07717  0.87282  0.26879  Biso   1.000  H
  C517     1.0000 0.02567  0.81611  0.14666  Biso   1.000  C
  C518     1.0000 0.02566  0.81615  0.14666  Biso   1.000  C
  C519     1.0000 0.18984  0.20971  0.37631  Biso   1.000  C
  C520     1.0000 0.18385  0.20952  0.14666  Biso   1.000  C
  H403     1.0000 0.12714  0.20433  0.26879  Biso   1.000  H
  H404     1.0000 0.17697  0.11041  0.73755  Biso   1.000  H
  H405     1.0000 0.17699  0.11045  0.73755  Biso   1.000  H
  N47      1.0000 0.18705  0.07614  0.95065  Biso   1.000  N
  H406     1.0000 0.13255  0.07360  0.04742  Biso   1.000  H
  H407     1.0000 0.13257  0.07364  0.04742  Biso   1.000  H
  N48      1.0000 0.15714  0.19333  0.48824  Biso   1.000  N
  H408     1.0000 0.18437  0.14742  0.53373  Biso   1.000  H
  H409     1.0000 0.98047  0.78714  0.37502  Biso   1.000  H
  C521     1.0000 0.04538  0.77621  0.36988  Biso   1.000  C
  C522     1.0000 0.04537  0.77625  0.36988  Biso   1.000  C
  C523     1.0000 0.20386  0.05382  0.04935  Biso   1.000  C
  C524     1.0000 0.21788  0.97664  0.09787  Biso   1.000  C
  H410     1.0000 0.21849  0.00802  0.92474  Biso   1.000  H
  H411     1.0000 0.21842  0.00802  0.92474  Biso   1.000  H
  C525     1.0000 0.97758  0.78251  0.11294  Biso   1.000  C
  C526     1.0000 0.97756  0.78254  0.11294  Biso   1.000  C
  C527     1.0000 0.07199  0.82244  0.07581  Biso   1.000  C
  C528     1.0000 0.07196  0.82244  0.07581  Biso   1.000  C
  H412     1.0000 0.21284  0.19333  0.37502  Biso   1.000  H
  C529     1.0000 0.22373  0.26912  0.36988  Biso   1.000  C
  C530     1.0000 0.21746  0.19503  0.11294  Biso   1.000  C
  C531     1.0000 0.17757  0.24953  0.07581  Biso   1.000  C
  C532     1.0000 0.01640  0.72373  0.33836  Biso   1.000  C
  C533     1.0000 0.09869  0.79762  0.38734  Biso   1.000  C
  C534     1.0000 0.01636  0.72373  0.33836  Biso   1.000  C
  C535     1.0000 0.09866  0.79762  0.38734  Biso   1.000  C
  H413     1.0000 0.18067  0.04673  0.12277  Biso   1.000  H
  C536     1.0000 0.26067  0.09272  0.08372  Biso   1.000  C
  C537     1.0000 0.19437  0.95752  0.20814  Biso   1.000  C
  C538     1.0000 0.26480  0.97573  0.07058  Biso   1.000  C
  C539     1.0000 0.26476  0.97573  0.07058  Biso   1.000  C
  H414     1.0000 0.94787  0.77752  0.15944  Biso   1.000  H
  C540     1.0000 0.97149  0.75353  0.00331  Biso   1.000  C
  C541     1.0000 0.97145  0.75353  0.00331  Biso   1.000  C
  C542     1.0000 0.06737  0.79592  0.97519  Biso   1.000  C
  H415     1.0000 0.10639  0.84674  0.10485  Biso   1.000  H
  C543     1.0000 0.27624  0.29263  0.33836  Biso   1.000  C
  C544     1.0000 0.20239  0.30102  0.38734  Biso   1.000  C
  C545     1.0000 0.20232  0.30102  0.38734  Biso   1.000  C
  H416     1.0000 0.22246  0.17033  0.15944  Biso   1.000  H
  C546     1.0000 0.24645  0.21791  0.00331  Biso   1.000  C
  C547     1.0000 0.24647  0.21795  0.00331  Biso   1.000  C
  C548     1.0000 0.20404  0.27142  0.97519  Biso   1.000  C
  H417     1.0000 0.15324  0.25962  0.10485  Biso   1.000  H
  H418     1.0000 0.97918  0.70762  0.32779  Biso   1.000  H
  C549     1.0000 0.03969  0.69531  0.32255  Biso   1.000  C
  C550     1.0000 0.03965  0.69531  0.32255  Biso   1.000  C
  C551     1.0000 0.12159  0.76663  0.36804  Biso   1.000  C
  H419     1.0000 0.11977  0.83340  0.41242  Biso   1.000  H
  C552     1.0000 0.12155  0.76663  0.36804  Biso   1.000  C
  H420     1.0000 0.11975  0.83344  0.41242  Biso   1.000  H
  C553     1.0000 0.29676  0.11671  0.99375  Biso   1.000  C
  C554     1.0000 0.29678  0.11674  0.99375  Biso   1.000  C
  C555     1.0000 0.27416  0.10202  0.20640  Biso   1.000  C
  H421     1.0000 0.16289  0.95804  0.22817  Biso   1.000  H
  C556     1.0000 0.21528  0.93722  0.29232  Biso   1.000  C
  H422     1.0000 0.16286  0.95804  0.22817  Biso   1.000  H
  H423     1.0000 0.28189  0.98831  0.99357  Biso   1.000  H
  H424     1.0000 0.28187  0.98835  0.99357  Biso   1.000  H
  C557     1.0000 0.28550  0.95653  0.15585  Biso   1.000  C
  C558     1.0000 0.28546  0.95653  0.15585  Biso   1.000  C
  H425     1.0000 0.93647  0.72991  0.97592  Biso   1.000  H
  H426     1.0000 0.93649  0.72994  0.97592  Biso   1.000  H
  C559     1.0000 0.00857  0.75682  0.94064  Biso   1.000  C
  H427     1.0000 0.09657  0.80004  0.92832  Biso   1.000  H
  C560     1.0000 0.30465  0.34432  0.32255  Biso   1.000  C
  H428     1.0000 0.29239  0.27154  0.32779  Biso   1.000  H
  H429     1.0000 0.29232  0.27154  0.32779  Biso   1.000  H
  C561     1.0000 0.23335  0.35493  0.36804  Biso   1.000  C
  H430     1.0000 0.16660  0.28634  0.41242  Biso   1.000  H
  H431     1.0000 0.16656  0.28634  0.41242  Biso   1.000  H
  H432     1.0000 0.27002  0.20651  0.97592  Biso   1.000  H
  C562     1.0000 0.24313  0.25171  0.94064  Biso   1.000  C
  H433     1.0000 0.27004  0.20655  0.97592  Biso   1.000  H
  C563     1.0000 0.24315  0.25175  0.94064  Biso   1.000  C
  H434     1.0000 0.27008  0.20655  0.97592  Biso   1.000  H
  C564     1.0000 0.24322  0.25175  0.94064  Biso   1.000  C
  H435     1.0000 0.19996  0.29651  0.92832  Biso   1.000  H
  H436     1.0000 0.19998  0.29655  0.92832  Biso   1.000  H
  H437     1.0000 0.01828  0.65942  0.29829  Biso   1.000  H
  C565     1.0000 0.09187  0.71372  0.33845  Biso   1.000  C
  H438     1.0000 0.01824  0.65942  0.29829  Biso   1.000  H
  H439     1.0000 0.15887  0.78231  0.37539  Biso   1.000  H
  H440     1.0000 0.15889  0.78235  0.37539  Biso   1.000  H
  H441     1.0000 0.28764  0.10792  0.90985  Biso   1.000  H
  C566     1.0000 0.35075  0.15704  0.02996  Biso   1.000  C
  C567     1.0000 0.35072  0.15704  0.02996  Biso   1.000  C
  H442     1.0000 0.24853  0.08132  0.26686  Biso   1.000  H
  C568     1.0000 0.32325  0.14014  0.24288  Biso   1.000  C
  C569     1.0000 0.32332  0.14014  0.24288  Biso   1.000  C
  H443     1.0000 0.19897  0.92530  0.37034  Biso   1.000  H
  C570     1.0000 0.26007  0.93433  0.26264  Biso   1.000  C
  H444     1.0000 0.19899  0.92534  0.37034  Biso   1.000  H
  H445     1.0000 0.31859  0.95883  0.13977  Biso   1.000  H
  H446     1.0000 0.31856  0.95883  0.13977  Biso   1.000  H
  H447     1.0000 0.00088  0.73493  0.87015  Biso   1.000  H
  H448     1.0000 0.00085  0.73493  0.87015  Biso   1.000  H
  H449     1.0000 0.34059  0.35881  0.29829  Biso   1.000  H
  C571     1.0000 0.28628  0.37812  0.33845  Biso   1.000  C
  H450     1.0000 0.34054  0.35885  0.29829  Biso   1.000  H
  C572     1.0000 0.28622  0.37812  0.33845  Biso   1.000  C
  H451     1.0000 0.21766  0.37654  0.37539  Biso   1.000  H
  H452     1.0000 0.21763  0.37654  0.37539  Biso   1.000  H
  H453     1.0000 0.26507  0.26592  0.87015  Biso   1.000  H
  H454     1.0000 0.10718  0.69183  0.32972  Biso   1.000  H
  H455     1.0000 0.10715  0.69183  0.32972  Biso   1.000  H
  H456     1.0000 0.37718  0.17690  0.97032  Biso   1.000  H
  H457     1.0000 0.37713  0.17694  0.97032  Biso   1.000  H
  C573     1.0000 0.36158  0.16483  0.15429  Biso   1.000  C
  H458     1.0000 0.33088  0.14944  0.32715  Biso   1.000  H
  H459     1.0000 0.27257  0.91723  0.31584  Biso   1.000  H
  H460     1.0000 0.30818  0.41532  0.32972  Biso   1.000  H
  H461     1.0000 0.39693  0.18810  0.18011  Biso   1.000  H
  H462     1.0000 0.39695  0.18814  0.18011  Biso   1.000  H
  C574     1.0000 0.83840  0.93904  0.71522  Biso   1.000  C
  C575     1.0000 0.85449  0.99021  0.67965  Biso   1.000  C
  C576     1.0000 0.85447  0.99025  0.67965  Biso   1.000  C
  C577     1.0000 0.84875  0.92891  0.83542  Biso   1.000  C
  H463     1.0000 0.82038  0.91082  0.65879  Biso   1.000  H
  C578     1.0000 0.84877  0.92895  0.83542  Biso   1.000  C
  H464     1.0000 0.82034  0.91082  0.65879  Biso   1.000  H
  C579     1.0000 0.83867  0.00122  0.55909  Biso   1.000  C
  C580     1.0000 0.83836  0.93904  0.71522  Biso   1.000  C
  C581     1.0000 0.87967  0.03153  0.76199  Biso   1.000  C
  C582     1.0000 0.87598  0.97102  0.91720  Biso   1.000  C
  C583     1.0000 0.82898  0.87421  0.87199  Biso   1.000  C
  C584     1.0000 0.87595  0.97102  0.91720  Biso   1.000  C
  C585     1.0000 0.82897  0.87425  0.87199  Biso   1.000  C
  N49      1.0000 0.80667  0.96381  0.48824  Biso   1.000  N
  H465     1.0000 0.85258  0.03692  0.53373  Biso   1.000  H
  H466     1.0000 0.85251  0.03692  0.53373  Biso   1.000  H
  C586     1.0000 0.89086  0.02203  0.88256  Biso   1.000  C
  H467     1.0000 0.88959  0.06652  0.73755  Biso   1.000  H
  H468     1.0000 0.88956  0.06652  0.73755  Biso   1.000  H
  H469     1.0000 0.88416  0.96441  0.99743  Biso   1.000  H
  H470     1.0000 0.88418  0.96445  0.99743  Biso   1.000  H
  N50      1.0000 0.82427  0.85861  0.98447  Biso   1.000  N
  H471     1.0000 0.81888  0.84832  0.80904  Biso   1.000  H
  H472     1.0000 0.81885  0.84832  0.80904  Biso   1.000  H
  C587     1.0000 0.79028  0.98012  0.37631  Biso   1.000  C
  C588     1.0000 0.79025  0.98012  0.37631  Biso   1.000  C
  C589     1.0000 0.91576  0.06573  0.97023  Biso   1.000  C
  C590     1.0000 0.80326  0.80111  0.00395  Biso   1.000  C
  C591     1.0000 0.80328  0.80115  0.00395  Biso   1.000  C
  H473     1.0000 0.80667  0.01954  0.37502  Biso   1.000  H
  C592     1.0000 0.73089  0.95463  0.36988  Biso   1.000  C
  C593     1.0000 0.73085  0.95463  0.36988  Biso   1.000  C
  C594     1.0000 0.81000  0.96183  0.26365  Biso   1.000  C
  C595     1.0000 0.80997  0.96183  0.26365  Biso   1.000  C
  N51      1.0000 0.92386  0.11093  0.95065  Biso   1.000  N
  H474     1.0000 0.92634  0.05892  0.04742  Biso   1.000  H
  H475     1.0000 0.78956  0.78152  0.92474  Biso   1.000  H
  C596     1.0000 0.84999  0.79612  0.04935  Biso   1.000  C
  C597     1.0000 0.75877  0.78211  0.09787  Biso   1.000  C
  C598     1.0000 0.84995  0.79612  0.04935  Biso   1.000  C
  C599     1.0000 0.75879  0.78215  0.09787  Biso   1.000  C
  C600     1.0000 0.70736  0.98360  0.33836  Biso   1.000  C
  C601     1.0000 0.70738  0.98364  0.33836  Biso   1.000  C
  C602     1.0000 0.69899  0.90132  0.38734  Biso   1.000  C
  C603     1.0000 0.69895  0.90132  0.38734  Biso   1.000  C
  N52      1.0000 0.86768  0.98910  0.26447  Biso   1.000  N
  H476     1.0000 0.79566  0.92281  0.26879  Biso   1.000  H
  C604     1.0000 0.79046  0.97430  0.14666  Biso   1.000  C
  N53      1.0000 0.86767  0.98914  0.26447  Biso   1.000  N
  H477     1.0000 0.79568  0.92285  0.26879  Biso   1.000  H
  C605     1.0000 0.79048  0.97434  0.14666  Biso   1.000  C
  C606     1.0000 0.94619  0.15003  0.04935  Biso   1.000  C
  C607     1.0000 0.94615  0.15003  0.04935  Biso   1.000  C
  N54      1.0000 0.88908  0.81294  0.95065  Biso   1.000  N
  H478     1.0000 0.86607  0.81931  0.12277  Biso   1.000  H
  C608     1.0000 0.83208  0.73932  0.08372  Biso   1.000  C
  H479     1.0000 0.86606  0.81935  0.12277  Biso   1.000  H
  C609     1.0000 0.76319  0.80562  0.20814  Biso   1.000  C
  C610     1.0000 0.71098  0.73521  0.07058  Biso   1.000  C
  C611     1.0000 0.76315  0.80562  0.20814  Biso   1.000  C
  C612     1.0000 0.71097  0.73525  0.07058  Biso   1.000  C
  C613     1.0000 0.65569  0.96033  0.32255  Biso   1.000  C
  C614     1.0000 0.65566  0.96033  0.32255  Biso   1.000  C
  H480     1.0000 0.72847  0.02081  0.32779  Biso   1.000  H
  H481     1.0000 0.72849  0.02085  0.32779  Biso   1.000  H
  C615     1.0000 0.64506  0.87840  0.36804  Biso   1.000  C
  C616     1.0000 0.64508  0.87844  0.36804  Biso   1.000  C
  H482     1.0000 0.71367  0.88022  0.41242  Biso   1.000  H
  C617     1.0000 0.88797  0.96073  0.27642  Biso   1.000  C
  C618     1.0000 0.75050  0.92803  0.07581  Biso   1.000  C
  C619     1.0000 0.75046  0.92803  0.07581  Biso   1.000  C
  C620     1.0000 0.80496  0.02243  0.11294  Biso   1.000  C
  C621     1.0000 0.80493  0.02243  0.11294  Biso   1.000  C
  C622     1.0000 0.99785  0.19673  0.00395  Biso   1.000  C
  H483     1.0000 0.95328  0.13392  0.12277  Biso   1.000  H
  C623     1.0000 0.90725  0.16792  0.08372  Biso   1.000  C
  H484     1.0000 0.95325  0.13392  0.12277  Biso   1.000  H
  C624     1.0000 0.90722  0.16792  0.08372  Biso   1.000  C
  C625     1.0000 0.93428  0.85003  0.97023  Biso   1.000  C
  C626     1.0000 0.93425  0.85003  0.97023  Biso   1.000  C
  C627     1.0000 0.82000  0.70323  0.99375  Biso   1.000  C
  C628     1.0000 0.81996  0.70323  0.99375  Biso   1.000  C
  C629     1.0000 0.82787  0.72583  0.20640  Biso   1.000  C
  H485     1.0000 0.79519  0.83712  0.22817  Biso   1.000  H
  C630     1.0000 0.72199  0.78472  0.29232  Biso   1.000  C
  H486     1.0000 0.79515  0.83712  0.22817  Biso   1.000  H
  C631     1.0000 0.72196  0.78472  0.29232  Biso   1.000  C
  H487     1.0000 0.70648  0.71811  0.99357  Biso   1.000  H
  H488     1.0000 0.70646  0.71815  0.99357  Biso   1.000  H
  C632     1.0000 0.67108  0.71451  0.15585  Biso   1.000  C
  C633     1.0000 0.67107  0.71455  0.15585  Biso   1.000  C
  C634     1.0000 0.62188  0.90813  0.33845  Biso   1.000  C
  H489     1.0000 0.64119  0.98170  0.29829  Biso   1.000  H
  H490     1.0000 0.64117  0.98174  0.29829  Biso   1.000  H
  H491     1.0000 0.62347  0.84112  0.37539  Biso   1.000  H
  C635     1.0000 0.94598  0.98091  0.27945  Biso   1.000  C
  H492     1.0000 0.86485  0.92360  0.28414  Biso   1.000  H
  C636     1.0000 0.94597  0.98095  0.27945  Biso   1.000  C
  H493     1.0000 0.86487  0.92364  0.28414  Biso   1.000  H
  C637     1.0000 0.72859  0.93263  0.97519  Biso   1.000  C
  C638     1.0000 0.72856  0.93263  0.97519  Biso   1.000  C
  H494     1.0000 0.74039  0.89364  0.10485  Biso   1.000  H
  H495     1.0000 0.74036  0.89364  0.10485  Biso   1.000  H
  H496     1.0000 0.82964  0.05211  0.15944  Biso   1.000  H
  C639     1.0000 0.78209  0.02852  0.00331  Biso   1.000  C
  H497     1.0000 0.82966  0.05215  0.15944  Biso   1.000  H
  C640     1.0000 0.78203  0.02852  0.00331  Biso   1.000  C
  H498     1.0000 0.99198  0.21043  0.92474  Biso   1.000  H
  H499     1.0000 0.99195  0.21043  0.92474  Biso   1.000  H
  N55      1.0000 0.03437  0.17572  0.98447  Biso   1.000  N
  C641     1.0000 0.02339  0.24122  0.09787  Biso   1.000  C
  C642     1.0000 0.02332  0.24122  0.09787  Biso   1.000  C
  C643     1.0000 0.88328  0.18003  0.99375  Biso   1.000  C
  C644     1.0000 0.89797  0.17212  0.20640  Biso   1.000  C
  C645     1.0000 0.97799  0.86883  0.88256  Biso   1.000  C
  C646     1.0000 0.97796  0.86883  0.88256  Biso   1.000  C
  H500     1.0000 0.94107  0.86744  0.04742  Biso   1.000  H
  H501     1.0000 0.82030  0.71233  0.90985  Biso   1.000  H
  H502     1.0000 0.82026  0.71233  0.90985  Biso   1.000  H
  C647     1.0000 0.80628  0.64920  0.02996  Biso   1.000  C
  C648     1.0000 0.80627  0.64924  0.02996  Biso   1.000  C
  H503     1.0000 0.83279  0.75144  0.26686  Biso   1.000  H
  C649     1.0000 0.81688  0.67671  0.24288  Biso   1.000  C
  H504     1.0000 0.83275  0.75144  0.26686  Biso   1.000  H
  C650     1.0000 0.81687  0.67675  0.24288  Biso   1.000  C
  H505     1.0000 0.72638  0.80103  0.37034  Biso   1.000  H
  C651     1.0000 0.67426  0.73992  0.26264  Biso   1.000  C
  H506     1.0000 0.64028  0.68142  0.13977  Biso   1.000  H
  H507     1.0000 0.64025  0.68142  0.13977  Biso   1.000  H
  H508     1.0000 0.58467  0.89281  0.32972  Biso   1.000  H
  H509     1.0000 0.58466  0.89285  0.32972  Biso   1.000  H
  C652     1.0000 0.96417  0.94592  0.27964  Biso   1.000  C
  C653     1.0000 0.98176  0.03581  0.27964  Biso   1.000  C
  C654     1.0000 0.98178  0.03585  0.27964  Biso   1.000  C
  C655     1.0000 0.74830  0.99144  0.94064  Biso   1.000  C
  H510     1.0000 0.70347  0.90342  0.92832  Biso   1.000  H
  C656     1.0000 0.74826  0.99144  0.94064  Biso   1.000  C
  H511     1.0000 0.79349  0.06351  0.97592  Biso   1.000  H
  H512     1.0000 0.79347  0.06355  0.97592  Biso   1.000  H
  C657     1.0000 0.04528  0.17101  0.87199  Biso   1.000  C
  C658     1.0000 0.04523  0.17105  0.87199  Biso   1.000  C
  C659     1.0000 0.02426  0.28903  0.07058  Biso   1.000  C
  C660     1.0000 0.04244  0.23683  0.20814  Biso   1.000  C
  H513     1.0000 0.89203  0.17971  0.90985  Biso   1.000  H
  C661     1.0000 0.84293  0.19372  0.02996  Biso   1.000  C
  H514     1.0000 0.91865  0.16721  0.26686  Biso   1.000  H
  C662     1.0000 0.85984  0.18312  0.24288  Biso   1.000  C
  H515     1.0000 0.91864  0.16725  0.26686  Biso   1.000  H
  C663     1.0000 0.96847  0.84813  0.76199  Biso   1.000  C
  C664     1.0000 0.02898  0.90492  0.91720  Biso   1.000  C
  C665     1.0000 0.02895  0.90492  0.91720  Biso   1.000  C
  H516     1.0000 0.79977  0.62281  0.97032  Biso   1.000  H
  H517     1.0000 0.79979  0.62285  0.97032  Biso   1.000  H
  C666     1.0000 0.80330  0.63844  0.15429  Biso   1.000  C
  C667     1.0000 0.80326  0.63844  0.15429  Biso   1.000  C
  H518     1.0000 0.81857  0.66911  0.32715  Biso   1.000  H
  H519     1.0000 0.81859  0.66915  0.32715  Biso   1.000  H
  H520     1.0000 0.64467  0.72741  0.31584  Biso   1.000  H
  H521     1.0000 0.64469  0.72745  0.31584  Biso   1.000  H
  H522     1.0000 0.93998  0.90892  0.27982  Biso   1.000  H
  H523     1.0000 0.93994  0.90892  0.27982  Biso   1.000  H
  C668     1.0000 0.01908  0.96504  0.27945  Biso   1.000  C
  H524     1.0000 0.96895  0.06003  0.27982  Biso   1.000  H
  C669     1.0000 0.03494  0.05401  0.27945  Biso   1.000  C
  C670     1.0000 0.03496  0.05405  0.27945  Biso   1.000  C
  H525     1.0000 0.73407  0.99912  0.87015  Biso   1.000  H
  C671     1.0000 0.08015  0.15122  0.83542  Biso   1.000  C
  H526     1.0000 0.02947  0.18114  0.80904  Biso   1.000  H
  H527     1.0000 0.01165  0.29350  0.99357  Biso   1.000  H
  H528     1.0000 0.01167  0.29354  0.99357  Biso   1.000  H
  C672     1.0000 0.04345  0.32892  0.15585  Biso   1.000  C
  C673     1.0000 0.04342  0.32892  0.15585  Biso   1.000  C
  H529     1.0000 0.04192  0.20481  0.22817  Biso   1.000  H
  C674     1.0000 0.06277  0.27803  0.29232  Biso   1.000  C
  H530     1.0000 0.04194  0.20485  0.22817  Biso   1.000  H
  H531     1.0000 0.82307  0.20022  0.97032  Biso   1.000  H
  C675     1.0000 0.83518  0.19673  0.15429  Biso   1.000  C
  H532     1.0000 0.85059  0.18142  0.32715  Biso   1.000  H
  H533     1.0000 0.85052  0.18142  0.32715  Biso   1.000  H
  C676     1.0000 0.00977  0.86423  0.67965  Biso   1.000  C
  H534     1.0000 0.93347  0.82303  0.73755  Biso   1.000  H
  H535     1.0000 0.03559  0.91972  0.99743  Biso   1.000  H
  C677     1.0000 0.07108  0.91980  0.83542  Biso   1.000  C
  H536     1.0000 0.03556  0.91972  0.99743  Biso   1.000  H
  C678     1.0000 0.07106  0.91984  0.83542  Biso   1.000  C
  H537     1.0000 0.79117  0.60302  0.18011  Biso   1.000  H
  C679     1.0000 0.03927  0.92720  0.27642  Biso   1.000  C
  C680     1.0000 0.03929  0.92724  0.27642  Biso   1.000  C
  C681     1.0000 0.05407  0.01823  0.27964  Biso   1.000  C
  C682     1.0000 0.07276  0.11203  0.27642  Biso   1.000  C
  C683     1.0000 0.07273  0.11203  0.27642  Biso   1.000  C
  C684     1.0000 0.09507  0.12403  0.91720  Biso   1.000  C
  C685     1.0000 0.10064  0.16163  0.71522  Biso   1.000  C
  C686     1.0000 0.06567  0.32572  0.26264  Biso   1.000  C
  H538     1.0000 0.04113  0.35972  0.13977  Biso   1.000  H
  H539     1.0000 0.07466  0.27363  0.37034  Biso   1.000  H
  H540     1.0000 0.81187  0.20880  0.18011  Biso   1.000  H
  H541     1.0000 0.81183  0.20884  0.18011  Biso   1.000  H
  C687     1.0000 0.99877  0.83744  0.55909  Biso   1.000  C
  C688     1.0000 0.06098  0.89934  0.71522  Biso   1.000  C
  C689     1.0000 0.12579  0.95471  0.87199  Biso   1.000  C
  C690     1.0000 0.12577  0.95475  0.87199  Biso   1.000  C
  N56      1.0000 0.01088  0.87852  0.26447  Biso   1.000  N
  H542     1.0000 0.07637  0.94121  0.28414  Biso   1.000  H
  N57      1.0000 0.01085  0.87852  0.26447  Biso   1.000  N
  H543     1.0000 0.09104  0.03102  0.27982  Biso   1.000  H
  N58      1.0000 0.12147  0.13234  0.26447  Biso   1.000  N
  H544     1.0000 0.05876  0.13511  0.28414  Biso   1.000  H
  H545     1.0000 0.05878  0.13515  0.28414  Biso   1.000  H
  C691     1.0000 0.13118  0.10911  0.88256  Biso   1.000  C
  H546     1.0000 0.08025  0.11583  0.99743  Biso   1.000  H
  C692     1.0000 0.13116  0.10915  0.88256  Biso   1.000  C
  C693     1.0000 0.13574  0.14552  0.67965  Biso   1.000  C
  H547     1.0000 0.09049  0.17963  0.65879  Biso   1.000  H
  H548     1.0000 0.09042  0.17963  0.65879  Biso   1.000  H
  H549     1.0000 0.08277  0.35532  0.31584  Biso   1.000  H
  N59      1.0000 0.03618  0.84282  0.48824  Biso   1.000  N
  N60      1.0000 0.03615  0.84282  0.48824  Biso   1.000  N
  H550     1.0000 0.96309  0.81563  0.53373  Biso   1.000  H
  H551     1.0000 0.96305  0.81563  0.53373  Biso   1.000  H
  H552     1.0000 0.08917  0.90951  0.65879  Biso   1.000  H
  H553     1.0000 0.08919  0.90955  0.65879  Biso   1.000  H
  N61      1.0000 0.14139  0.96563  0.98447  Biso   1.000  N
  H554     1.0000 0.15168  0.97050  0.80904  Biso   1.000  H
  N62      1.0000 0.14136  0.96563  0.98447  Biso   1.000  N
  H555     1.0000 0.15166  0.97054  0.80904  Biso   1.000  H
  C694     1.0000 0.03818  0.84813  0.26365  Biso   1.000  C
  C695     1.0000 0.03815  0.84813  0.26365  Biso   1.000  C
  C696     1.0000 0.15188  0.19000  0.26365  Biso   1.000  C
  C697     1.0000 0.15183  0.19004  0.26365  Biso   1.000  C
  C698     1.0000 0.15182  0.12031  0.76199  Biso   1.000  C
  C699     1.0000 0.15184  0.12035  0.76199  Biso   1.000  C
  C700     1.0000 0.15191  0.12035  0.76199  Biso   1.000  C
  C701     1.0000 0.14999  0.08421  0.97023  Biso   1.000  C
  C702     1.0000 0.14994  0.08425  0.97023  Biso   1.000  C
  C703     1.0000 0.15001  0.08425  0.97023  Biso   1.000  C
  C704     1.0000 0.16256  0.16131  0.55909  Biso   1.000  C
  C705     1.0000 0.16258  0.16135  0.55909  Biso   1.000  C
  C706     1.0000 0.01987  0.81013  0.37631  Biso   1.000  C
  C707     1.0000 0.19885  0.00213  0.00395  Biso   1.000  C
  H556     1.0000 0.07717  0.87282  0.26879  Biso   1.000  H
  C708     1.0000 0.02567  0.81611  0.14666  Biso   1.000  C
  C709     1.0000 0.02566  0.81615  0.14666  Biso   1.000  C
  C710     1.0000 0.18984  0.20971  0.37631  Biso   1.000  C
  C711     1.0000 0.18385  0.20952  0.14666  Biso   1.000  C
  H557     1.0000 0.12714  0.20433  0.26879  Biso   1.000  H
  H558     1.0000 0.17697  0.11041  0.73755  Biso   1.000  H
  H559     1.0000 0.17699  0.11045  0.73755  Biso   1.000  H
  N63      1.0000 0.18705  0.07614  0.95065  Biso   1.000  N
  H560     1.0000 0.13255  0.07360  0.04742  Biso   1.000  H
  H561     1.0000 0.13257  0.07364  0.04742  Biso   1.000  H
  N64      1.0000 0.15714  0.19333  0.48824  Biso   1.000  N
  H562     1.0000 0.18437  0.14742  0.53373  Biso   1.000  H
  H563     1.0000 0.98047  0.78714  0.37502  Biso   1.000  H
  C712     1.0000 0.04538  0.77621  0.36988  Biso   1.000  C
  C713     1.0000 0.04537  0.77625  0.36988  Biso   1.000  C
  C714     1.0000 0.20386  0.05382  0.04935  Biso   1.000  C
  C715     1.0000 0.21788  0.97664  0.09787  Biso   1.000  C
  H564     1.0000 0.21849  0.00802  0.92474  Biso   1.000  H
  H565     1.0000 0.21842  0.00802  0.92474  Biso   1.000  H
  C716     1.0000 0.97758  0.78251  0.11294  Biso   1.000  C
  C717     1.0000 0.97756  0.78254  0.11294  Biso   1.000  C
  C718     1.0000 0.07199  0.82244  0.07581  Biso   1.000  C
  C719     1.0000 0.07196  0.82244  0.07581  Biso   1.000  C
  H566     1.0000 0.21284  0.19333  0.37502  Biso   1.000  H
  C720     1.0000 0.22373  0.26912  0.36988  Biso   1.000  C
  C721     1.0000 0.21746  0.19503  0.11294  Biso   1.000  C
  C722     1.0000 0.17757  0.24953  0.07581  Biso   1.000  C
  C723     1.0000 0.01640  0.72373  0.33836  Biso   1.000  C
  C724     1.0000 0.09869  0.79762  0.38734  Biso   1.000  C
  C725     1.0000 0.01636  0.72373  0.33836  Biso   1.000  C
  C726     1.0000 0.09866  0.79762  0.38734  Biso   1.000  C
  H567     1.0000 0.18067  0.04673  0.12277  Biso   1.000  H
  C727     1.0000 0.26067  0.09272  0.08372  Biso   1.000  C
  C728     1.0000 0.19437  0.95752  0.20814  Biso   1.000  C
  C729     1.0000 0.26480  0.97573  0.07058  Biso   1.000  C
  C730     1.0000 0.26476  0.97573  0.07058  Biso   1.000  C
  H568     1.0000 0.94787  0.77752  0.15944  Biso   1.000  H
  C731     1.0000 0.97149  0.75353  0.00331  Biso   1.000  C
  C732     1.0000 0.97145  0.75353  0.00331  Biso   1.000  C
  C733     1.0000 0.06737  0.79592  0.97519  Biso   1.000  C
  H569     1.0000 0.10639  0.84674  0.10485  Biso   1.000  H
  C734     1.0000 0.27624  0.29263  0.33836  Biso   1.000  C
  C735     1.0000 0.20239  0.30102  0.38734  Biso   1.000  C
  C736     1.0000 0.20232  0.30102  0.38734  Biso   1.000  C
  H570     1.0000 0.22246  0.17033  0.15944  Biso   1.000  H
  C737     1.0000 0.24645  0.21791  0.00331  Biso   1.000  C
  C738     1.0000 0.24647  0.21795  0.00331  Biso   1.000  C
  C739     1.0000 0.20404  0.27142  0.97519  Biso   1.000  C
  H571     1.0000 0.15324  0.25962  0.10485  Biso   1.000  H
  H572     1.0000 0.97918  0.70762  0.32779  Biso   1.000  H
  C740     1.0000 0.03969  0.69531  0.32255  Biso   1.000  C
  C741     1.0000 0.03965  0.69531  0.32255  Biso   1.000  C
  C742     1.0000 0.12159  0.76663  0.36804  Biso   1.000  C
  H573     1.0000 0.11977  0.83340  0.41242  Biso   1.000  H
  C743     1.0000 0.12155  0.76663  0.36804  Biso   1.000  C
  H574     1.0000 0.11975  0.83344  0.41242  Biso   1.000  H
  C744     1.0000 0.29676  0.11671  0.99375  Biso   1.000  C
  C745     1.0000 0.29678  0.11674  0.99375  Biso   1.000  C
  C746     1.0000 0.27416  0.10202  0.20640  Biso   1.000  C
  H575     1.0000 0.16289  0.95804  0.22817  Biso   1.000  H
  C747     1.0000 0.21528  0.93722  0.29232  Biso   1.000  C
  H576     1.0000 0.16286  0.95804  0.22817  Biso   1.000  H
  H577     1.0000 0.28189  0.98831  0.99357  Biso   1.000  H
  H578     1.0000 0.28187  0.98835  0.99357  Biso   1.000  H
  C748     1.0000 0.28550  0.95653  0.15585  Biso   1.000  C
  C749     1.0000 0.28546  0.95653  0.15585  Biso   1.000  C
  H579     1.0000 0.93647  0.72991  0.97592  Biso   1.000  H
  H580     1.0000 0.93649  0.72994  0.97592  Biso   1.000  H
  C750     1.0000 0.00857  0.75682  0.94064  Biso   1.000  C
  H581     1.0000 0.09657  0.80004  0.92832  Biso   1.000  H
  C751     1.0000 0.30465  0.34432  0.32255  Biso   1.000  C
  H582     1.0000 0.29239  0.27154  0.32779  Biso   1.000  H
  H583     1.0000 0.29232  0.27154  0.32779  Biso   1.000  H
  C752     1.0000 0.23335  0.35493  0.36804  Biso   1.000  C
  H584     1.0000 0.16660  0.28634  0.41242  Biso   1.000  H
  H585     1.0000 0.16656  0.28634  0.41242  Biso   1.000  H
  H586     1.0000 0.27002  0.20651  0.97592  Biso   1.000  H
  C753     1.0000 0.24313  0.25171  0.94064  Biso   1.000  C
  H587     1.0000 0.27004  0.20655  0.97592  Biso   1.000  H
  C754     1.0000 0.24315  0.25175  0.94064  Biso   1.000  C
  H588     1.0000 0.27008  0.20655  0.97592  Biso   1.000  H
  C755     1.0000 0.24322  0.25175  0.94064  Biso   1.000  C
  H589     1.0000 0.19996  0.29651  0.92832  Biso   1.000  H
  H590     1.0000 0.19998  0.29655  0.92832  Biso   1.000  H
  H591     1.0000 0.01828  0.65942  0.29829  Biso   1.000  H
  C756     1.0000 0.09187  0.71372  0.33845  Biso   1.000  C
  H592     1.0000 0.01824  0.65942  0.29829  Biso   1.000  H
  H593     1.0000 0.15887  0.78231  0.37539  Biso   1.000  H
  H594     1.0000 0.15889  0.78235  0.37539  Biso   1.000  H
  H595     1.0000 0.28764  0.10792  0.90985  Biso   1.000  H
  C757     1.0000 0.35075  0.15704  0.02996  Biso   1.000  C
  C758     1.0000 0.35072  0.15704  0.02996  Biso   1.000  C
  H596     1.0000 0.24853  0.08132  0.26686  Biso   1.000  H
  C759     1.0000 0.32325  0.14014  0.24288  Biso   1.000  C
  C760     1.0000 0.32332  0.14014  0.24288  Biso   1.000  C
  H597     1.0000 0.19897  0.92530  0.37034  Biso   1.000  H
  C761     1.0000 0.26007  0.93433  0.26264  Biso   1.000  C
  H598     1.0000 0.19899  0.92534  0.37034  Biso   1.000  H
  H599     1.0000 0.31859  0.95883  0.13977  Biso   1.000  H
  H600     1.0000 0.31856  0.95883  0.13977  Biso   1.000  H
  H601     1.0000 0.00088  0.73493  0.87015  Biso   1.000  H
  H602     1.0000 0.00085  0.73493  0.87015  Biso   1.000  H
  H603     1.0000 0.34059  0.35881  0.29829  Biso   1.000  H
  C762     1.0000 0.28628  0.37812  0.33845  Biso   1.000  C
  H604     1.0000 0.34054  0.35885  0.29829  Biso   1.000  H
  C763     1.0000 0.28622  0.37812  0.33845  Biso   1.000  C
  H605     1.0000 0.21766  0.37654  0.37539  Biso   1.000  H
  H606     1.0000 0.21763  0.37654  0.37539  Biso   1.000  H
  H607     1.0000 0.26507  0.26592  0.87015  Biso   1.000  H
  H608     1.0000 0.10718  0.69183  0.32972  Biso   1.000  H
  H609     1.0000 0.10715  0.69183  0.32972  Biso   1.000  H
  H610     1.0000 0.37718  0.17690  0.97032  Biso   1.000  H
  H611     1.0000 0.37713  0.17694  0.97032  Biso   1.000  H
  C764     1.0000 0.36158  0.16483  0.15429  Biso   1.000  C
  H612     1.0000 0.33088  0.14944  0.32715  Biso   1.000  H
  H613     1.0000 0.27257  0.91723  0.31584  Biso   1.000  H
  H614     1.0000 0.30818  0.41532  0.32972  Biso   1.000  H
  H615     1.0000 0.39693  0.18810  0.18011  Biso   1.000  H
  H616     1.0000 0.39695  0.18814  0.18011  Biso   1.000  H
  C765     1.0000 0.68411  0.82371  0.69656  Biso   1.000  C
  C766     1.0000 0.63010  0.78342  0.66036  Biso   1.000  C
  C767     1.0000 0.69489  0.83150  0.82099  Biso   1.000  C
  H617     1.0000 0.71051  0.84361  0.63702  Biso   1.000  H
  C768     1.0000 0.59399  0.75939  0.75041  Biso   1.000  C
  H618     1.0000 0.62099  0.77459  0.57646  Biso   1.000  H
  C769     1.0000 0.65660  0.80681  0.90948  Biso   1.000  C
  H619     1.0000 0.73030  0.85481  0.84681  Biso   1.000  H
  C770     1.0000 0.53721  0.72049  0.71604  Biso   1.000  C
  C771     1.0000 0.60748  0.76869  0.87309  Biso   1.000  C
  H620     1.0000 0.66420  0.81611  0.99384  Biso   1.000  H
  C772     1.0000 0.53220  0.66880  0.67056  Biso   1.000  C
  N65      1.0000 0.52040  0.74281  0.61726  Biso   1.000  N
  H621     1.0000 0.51399  0.71340  0.78938  Biso   1.000  H
  H622     1.0000 0.58188  0.74799  0.93347  Biso   1.000  H
  N66      1.0000 0.47471  0.63230  0.65108  Biso   1.000  N
  H623     1.0000 0.55181  0.67469  0.59144  Biso   1.000  H
  C773     1.0000 0.55120  0.64331  0.76447  Biso   1.000  C
  C774     1.0000 0.48331  0.75088  0.63692  Biso   1.000  C
  C775     1.0000 0.45911  0.62138  0.53869  Biso   1.000  C
  C776     1.0000 0.52769  0.62419  0.87484  Biso   1.000  C
  C777     1.0000 0.59811  0.64240  0.73718  Biso   1.000  C
  C778     1.0000 0.46451  0.77582  0.54916  Biso   1.000  C
  H624     1.0000 0.46592  0.74031  0.71412  Biso   1.000  H
  C779     1.0000 0.40441  0.58651  0.50211  Biso   1.000  C
  H625     1.0000 0.48502  0.63721  0.47574  Biso   1.000  H
  H626     1.0000 0.49621  0.62471  0.89478  Biso   1.000  H
  C780     1.0000 0.54859  0.60389  0.95901  Biso   1.000  C
  C781     1.0000 0.61882  0.62320  0.82246  Biso   1.000  C
  H627     1.0000 0.61520  0.65498  0.66017  Biso   1.000  H
  C782     1.0000 0.48520  0.78702  0.42869  Biso   1.000  C
  C783     1.0000 0.42839  0.79070  0.58390  Biso   1.000  C
  C784     1.0000 0.39430  0.56601  0.38192  Biso   1.000  C
  C785     1.0000 0.36230  0.57159  0.58390  Biso   1.000  C
  C786     1.0000 0.59339  0.60100  0.92933  Biso   1.000  C
  H628     1.0000 0.53231  0.59201  0.03703  Biso   1.000  H
  H629     1.0000 0.65191  0.62550  0.80638  Biso   1.000  H
  C787     1.0000 0.46909  0.81219  0.34626  Biso   1.000  C
  H630     1.0000 0.51029  0.77708  0.40425  Biso   1.000  H
  H631     1.0000 0.41360  0.78251  0.66412  Biso   1.000  H
  C788     1.0000 0.41350  0.81789  0.50211  Biso   1.000  C
  C789     1.0000 0.34309  0.53090  0.34626  Biso   1.000  C
  H632     1.0000 0.42249  0.57618  0.32549  Biso   1.000  H
  C790     1.0000 0.31131  0.53550  0.54916  Biso   1.000  C
  H633     1.0000 0.36891  0.58639  0.66412  Biso   1.000  H
  H634     1.0000 0.60588  0.58390  0.98254  Biso   1.000  H
  C791     1.0000 0.49588  0.82798  0.22579  Biso   1.000  C
  C792     1.0000 0.43399  0.82830  0.38192  Biso   1.000  C
  C793     1.0000 0.37862  0.83772  0.53869  Biso   1.000  C
  C794     1.0000 0.33209  0.50411  0.22579  Biso   1.000  C
  C795     1.0000 0.30179  0.51480  0.42869  Biso   1.000  C
  C796     1.0000 0.26760  0.51670  0.63692  Biso   1.000  C
  N67      1.0000 0.49050  0.86000  0.15493  Biso   1.000  N
  H635     1.0000 0.51769  0.81409  0.20042  Biso   1.000  H
  H636     1.0000 0.42380  0.84631  0.32549  Biso   1.000  H
  N68      1.0000 0.36769  0.84239  0.65108  Biso   1.000  N
  H637     1.0000 0.36279  0.84781  0.47574  Biso   1.000  H
  N69      1.0000 0.36950  0.50949  0.15493  Biso   1.000  N
  H638     1.0000 0.29640  0.48230  0.20042  Biso   1.000  H
  H639     1.0000 0.26679  0.48970  0.40425  Biso   1.000  H
  N70      1.0000 0.22239  0.47961  0.61726  Biso   1.000  N
  H640     1.0000 0.27439  0.53411  0.71412  Biso   1.000  H
  C797     1.0000 0.52320  0.87639  0.04301  Biso   1.000  C
  C798     1.0000 0.33120  0.86340  0.67056  Biso   1.000  C
  C799     1.0000 0.35319  0.47680  0.04301  Biso   1.000  C
  C800     1.0000 0.18331  0.46279  0.71604  Biso   1.000  C
  C801     1.0000 0.48522  0.85671  0.93034  Biso   1.000  C
  H641     1.0000 0.54620  0.86000  0.04172  Biso   1.000  H
  C802     1.0000 0.55708  0.93579  0.03648  Biso   1.000  C
  C803     1.0000 0.27951  0.81670  0.71604  Biso   1.000  C
  H642     1.0000 0.32530  0.87710  0.59144  Biso   1.000  H
  C804     1.0000 0.35670  0.90789  0.76447  Biso   1.000  C
  C805     1.0000 0.37870  0.44288  0.03648  Biso   1.000  C
  H643     1.0000 0.31379  0.45381  0.04172  Biso   1.000  H
  C806     1.0000 0.37150  0.51480  0.93034  Biso   1.000  C
  C807     1.0000 0.13660  0.46782  0.67056  Biso   1.000  C
  H644     1.0000 0.19939  0.48598  0.78938  Biso   1.000  H
  C808     1.0000 0.16540  0.40600  0.75041  Biso   1.000  C
  N71      1.0000 0.45479  0.79901  0.93108  Biso   1.000  N
  H645     1.0000 0.46049  0.87100  0.93549  Biso   1.000  H
  C809     1.0000 0.51720  0.87619  0.81327  Biso   1.000  C
  C810     1.0000 0.60959  0.95930  0.00496  Biso   1.000  C
  C811     1.0000 0.53571  0.96769  0.05403  Biso   1.000  C
  N72      1.0000 0.25721  0.77760  0.61726  Biso   1.000  N
  H646     1.0000 0.28660  0.80059  0.78938  Biso   1.000  H
  C812     1.0000 0.24060  0.83459  0.75041  Biso   1.000  C
  C813     1.0000 0.37579  0.90350  0.87484  Biso   1.000  C
  C814     1.0000 0.35761  0.95570  0.73718  Biso   1.000  C
  C815     1.0000 0.34972  0.39040  0.00496  Biso   1.000  C
  C816     1.0000 0.43201  0.46429  0.05403  Biso   1.000  C
  N73      1.0000 0.34420  0.54519  0.93108  Biso   1.000  N
  H647     1.0000 0.41048  0.53949  0.93549  Biso   1.000  H
  C817     1.0000 0.35901  0.48282  0.81327  Biso   1.000  C
  N74      1.0000 0.15759  0.52528  0.65108  Biso   1.000  N
  H648     1.0000 0.12288  0.44819  0.59144  Biso   1.000  H
  C818     1.0000 0.09210  0.44882  0.76447  Biso   1.000  C
  C819     1.0000 0.16119  0.39250  0.87309  Biso   1.000  C
  C820     1.0000 0.15331  0.36990  0.66036  Biso   1.000  C
  C821     1.0000 0.40611  0.77871  0.94312  Biso   1.000  C
  C822     1.0000 0.55082  0.86170  0.77964  Biso   1.000  C
  C823     1.0000 0.51089  0.91620  0.74251  Biso   1.000  C
  H649     1.0000 0.62571  0.93821  0.99449  Biso   1.000  H
  C824     1.0000 0.63797  0.01099  0.98916  Biso   1.000  C
  H650     1.0000 0.49991  0.95301  0.07912  Biso   1.000  H
  C825     1.0000 0.56670  0.02160  0.03474  Biso   1.000  C
  C826     1.0000 0.24911  0.73240  0.63692  Biso   1.000  C
  C827     1.0000 0.23129  0.83879  0.87309  Biso   1.000  C
  C828     1.0000 0.21660  0.84670  0.66036  Biso   1.000  C
  H651     1.0000 0.37530  0.87152  0.89478  Biso   1.000  H
  C829     1.0000 0.39608  0.94470  0.95901  Biso   1.000  C
  C830     1.0000 0.37680  0.99560  0.82246  Biso   1.000  C
  H652     1.0000 0.34499  0.96021  0.66017  Biso   1.000  H
  H653     1.0000 0.31249  0.37429  0.99449  Biso   1.000  H
  C831     1.0000 0.37301  0.36198  0.98916  Biso   1.000  C
  C832     1.0000 0.45490  0.43330  0.03474  Biso   1.000  C
  H654     1.0000 0.45311  0.50011  0.07912  Biso   1.000  H
  C833     1.0000 0.37260  0.59391  0.94312  Biso   1.000  C
  C834     1.0000 0.31091  0.44922  0.77964  Biso   1.000  C
  C835     1.0000 0.40531  0.48911  0.74251  Biso   1.000  C
  C836     1.0000 0.16232  0.54092  0.53869  Biso   1.000  C
  C837     1.0000 0.09650  0.47229  0.87484  Biso   1.000  C
  C838     1.0000 0.04432  0.40192  0.73718  Biso   1.000  C
  H655     1.0000 0.16611  0.41811  0.93347  Biso   1.000  H
  C839     1.0000 0.15020  0.34338  0.90948  Biso   1.000  C
  C840     1.0000 0.13962  0.31591  0.69656  Biso   1.000  C
  H656     1.0000 0.15361  0.37900  0.57646  Biso   1.000  H
  C841     1.0000 0.36829  0.72068  0.94606  Biso   1.000  C
  H657     1.0000 0.39210  0.80182  0.95084  Biso   1.000  H
  H658     1.0000 0.55581  0.83700  0.82613  Biso   1.000  H
  C842     1.0000 0.57982  0.88462  0.67001  Biso   1.000  C
  C843     1.0000 0.53739  0.93809  0.64189  Biso   1.000  C
  H659     1.0000 0.48659  0.92629  0.77146  Biso   1.000  H
  H660     1.0000 0.67392  0.02552  0.96499  Biso   1.000  H
  C844     1.0000 0.61960  0.04479  0.00505  Biso   1.000  C
  H661     1.0000 0.55101  0.04321  0.04209  Biso   1.000  H
  C845     1.0000 0.22421  0.68870  0.54916  Biso   1.000  C
  H662     1.0000 0.25969  0.72559  0.71412  Biso   1.000  H
  H663     1.0000 0.25202  0.83392  0.93347  Biso   1.000  H
  C846     1.0000 0.19319  0.84979  0.90948  Biso   1.000  C
  C847     1.0000 0.17628  0.86040  0.69656  Biso   1.000  C
  H664     1.0000 0.22539  0.84638  0.57646  Biso   1.000  H
  C848     1.0000 0.39899  0.99239  0.92933  Biso   1.000  C
  H665     1.0000 0.40801  0.94030  0.03703  Biso   1.000  H
  H666     1.0000 0.37444  0.02639  0.80638  Biso   1.000  H
  C849     1.0000 0.42519  0.38039  0.00505  Biso   1.000  C
  H667     1.0000 0.35160  0.32609  0.96499  Biso   1.000  H
  H668     1.0000 0.49220  0.44902  0.04209  Biso   1.000  H
  C850     1.0000 0.35239  0.63171  0.94606  Biso   1.000  C
  H669     1.0000 0.40968  0.60789  0.95084  Biso   1.000  H
  H670     1.0000 0.28119  0.44419  0.82613  Biso   1.000  H
  C851     1.0000 0.30481  0.42020  0.67001  Biso   1.000  C
  C852     1.0000 0.40069  0.46259  0.64189  Biso   1.000  C
  H671     1.0000 0.43970  0.51341  0.77146  Biso   1.000  H
  C853     1.0000 0.18209  0.59562  0.50211  Biso   1.000  C
  H672     1.0000 0.15220  0.51499  0.47574  Biso   1.000  H
  H673     1.0000 0.12850  0.50379  0.89478  Biso   1.000  H
  C854     1.0000 0.05531  0.45139  0.95901  Biso   1.000  C
  C855     1.0000 0.00442  0.38122  0.82246  Biso   1.000  C
  H674     1.0000 0.03979  0.38478  0.66017  Biso   1.000  H
  H675     1.0000 0.15188  0.33578  0.99384  Biso   1.000  H
  C856     1.0000 0.13662  0.30511  0.82099  Biso   1.000  C
  H676     1.0000 0.13310  0.28952  0.63702  Biso   1.000  H
  C857     1.0000 0.38739  0.68490  0.94633  Biso   1.000  C
  C858     1.0000 0.31510  0.70252  0.94633  Biso   1.000  C
  H677     1.0000 0.60340  0.87322  0.64262  Biso   1.000  H
  C859     1.0000 0.57650  0.91842  0.60733  Biso   1.000  C
  H678     1.0000 0.53328  0.96318  0.59502  Biso   1.000  H
  H679     1.0000 0.64149  0.08199  0.99642  Biso   1.000  H
  C860     1.0000 0.20930  0.63769  0.58390  Biso   1.000  C
  C861     1.0000 0.21299  0.69820  0.42869  Biso   1.000  C
  H680     1.0000 0.18391  0.84809  0.99384  Biso   1.000  H
  C862     1.0000 0.16850  0.86340  0.82099  Biso   1.000  C
  H681     1.0000 0.15639  0.86689  0.63702  Biso   1.000  H
  H682     1.0000 0.41609  0.02199  0.98254  Biso   1.000  H
  H683     1.0000 0.44050  0.35850  0.99642  Biso   1.000  H
  C863     1.0000 0.29749  0.61259  0.94633  Biso   1.000  C
  H684     1.0000 0.26981  0.39662  0.64262  Biso   1.000  H
  C864     1.0000 0.34189  0.42349  0.60733  Biso   1.000  C
  H685     1.0000 0.42989  0.46671  0.59502  Biso   1.000  H
  C865     1.0000 0.17171  0.60571  0.38192  Biso   1.000  C
  C866     1.0000 0.00758  0.40659  0.92933  Biso   1.000  C
  H686     1.0000 0.05969  0.46770  0.03703  Biso   1.000  H
  H687     1.0000 0.97360  0.34809  0.80638  Biso   1.000  H
  H688     1.0000 0.12449  0.26969  0.84681  Biso   1.000  H
  H689     1.0000 0.42439  0.69769  0.94652  Biso   1.000  H
  C867     1.0000 0.27930  0.64758  0.94606  Biso   1.000  C
  H690     1.0000 0.30230  0.72670  0.94652  Biso   1.000  H
  H691     1.0000 0.59839  0.93259  0.53676  Biso   1.000  H
  H692     1.0000 0.21750  0.63112  0.66412  Biso   1.000  H
  C868     1.0000 0.18781  0.65688  0.34626  Biso   1.000  C
  H693     1.0000 0.22291  0.73319  0.40425  Biso   1.000  H
  H694     1.0000 0.14521  0.87551  0.84681  Biso   1.000  H
  H695     1.0000 0.27330  0.57559  0.94652  Biso   1.000  H
  H696     1.0000 0.33420  0.40160  0.53676  Biso   1.000  H
  H697     1.0000 0.15370  0.57749  0.32549  Biso   1.000  H
  H698     1.0000 0.97798  0.39408  0.98254  Biso   1.000  H
  C869     1.0000 0.22129  0.62740  0.94312  Biso   1.000  C
  C870     1.0000 0.17199  0.66789  0.22579  Biso   1.000  C
  N75      1.0000 0.20102  0.65581  0.93108  Biso   1.000  N
  H699     1.0000 0.19819  0.59031  0.95084  Biso   1.000  H
  N76      1.0000 0.13999  0.63048  0.15493  Biso   1.000  N
  H700     1.0000 0.18590  0.70359  0.20042  Biso   1.000  H
  C871     1.0000 0.14332  0.62851  0.93034  Biso   1.000  C
  C872     1.0000 0.12360  0.64679  0.04301  Biso   1.000  C
  H701     1.0000 0.12898  0.58948  0.93549  Biso   1.000  H
  C873     1.0000 0.12380  0.64101  0.81327  Biso   1.000  C
  H702     1.0000 0.14002  0.68621  0.04172  Biso   1.000  H
  C874     1.0000 0.06421  0.62130  0.03648  Biso   1.000  C
  C875     1.0000 0.13831  0.68910  0.77964  Biso   1.000  C
  C876     1.0000 0.08381  0.59471  0.74251  Biso   1.000  C
  C877     1.0000 0.04070  0.65031  0.00496  Biso   1.000  C
  C878     1.0000 0.03231  0.56799  0.05403  Biso   1.000  C
  H703     1.0000 0.16299  0.71878  0.82613  Biso   1.000  H
  C879     1.0000 0.11541  0.69520  0.67001  Biso   1.000  C
  C880     1.0000 0.06191  0.59930  0.64189  Biso   1.000  C
  H704     1.0000 0.07371  0.56031  0.77146  Biso   1.000  H
  C881     1.0000 0.98901  0.62700  0.98916  Biso   1.000  C
  H705     1.0000 0.06180  0.68752  0.99449  Biso   1.000  H
  H706     1.0000 0.04699  0.54689  0.07912  Biso   1.000  H
  C882     1.0000 0.97840  0.54511  0.03474  Biso   1.000  C
  H707     1.0000 0.12680  0.73018  0.64262  Biso   1.000  H
  C883     1.0000 0.08162  0.65811  0.60733  Biso   1.000  C
  H708     1.0000 0.03678  0.57009  0.59502  Biso   1.000  H
  H709     1.0000 0.97452  0.64841  0.96499  Biso   1.000  H
  C884     1.0000 0.95520  0.57480  0.00505  Biso   1.000  C
  H710     1.0000 0.95679  0.50779  0.04209  Biso   1.000  H
  H711     1.0000 0.06739  0.66579  0.53676  Biso   1.000  H
  H712     1.0000 0.91799  0.55948  0.99642  Biso   1.000  H
  C885     1.0000 0.73234  0.65906  0.59594  Biso   1.000  C
  C886     1.0000 0.72944  0.61137  0.62571  Biso   1.000  C
  C887     1.0000 0.71012  0.66227  0.48916  Biso   1.000  C
  H713     1.0000 0.74944  0.68866  0.64915  Biso   1.000  H
  C888     1.0000 0.70915  0.57017  0.54144  Biso   1.000  C
  H714     1.0000 0.74133  0.60697  0.70364  Biso   1.000  H
  C889     1.0000 0.69093  0.62237  0.40388  Biso   1.000  C
  H715     1.0000 0.70783  0.69306  0.47307  Biso   1.000  H
  C890     1.0000 0.69002  0.57456  0.43117  Biso   1.000  C
  H716     1.0000 0.70863  0.53815  0.56148  Biso   1.000  H
  H717     1.0000 0.67834  0.62688  0.32687  Biso   1.000  H
  C891     1.0000 0.66452  0.53007  0.33725  Biso   1.000  C
  C892     1.0000 0.61283  0.48337  0.38265  Biso   1.000  C
  N77      1.0000 0.70104  0.50906  0.31777  Biso   1.000  N
  H718     1.0000 0.65862  0.54377  0.25804  Biso   1.000  H
  N78      1.0000 0.59053  0.44427  0.28396  Biso   1.000  N
  H719     1.0000 0.61992  0.46726  0.45607  Biso   1.000  H
  C893     1.0000 0.57392  0.50126  0.41711  Biso   1.000  C
  C894     1.0000 0.71192  0.50435  0.20539  Biso   1.000  C
  C895     1.0000 0.58243  0.39907  0.30353  Biso   1.000  C
  C896     1.0000 0.56464  0.50546  0.53979  Biso   1.000  C
  C897     1.0000 0.54995  0.51337  0.32705  Biso   1.000  C
  C898     1.0000 0.74682  0.48456  0.16881  Biso   1.000  C
  H720     1.0000 0.69614  0.51448  0.14235  Biso   1.000  H
  C899     1.0000 0.55753  0.35537  0.21586  Biso   1.000  C
  H721     1.0000 0.59305  0.39226  0.38081  Biso   1.000  H
  H722     1.0000 0.58532  0.50055  0.60017  Biso   1.000  H
  C900     1.0000 0.52654  0.51646  0.57618  Biso   1.000  C
  C901     1.0000 0.50963  0.52707  0.36326  Biso   1.000  C
  H723     1.0000 0.55874  0.51306  0.24315  Biso   1.000  H
  C902     1.0000 0.76174  0.45737  0.25060  Biso   1.000  C
  C903     1.0000 0.76735  0.49497  0.04861  Biso   1.000  C
  C904     1.0000 0.54634  0.36487  0.09539  Biso   1.000  C
  C905     1.0000 0.54262  0.30436  0.25060  Biso   1.000  C
  H724     1.0000 0.51722  0.51476  0.66045  Biso   1.000  H
  C906     1.0000 0.50185  0.53007  0.48769  Biso   1.000  C
  H725     1.0000 0.48974  0.53356  0.30371  Biso   1.000  H
  C907     1.0000 0.79781  0.44245  0.21586  Biso   1.000  C
  H726     1.0000 0.74695  0.44918  0.33073  Biso   1.000  H
  C908     1.0000 0.80245  0.47886  0.01296  Biso   1.000  C
  H727     1.0000 0.75712  0.51298  0.99219  Biso   1.000  H
  C909     1.0000 0.52113  0.32355  0.01296  Biso   1.000  C
  H728     1.0000 0.55623  0.39986  0.07085  Biso   1.000  H
  C910     1.0000 0.51544  0.26229  0.16881  Biso   1.000  C
  H729     1.0000 0.55083  0.29775  0.33073  Biso   1.000  H
  H730     1.0000 0.47853  0.54218  0.51351  Biso   1.000  H
  C911     1.0000 0.81853  0.45365  0.09539  Biso   1.000  C
  C912     1.0000 0.81663  0.41755  0.30353  Biso   1.000  C
  C913     1.0000 0.82923  0.49465  0.89248  Biso   1.000  C
  C914     1.0000 0.50503  0.27238  0.04861  Biso   1.000  C
  C915     1.0000 0.50534  0.33456  0.89248  Biso   1.000  C
  C916     1.0000 0.49562  0.20755  0.20539  Biso   1.000  C
  H731     1.0000 0.84364  0.44375  0.07085  Biso   1.000  H
  H732     1.0000 0.79924  0.40698  0.38081  Biso   1.000  H
  N79      1.0000 0.85375  0.40948  0.28396  Biso   1.000  N
  N80      1.0000 0.82385  0.52667  0.82154  Biso   1.000  N
  H733     1.0000 0.85104  0.48076  0.86703  Biso   1.000  H
  H734     1.0000 0.48702  0.24416  0.99219  Biso   1.000  H
  N81      1.0000 0.47334  0.29715  0.82154  Biso   1.000  N
  H735     1.0000 0.51922  0.37026  0.86703  Biso   1.000  H
  N82      1.0000 0.49094  0.19196  0.31777  Biso   1.000  N
  H736     1.0000 0.48552  0.18166  0.14235  Biso   1.000  H
  C917     1.0000 0.87053  0.38716  0.38265  Biso   1.000  C
  C918     1.0000 0.85651  0.54306  0.70970  Biso   1.000  C
  C919     1.0000 0.45692  0.31346  0.70970  Biso   1.000  C
  C920     1.0000 0.46993  0.13445  0.33725  Biso   1.000  C
  C921     1.0000 0.86552  0.33547  0.33725  Biso   1.000  C
  H737     1.0000 0.84735  0.38007  0.45607  Biso   1.000  H
  C922     1.0000 0.92734  0.42606  0.41711  Biso   1.000  C
  C923     1.0000 0.81854  0.52339  0.59695  Biso   1.000  C
  H738     1.0000 0.87955  0.52667  0.70833  Biso   1.000  H
  C924     1.0000 0.89043  0.60246  0.70318  Biso   1.000  C
  C925     1.0000 0.47664  0.29518  0.59695  Biso   1.000  C
  H739     1.0000 0.47334  0.35288  0.70833  Biso   1.000  H
  C926     1.0000 0.39753  0.28797  0.70318  Biso   1.000  C
  H740     1.0000 0.45623  0.11486  0.25804  Biso   1.000  H
  C927     1.0000 0.51662  0.12946  0.38265  Biso   1.000  C
  C928     1.0000 0.42544  0.11545  0.43117  Biso   1.000  C
  N83      1.0000 0.80803  0.29898  0.31777  Biso   1.000  N
  H741     1.0000 0.88513  0.34136  0.25804  Biso   1.000  H
  C929     1.0000 0.88455  0.30998  0.43117  Biso   1.000  C
  C930     1.0000 0.94083  0.43536  0.53979  Biso   1.000  C
  C931     1.0000 0.96345  0.45009  0.32705  Biso   1.000  C
  N84      1.0000 0.78814  0.46568  0.59778  Biso   1.000  N
  H742     1.0000 0.79384  0.53767  0.60219  Biso   1.000  H
  C932     1.0000 0.85052  0.54286  0.47997  Biso   1.000  C
  C933     1.0000 0.94294  0.62597  0.67166  Biso   1.000  C
  C934     1.0000 0.86902  0.63436  0.72064  Biso   1.000  C
  N85      1.0000 0.53434  0.32249  0.59778  Biso   1.000  N
  H743     1.0000 0.46233  0.25615  0.60219  Biso   1.000  H
  C935     1.0000 0.45715  0.30768  0.47997  Biso   1.000  C
  C936     1.0000 0.37405  0.31698  0.67166  Biso   1.000  C
  C937     1.0000 0.36563  0.23466  0.72064  Biso   1.000  C
  N86      1.0000 0.55575  0.14628  0.28396  Biso   1.000  N
  H744     1.0000 0.53271  0.15265  0.45607  Biso   1.000  H
  C938     1.0000 0.49875  0.07267  0.41711  Biso   1.000  C
  C939     1.0000 0.42982  0.13896  0.54144  Biso   1.000  C
  C940     1.0000 0.37762  0.06855  0.40388  Biso   1.000  C
  C941     1.0000 0.79242  0.28805  0.20539  Biso   1.000  C
  C942     1.0000 0.86104  0.29086  0.54144  Biso   1.000  C
  C943     1.0000 0.93143  0.30907  0.40388  Biso   1.000  C
  H745     1.0000 0.91523  0.41466  0.60017  Biso   1.000  H
  C944     1.0000 0.98995  0.47348  0.57618  Biso   1.000  C
  H746     1.0000 0.95434  0.44126  0.24315  Biso   1.000  H
  C945     1.0000 0.01742  0.49038  0.36326  Biso   1.000  C
  C946     1.0000 0.73943  0.44538  0.60972  Biso   1.000  C
  C947     1.0000 0.88413  0.52837  0.44624  Biso   1.000  C
  C948     1.0000 0.84424  0.58287  0.40921  Biso   1.000  C
  H747     1.0000 0.95903  0.60488  0.66118  Biso   1.000  H
  C949     1.0000 0.97132  0.67766  0.65585  Biso   1.000  C
  C950     1.0000 0.90002  0.68827  0.70134  Biso   1.000  C
  H748     1.0000 0.83323  0.61968  0.74573  Biso   1.000  H
  C951     1.0000 0.55464  0.29407  0.60972  Biso   1.000  C
  C952     1.0000 0.47163  0.35577  0.44624  Biso   1.000  C
  C953     1.0000 0.41713  0.26138  0.40921  Biso   1.000  C
  H749     1.0000 0.39514  0.35415  0.66118  Biso   1.000  H
  C954     1.0000 0.32233  0.29367  0.65585  Biso   1.000  C
  C955     1.0000 0.31175  0.21178  0.70134  Biso   1.000  C
  H750     1.0000 0.38034  0.21357  0.74573  Biso   1.000  H
  C956     1.0000 0.60092  0.18337  0.30353  Biso   1.000  C
  C957     1.0000 0.49454  0.05917  0.53979  Biso   1.000  C
  C958     1.0000 0.48663  0.03657  0.32705  Biso   1.000  C
  H751     1.0000 0.46182  0.17046  0.56148  Biso   1.000  H
  C959     1.0000 0.38863  0.11806  0.62571  Biso   1.000  C
  C960     1.0000 0.33772  0.04785  0.48916  Biso   1.000  C
  H752     1.0000 0.37311  0.05145  0.32687  Biso   1.000  H
  C961     1.0000 0.73773  0.25318  0.16881  Biso   1.000  C
  H753     1.0000 0.81833  0.30388  0.14235  Biso   1.000  H
  H754     1.0000 0.82953  0.29138  0.56148  Biso   1.000  H
  C962     1.0000 0.88195  0.27056  0.62571  Biso   1.000  C
  C963     1.0000 0.95213  0.28987  0.48916  Biso   1.000  C
  H755     1.0000 0.94852  0.32165  0.32687  Biso   1.000  H
  H756     1.0000 0.99755  0.48278  0.66045  Biso   1.000  H
  C964     1.0000 0.02825  0.49817  0.48769  Biso   1.000  C
  H757     1.0000 0.04383  0.51028  0.30371  Biso   1.000  H
  C965     1.0000 0.70161  0.38735  0.61276  Biso   1.000  C
  H758     1.0000 0.72543  0.46845  0.61744  Biso   1.000  H
  H759     1.0000 0.88913  0.50368  0.49274  Biso   1.000  H
  C966     1.0000 0.91312  0.55125  0.33670  Biso   1.000  C
  C967     1.0000 0.87074  0.60476  0.30858  Biso   1.000  C
  H760     1.0000 0.81994  0.59296  0.43815  Biso   1.000  H
  C968     1.0000 0.95292  0.71146  0.67175  Biso   1.000  C
  H761     1.0000 0.00722  0.69215  0.63169  Biso   1.000  H
  H762     1.0000 0.88433  0.70988  0.70879  Biso   1.000  H
  C969     1.0000 0.61262  0.31425  0.61276  Biso   1.000  C
  H763     1.0000 0.53154  0.25698  0.61744  Biso   1.000  H
  H764     1.0000 0.49634  0.38545  0.49274  Biso   1.000  H
  C970     1.0000 0.44873  0.36187  0.33670  Biso   1.000  C
  C971     1.0000 0.39523  0.26597  0.30858  Biso   1.000  C
  H765     1.0000 0.40703  0.22698  0.43815  Biso   1.000  H
  H766     1.0000 0.30784  0.31508  0.63169  Biso   1.000  H
  C972     1.0000 0.28855  0.24147  0.67175  Biso   1.000  C
  H767     1.0000 0.29014  0.17446  0.70879  Biso   1.000  H
  C973     1.0000 0.64463  0.20217  0.21586  Biso   1.000  C
  H768     1.0000 0.60774  0.20078  0.38081  Biso   1.000  H
  H769     1.0000 0.49942  0.08478  0.60017  Biso   1.000  H
  C974     1.0000 0.48352  0.01005  0.57618  Biso   1.000  C
  H770     1.0000 0.48693  0.04567  0.24315  Biso   1.000  H
  C975     1.0000 0.47297  0.98259  0.36326  Biso   1.000  C
  H771     1.0000 0.39305  0.13437  0.70364  Biso   1.000  H
  C976     1.0000 0.34093  0.07326  0.59594  Biso   1.000  C
  H772     1.0000 0.30692  0.01476  0.47307  Biso   1.000  H
  C977     1.0000 0.69562  0.23826  0.25060  Biso   1.000  C
  C978     1.0000 0.72765  0.23268  0.04861  Biso   1.000  C
  H773     1.0000 0.86566  0.25868  0.70364  Biso   1.000  H
  C979     1.0000 0.92674  0.26767  0.59594  Biso   1.000  C
  H774     1.0000 0.98523  0.29217  0.47307  Biso   1.000  H
  H775     1.0000 0.06366  0.52149  0.51351  Biso   1.000  H
  C980     1.0000 0.64843  0.36915  0.61294  Biso   1.000  C
  C981     1.0000 0.72074  0.35158  0.61294  Biso   1.000  C
  H776     1.0000 0.93673  0.53985  0.30923  Biso   1.000  H
  C982     1.0000 0.90983  0.58505  0.27394  Biso   1.000  C
  H777     1.0000 0.86663  0.62985  0.26162  Biso   1.000  H
  H778     1.0000 0.97485  0.74867  0.66302  Biso   1.000  H
  C983     1.0000 0.63084  0.27927  0.61294  Biso   1.000  C
  H779     1.0000 0.46012  0.39685  0.30923  Biso   1.000  H
  C984     1.0000 0.41494  0.32478  0.27394  Biso   1.000  C
  H780     1.0000 0.37014  0.23676  0.26162  Biso   1.000  H
  H781     1.0000 0.25131  0.22615  0.66302  Biso   1.000  H
  C985     1.0000 0.63514  0.18147  0.09539  Biso   1.000  C
  H782     1.0000 0.48524  0.00245  0.66045  Biso   1.000  H
  C986     1.0000 0.46997  0.97178  0.48769  Biso   1.000  C
  H783     1.0000 0.46644  0.95615  0.30371  Biso   1.000  H
  H784     1.0000 0.31134  0.06075  0.64915  Biso   1.000  H
  H785     1.0000 0.70223  0.25306  0.33073  Biso   1.000  H
  C987     1.0000 0.67644  0.19758  0.01296  Biso   1.000  C
  H786     1.0000 0.75584  0.24285  0.99219  Biso   1.000  H
  H787     1.0000 0.93924  0.25057  0.64915  Biso   1.000  H
  H788     1.0000 0.63562  0.39337  0.61312  Biso   1.000  H
  C988     1.0000 0.68575  0.29838  0.61276  Biso   1.000  C
  H789     1.0000 0.75774  0.36436  0.61312  Biso   1.000  H
  H790     1.0000 0.93175  0.59926  0.20346  Biso   1.000  H
  H791     1.0000 0.60661  0.24226  0.61312  Biso   1.000  H
  H792     1.0000 0.40075  0.33246  0.20346  Biso   1.000  H
  H793     1.0000 0.60014  0.15637  0.07085  Biso   1.000  H
  H794     1.0000 0.45788  0.93636  0.51351  Biso   1.000  H
  C989     1.0000 0.66544  0.17078  0.89248  Biso   1.000  C
  C990     1.0000 0.70596  0.26058  0.60972  Biso   1.000  C
  N87      1.0000 0.70282  0.17616  0.82154  Biso   1.000  N
  H795     1.0000 0.62972  0.14897  0.86703  Biso   1.000  H
  N88      1.0000 0.67752  0.21186  0.59778  Biso   1.000  N
  H796     1.0000 0.74304  0.27456  0.61744  Biso   1.000  H
  C991     1.0000 0.68654  0.14347  0.70970  Biso   1.000  C
  C992     1.0000 0.70482  0.18147  0.59695  Biso   1.000  C
  H797     1.0000 0.64714  0.12048  0.70833  Biso   1.000  H
  C993     1.0000 0.71202  0.10955  0.70318  Biso   1.000  C
  H798     1.0000 0.74384  0.20616  0.60219  Biso   1.000  H
  C994     1.0000 0.69231  0.14945  0.47997  Biso   1.000  C
  C995     1.0000 0.68303  0.05707  0.67166  Biso   1.000  C
  C996     1.0000 0.76533  0.13097  0.72064  Biso   1.000  C
  C997     1.0000 0.64423  0.11589  0.44624  Biso   1.000  C
  C998     1.0000 0.73863  0.15578  0.40921  Biso   1.000  C
  H799     1.0000 0.64585  0.04096  0.66118  Biso   1.000  H
  C999     1.0000 0.70632  0.02865  0.65585  Biso   1.000  C
  C1000    1.0000 0.78822  0.09998  0.70134  Biso   1.000  C
  H800     1.0000 0.78643  0.16678  0.74573  Biso   1.000  H
  H801     1.0000 0.61454  0.11086  0.49274  Biso   1.000  H
  C1001    1.0000 0.63812  0.08687  0.33670  Biso   1.000  C
  C1002    1.0000 0.73404  0.12926  0.30858  Biso   1.000  C
  H802     1.0000 0.77306  0.18008  0.43815  Biso   1.000  H
  H803     1.0000 0.68491  0.99276  0.63169  Biso   1.000  H
  C1003    1.0000 0.75854  0.04706  0.67175  Biso   1.000  C
  H804     1.0000 0.82554  0.11565  0.70879  Biso   1.000  H
  H805     1.0000 0.60316  0.06329  0.30923  Biso   1.000  H
  C1004    1.0000 0.67524  0.09016  0.27394  Biso   1.000  C
  H806     1.0000 0.76324  0.13338  0.26162  Biso   1.000  H
  H807     1.0000 0.77382  0.02517  0.66302  Biso   1.000  H
  H808     1.0000 0.66752  0.06827  0.20346  Biso   1.000  H
