data_image0
_cell_length_a       15.169
_cell_length_b       15.637
_cell_length_c       18.838
_cell_angle_alpha    99.51
_cell_angle_beta     111.21
_cell_angle_gamma    100.26

_symmetry_space_group_name_H-M    "P 1"
_symmetry_int_tables_number       1

loop_
  _symmetry_equiv_pos_as_xyz
  'x, y, z'

loop_
  _atom_site_label
  _atom_site_occupancy
  _atom_site_fract_x
  _atom_site_fract_y
  _atom_site_fract_z
  _atom_site_thermal_displace_type
  _atom_site_B_iso_or_equiv
  _atom_site_type_symbol
  C1       1.0000 0.70395  0.18816  0.23567  Biso   1.000  C
  C2       1.0000 0.71630  0.11858  0.28307  Biso   1.000  C
  C3       1.0000 0.71623  0.11858  0.28307  Biso   1.000  C
  C4       1.0000 0.79739  0.26380  0.26043  Biso   1.000  C
  H1       1.0000 0.68219  0.15787  0.17950  Biso   1.000  H
  H2       1.0000 0.65173  0.21523  0.24102  Biso   1.000  H
  C5       1.0000 0.79736  0.26378  0.26037  Biso   1.000  C
  H3       1.0000 0.65163  0.21521  0.24096  Biso   1.000  H
  H4       1.0000 0.68220  0.15794  0.17950  Biso   1.000  H
  H5       1.0000 0.65170  0.21521  0.24096  Biso   1.000  H
  C6       1.0000 0.61869  0.05213  0.26408  Biso   1.000  C
  C7       1.0000 0.70399  0.18824  0.23573  Biso   1.000  C
  H6       1.0000 0.76147  0.08528  0.27207  Biso   1.000  H
  H7       1.0000 0.74608  0.14931  0.33989  Biso   1.000  H
  C8       1.0000 0.61868  0.05206  0.26408  Biso   1.000  C
  C9       1.0000 0.70406  0.18824  0.23573  Biso   1.000  C
  C10      1.0000 0.88051  0.23174  0.24490  Biso   1.000  C
  H8       1.0000 0.82210  0.28724  0.31860  Biso   1.000  H
  C11      1.0000 0.77632  0.34223  0.22491  Biso   1.000  C
  C12      1.0000 0.88050  0.23167  0.24490  Biso   1.000  C
  H9       1.0000 0.82208  0.28718  0.31860  Biso   1.000  H
  H10      1.0000 0.59259  0.01690  0.20879  Biso   1.000  H
  H11      1.0000 0.57122  0.08602  0.26943  Biso   1.000  H
  H12      1.0000 0.57119  0.08600  0.26937  Biso   1.000  H
  C13      1.0000 0.62833  0.98763  0.31789  Biso   1.000  C
  C14      1.0000 0.62825  0.98756  0.31789  Biso   1.000  C
  C15      1.0000 0.97809  0.27021  0.29742  Biso   1.000  C
  C16      1.0000 0.86372  0.16740  0.17850  Biso   1.000  C
  C17      1.0000 0.97806  0.27019  0.29737  Biso   1.000  C
  C18      1.0000 0.86366  0.16740  0.17850  Biso   1.000  C
  C19      1.0000 0.97815  0.27021  0.29742  Biso   1.000  C
  C20      1.0000 0.82311  0.43142  0.26708  Biso   1.000  C
  C21      1.0000 0.70789  0.32842  0.14839  Biso   1.000  C
  C22      1.0000 0.82305  0.43142  0.26708  Biso   1.000  C
  H13      1.0000 0.66328  0.02564  0.37312  Biso   1.000  H
  H14      1.0000 0.66335  0.02564  0.37312  Biso   1.000  H
  C23      1.0000 0.52738  0.93709  0.31048  Biso   1.000  C
  C24      1.0000 0.68933  0.92282  0.30760  Biso   1.000  C
  C25      1.0000 0.68926  0.92282  0.30760  Biso   1.000  C
  O1       1.0000 0.99646  0.33281  0.36482  Biso   1.000  O
  C26      1.0000 0.05353  0.24594  0.28143  Biso   1.000  C
  C27      1.0000 0.05349  0.24586  0.28137  Biso   1.000  C
  C28      1.0000 0.93709  0.14034  0.16021  Biso   1.000  C
  H15      1.0000 0.79766  0.13977  0.14298  Biso   1.000  H
  C29      1.0000 0.93708  0.14027  0.16021  Biso   1.000  C
  O2       1.0000 0.89054  0.45392  0.34353  Biso   1.000  O
  C30      1.0000 0.80074  0.50063  0.23361  Biso   1.000  C
  O3       1.0000 0.89046  0.45385  0.34353  Biso   1.000  O
  C31      1.0000 0.80068  0.50063  0.23361  Biso   1.000  C
  C32      1.0000 0.68309  0.39629  0.11298  Biso   1.000  C
  H16      1.0000 0.67603  0.26822  0.11851  Biso   1.000  H
  H17      1.0000 0.67597  0.26822  0.11851  Biso   1.000  H
  C33      1.0000 0.50811  0.92830  0.37682  Biso   1.000  C
  C34      1.0000 0.45048  0.89983  0.23761  Biso   1.000  C
  C35      1.0000 0.50808  0.92828  0.37676  Biso   1.000  C
  C36      1.0000 0.74741  0.89752  0.37282  Biso   1.000  C
  C37      1.0000 0.68971  0.88571  0.23573  Biso   1.000  C
  C38      1.0000 0.74738  0.89750  0.37276  Biso   1.000  C
  C39      1.0000 0.68968  0.88569  0.23567  Biso   1.000  C
  H18      1.0000 0.05720  0.35123  0.39153  Biso   1.000  H
  H19      1.0000 0.05717  0.35122  0.39147  Biso   1.000  H
  C40      1.0000 0.03382  0.18233  0.21367  Biso   1.000  C
  H20      1.0000 0.11939  0.27332  0.31719  Biso   1.000  H
  C41      1.0000 0.03375  0.18226  0.21367  Biso   1.000  C
  C42      1.0000 0.91716  0.06530  0.08957  Biso   1.000  C
  C43      1.0000 0.91722  0.06530  0.08957  Biso   1.000  C
  H21      1.0000 0.92398  0.41622  0.34989  Biso   1.000  H
  H22      1.0000 0.83300  0.56081  0.26319  Biso   1.000  H
  C44      1.0000 0.73254  0.48420  0.15792  Biso   1.000  C
  C45      1.0000 0.73247  0.48420  0.15792  Biso   1.000  C
  C46      1.0000 0.60648  0.37632  0.02900  Biso   1.000  C
  C47      1.0000 0.60647  0.37626  0.02900  Biso   1.000  C
  O4       1.0000 0.57928  0.96203  0.45234  Biso   1.000  O
  C48      1.0000 0.41590  0.88590  0.36853  Biso   1.000  C
  C49      1.0000 0.41588  0.88588  0.36847  Biso   1.000  C
  C50      1.0000 0.35601  0.85749  0.22702  Biso   1.000  C
  H23      1.0000 0.46298  0.90333  0.19209  Biso   1.000  H
  C51      1.0000 0.35598  0.85747  0.22696  Biso   1.000  C
  H24      1.0000 0.46297  0.90326  0.19209  Biso   1.000  H
  C52      1.0000 0.80138  0.83598  0.36418  Biso   1.000  C
  O5       1.0000 0.74911  0.93535  0.44493  Biso   1.000  O
  O6       1.0000 0.74905  0.93535  0.44493  Biso   1.000  O
  C53      1.0000 0.74393  0.82481  0.22502  Biso   1.000  C
  H25      1.0000 0.65082  0.90270  0.19079  Biso   1.000  H
  C54      1.0000 0.74383  0.82479  0.22496  Biso   1.000  C
  H26      1.0000 0.65076  0.90270  0.19079  Biso   1.000  H
  O7       1.0000 0.10797  0.15705  0.19756  Biso   1.000  O
  H27      1.0000 0.97232  0.08073  0.07281  Biso   1.000  H
  C55      1.0000 0.82240  0.05442  0.01782  Biso   1.000  C
  C56      1.0000 0.82237  0.05440  0.01776  Biso   1.000  C
  C57      1.0000 0.92197  0.97658  0.11410  Biso   1.000  C
  O8       1.0000 0.71492  0.55749  0.12763  Biso   1.000  O
  O9       1.0000 0.71489  0.55748  0.12757  Biso   1.000  O
  H28      1.0000 0.58142  0.43100  0.02453  Biso   1.000  H
  C58      1.0000 0.51814  0.29902  0.01229  Biso   1.000  C
  H29      1.0000 0.58139  0.43099  0.02447  Biso   1.000  H
  C59      1.0000 0.51806  0.29896  0.01229  Biso   1.000  C
  C60      1.0000 0.65433  0.36525  0.97112  Biso   1.000  C
  C61      1.0000 0.65430  0.36523  0.97106  Biso   1.000  C
  H30      1.0000 0.62583  0.93790  0.45752  Biso   1.000  H
  H31      1.0000 0.62576  0.93790  0.45752  Biso   1.000  H
  C62      1.0000 0.34040  0.85032  0.29542  Biso   1.000  C
  H32      1.0000 0.40408  0.88124  0.41411  Biso   1.000  H
  C63      1.0000 0.34037  0.85030  0.29537  Biso   1.000  C
  H33      1.0000 0.40407  0.88118  0.41411  Biso   1.000  H
  C64      1.0000 0.27433  0.81999  0.14492  Biso   1.000  C
  C65      1.0000 0.27423  0.81997  0.14486  Biso   1.000  C
  H34      1.0000 0.83966  0.81840  0.40888  Biso   1.000  H
  C66      1.0000 0.80013  0.80080  0.29272  Biso   1.000  C
  C67      1.0000 0.80006  0.80080  0.29272  Biso   1.000  C
  H35      1.0000 0.78610  0.91532  0.47969  Biso   1.000  H
  C68      1.0000 0.74957  0.78910  0.14668  Biso   1.000  C
  H36      1.0000 0.16212  0.18574  0.23402  Biso   1.000  H
  H37      1.0000 0.16208  0.18565  0.23396  Biso   1.000  H
  H38      1.0000 0.16209  0.18572  0.23396  Biso   1.000  H
  H39      1.0000 0.76682  0.04359  0.03382  Biso   1.000  H
  H40      1.0000 0.76672  0.04357  0.03376  Biso   1.000  H
  H41      1.0000 0.76679  0.04357  0.03376  Biso   1.000  H
  C69      1.0000 0.81881  0.13349  0.98089  Biso   1.000  C
  H42      1.0000 0.81300  0.00050  0.97742  Biso   1.000  H
  C70      1.0000 0.81880  0.13342  0.98089  Biso   1.000  C
  H43      1.0000 0.81299  0.00044  0.97742  Biso   1.000  H
  C71      1.0000 0.84290  0.92490  0.12269  Biso   1.000  C
  C72      1.0000 0.00475  0.94304  0.12863  Biso   1.000  C
  C73      1.0000 0.00464  0.94296  0.12857  Biso   1.000  C
  H44      1.0000 0.75047  0.60498  0.16168  Biso   1.000  H
  H45      1.0000 0.49538  0.31007  0.05529  Biso   1.000  H
  H46      1.0000 0.53913  0.24261  0.01253  Biso   1.000  H
  H47      1.0000 0.53904  0.24260  0.01247  Biso   1.000  H
  H48      1.0000 0.53910  0.24260  0.01247  Biso   1.000  H
  C74      1.0000 0.43274  0.28688  0.93430  Biso   1.000  C
  C75      1.0000 0.43268  0.28688  0.93430  Biso   1.000  C
  C76      1.0000 0.68985  0.43865  0.94713  Biso   1.000  C
  C77      1.0000 0.66948  0.28264  0.94177  Biso   1.000  C
  C78      1.0000 0.68976  0.43864  0.94707  Biso   1.000  C
  O10      1.0000 0.24949  0.81178  0.29225  Biso   1.000  O
  C79      1.0000 0.28069  0.72893  0.10692  Biso   1.000  C
  H49      1.0000 0.21151  0.80930  0.15209  Biso   1.000  H
  C80      1.0000 0.26999  0.88841  0.09528  Biso   1.000  C
  C81      1.0000 0.28065  0.72885  0.10687  Biso   1.000  C
  H50      1.0000 0.21145  0.80930  0.15209  Biso   1.000  H
  O11      1.0000 0.85447  0.74114  0.28384  Biso   1.000  O
  O12      1.0000 0.85441  0.74114  0.28384  Biso   1.000  O
  H51      1.0000 0.75753  0.72693  0.14562  Biso   1.000  H
  C82      1.0000 0.65699  0.78172  0.07422  Biso   1.000  C
  C83      1.0000 0.84019  0.84331  0.14192  Biso   1.000  C
  H52      1.0000 0.75743  0.72691  0.14557  Biso   1.000  H
  C84      1.0000 0.65696  0.78170  0.07416  Biso   1.000  C
  C85      1.0000 0.84016  0.84329  0.14186  Biso   1.000  C
  H53      1.0000 0.81729  0.18563  0.01782  Biso   1.000  H
  H54      1.0000 0.81725  0.18555  0.01776  Biso   1.000  H
  H55      1.0000 0.81736  0.18563  0.01782  Biso   1.000  H
  C86      1.0000 0.73002  0.11166  0.90472  Biso   1.000  C
  H56      1.0000 0.87861  0.15016  0.97100  Biso   1.000  H
  C87      1.0000 0.72999  0.11164  0.90466  Biso   1.000  C
  H57      1.0000 0.78691  0.94757  0.11469  Biso   1.000  H
  H58      1.0000 0.78684  0.94757  0.11469  Biso   1.000  H
  C88      1.0000 0.00539  0.86231  0.14839  Biso   1.000  C
  O13      1.0000 0.08771  0.98753  0.12239  Biso   1.000  O
  O14      1.0000 0.08764  0.98753  0.12239  Biso   1.000  O
  C89      1.0000 0.34302  0.21835  0.92578  Biso   1.000  C
  H59      1.0000 0.45194  0.26708  0.89049  Biso   1.000  H
  H60      1.0000 0.41685  0.34519  0.93072  Biso   1.000  H
  C90      1.0000 0.34295  0.21835  0.92578  Biso   1.000  C
  H61      1.0000 0.45188  0.26708  0.89049  Biso   1.000  H
  H62      1.0000 0.41676  0.34517  0.93066  Biso   1.000  H
  O15      1.0000 0.67434  0.51999  0.97342  Biso   1.000  O
  C91      1.0000 0.74054  0.42987  0.89978  Biso   1.000  C
  O16      1.0000 0.67428  0.51999  0.97342  Biso   1.000  O
  C92      1.0000 0.74047  0.42987  0.89978  Biso   1.000  C
  C93      1.0000 0.71932  0.27113  0.89308  Biso   1.000  C
  H63      1.0000 0.64388  0.23145  0.95618  Biso   1.000  H
  C94      1.0000 0.71926  0.27113  0.89308  Biso   1.000  C
  H64      1.0000 0.22898  0.75903  0.26390  Biso   1.000  H
  H65      1.0000 0.22897  0.75897  0.26390  Biso   1.000  H
  C95      1.0000 0.24391  0.65081  0.12669  Biso   1.000  C
  C96      1.0000 0.33053  0.71742  0.05823  Biso   1.000  C
  C97      1.0000 0.24384  0.65081  0.12669  Biso   1.000  C
  C98      1.0000 0.33043  0.71741  0.05817  Biso   1.000  C
  H66      1.0000 0.27376  0.94667  0.12769  Biso   1.000  H
  H67      1.0000 0.32882  0.89614  0.08322  Biso   1.000  H
  C99      1.0000 0.18120  0.86658  0.01911  Biso   1.000  C
  H68      1.0000 0.32878  0.89606  0.08316  Biso   1.000  H
  H69      1.0000 0.88561  0.73233  0.32783  Biso   1.000  H
  H70      1.0000 0.88558  0.73231  0.32777  Biso   1.000  H
  C100     1.0000 0.56727  0.71319  0.06570  Biso   1.000  C
  H71      1.0000 0.67009  0.76582  0.02653  Biso   1.000  H
  H72      1.0000 0.64258  0.84121  0.07681  Biso   1.000  H
  H73      1.0000 0.67006  0.76580  0.02647  Biso   1.000  H
  H74      1.0000 0.64264  0.84121  0.07681  Biso   1.000  H
  C101     1.0000 0.92476  0.81240  0.15498  Biso   1.000  C
  C102     1.0000 0.72568  0.18008  0.85508  Biso   1.000  C
  H75      1.0000 0.72625  0.05340  0.87231  Biso   1.000  H
  H76      1.0000 0.67119  0.10393  0.91678  Biso   1.000  H
  C103     1.0000 0.72567  0.18001  0.85508  Biso   1.000  C
  H77      1.0000 0.72617  0.05333  0.87231  Biso   1.000  H
  H78      1.0000 0.06201  0.84038  0.15762  Biso   1.000  H
  H79      1.0000 0.06198  0.84037  0.15756  Biso   1.000  H
  H80      1.0000 0.10767  0.04001  0.15139  Biso   1.000  H
  H81      1.0000 0.10773  0.04001  0.15139  Biso   1.000  H
  C104     1.0000 0.25044  0.21096  0.85332  Biso   1.000  C
  H82      1.0000 0.32993  0.23425  0.97347  Biso   1.000  H
  H83      1.0000 0.35744  0.15885  0.92319  Biso   1.000  H
  C105     1.0000 0.25034  0.21095  0.85326  Biso   1.000  C
  H84      1.0000 0.32986  0.23425  0.97347  Biso   1.000  H
  H85      1.0000 0.35737  0.15885  0.92319  Biso   1.000  H
  C106     1.0000 0.25041  0.21095  0.85326  Biso   1.000  C
  H86      1.0000 0.69497  0.53258  0.02270  Biso   1.000  H
  H87      1.0000 0.69504  0.53258  0.02270  Biso   1.000  H
  H88      1.0000 0.76544  0.48117  0.88508  Biso   1.000  H
  C107     1.0000 0.75610  0.34926  0.87331  Biso   1.000  C
  H89      1.0000 0.76537  0.48117  0.88508  Biso   1.000  H
  O17      1.0000 0.19358  0.66011  0.17403  Biso   1.000  O
  C108     1.0000 0.25947  0.57020  0.10022  Biso   1.000  C
  C109     1.0000 0.25944  0.57018  0.10016  Biso   1.000  C
  C110     1.0000 0.34569  0.63482  0.02888  Biso   1.000  C
  H90      1.0000 0.35613  0.76861  0.04382  Biso   1.000  H
  C111     1.0000 0.34567  0.63475  0.02888  Biso   1.000  C
  H91      1.0000 0.35607  0.76861  0.04382  Biso   1.000  H
  H92      1.0000 0.18279  0.81443  0.98218  Biso   1.000  H
  C112     1.0000 0.17768  0.94565  0.98218  Biso   1.000  C
  H93      1.0000 0.18272  0.81443  0.98218  Biso   1.000  H
  C113     1.0000 0.17761  0.94565  0.98218  Biso   1.000  C
  H94      1.0000 0.12140  0.84990  0.02900  Biso   1.000  H
  C114     1.0000 0.48194  0.70104  0.98771  Biso   1.000  C
  C115     1.0000 0.48201  0.70104  0.98771  Biso   1.000  C
  H95      1.0000 0.54807  0.73299  0.10951  Biso   1.000  H
  H96      1.0000 0.58316  0.65488  0.06928  Biso   1.000  H
  H97      1.0000 0.54814  0.73299  0.10951  Biso   1.000  H
  O18      1.0000 0.93183  0.73200  0.17362  Biso   1.000  O
  O19      1.0000 0.93173  0.73199  0.17356  Biso   1.000  O
  H98      1.0000 0.78850  0.19077  0.84791  Biso   1.000  H
  C116     1.0000 0.64400  0.14258  0.77298  Biso   1.000  C
  C117     1.0000 0.64399  0.14251  0.77298  Biso   1.000  C
  C118     1.0000 0.25608  0.17526  0.77498  Biso   1.000  C
  H99      1.0000 0.24249  0.27314  0.85438  Biso   1.000  H
  C119     1.0000 0.15982  0.15676  0.85808  Biso   1.000  C
  C120     1.0000 0.15976  0.15676  0.85808  Biso   1.000  C
  O20      1.0000 0.80643  0.33995  0.82597  Biso   1.000  O
  O21      1.0000 0.80636  0.33995  0.82597  Biso   1.000  O
  H100     1.0000 0.17659  0.61051  0.18332  Biso   1.000  H
  H101     1.0000 0.17656  0.61050  0.18327  Biso   1.000  H
  C121     1.0000 0.31016  0.56141  0.05287  Biso   1.000  C
  H102     1.0000 0.23458  0.51890  0.11492  Biso   1.000  H
  H103     1.0000 0.23455  0.51888  0.11486  Biso   1.000  H
  C122     1.0000 0.39359  0.62374  0.97100  Biso   1.000  C
  C123     1.0000 0.39353  0.62374  0.97100  Biso   1.000  C
  C124     1.0000 0.08292  0.93476  0.91043  Biso   1.000  C
  H104     1.0000 0.23326  0.95648  0.96618  Biso   1.000  H
  C125     1.0000 0.08282  0.93474  0.91037  Biso   1.000  C
  H105     1.0000 0.18701  0.99956  0.02258  Biso   1.000  H
  H106     1.0000 0.18694  0.99956  0.02258  Biso   1.000  H
  H107     1.0000 0.50470  0.68999  0.94471  Biso   1.000  H
  H108     1.0000 0.46095  0.75745  0.98747  Biso   1.000  H
  H109     1.0000 0.50462  0.68993  0.94471  Biso   1.000  H
  H110     1.0000 0.50469  0.68993  0.94471  Biso   1.000  H
  H111     1.0000 0.91898  0.73041  0.21332  Biso   1.000  H
  H112     1.0000 0.91895  0.73040  0.21326  Biso   1.000  H
  C126     1.0000 0.65961  0.14975  0.70458  Biso   1.000  C
  C127     1.0000 0.54953  0.10024  0.76239  Biso   1.000  C
  C128     1.0000 0.65955  0.14975  0.70458  Biso   1.000  C
  C129     1.0000 0.54946  0.10024  0.76239  Biso   1.000  C
  C130     1.0000 0.19988  0.19926  0.70728  Biso   1.000  C
  C131     1.0000 0.31030  0.11436  0.76427  Biso   1.000  C
  C132     1.0000 0.15711  0.07517  0.87731  Biso   1.000  C
  C133     1.0000 0.07525  0.18767  0.84502  Biso   1.000  C
  C134     1.0000 0.07516  0.18765  0.84497  Biso   1.000  C
  H113     1.0000 0.82343  0.38955  0.81668  Biso   1.000  H
  H114     1.0000 0.82336  0.38955  0.81668  Biso   1.000  H
  O22      1.0000 0.32567  0.48007  0.02658  Biso   1.000  O
  C135     1.0000 0.31699  0.60377  0.88702  Biso   1.000  C
  H115     1.0000 0.41866  0.56906  0.97547  Biso   1.000  H
  C136     1.0000 0.31696  0.60376  0.88696  Biso   1.000  C
  H116     1.0000 0.02776  0.91934  0.92719  Biso   1.000  H
  C137     1.0000 0.06299  0.85973  0.83979  Biso   1.000  C
  C138     1.0000 0.06292  0.85973  0.83979  Biso   1.000  C
  C139     1.0000 0.07804  0.02348  0.88590  Biso   1.000  C
  C140     1.0000 0.07796  0.02342  0.88590  Biso   1.000  C
  C141     1.0000 0.58411  0.11417  0.63147  Biso   1.000  C
  O23      1.0000 0.75052  0.18828  0.70775  Biso   1.000  O
  C142     1.0000 0.58410  0.11410  0.63147  Biso   1.000  C
  O24      1.0000 0.75051  0.18822  0.70775  Biso   1.000  O
  C143     1.0000 0.47263  0.06297  0.68952  Biso   1.000  C
  H117     1.0000 0.53703  0.09674  0.80791  Biso   1.000  H
  C144     1.0000 0.47260  0.06295  0.68946  Biso   1.000  C
  H118     1.0000 0.53697  0.09674  0.80791  Biso   1.000  H
  C145     1.0000 0.19863  0.16409  0.63582  Biso   1.000  C
  O25      1.0000 0.14554  0.25893  0.71616  Biso   1.000  O
  C146     1.0000 0.19859  0.16401  0.63576  Biso   1.000  C
  C147     1.0000 0.31068  0.07725  0.69240  Biso   1.000  C
  H119     1.0000 0.34919  0.09737  0.80921  Biso   1.000  H
  H120     1.0000 0.21310  0.05250  0.88531  Biso   1.000  H
  H121     1.0000 0.21309  0.05243  0.88531  Biso   1.000  H
  C148     1.0000 0.99462  0.13775  0.85161  Biso   1.000  C
  O26      1.0000 0.06819  0.26806  0.82638  Biso   1.000  O
  H122     1.0000 0.30510  0.46748  0.97730  Biso   1.000  H
  H123     1.0000 0.30504  0.46748  0.97730  Biso   1.000  H
  C149     1.0000 0.26754  0.51587  0.84208  Biso   1.000  C
  C150     1.0000 0.29218  0.67164  0.85161  Biso   1.000  C
  C151     1.0000 0.29212  0.67164  0.85161  Biso   1.000  C
  C152     1.0000 0.96625  0.81774  0.78633  Biso   1.000  C
  C153     1.0000 0.96623  0.81772  0.78627  Biso   1.000  C
  C154     1.0000 0.13636  0.83266  0.82150  Biso   1.000  C
  C155     1.0000 0.99527  0.05703  0.87137  Biso   1.000  C
  H124     1.0000 0.59593  0.11882  0.58589  Biso   1.000  H
  C156     1.0000 0.49190  0.07177  0.62318  Biso   1.000  C
  H125     1.0000 0.59586  0.11882  0.58589  Biso   1.000  H
  H126     1.0000 0.77103  0.24103  0.73610  Biso   1.000  H
  H127     1.0000 0.77096  0.24103  0.73610  Biso   1.000  H
  C157     1.0000 0.37169  0.01244  0.68211  Biso   1.000  C
  C158     1.0000 0.25260  0.10254  0.62718  Biso   1.000  C
  H128     1.0000 0.16035  0.18167  0.59112  Biso   1.000  H
  H129     1.0000 0.16025  0.18165  0.59106  Biso   1.000  H
  H130     1.0000 0.11441  0.26774  0.67217  Biso   1.000  H
  H131     1.0000 0.93800  0.15968  0.84238  Biso   1.000  H
  H132     1.0000 0.93799  0.15962  0.84238  Biso   1.000  H
  H133     1.0000 0.08103  0.26965  0.78668  Biso   1.000  H
  H134     1.0000 0.08097  0.26965  0.78668  Biso   1.000  H
  O27      1.0000 0.28516  0.44257  0.87237  Biso   1.000  O
  C159     1.0000 0.19933  0.49944  0.76639  Biso   1.000  C
  O28      1.0000 0.28510  0.44257  0.87237  Biso   1.000  O
  C160     1.0000 0.22376  0.65784  0.77509  Biso   1.000  C
  H135     1.0000 0.32405  0.73185  0.88149  Biso   1.000  H
  O29      1.0000 0.89210  0.84301  0.80244  Biso   1.000  O
  C161     1.0000 0.94655  0.75412  0.71857  Biso   1.000  C
  O30      1.0000 0.89204  0.84301  0.80244  Biso   1.000  O
  C162     1.0000 0.11956  0.76833  0.75510  Biso   1.000  C
  H136     1.0000 0.20242  0.86030  0.85702  Biso   1.000  H
  H137     1.0000 0.20231  0.86021  0.85696  Biso   1.000  H
  O31      1.0000 0.91231  0.01254  0.87761  Biso   1.000  O
  O32      1.0000 0.91237  0.01254  0.87761  Biso   1.000  O
  O33      1.0000 0.42073  0.03803  0.54766  Biso   1.000  O
  O34      1.0000 0.42067  0.03803  0.54766  Biso   1.000  O
  H138     1.0000 0.33680  0.97443  0.62688  Biso   1.000  H
  C163     1.0000 0.38139  0.94794  0.73592  Biso   1.000  C
  H139     1.0000 0.33673  0.97443  0.62688  Biso   1.000  H
  C164     1.0000 0.38136  0.94792  0.73587  Biso   1.000  C
  O35      1.0000 0.25090  0.06472  0.55507  Biso   1.000  O
  O36      1.0000 0.25087  0.06470  0.55501  Biso   1.000  O
  H140     1.0000 0.24961  0.39508  0.83832  Biso   1.000  H
  H141     1.0000 0.24951  0.39507  0.83826  Biso   1.000  H
  C165     1.0000 0.17697  0.56865  0.73292  Biso   1.000  C
  H142     1.0000 0.16708  0.43925  0.73681  Biso   1.000  H
  C166     1.0000 0.17694  0.56863  0.73287  Biso   1.000  C
  H143     1.0000 0.16702  0.43925  0.73681  Biso   1.000  H
  C167     1.0000 0.20269  0.73627  0.73957  Biso   1.000  C
  C168     1.0000 0.20262  0.73627  0.73957  Biso   1.000  C
  H144     1.0000 0.83795  0.81433  0.76598  Biso   1.000  H
  H145     1.0000 0.88069  0.72675  0.68281  Biso   1.000  H
  H146     1.0000 0.88063  0.72675  0.68281  Biso   1.000  H
  C169     1.0000 0.02199  0.72986  0.70258  Biso   1.000  C
  C170     1.0000 0.02192  0.72986  0.70258  Biso   1.000  C
  H147     1.0000 0.89241  0.96006  0.84861  Biso   1.000  H
  H148     1.0000 0.89235  0.96006  0.84861  Biso   1.000  H
  H149     1.0000 0.37418  0.06216  0.54248  Biso   1.000  H
  C171     1.0000 0.28378  0.88149  0.71693  Biso   1.000  C
  C172     1.0000 0.28374  0.88140  0.71687  Biso   1.000  C
  H150     1.0000 0.40749  0.98317  0.79121  Biso   1.000  H
  H151     1.0000 0.42886  0.91405  0.73057  Biso   1.000  H
  H152     1.0000 0.21391  0.08475  0.52031  Biso   1.000  H
  O37      1.0000 0.10954  0.54615  0.65647  Biso   1.000  O
  H153     1.0000 0.17798  0.71282  0.68140  Biso   1.000  H
  C173     1.0000 0.29609  0.81183  0.76427  Biso   1.000  C
  H154     1.0000 0.17792  0.71282  0.68140  Biso   1.000  H
  C174     1.0000 0.29602  0.81183  0.76427  Biso   1.000  C
  O38      1.0000 0.00361  0.66725  0.63518  Biso   1.000  O
  O39      1.0000 0.00351  0.66717  0.63512  Biso   1.000  O
  H155     1.0000 0.23860  0.91478  0.72793  Biso   1.000  H
  H156     1.0000 0.25400  0.85076  0.66011  Biso   1.000  H
  H157     1.0000 0.23851  0.91477  0.72787  Biso   1.000  H
  H158     1.0000 0.25393  0.85076  0.66011  Biso   1.000  H
  H159     1.0000 0.23857  0.91477  0.72787  Biso   1.000  H
  H160     1.0000 0.07610  0.58385  0.65011  Biso   1.000  H
  H161     1.0000 0.07603  0.58385  0.65011  Biso   1.000  H
  H162     1.0000 0.31789  0.84219  0.82050  Biso   1.000  H
  H163     1.0000 0.34835  0.78484  0.75898  Biso   1.000  H
  H164     1.0000 0.31781  0.84213  0.82050  Biso   1.000  H
  H165     1.0000 0.31788  0.84213  0.82050  Biso   1.000  H
  H166     1.0000 0.94288  0.64883  0.60847  Biso   1.000  H
  H167     1.0000 0.94281  0.64883  0.60847  Biso   1.000  H
  C175     1.0000 0.70395  0.18816  0.23567  Biso   1.000  C
  C176     1.0000 0.71630  0.11858  0.28307  Biso   1.000  C
  C177     1.0000 0.71623  0.11858  0.28307  Biso   1.000  C
  H168     1.0000 0.68219  0.15787  0.17950  Biso   1.000  H
  C178     1.0000 0.79739  0.26380  0.26043  Biso   1.000  C
  H169     1.0000 0.65173  0.21523  0.24102  Biso   1.000  H
  C179     1.0000 0.79736  0.26378  0.26037  Biso   1.000  C
  H170     1.0000 0.65163  0.21521  0.24096  Biso   1.000  H
  H171     1.0000 0.68220  0.15794  0.17950  Biso   1.000  H
  H172     1.0000 0.65170  0.21521  0.24096  Biso   1.000  H
  C180     1.0000 0.61869  0.05213  0.26408  Biso   1.000  C
  H173     1.0000 0.76147  0.08528  0.27207  Biso   1.000  H
  H174     1.0000 0.74608  0.14931  0.33989  Biso   1.000  H
  C181     1.0000 0.61868  0.05206  0.26408  Biso   1.000  C
  C182     1.0000 0.70399  0.18824  0.23573  Biso   1.000  C
  C183     1.0000 0.70406  0.18824  0.23573  Biso   1.000  C
  C184     1.0000 0.77632  0.34223  0.22491  Biso   1.000  C
  C185     1.0000 0.88051  0.23174  0.24490  Biso   1.000  C
  H175     1.0000 0.82210  0.28724  0.31860  Biso   1.000  H
  C186     1.0000 0.88050  0.23167  0.24490  Biso   1.000  C
  H176     1.0000 0.82208  0.28718  0.31860  Biso   1.000  H
  H177     1.0000 0.59259  0.01690  0.20879  Biso   1.000  H
  H178     1.0000 0.57122  0.08602  0.26943  Biso   1.000  H
  H179     1.0000 0.57119  0.08600  0.26937  Biso   1.000  H
  C187     1.0000 0.62833  0.98763  0.31789  Biso   1.000  C
  C188     1.0000 0.62825  0.98756  0.31789  Biso   1.000  C
  C189     1.0000 0.70789  0.32842  0.14839  Biso   1.000  C
  C190     1.0000 0.82311  0.43142  0.26708  Biso   1.000  C
  C191     1.0000 0.82305  0.43142  0.26708  Biso   1.000  C
  C192     1.0000 0.86372  0.16740  0.17850  Biso   1.000  C
  C193     1.0000 0.97806  0.27019  0.29737  Biso   1.000  C
  C194     1.0000 0.86366  0.16740  0.17850  Biso   1.000  C
  C195     1.0000 0.97809  0.27021  0.29742  Biso   1.000  C
  C196     1.0000 0.97815  0.27021  0.29742  Biso   1.000  C
  H180     1.0000 0.66328  0.02564  0.37312  Biso   1.000  H
  C197     1.0000 0.52738  0.93709  0.31048  Biso   1.000  C
  C198     1.0000 0.68933  0.92282  0.30760  Biso   1.000  C
  C199     1.0000 0.68926  0.92282  0.30760  Biso   1.000  C
  H181     1.0000 0.66335  0.02564  0.37312  Biso   1.000  H
  C200     1.0000 0.68309  0.39629  0.11298  Biso   1.000  C
  H182     1.0000 0.67603  0.26822  0.11851  Biso   1.000  H
  H183     1.0000 0.67597  0.26822  0.11851  Biso   1.000  H
  O40      1.0000 0.89054  0.45392  0.34353  Biso   1.000  O
  C201     1.0000 0.80074  0.50063  0.23361  Biso   1.000  C
  O41      1.0000 0.89046  0.45385  0.34353  Biso   1.000  O
  C202     1.0000 0.80068  0.50063  0.23361  Biso   1.000  C
  H184     1.0000 0.79766  0.13977  0.14298  Biso   1.000  H
  C203     1.0000 0.93709  0.14034  0.16021  Biso   1.000  C
  C204     1.0000 0.93708  0.14027  0.16021  Biso   1.000  C
  O42      1.0000 0.99646  0.33281  0.36482  Biso   1.000  O
  C205     1.0000 0.05353  0.24594  0.28143  Biso   1.000  C
  C206     1.0000 0.05349  0.24586  0.28137  Biso   1.000  C
  C207     1.0000 0.50811  0.92830  0.37682  Biso   1.000  C
  C208     1.0000 0.45048  0.89983  0.23761  Biso   1.000  C
  C209     1.0000 0.50808  0.92828  0.37676  Biso   1.000  C
  C210     1.0000 0.74741  0.89752  0.37282  Biso   1.000  C
  C211     1.0000 0.68971  0.88571  0.23573  Biso   1.000  C
  C212     1.0000 0.74738  0.89750  0.37276  Biso   1.000  C
  C213     1.0000 0.68968  0.88569  0.23567  Biso   1.000  C
  C214     1.0000 0.73254  0.48420  0.15792  Biso   1.000  C
  C215     1.0000 0.60648  0.37632  0.02900  Biso   1.000  C
  C216     1.0000 0.73247  0.48420  0.15792  Biso   1.000  C
  C217     1.0000 0.60647  0.37626  0.02900  Biso   1.000  C
  H185     1.0000 0.92398  0.41622  0.34989  Biso   1.000  H
  H186     1.0000 0.83300  0.56081  0.26319  Biso   1.000  H
  C218     1.0000 0.91716  0.06530  0.08957  Biso   1.000  C
  C219     1.0000 0.91722  0.06530  0.08957  Biso   1.000  C
  C220     1.0000 0.03382  0.18233  0.21367  Biso   1.000  C
  C221     1.0000 0.03375  0.18226  0.21367  Biso   1.000  C
  H187     1.0000 0.05720  0.35123  0.39153  Biso   1.000  H
  H188     1.0000 0.05717  0.35122  0.39147  Biso   1.000  H
  H189     1.0000 0.11939  0.27332  0.31719  Biso   1.000  H
  O43      1.0000 0.57928  0.96203  0.45234  Biso   1.000  O
  C222     1.0000 0.41590  0.88590  0.36853  Biso   1.000  C
  C223     1.0000 0.41588  0.88588  0.36847  Biso   1.000  C
  C224     1.0000 0.35601  0.85749  0.22702  Biso   1.000  C
  H190     1.0000 0.46298  0.90333  0.19209  Biso   1.000  H
  C225     1.0000 0.35598  0.85747  0.22696  Biso   1.000  C
  H191     1.0000 0.46297  0.90326  0.19209  Biso   1.000  H
  C226     1.0000 0.80138  0.83598  0.36418  Biso   1.000  C
  O44      1.0000 0.74911  0.93535  0.44493  Biso   1.000  O
  O45      1.0000 0.74905  0.93535  0.44493  Biso   1.000  O
  C227     1.0000 0.74393  0.82481  0.22502  Biso   1.000  C
  H192     1.0000 0.65082  0.90270  0.19079  Biso   1.000  H
  C228     1.0000 0.74383  0.82479  0.22496  Biso   1.000  C
  H193     1.0000 0.65076  0.90270  0.19079  Biso   1.000  H
  O46      1.0000 0.71492  0.55749  0.12763  Biso   1.000  O
  O47      1.0000 0.71489  0.55748  0.12757  Biso   1.000  O
  H194     1.0000 0.58142  0.43100  0.02453  Biso   1.000  H
  C229     1.0000 0.51814  0.29902  0.01229  Biso   1.000  C
  H195     1.0000 0.58139  0.43099  0.02447  Biso   1.000  H
  C230     1.0000 0.51806  0.29896  0.01229  Biso   1.000  C
  C231     1.0000 0.65433  0.36525  0.97112  Biso   1.000  C
  C232     1.0000 0.65430  0.36523  0.97106  Biso   1.000  C
  H196     1.0000 0.97232  0.08073  0.07281  Biso   1.000  H
  C233     1.0000 0.82240  0.05442  0.01782  Biso   1.000  C
  C234     1.0000 0.82237  0.05440  0.01776  Biso   1.000  C
  C235     1.0000 0.92197  0.97658  0.11410  Biso   1.000  C
  O48      1.0000 0.10797  0.15705  0.19756  Biso   1.000  O
  H197     1.0000 0.62583  0.93790  0.45752  Biso   1.000  H
  H198     1.0000 0.62576  0.93790  0.45752  Biso   1.000  H
  C236     1.0000 0.34040  0.85032  0.29542  Biso   1.000  C
  H199     1.0000 0.40408  0.88124  0.41411  Biso   1.000  H
  C237     1.0000 0.34037  0.85030  0.29537  Biso   1.000  C
  H200     1.0000 0.40407  0.88118  0.41411  Biso   1.000  H
  C238     1.0000 0.27433  0.81999  0.14492  Biso   1.000  C
  C239     1.0000 0.27423  0.81997  0.14486  Biso   1.000  C
  H201     1.0000 0.83966  0.81840  0.40888  Biso   1.000  H
  C240     1.0000 0.80013  0.80080  0.29272  Biso   1.000  C
  C241     1.0000 0.80006  0.80080  0.29272  Biso   1.000  C
  H202     1.0000 0.78610  0.91532  0.47969  Biso   1.000  H
  C242     1.0000 0.74957  0.78910  0.14668  Biso   1.000  C
  H203     1.0000 0.75047  0.60498  0.16168  Biso   1.000  H
  H204     1.0000 0.49538  0.31007  0.05529  Biso   1.000  H
  H205     1.0000 0.53913  0.24261  0.01253  Biso   1.000  H
  C243     1.0000 0.43274  0.28688  0.93430  Biso   1.000  C
  C244     1.0000 0.43268  0.28688  0.93430  Biso   1.000  C
  H206     1.0000 0.53904  0.24260  0.01247  Biso   1.000  H
  H207     1.0000 0.53910  0.24260  0.01247  Biso   1.000  H
  C245     1.0000 0.68985  0.43865  0.94713  Biso   1.000  C
  C246     1.0000 0.66948  0.28264  0.94177  Biso   1.000  C
  C247     1.0000 0.68976  0.43864  0.94707  Biso   1.000  C
  H208     1.0000 0.76682  0.04359  0.03382  Biso   1.000  H
  C248     1.0000 0.81881  0.13349  0.98089  Biso   1.000  C
  H209     1.0000 0.81300  0.00050  0.97742  Biso   1.000  H
  C249     1.0000 0.81880  0.13342  0.98089  Biso   1.000  C
  H210     1.0000 0.81299  0.00044  0.97742  Biso   1.000  H
  H211     1.0000 0.76672  0.04357  0.03376  Biso   1.000  H
  H212     1.0000 0.76679  0.04357  0.03376  Biso   1.000  H
  C250     1.0000 0.84290  0.92490  0.12269  Biso   1.000  C
  C251     1.0000 0.00475  0.94304  0.12863  Biso   1.000  C
  C252     1.0000 0.00464  0.94296  0.12857  Biso   1.000  C
  H213     1.0000 0.16212  0.18574  0.23402  Biso   1.000  H
  H214     1.0000 0.16208  0.18565  0.23396  Biso   1.000  H
  H215     1.0000 0.16209  0.18572  0.23396  Biso   1.000  H
  O49      1.0000 0.24949  0.81178  0.29225  Biso   1.000  O
  C253     1.0000 0.28069  0.72893  0.10692  Biso   1.000  C
  H216     1.0000 0.21151  0.80930  0.15209  Biso   1.000  H
  C254     1.0000 0.26999  0.88841  0.09528  Biso   1.000  C
  C255     1.0000 0.28065  0.72885  0.10687  Biso   1.000  C
  H217     1.0000 0.21145  0.80930  0.15209  Biso   1.000  H
  O50      1.0000 0.85447  0.74114  0.28384  Biso   1.000  O
  O51      1.0000 0.85441  0.74114  0.28384  Biso   1.000  O
  H218     1.0000 0.75753  0.72693  0.14562  Biso   1.000  H
  C256     1.0000 0.65699  0.78172  0.07422  Biso   1.000  C
  C257     1.0000 0.84019  0.84331  0.14192  Biso   1.000  C
  H219     1.0000 0.75743  0.72691  0.14557  Biso   1.000  H
  C258     1.0000 0.65696  0.78170  0.07416  Biso   1.000  C
  C259     1.0000 0.84016  0.84329  0.14186  Biso   1.000  C
  C260     1.0000 0.34302  0.21835  0.92578  Biso   1.000  C
  H220     1.0000 0.45194  0.26708  0.89049  Biso   1.000  H
  H221     1.0000 0.41685  0.34519  0.93072  Biso   1.000  H
  C261     1.0000 0.34295  0.21835  0.92578  Biso   1.000  C
  H222     1.0000 0.45188  0.26708  0.89049  Biso   1.000  H
  H223     1.0000 0.41676  0.34517  0.93066  Biso   1.000  H
  O52      1.0000 0.67434  0.51999  0.97342  Biso   1.000  O
  C262     1.0000 0.74054  0.42987  0.89978  Biso   1.000  C
  O53      1.0000 0.67428  0.51999  0.97342  Biso   1.000  O
  C263     1.0000 0.74047  0.42987  0.89978  Biso   1.000  C
  C264     1.0000 0.71932  0.27113  0.89308  Biso   1.000  C
  H224     1.0000 0.64388  0.23145  0.95618  Biso   1.000  H
  C265     1.0000 0.71926  0.27113  0.89308  Biso   1.000  C
  H225     1.0000 0.81725  0.18555  0.01776  Biso   1.000  H
  C266     1.0000 0.73002  0.11166  0.90472  Biso   1.000  C
  H226     1.0000 0.87861  0.15016  0.97100  Biso   1.000  H
  C267     1.0000 0.72999  0.11164  0.90466  Biso   1.000  C
  H227     1.0000 0.81729  0.18563  0.01782  Biso   1.000  H
  H228     1.0000 0.81736  0.18563  0.01782  Biso   1.000  H
  H229     1.0000 0.78691  0.94757  0.11469  Biso   1.000  H
  H230     1.0000 0.78684  0.94757  0.11469  Biso   1.000  H
  C268     1.0000 0.00539  0.86231  0.14839  Biso   1.000  C
  O54      1.0000 0.08771  0.98753  0.12239  Biso   1.000  O
  O55      1.0000 0.08764  0.98753  0.12239  Biso   1.000  O
  H231     1.0000 0.22898  0.75903  0.26390  Biso   1.000  H
  H232     1.0000 0.22897  0.75897  0.26390  Biso   1.000  H
  C269     1.0000 0.24391  0.65081  0.12669  Biso   1.000  C
  C270     1.0000 0.33053  0.71742  0.05823  Biso   1.000  C
  C271     1.0000 0.24384  0.65081  0.12669  Biso   1.000  C
  C272     1.0000 0.33043  0.71741  0.05817  Biso   1.000  C
  H233     1.0000 0.27376  0.94667  0.12769  Biso   1.000  H
  H234     1.0000 0.32882  0.89614  0.08322  Biso   1.000  H
  C273     1.0000 0.18120  0.86658  0.01911  Biso   1.000  C
  H235     1.0000 0.32878  0.89606  0.08316  Biso   1.000  H
  H236     1.0000 0.88561  0.73233  0.32783  Biso   1.000  H
  H237     1.0000 0.88558  0.73231  0.32777  Biso   1.000  H
  C274     1.0000 0.56727  0.71319  0.06570  Biso   1.000  C
  H238     1.0000 0.67009  0.76582  0.02653  Biso   1.000  H
  H239     1.0000 0.64258  0.84121  0.07681  Biso   1.000  H
  H240     1.0000 0.67006  0.76580  0.02647  Biso   1.000  H
  H241     1.0000 0.64264  0.84121  0.07681  Biso   1.000  H
  C275     1.0000 0.92476  0.81240  0.15498  Biso   1.000  C
  C276     1.0000 0.25044  0.21096  0.85332  Biso   1.000  C
  H242     1.0000 0.32993  0.23425  0.97347  Biso   1.000  H
  H243     1.0000 0.35744  0.15885  0.92319  Biso   1.000  H
  C277     1.0000 0.25034  0.21095  0.85326  Biso   1.000  C
  H244     1.0000 0.32986  0.23425  0.97347  Biso   1.000  H
  H245     1.0000 0.35737  0.15885  0.92319  Biso   1.000  H
  C278     1.0000 0.25041  0.21095  0.85326  Biso   1.000  C
  H246     1.0000 0.69497  0.53258  0.02270  Biso   1.000  H
  H247     1.0000 0.69504  0.53258  0.02270  Biso   1.000  H
  H248     1.0000 0.76544  0.48117  0.88508  Biso   1.000  H
  C279     1.0000 0.75610  0.34926  0.87331  Biso   1.000  C
  H249     1.0000 0.76537  0.48117  0.88508  Biso   1.000  H
  C280     1.0000 0.72568  0.18008  0.85508  Biso   1.000  C
  C281     1.0000 0.72567  0.18001  0.85508  Biso   1.000  C
  H250     1.0000 0.72625  0.05340  0.87231  Biso   1.000  H
  H251     1.0000 0.67119  0.10393  0.91678  Biso   1.000  H
  H252     1.0000 0.72617  0.05333  0.87231  Biso   1.000  H
  H253     1.0000 0.06201  0.84038  0.15762  Biso   1.000  H
  H254     1.0000 0.06198  0.84037  0.15756  Biso   1.000  H
  H255     1.0000 0.10767  0.04001  0.15139  Biso   1.000  H
  H256     1.0000 0.10773  0.04001  0.15139  Biso   1.000  H
  O56      1.0000 0.19358  0.66011  0.17403  Biso   1.000  O
  C282     1.0000 0.25947  0.57020  0.10022  Biso   1.000  C
  C283     1.0000 0.25944  0.57018  0.10016  Biso   1.000  C
  C284     1.0000 0.34569  0.63482  0.02888  Biso   1.000  C
  H257     1.0000 0.35613  0.76861  0.04382  Biso   1.000  H
  C285     1.0000 0.34567  0.63475  0.02888  Biso   1.000  C
  H258     1.0000 0.35607  0.76861  0.04382  Biso   1.000  H
  H259     1.0000 0.18279  0.81443  0.98218  Biso   1.000  H
  C286     1.0000 0.17768  0.94565  0.98218  Biso   1.000  C
  H260     1.0000 0.18272  0.81443  0.98218  Biso   1.000  H
  C287     1.0000 0.17761  0.94565  0.98218  Biso   1.000  C
  H261     1.0000 0.12140  0.84990  0.02900  Biso   1.000  H
  C288     1.0000 0.48194  0.70104  0.98771  Biso   1.000  C
  C289     1.0000 0.48201  0.70104  0.98771  Biso   1.000  C
  H262     1.0000 0.54807  0.73299  0.10951  Biso   1.000  H
  H263     1.0000 0.58316  0.65488  0.06928  Biso   1.000  H
  H264     1.0000 0.54814  0.73299  0.10951  Biso   1.000  H
  O57      1.0000 0.93183  0.73200  0.17362  Biso   1.000  O
  O58      1.0000 0.93173  0.73199  0.17356  Biso   1.000  O
  C290     1.0000 0.25608  0.17526  0.77498  Biso   1.000  C
  H265     1.0000 0.24249  0.27314  0.85438  Biso   1.000  H
  C291     1.0000 0.15982  0.15676  0.85808  Biso   1.000  C
  C292     1.0000 0.15976  0.15676  0.85808  Biso   1.000  C
  O59      1.0000 0.80643  0.33995  0.82597  Biso   1.000  O
  O60      1.0000 0.80636  0.33995  0.82597  Biso   1.000  O
  H266     1.0000 0.78850  0.19077  0.84791  Biso   1.000  H
  C293     1.0000 0.64400  0.14258  0.77298  Biso   1.000  C
  C294     1.0000 0.64399  0.14251  0.77298  Biso   1.000  C
  H267     1.0000 0.17659  0.61051  0.18332  Biso   1.000  H
  H268     1.0000 0.17656  0.61050  0.18327  Biso   1.000  H
  C295     1.0000 0.31016  0.56141  0.05287  Biso   1.000  C
  H269     1.0000 0.23458  0.51890  0.11492  Biso   1.000  H
  H270     1.0000 0.23455  0.51888  0.11486  Biso   1.000  H
  C296     1.0000 0.39359  0.62374  0.97100  Biso   1.000  C
  C297     1.0000 0.39353  0.62374  0.97100  Biso   1.000  C
  C298     1.0000 0.08292  0.93476  0.91043  Biso   1.000  C
  H271     1.0000 0.23326  0.95648  0.96618  Biso   1.000  H
  C299     1.0000 0.08282  0.93474  0.91037  Biso   1.000  C
  H272     1.0000 0.18701  0.99956  0.02258  Biso   1.000  H
  H273     1.0000 0.18694  0.99956  0.02258  Biso   1.000  H
  H274     1.0000 0.50470  0.68999  0.94471  Biso   1.000  H
  H275     1.0000 0.46095  0.75745  0.98747  Biso   1.000  H
  H276     1.0000 0.50462  0.68993  0.94471  Biso   1.000  H
  H277     1.0000 0.50469  0.68993  0.94471  Biso   1.000  H
  H278     1.0000 0.91898  0.73041  0.21332  Biso   1.000  H
  H279     1.0000 0.91895  0.73040  0.21326  Biso   1.000  H
  C300     1.0000 0.19988  0.19926  0.70728  Biso   1.000  C
  C301     1.0000 0.31030  0.11436  0.76427  Biso   1.000  C
  C302     1.0000 0.15711  0.07517  0.87731  Biso   1.000  C
  C303     1.0000 0.07525  0.18767  0.84502  Biso   1.000  C
  C304     1.0000 0.07516  0.18765  0.84497  Biso   1.000  C
  H280     1.0000 0.82343  0.38955  0.81668  Biso   1.000  H
  H281     1.0000 0.82336  0.38955  0.81668  Biso   1.000  H
  C305     1.0000 0.65961  0.14975  0.70458  Biso   1.000  C
  C306     1.0000 0.54953  0.10024  0.76239  Biso   1.000  C
  C307     1.0000 0.65955  0.14975  0.70458  Biso   1.000  C
  C308     1.0000 0.54946  0.10024  0.76239  Biso   1.000  C
  O61      1.0000 0.32567  0.48007  0.02658  Biso   1.000  O
  C309     1.0000 0.31699  0.60377  0.88702  Biso   1.000  C
  H282     1.0000 0.41866  0.56906  0.97547  Biso   1.000  H
  C310     1.0000 0.31696  0.60376  0.88696  Biso   1.000  C
  H283     1.0000 0.02776  0.91934  0.92719  Biso   1.000  H
  C311     1.0000 0.06299  0.85973  0.83979  Biso   1.000  C
  C312     1.0000 0.06292  0.85973  0.83979  Biso   1.000  C
  C313     1.0000 0.07804  0.02348  0.88590  Biso   1.000  C
  C314     1.0000 0.07796  0.02342  0.88590  Biso   1.000  C
  C315     1.0000 0.19863  0.16409  0.63582  Biso   1.000  C
  O62      1.0000 0.14554  0.25893  0.71616  Biso   1.000  O
  C316     1.0000 0.19859  0.16401  0.63576  Biso   1.000  C
  C317     1.0000 0.31068  0.07725  0.69240  Biso   1.000  C
  H284     1.0000 0.34919  0.09737  0.80921  Biso   1.000  H
  H285     1.0000 0.21310  0.05250  0.88531  Biso   1.000  H
  H286     1.0000 0.21309  0.05243  0.88531  Biso   1.000  H
  C318     1.0000 0.99462  0.13775  0.85161  Biso   1.000  C
  O63      1.0000 0.06819  0.26806  0.82638  Biso   1.000  O
  C319     1.0000 0.58411  0.11417  0.63147  Biso   1.000  C
  O64      1.0000 0.75052  0.18828  0.70775  Biso   1.000  O
  C320     1.0000 0.58410  0.11410  0.63147  Biso   1.000  C
  O65      1.0000 0.75051  0.18822  0.70775  Biso   1.000  O
  C321     1.0000 0.47263  0.06297  0.68952  Biso   1.000  C
  H287     1.0000 0.53703  0.09674  0.80791  Biso   1.000  H
  C322     1.0000 0.47260  0.06295  0.68946  Biso   1.000  C
  H288     1.0000 0.53697  0.09674  0.80791  Biso   1.000  H
  H289     1.0000 0.30510  0.46748  0.97730  Biso   1.000  H
  H290     1.0000 0.30504  0.46748  0.97730  Biso   1.000  H
  C323     1.0000 0.26754  0.51587  0.84208  Biso   1.000  C
  C324     1.0000 0.29218  0.67164  0.85161  Biso   1.000  C
  C325     1.0000 0.29212  0.67164  0.85161  Biso   1.000  C
  C326     1.0000 0.96625  0.81774  0.78633  Biso   1.000  C
  C327     1.0000 0.96623  0.81772  0.78627  Biso   1.000  C
  C328     1.0000 0.13636  0.83266  0.82150  Biso   1.000  C
  C329     1.0000 0.99527  0.05703  0.87137  Biso   1.000  C
  C330     1.0000 0.25260  0.10254  0.62718  Biso   1.000  C
  H291     1.0000 0.16035  0.18167  0.59112  Biso   1.000  H
  H292     1.0000 0.16025  0.18165  0.59106  Biso   1.000  H
  H293     1.0000 0.11441  0.26774  0.67217  Biso   1.000  H
  C331     1.0000 0.37169  0.01244  0.68211  Biso   1.000  C
  H294     1.0000 0.93800  0.15968  0.84238  Biso   1.000  H
  H295     1.0000 0.93799  0.15962  0.84238  Biso   1.000  H
  H296     1.0000 0.08103  0.26965  0.78668  Biso   1.000  H
  H297     1.0000 0.08097  0.26965  0.78668  Biso   1.000  H
  H298     1.0000 0.59593  0.11882  0.58589  Biso   1.000  H
  C332     1.0000 0.49190  0.07177  0.62318  Biso   1.000  C
  H299     1.0000 0.59586  0.11882  0.58589  Biso   1.000  H
  H300     1.0000 0.77103  0.24103  0.73610  Biso   1.000  H
  H301     1.0000 0.77096  0.24103  0.73610  Biso   1.000  H
  O66      1.0000 0.28516  0.44257  0.87237  Biso   1.000  O
  C333     1.0000 0.19933  0.49944  0.76639  Biso   1.000  C
  O67      1.0000 0.28510  0.44257  0.87237  Biso   1.000  O
  C334     1.0000 0.22376  0.65784  0.77509  Biso   1.000  C
  H302     1.0000 0.32405  0.73185  0.88149  Biso   1.000  H
  O68      1.0000 0.89210  0.84301  0.80244  Biso   1.000  O
  C335     1.0000 0.94655  0.75412  0.71857  Biso   1.000  C
  O69      1.0000 0.89204  0.84301  0.80244  Biso   1.000  O
  C336     1.0000 0.11956  0.76833  0.75510  Biso   1.000  C
  H303     1.0000 0.20242  0.86030  0.85702  Biso   1.000  H
  H304     1.0000 0.20231  0.86021  0.85696  Biso   1.000  H
  O70      1.0000 0.91231  0.01254  0.87761  Biso   1.000  O
  O71      1.0000 0.91237  0.01254  0.87761  Biso   1.000  O
  O72      1.0000 0.25090  0.06472  0.55507  Biso   1.000  O
  O73      1.0000 0.25087  0.06470  0.55501  Biso   1.000  O
  H305     1.0000 0.33680  0.97443  0.62688  Biso   1.000  H
  C337     1.0000 0.38139  0.94794  0.73592  Biso   1.000  C
  H306     1.0000 0.33673  0.97443  0.62688  Biso   1.000  H
  C338     1.0000 0.38136  0.94792  0.73587  Biso   1.000  C
  O74      1.0000 0.42073  0.03803  0.54766  Biso   1.000  O
  O75      1.0000 0.42067  0.03803  0.54766  Biso   1.000  O
  H307     1.0000 0.24961  0.39508  0.83832  Biso   1.000  H
  H308     1.0000 0.24951  0.39507  0.83826  Biso   1.000  H
  C339     1.0000 0.17697  0.56865  0.73292  Biso   1.000  C
  H309     1.0000 0.16708  0.43925  0.73681  Biso   1.000  H
  C340     1.0000 0.17694  0.56863  0.73287  Biso   1.000  C
  H310     1.0000 0.16702  0.43925  0.73681  Biso   1.000  H
  C341     1.0000 0.20269  0.73627  0.73957  Biso   1.000  C
  C342     1.0000 0.20262  0.73627  0.73957  Biso   1.000  C
  H311     1.0000 0.83795  0.81433  0.76598  Biso   1.000  H
  H312     1.0000 0.88069  0.72675  0.68281  Biso   1.000  H
  H313     1.0000 0.88063  0.72675  0.68281  Biso   1.000  H
  C343     1.0000 0.02199  0.72986  0.70258  Biso   1.000  C
  C344     1.0000 0.02192  0.72986  0.70258  Biso   1.000  C
  H314     1.0000 0.89241  0.96006  0.84861  Biso   1.000  H
  H315     1.0000 0.89235  0.96006  0.84861  Biso   1.000  H
  H316     1.0000 0.21391  0.08475  0.52031  Biso   1.000  H
  C345     1.0000 0.28378  0.88149  0.71693  Biso   1.000  C
  C346     1.0000 0.28374  0.88140  0.71687  Biso   1.000  C
  H317     1.0000 0.40749  0.98317  0.79121  Biso   1.000  H
  H318     1.0000 0.42886  0.91405  0.73057  Biso   1.000  H
  H319     1.0000 0.37418  0.06216  0.54248  Biso   1.000  H
  O76      1.0000 0.10954  0.54615  0.65647  Biso   1.000  O
  H320     1.0000 0.17798  0.71282  0.68140  Biso   1.000  H
  C347     1.0000 0.29609  0.81183  0.76427  Biso   1.000  C
  H321     1.0000 0.17792  0.71282  0.68140  Biso   1.000  H
  C348     1.0000 0.29602  0.81183  0.76427  Biso   1.000  C
  O77      1.0000 0.00361  0.66725  0.63518  Biso   1.000  O
  O78      1.0000 0.00351  0.66717  0.63512  Biso   1.000  O
  H322     1.0000 0.23860  0.91478  0.72793  Biso   1.000  H
  H323     1.0000 0.25400  0.85076  0.66011  Biso   1.000  H
  H324     1.0000 0.23851  0.91477  0.72787  Biso   1.000  H
  H325     1.0000 0.25393  0.85076  0.66011  Biso   1.000  H
  H326     1.0000 0.23857  0.91477  0.72787  Biso   1.000  H
  H327     1.0000 0.07610  0.58385  0.65011  Biso   1.000  H
  H328     1.0000 0.07603  0.58385  0.65011  Biso   1.000  H
  H329     1.0000 0.31789  0.84219  0.82050  Biso   1.000  H
  H330     1.0000 0.34835  0.78484  0.75898  Biso   1.000  H
  H331     1.0000 0.31781  0.84213  0.82050  Biso   1.000  H
  H332     1.0000 0.31788  0.84213  0.82050  Biso   1.000  H
  H333     1.0000 0.94288  0.64883  0.60847  Biso   1.000  H
  H334     1.0000 0.94281  0.64883  0.60847  Biso   1.000  H
  C349     1.0000 0.70395  0.18816  0.23567  Biso   1.000  C
  C350     1.0000 0.71630  0.11858  0.28307  Biso   1.000  C
  C351     1.0000 0.71623  0.11858  0.28307  Biso   1.000  C
  H335     1.0000 0.68219  0.15787  0.17950  Biso   1.000  H
  C352     1.0000 0.79739  0.26380  0.26043  Biso   1.000  C
  H336     1.0000 0.65173  0.21523  0.24102  Biso   1.000  H
  C353     1.0000 0.79736  0.26378  0.26037  Biso   1.000  C
  H337     1.0000 0.65163  0.21521  0.24096  Biso   1.000  H
  H338     1.0000 0.68220  0.15794  0.17950  Biso   1.000  H
  H339     1.0000 0.65170  0.21521  0.24096  Biso   1.000  H
  H340     1.0000 0.76147  0.08528  0.27207  Biso   1.000  H
  H341     1.0000 0.74608  0.14931  0.33989  Biso   1.000  H
  C354     1.0000 0.61869  0.05213  0.26408  Biso   1.000  C
  C355     1.0000 0.70399  0.18824  0.23573  Biso   1.000  C
  C356     1.0000 0.61868  0.05206  0.26408  Biso   1.000  C
  C357     1.0000 0.70406  0.18824  0.23573  Biso   1.000  C
  C358     1.0000 0.77632  0.34223  0.22491  Biso   1.000  C
  C359     1.0000 0.88051  0.23174  0.24490  Biso   1.000  C
  H342     1.0000 0.82210  0.28724  0.31860  Biso   1.000  H
  C360     1.0000 0.88050  0.23167  0.24490  Biso   1.000  C
  H343     1.0000 0.82208  0.28718  0.31860  Biso   1.000  H
  H344     1.0000 0.59259  0.01690  0.20879  Biso   1.000  H
  C361     1.0000 0.62833  0.98763  0.31789  Biso   1.000  C
  C362     1.0000 0.62825  0.98756  0.31789  Biso   1.000  C
  H345     1.0000 0.57122  0.08602  0.26943  Biso   1.000  H
  H346     1.0000 0.57119  0.08600  0.26937  Biso   1.000  H
  C363     1.0000 0.70789  0.32842  0.14839  Biso   1.000  C
  C364     1.0000 0.82311  0.43142  0.26708  Biso   1.000  C
  C365     1.0000 0.82305  0.43142  0.26708  Biso   1.000  C
  C366     1.0000 0.97809  0.27021  0.29742  Biso   1.000  C
  C367     1.0000 0.86372  0.16740  0.17850  Biso   1.000  C
  C368     1.0000 0.97806  0.27019  0.29737  Biso   1.000  C
  C369     1.0000 0.86366  0.16740  0.17850  Biso   1.000  C
  C370     1.0000 0.97815  0.27021  0.29742  Biso   1.000  C
  H347     1.0000 0.66328  0.02564  0.37312  Biso   1.000  H
  C371     1.0000 0.52738  0.93709  0.31048  Biso   1.000  C
  C372     1.0000 0.68933  0.92282  0.30760  Biso   1.000  C
  C373     1.0000 0.68926  0.92282  0.30760  Biso   1.000  C
  H348     1.0000 0.66335  0.02564  0.37312  Biso   1.000  H
  C374     1.0000 0.68309  0.39629  0.11298  Biso   1.000  C
  H349     1.0000 0.67603  0.26822  0.11851  Biso   1.000  H
  H350     1.0000 0.67597  0.26822  0.11851  Biso   1.000  H
  O79      1.0000 0.89054  0.45392  0.34353  Biso   1.000  O
  C375     1.0000 0.80074  0.50063  0.23361  Biso   1.000  C
  O80      1.0000 0.89046  0.45385  0.34353  Biso   1.000  O
  C376     1.0000 0.80068  0.50063  0.23361  Biso   1.000  C
  O81      1.0000 0.99646  0.33281  0.36482  Biso   1.000  O
  C377     1.0000 0.05353  0.24594  0.28143  Biso   1.000  C
  C378     1.0000 0.05349  0.24586  0.28137  Biso   1.000  C
  H351     1.0000 0.79766  0.13977  0.14298  Biso   1.000  H
  C379     1.0000 0.93709  0.14034  0.16021  Biso   1.000  C
  C380     1.0000 0.93708  0.14027  0.16021  Biso   1.000  C
  C381     1.0000 0.50811  0.92830  0.37682  Biso   1.000  C
  C382     1.0000 0.45048  0.89983  0.23761  Biso   1.000  C
  C383     1.0000 0.50808  0.92828  0.37676  Biso   1.000  C
  C384     1.0000 0.74741  0.89752  0.37282  Biso   1.000  C
  C385     1.0000 0.68971  0.88571  0.23573  Biso   1.000  C
  C386     1.0000 0.74738  0.89750  0.37276  Biso   1.000  C
  C387     1.0000 0.68968  0.88569  0.23567  Biso   1.000  C
  C388     1.0000 0.73254  0.48420  0.15792  Biso   1.000  C
  C389     1.0000 0.60648  0.37632  0.02900  Biso   1.000  C
  C390     1.0000 0.73247  0.48420  0.15792  Biso   1.000  C
  C391     1.0000 0.60647  0.37626  0.02900  Biso   1.000  C
  H352     1.0000 0.92398  0.41622  0.34989  Biso   1.000  H
  H353     1.0000 0.83300  0.56081  0.26319  Biso   1.000  H
  H354     1.0000 0.05720  0.35123  0.39153  Biso   1.000  H
  H355     1.0000 0.05717  0.35122  0.39147  Biso   1.000  H
  C392     1.0000 0.03382  0.18233  0.21367  Biso   1.000  C
  H356     1.0000 0.11939  0.27332  0.31719  Biso   1.000  H
  C393     1.0000 0.03375  0.18226  0.21367  Biso   1.000  C
  C394     1.0000 0.91716  0.06530  0.08957  Biso   1.000  C
  C395     1.0000 0.91722  0.06530  0.08957  Biso   1.000  C
  O82      1.0000 0.57928  0.96203  0.45234  Biso   1.000  O
  C396     1.0000 0.41590  0.88590  0.36853  Biso   1.000  C
  C397     1.0000 0.41588  0.88588  0.36847  Biso   1.000  C
  C398     1.0000 0.35601  0.85749  0.22702  Biso   1.000  C
  H357     1.0000 0.46298  0.90333  0.19209  Biso   1.000  H
  C399     1.0000 0.35598  0.85747  0.22696  Biso   1.000  C
  H358     1.0000 0.46297  0.90326  0.19209  Biso   1.000  H
  C400     1.0000 0.80138  0.83598  0.36418  Biso   1.000  C
  O83      1.0000 0.74911  0.93535  0.44493  Biso   1.000  O
  O84      1.0000 0.74905  0.93535  0.44493  Biso   1.000  O
  C401     1.0000 0.74393  0.82481  0.22502  Biso   1.000  C
  H359     1.0000 0.65082  0.90270  0.19079  Biso   1.000  H
  C402     1.0000 0.74383  0.82479  0.22496  Biso   1.000  C
  H360     1.0000 0.65076  0.90270  0.19079  Biso   1.000  H
  O85      1.0000 0.71492  0.55749  0.12763  Biso   1.000  O
  O86      1.0000 0.71489  0.55748  0.12757  Biso   1.000  O
  C403     1.0000 0.65433  0.36525  0.97112  Biso   1.000  C
  C404     1.0000 0.65430  0.36523  0.97106  Biso   1.000  C
  H361     1.0000 0.58142  0.43100  0.02453  Biso   1.000  H
  C405     1.0000 0.51814  0.29902  0.01229  Biso   1.000  C
  H362     1.0000 0.58139  0.43099  0.02447  Biso   1.000  H
  C406     1.0000 0.51806  0.29896  0.01229  Biso   1.000  C
  O87      1.0000 0.10797  0.15705  0.19756  Biso   1.000  O
  H363     1.0000 0.97232  0.08073  0.07281  Biso   1.000  H
  C407     1.0000 0.92197  0.97658  0.11410  Biso   1.000  C
  C408     1.0000 0.82240  0.05442  0.01782  Biso   1.000  C
  C409     1.0000 0.82237  0.05440  0.01776  Biso   1.000  C
  H364     1.0000 0.62583  0.93790  0.45752  Biso   1.000  H
  H365     1.0000 0.62576  0.93790  0.45752  Biso   1.000  H
  C410     1.0000 0.34040  0.85032  0.29542  Biso   1.000  C
  H366     1.0000 0.40408  0.88124  0.41411  Biso   1.000  H
  C411     1.0000 0.34037  0.85030  0.29537  Biso   1.000  C
  H367     1.0000 0.40407  0.88118  0.41411  Biso   1.000  H
  C412     1.0000 0.27433  0.81999  0.14492  Biso   1.000  C
  C413     1.0000 0.27423  0.81997  0.14486  Biso   1.000  C
  H368     1.0000 0.83966  0.81840  0.40888  Biso   1.000  H
  C414     1.0000 0.80013  0.80080  0.29272  Biso   1.000  C
  C415     1.0000 0.80006  0.80080  0.29272  Biso   1.000  C
  H369     1.0000 0.78610  0.91532  0.47969  Biso   1.000  H
  C416     1.0000 0.74957  0.78910  0.14668  Biso   1.000  C
  H370     1.0000 0.75047  0.60498  0.16168  Biso   1.000  H
  C417     1.0000 0.68985  0.43865  0.94713  Biso   1.000  C
  C418     1.0000 0.66948  0.28264  0.94177  Biso   1.000  C
  C419     1.0000 0.68976  0.43864  0.94707  Biso   1.000  C
  H371     1.0000 0.49538  0.31007  0.05529  Biso   1.000  H
  C420     1.0000 0.43274  0.28688  0.93430  Biso   1.000  C
  C421     1.0000 0.43268  0.28688  0.93430  Biso   1.000  C
  H372     1.0000 0.53913  0.24261  0.01253  Biso   1.000  H
  H373     1.0000 0.53904  0.24260  0.01247  Biso   1.000  H
  H374     1.0000 0.53910  0.24260  0.01247  Biso   1.000  H
  H375     1.0000 0.16212  0.18574  0.23402  Biso   1.000  H
  H376     1.0000 0.16208  0.18565  0.23396  Biso   1.000  H
  H377     1.0000 0.16209  0.18572  0.23396  Biso   1.000  H
  C422     1.0000 0.84290  0.92490  0.12269  Biso   1.000  C
  C423     1.0000 0.00475  0.94304  0.12863  Biso   1.000  C
  C424     1.0000 0.00464  0.94296  0.12857  Biso   1.000  C
  C425     1.0000 0.81881  0.13349  0.98089  Biso   1.000  C
  H378     1.0000 0.81300  0.00050  0.97742  Biso   1.000  H
  C426     1.0000 0.81880  0.13342  0.98089  Biso   1.000  C
  H379     1.0000 0.81299  0.00044  0.97742  Biso   1.000  H
  H380     1.0000 0.76682  0.04359  0.03382  Biso   1.000  H
  H381     1.0000 0.76672  0.04357  0.03376  Biso   1.000  H
  H382     1.0000 0.76679  0.04357  0.03376  Biso   1.000  H
  O88      1.0000 0.24949  0.81178  0.29225  Biso   1.000  O
  C427     1.0000 0.28069  0.72893  0.10692  Biso   1.000  C
  H383     1.0000 0.21151  0.80930  0.15209  Biso   1.000  H
  C428     1.0000 0.26999  0.88841  0.09528  Biso   1.000  C
  C429     1.0000 0.28065  0.72885  0.10687  Biso   1.000  C
  H384     1.0000 0.21145  0.80930  0.15209  Biso   1.000  H
  O89      1.0000 0.85447  0.74114  0.28384  Biso   1.000  O
  O90      1.0000 0.85441  0.74114  0.28384  Biso   1.000  O
  H385     1.0000 0.75753  0.72693  0.14562  Biso   1.000  H
  C430     1.0000 0.65699  0.78172  0.07422  Biso   1.000  C
  C431     1.0000 0.84019  0.84331  0.14192  Biso   1.000  C
  H386     1.0000 0.75743  0.72691  0.14557  Biso   1.000  H
  C432     1.0000 0.65696  0.78170  0.07416  Biso   1.000  C
  C433     1.0000 0.84016  0.84329  0.14186  Biso   1.000  C
  O91      1.0000 0.67434  0.51999  0.97342  Biso   1.000  O
  C434     1.0000 0.74054  0.42987  0.89978  Biso   1.000  C
  O92      1.0000 0.67428  0.51999  0.97342  Biso   1.000  O
  C435     1.0000 0.74047  0.42987  0.89978  Biso   1.000  C
  C436     1.0000 0.71932  0.27113  0.89308  Biso   1.000  C
  H387     1.0000 0.64388  0.23145  0.95618  Biso   1.000  H
  C437     1.0000 0.71926  0.27113  0.89308  Biso   1.000  C
  C438     1.0000 0.34302  0.21835  0.92578  Biso   1.000  C
  H388     1.0000 0.45194  0.26708  0.89049  Biso   1.000  H
  H389     1.0000 0.41685  0.34519  0.93072  Biso   1.000  H
  C439     1.0000 0.34295  0.21835  0.92578  Biso   1.000  C
  H390     1.0000 0.45188  0.26708  0.89049  Biso   1.000  H
  H391     1.0000 0.41676  0.34517  0.93066  Biso   1.000  H
  H392     1.0000 0.78691  0.94757  0.11469  Biso   1.000  H
  H393     1.0000 0.78684  0.94757  0.11469  Biso   1.000  H
  C440     1.0000 0.00539  0.86231  0.14839  Biso   1.000  C
  O93      1.0000 0.08771  0.98753  0.12239  Biso   1.000  O
  O94      1.0000 0.08764  0.98753  0.12239  Biso   1.000  O
  C441     1.0000 0.73002  0.11166  0.90472  Biso   1.000  C
  H394     1.0000 0.87861  0.15016  0.97100  Biso   1.000  H
  C442     1.0000 0.72999  0.11164  0.90466  Biso   1.000  C
  H395     1.0000 0.81729  0.18563  0.01782  Biso   1.000  H
  H396     1.0000 0.81725  0.18555  0.01776  Biso   1.000  H
  H397     1.0000 0.81736  0.18563  0.01782  Biso   1.000  H
  H398     1.0000 0.22898  0.75903  0.26390  Biso   1.000  H
  H399     1.0000 0.22897  0.75897  0.26390  Biso   1.000  H
  C443     1.0000 0.24391  0.65081  0.12669  Biso   1.000  C
  C444     1.0000 0.33053  0.71742  0.05823  Biso   1.000  C
  C445     1.0000 0.24384  0.65081  0.12669  Biso   1.000  C
  C446     1.0000 0.33043  0.71741  0.05817  Biso   1.000  C
  H400     1.0000 0.27376  0.94667  0.12769  Biso   1.000  H
  H401     1.0000 0.32882  0.89614  0.08322  Biso   1.000  H
  C447     1.0000 0.18120  0.86658  0.01911  Biso   1.000  C
  H402     1.0000 0.32878  0.89606  0.08316  Biso   1.000  H
  H403     1.0000 0.88561  0.73233  0.32783  Biso   1.000  H
  H404     1.0000 0.88558  0.73231  0.32777  Biso   1.000  H
  C448     1.0000 0.56727  0.71319  0.06570  Biso   1.000  C
  H405     1.0000 0.67009  0.76582  0.02653  Biso   1.000  H
  H406     1.0000 0.64258  0.84121  0.07681  Biso   1.000  H
  H407     1.0000 0.67006  0.76580  0.02647  Biso   1.000  H
  H408     1.0000 0.64264  0.84121  0.07681  Biso   1.000  H
  C449     1.0000 0.92476  0.81240  0.15498  Biso   1.000  C
  H409     1.0000 0.69497  0.53258  0.02270  Biso   1.000  H
  H410     1.0000 0.69504  0.53258  0.02270  Biso   1.000  H
  H411     1.0000 0.76544  0.48117  0.88508  Biso   1.000  H
  C450     1.0000 0.75610  0.34926  0.87331  Biso   1.000  C
  H412     1.0000 0.76537  0.48117  0.88508  Biso   1.000  H
  C451     1.0000 0.72568  0.18008  0.85508  Biso   1.000  C
  C452     1.0000 0.72567  0.18001  0.85508  Biso   1.000  C
  C453     1.0000 0.25044  0.21096  0.85332  Biso   1.000  C
  H413     1.0000 0.32993  0.23425  0.97347  Biso   1.000  H
  H414     1.0000 0.35744  0.15885  0.92319  Biso   1.000  H
  C454     1.0000 0.25034  0.21095  0.85326  Biso   1.000  C
  H415     1.0000 0.32986  0.23425  0.97347  Biso   1.000  H
  H416     1.0000 0.35737  0.15885  0.92319  Biso   1.000  H
  C455     1.0000 0.25041  0.21095  0.85326  Biso   1.000  C
  H417     1.0000 0.06201  0.84038  0.15762  Biso   1.000  H
  H418     1.0000 0.06198  0.84037  0.15756  Biso   1.000  H
  H419     1.0000 0.10767  0.04001  0.15139  Biso   1.000  H
  H420     1.0000 0.10773  0.04001  0.15139  Biso   1.000  H
  H421     1.0000 0.72625  0.05340  0.87231  Biso   1.000  H
  H422     1.0000 0.67119  0.10393  0.91678  Biso   1.000  H
  H423     1.0000 0.72617  0.05333  0.87231  Biso   1.000  H
  O95      1.0000 0.19358  0.66011  0.17403  Biso   1.000  O
  C456     1.0000 0.25947  0.57020  0.10022  Biso   1.000  C
  C457     1.0000 0.25944  0.57018  0.10016  Biso   1.000  C
  C458     1.0000 0.34569  0.63482  0.02888  Biso   1.000  C
  H424     1.0000 0.35613  0.76861  0.04382  Biso   1.000  H
  C459     1.0000 0.34567  0.63475  0.02888  Biso   1.000  C
  H425     1.0000 0.35607  0.76861  0.04382  Biso   1.000  H
  H426     1.0000 0.18279  0.81443  0.98218  Biso   1.000  H
  C460     1.0000 0.17768  0.94565  0.98218  Biso   1.000  C
  H427     1.0000 0.18272  0.81443  0.98218  Biso   1.000  H
  C461     1.0000 0.17761  0.94565  0.98218  Biso   1.000  C
  H428     1.0000 0.12140  0.84990  0.02900  Biso   1.000  H
  C462     1.0000 0.48194  0.70104  0.98771  Biso   1.000  C
  C463     1.0000 0.48201  0.70104  0.98771  Biso   1.000  C
  H429     1.0000 0.54807  0.73299  0.10951  Biso   1.000  H
  H430     1.0000 0.58316  0.65488  0.06928  Biso   1.000  H
  H431     1.0000 0.54814  0.73299  0.10951  Biso   1.000  H
  O96      1.0000 0.93183  0.73200  0.17362  Biso   1.000  O
  O97      1.0000 0.93173  0.73199  0.17356  Biso   1.000  O
  O98      1.0000 0.80643  0.33995  0.82597  Biso   1.000  O
  O99      1.0000 0.80636  0.33995  0.82597  Biso   1.000  O
  H432     1.0000 0.78850  0.19077  0.84791  Biso   1.000  H
  C464     1.0000 0.64400  0.14258  0.77298  Biso   1.000  C
  C465     1.0000 0.64399  0.14251  0.77298  Biso   1.000  C
  C466     1.0000 0.25608  0.17526  0.77498  Biso   1.000  C
  H433     1.0000 0.24249  0.27314  0.85438  Biso   1.000  H
  C467     1.0000 0.15982  0.15676  0.85808  Biso   1.000  C
  C468     1.0000 0.15976  0.15676  0.85808  Biso   1.000  C
  H434     1.0000 0.17659  0.61051  0.18332  Biso   1.000  H
  H435     1.0000 0.17656  0.61050  0.18327  Biso   1.000  H
  C469     1.0000 0.31016  0.56141  0.05287  Biso   1.000  C
  H436     1.0000 0.23458  0.51890  0.11492  Biso   1.000  H
  H437     1.0000 0.23455  0.51888  0.11486  Biso   1.000  H
  C470     1.0000 0.39359  0.62374  0.97100  Biso   1.000  C
  C471     1.0000 0.39353  0.62374  0.97100  Biso   1.000  C
  C472     1.0000 0.08292  0.93476  0.91043  Biso   1.000  C
  H438     1.0000 0.23326  0.95648  0.96618  Biso   1.000  H
  C473     1.0000 0.08282  0.93474  0.91037  Biso   1.000  C
  H439     1.0000 0.18701  0.99956  0.02258  Biso   1.000  H
  H440     1.0000 0.18694  0.99956  0.02258  Biso   1.000  H
  H441     1.0000 0.50470  0.68999  0.94471  Biso   1.000  H
  H442     1.0000 0.46095  0.75745  0.98747  Biso   1.000  H
  H443     1.0000 0.50462  0.68993  0.94471  Biso   1.000  H
  H444     1.0000 0.50469  0.68993  0.94471  Biso   1.000  H
  H445     1.0000 0.91898  0.73041  0.21332  Biso   1.000  H
  H446     1.0000 0.91895  0.73040  0.21326  Biso   1.000  H
  H447     1.0000 0.82343  0.38955  0.81668  Biso   1.000  H
  H448     1.0000 0.82336  0.38955  0.81668  Biso   1.000  H
  C474     1.0000 0.65961  0.14975  0.70458  Biso   1.000  C
  C475     1.0000 0.54953  0.10024  0.76239  Biso   1.000  C
  C476     1.0000 0.65955  0.14975  0.70458  Biso   1.000  C
  C477     1.0000 0.54946  0.10024  0.76239  Biso   1.000  C
  C478     1.0000 0.19988  0.19926  0.70728  Biso   1.000  C
  C479     1.0000 0.31030  0.11436  0.76427  Biso   1.000  C
  C480     1.0000 0.15711  0.07517  0.87731  Biso   1.000  C
  C481     1.0000 0.07525  0.18767  0.84502  Biso   1.000  C
  C482     1.0000 0.07516  0.18765  0.84497  Biso   1.000  C
  O100     1.0000 0.32567  0.48007  0.02658  Biso   1.000  O
  C483     1.0000 0.31699  0.60377  0.88702  Biso   1.000  C
  H449     1.0000 0.41866  0.56906  0.97547  Biso   1.000  H
  C484     1.0000 0.31696  0.60376  0.88696  Biso   1.000  C
  H450     1.0000 0.02776  0.91934  0.92719  Biso   1.000  H
  C485     1.0000 0.06299  0.85973  0.83979  Biso   1.000  C
  C486     1.0000 0.06292  0.85973  0.83979  Biso   1.000  C
  C487     1.0000 0.07804  0.02348  0.88590  Biso   1.000  C
  C488     1.0000 0.07796  0.02342  0.88590  Biso   1.000  C
  C489     1.0000 0.58411  0.11417  0.63147  Biso   1.000  C
  O101     1.0000 0.75052  0.18828  0.70775  Biso   1.000  O
  C490     1.0000 0.58410  0.11410  0.63147  Biso   1.000  C
  O102     1.0000 0.75051  0.18822  0.70775  Biso   1.000  O
  C491     1.0000 0.47263  0.06297  0.68952  Biso   1.000  C
  H451     1.0000 0.53703  0.09674  0.80791  Biso   1.000  H
  C492     1.0000 0.47260  0.06295  0.68946  Biso   1.000  C
  H452     1.0000 0.53697  0.09674  0.80791  Biso   1.000  H
  C493     1.0000 0.19863  0.16409  0.63582  Biso   1.000  C
  O103     1.0000 0.14554  0.25893  0.71616  Biso   1.000  O
  C494     1.0000 0.19859  0.16401  0.63576  Biso   1.000  C
  C495     1.0000 0.31068  0.07725  0.69240  Biso   1.000  C
  H453     1.0000 0.34919  0.09737  0.80921  Biso   1.000  H
  H454     1.0000 0.21310  0.05250  0.88531  Biso   1.000  H
  H455     1.0000 0.21309  0.05243  0.88531  Biso   1.000  H
  C496     1.0000 0.99462  0.13775  0.85161  Biso   1.000  C
  O104     1.0000 0.06819  0.26806  0.82638  Biso   1.000  O
  H456     1.0000 0.30510  0.46748  0.97730  Biso   1.000  H
  H457     1.0000 0.30504  0.46748  0.97730  Biso   1.000  H
  C497     1.0000 0.26754  0.51587  0.84208  Biso   1.000  C
  C498     1.0000 0.29218  0.67164  0.85161  Biso   1.000  C
  C499     1.0000 0.29212  0.67164  0.85161  Biso   1.000  C
  C500     1.0000 0.96625  0.81774  0.78633  Biso   1.000  C
  C501     1.0000 0.96623  0.81772  0.78627  Biso   1.000  C
  C502     1.0000 0.13636  0.83266  0.82150  Biso   1.000  C
  C503     1.0000 0.99527  0.05703  0.87137  Biso   1.000  C
  H458     1.0000 0.59593  0.11882  0.58589  Biso   1.000  H
  C504     1.0000 0.49190  0.07177  0.62318  Biso   1.000  C
  H459     1.0000 0.59586  0.11882  0.58589  Biso   1.000  H
  H460     1.0000 0.77103  0.24103  0.73610  Biso   1.000  H
  H461     1.0000 0.77096  0.24103  0.73610  Biso   1.000  H
  C505     1.0000 0.37169  0.01244  0.68211  Biso   1.000  C
  C506     1.0000 0.25260  0.10254  0.62718  Biso   1.000  C
  H462     1.0000 0.16035  0.18167  0.59112  Biso   1.000  H
  H463     1.0000 0.16025  0.18165  0.59106  Biso   1.000  H
  H464     1.0000 0.11441  0.26774  0.67217  Biso   1.000  H
  H465     1.0000 0.93800  0.15968  0.84238  Biso   1.000  H
  H466     1.0000 0.93799  0.15962  0.84238  Biso   1.000  H
  H467     1.0000 0.08103  0.26965  0.78668  Biso   1.000  H
  H468     1.0000 0.08097  0.26965  0.78668  Biso   1.000  H
  O105     1.0000 0.28516  0.44257  0.87237  Biso   1.000  O
  C507     1.0000 0.19933  0.49944  0.76639  Biso   1.000  C
  O106     1.0000 0.28510  0.44257  0.87237  Biso   1.000  O
  C508     1.0000 0.22376  0.65784  0.77509  Biso   1.000  C
  H469     1.0000 0.32405  0.73185  0.88149  Biso   1.000  H
  O107     1.0000 0.89210  0.84301  0.80244  Biso   1.000  O
  C509     1.0000 0.94655  0.75412  0.71857  Biso   1.000  C
  O108     1.0000 0.89204  0.84301  0.80244  Biso   1.000  O
  C510     1.0000 0.11956  0.76833  0.75510  Biso   1.000  C
  H470     1.0000 0.20242  0.86030  0.85702  Biso   1.000  H
  H471     1.0000 0.20231  0.86021  0.85696  Biso   1.000  H
  O109     1.0000 0.91231  0.01254  0.87761  Biso   1.000  O
  O110     1.0000 0.91237  0.01254  0.87761  Biso   1.000  O
  O111     1.0000 0.42073  0.03803  0.54766  Biso   1.000  O
  O112     1.0000 0.42067  0.03803  0.54766  Biso   1.000  O
  H472     1.0000 0.33680  0.97443  0.62688  Biso   1.000  H
  C511     1.0000 0.38139  0.94794  0.73592  Biso   1.000  C
  H473     1.0000 0.33673  0.97443  0.62688  Biso   1.000  H
  C512     1.0000 0.38136  0.94792  0.73587  Biso   1.000  C
  O113     1.0000 0.25090  0.06472  0.55507  Biso   1.000  O
  O114     1.0000 0.25087  0.06470  0.55501  Biso   1.000  O
  H474     1.0000 0.24961  0.39508  0.83832  Biso   1.000  H
  H475     1.0000 0.24951  0.39507  0.83826  Biso   1.000  H
  C513     1.0000 0.17697  0.56865  0.73292  Biso   1.000  C
  H476     1.0000 0.16708  0.43925  0.73681  Biso   1.000  H
  C514     1.0000 0.17694  0.56863  0.73287  Biso   1.000  C
  H477     1.0000 0.16702  0.43925  0.73681  Biso   1.000  H
  C515     1.0000 0.20269  0.73627  0.73957  Biso   1.000  C
  C516     1.0000 0.20262  0.73627  0.73957  Biso   1.000  C
  H478     1.0000 0.83795  0.81433  0.76598  Biso   1.000  H
  H479     1.0000 0.88069  0.72675  0.68281  Biso   1.000  H
  H480     1.0000 0.88063  0.72675  0.68281  Biso   1.000  H
  C517     1.0000 0.02199  0.72986  0.70258  Biso   1.000  C
  C518     1.0000 0.02192  0.72986  0.70258  Biso   1.000  C
  H481     1.0000 0.89241  0.96006  0.84861  Biso   1.000  H
  H482     1.0000 0.89235  0.96006  0.84861  Biso   1.000  H
  H483     1.0000 0.37418  0.06216  0.54248  Biso   1.000  H
  C519     1.0000 0.28378  0.88149  0.71693  Biso   1.000  C
  C520     1.0000 0.28374  0.88140  0.71687  Biso   1.000  C
  H484     1.0000 0.40749  0.98317  0.79121  Biso   1.000  H
  H485     1.0000 0.42886  0.91405  0.73057  Biso   1.000  H
  H486     1.0000 0.21391  0.08475  0.52031  Biso   1.000  H
  O115     1.0000 0.10954  0.54615  0.65647  Biso   1.000  O
  H487     1.0000 0.17798  0.71282  0.68140  Biso   1.000  H
  C521     1.0000 0.29609  0.81183  0.76427  Biso   1.000  C
  H488     1.0000 0.17792  0.71282  0.68140  Biso   1.000  H
  C522     1.0000 0.29602  0.81183  0.76427  Biso   1.000  C
  O116     1.0000 0.00361  0.66725  0.63518  Biso   1.000  O
  O117     1.0000 0.00351  0.66717  0.63512  Biso   1.000  O
  H489     1.0000 0.23860  0.91478  0.72793  Biso   1.000  H
  H490     1.0000 0.25400  0.85076  0.66011  Biso   1.000  H
  H491     1.0000 0.23851  0.91477  0.72787  Biso   1.000  H
  H492     1.0000 0.25393  0.85076  0.66011  Biso   1.000  H
  H493     1.0000 0.23857  0.91477  0.72787  Biso   1.000  H
  H494     1.0000 0.07610  0.58385  0.65011  Biso   1.000  H
  H495     1.0000 0.07603  0.58385  0.65011  Biso   1.000  H
  H496     1.0000 0.31789  0.84219  0.82050  Biso   1.000  H
  H497     1.0000 0.34835  0.78484  0.75898  Biso   1.000  H
  H498     1.0000 0.31781  0.84213  0.82050  Biso   1.000  H
  H499     1.0000 0.31788  0.84213  0.82050  Biso   1.000  H
  H500     1.0000 0.94288  0.64883  0.60847  Biso   1.000  H
  H501     1.0000 0.94281  0.64883  0.60847  Biso   1.000  H
  C523     1.0000 0.70395  0.18816  0.23567  Biso   1.000  C
  C524     1.0000 0.79739  0.26380  0.26043  Biso   1.000  C
  C525     1.0000 0.79736  0.26378  0.26037  Biso   1.000  C
  H502     1.0000 0.68219  0.15787  0.17950  Biso   1.000  H
  H503     1.0000 0.65173  0.21523  0.24102  Biso   1.000  H
  C526     1.0000 0.71630  0.11858  0.28307  Biso   1.000  C
  H504     1.0000 0.65163  0.21521  0.24096  Biso   1.000  H
  C527     1.0000 0.71623  0.11858  0.28307  Biso   1.000  C
  H505     1.0000 0.68220  0.15794  0.17950  Biso   1.000  H
  H506     1.0000 0.65170  0.21521  0.24096  Biso   1.000  H
  C528     1.0000 0.77632  0.34223  0.22491  Biso   1.000  C
  C529     1.0000 0.88051  0.23174  0.24490  Biso   1.000  C
  H507     1.0000 0.82210  0.28724  0.31860  Biso   1.000  H
  C530     1.0000 0.70399  0.18824  0.23573  Biso   1.000  C
  C531     1.0000 0.88050  0.23167  0.24490  Biso   1.000  C
  H508     1.0000 0.82208  0.28718  0.31860  Biso   1.000  H
  C532     1.0000 0.70406  0.18824  0.23573  Biso   1.000  C
  H509     1.0000 0.76147  0.08528  0.27207  Biso   1.000  H
  H510     1.0000 0.74608  0.14931  0.33989  Biso   1.000  H
  C533     1.0000 0.61869  0.05213  0.26408  Biso   1.000  C
  C534     1.0000 0.61868  0.05206  0.26408  Biso   1.000  C
  C535     1.0000 0.70789  0.32842  0.14839  Biso   1.000  C
  C536     1.0000 0.82311  0.43142  0.26708  Biso   1.000  C
  C537     1.0000 0.82305  0.43142  0.26708  Biso   1.000  C
  C538     1.0000 0.97809  0.27021  0.29742  Biso   1.000  C
  C539     1.0000 0.86372  0.16740  0.17850  Biso   1.000  C
  C540     1.0000 0.97806  0.27019  0.29737  Biso   1.000  C
  C541     1.0000 0.86366  0.16740  0.17850  Biso   1.000  C
  C542     1.0000 0.97815  0.27021  0.29742  Biso   1.000  C
  H511     1.0000 0.59259  0.01690  0.20879  Biso   1.000  H
  C543     1.0000 0.62833  0.98763  0.31789  Biso   1.000  C
  C544     1.0000 0.62825  0.98756  0.31789  Biso   1.000  C
  H512     1.0000 0.57122  0.08602  0.26943  Biso   1.000  H
  H513     1.0000 0.57119  0.08600  0.26937  Biso   1.000  H
  C545     1.0000 0.68309  0.39629  0.11298  Biso   1.000  C
  H514     1.0000 0.67603  0.26822  0.11851  Biso   1.000  H
  H515     1.0000 0.67597  0.26822  0.11851  Biso   1.000  H
  O118     1.0000 0.89054  0.45392  0.34353  Biso   1.000  O
  C546     1.0000 0.80074  0.50063  0.23361  Biso   1.000  C
  O119     1.0000 0.89046  0.45385  0.34353  Biso   1.000  O
  C547     1.0000 0.80068  0.50063  0.23361  Biso   1.000  C
  O120     1.0000 0.99646  0.33281  0.36482  Biso   1.000  O
  C548     1.0000 0.05353  0.24594  0.28143  Biso   1.000  C
  C549     1.0000 0.05349  0.24586  0.28137  Biso   1.000  C
  H516     1.0000 0.79766  0.13977  0.14298  Biso   1.000  H
  C550     1.0000 0.93709  0.14034  0.16021  Biso   1.000  C
  C551     1.0000 0.93708  0.14027  0.16021  Biso   1.000  C
  C552     1.0000 0.52738  0.93709  0.31048  Biso   1.000  C
  C553     1.0000 0.68933  0.92282  0.30760  Biso   1.000  C
  C554     1.0000 0.68926  0.92282  0.30760  Biso   1.000  C
  H517     1.0000 0.66328  0.02564  0.37312  Biso   1.000  H
  H518     1.0000 0.66335  0.02564  0.37312  Biso   1.000  H
  C555     1.0000 0.73254  0.48420  0.15792  Biso   1.000  C
  C556     1.0000 0.60648  0.37632  0.02900  Biso   1.000  C
  C557     1.0000 0.73247  0.48420  0.15792  Biso   1.000  C
  C558     1.0000 0.60647  0.37626  0.02900  Biso   1.000  C
  H519     1.0000 0.92398  0.41622  0.34989  Biso   1.000  H
  H520     1.0000 0.83300  0.56081  0.26319  Biso   1.000  H
  H521     1.0000 0.05720  0.35123  0.39153  Biso   1.000  H
  H522     1.0000 0.05717  0.35122  0.39147  Biso   1.000  H
  C559     1.0000 0.03382  0.18233  0.21367  Biso   1.000  C
  H523     1.0000 0.11939  0.27332  0.31719  Biso   1.000  H
  C560     1.0000 0.03375  0.18226  0.21367  Biso   1.000  C
  C561     1.0000 0.91716  0.06530  0.08957  Biso   1.000  C
  C562     1.0000 0.91722  0.06530  0.08957  Biso   1.000  C
  C563     1.0000 0.50811  0.92830  0.37682  Biso   1.000  C
  C564     1.0000 0.45048  0.89983  0.23761  Biso   1.000  C
  C565     1.0000 0.50808  0.92828  0.37676  Biso   1.000  C
  C566     1.0000 0.74741  0.89752  0.37282  Biso   1.000  C
  C567     1.0000 0.68971  0.88571  0.23573  Biso   1.000  C
  C568     1.0000 0.74738  0.89750  0.37276  Biso   1.000  C
  C569     1.0000 0.68968  0.88569  0.23567  Biso   1.000  C
  O121     1.0000 0.71492  0.55749  0.12763  Biso   1.000  O
  O122     1.0000 0.71489  0.55748  0.12757  Biso   1.000  O
  C570     1.0000 0.65433  0.36525  0.97112  Biso   1.000  C
  C571     1.0000 0.65430  0.36523  0.97106  Biso   1.000  C
  H524     1.0000 0.58142  0.43100  0.02453  Biso   1.000  H
  C572     1.0000 0.51814  0.29902  0.01229  Biso   1.000  C
  H525     1.0000 0.58139  0.43099  0.02447  Biso   1.000  H
  C573     1.0000 0.51806  0.29896  0.01229  Biso   1.000  C
  O123     1.0000 0.10797  0.15705  0.19756  Biso   1.000  O
  H526     1.0000 0.97232  0.08073  0.07281  Biso   1.000  H
  C574     1.0000 0.92197  0.97658  0.11410  Biso   1.000  C
  C575     1.0000 0.82240  0.05442  0.01782  Biso   1.000  C
  C576     1.0000 0.82237  0.05440  0.01776  Biso   1.000  C
  O124     1.0000 0.57928  0.96203  0.45234  Biso   1.000  O
  C577     1.0000 0.41590  0.88590  0.36853  Biso   1.000  C
  C578     1.0000 0.41588  0.88588  0.36847  Biso   1.000  C
  C579     1.0000 0.35601  0.85749  0.22702  Biso   1.000  C
  H527     1.0000 0.46298  0.90333  0.19209  Biso   1.000  H
  C580     1.0000 0.35598  0.85747  0.22696  Biso   1.000  C
  H528     1.0000 0.46297  0.90326  0.19209  Biso   1.000  H
  C581     1.0000 0.80138  0.83598  0.36418  Biso   1.000  C
  O125     1.0000 0.74911  0.93535  0.44493  Biso   1.000  O
  O126     1.0000 0.74905  0.93535  0.44493  Biso   1.000  O
  C582     1.0000 0.74393  0.82481  0.22502  Biso   1.000  C
  H529     1.0000 0.65082  0.90270  0.19079  Biso   1.000  H
  C583     1.0000 0.74383  0.82479  0.22496  Biso   1.000  C
  H530     1.0000 0.65076  0.90270  0.19079  Biso   1.000  H
  H531     1.0000 0.75047  0.60498  0.16168  Biso   1.000  H
  C584     1.0000 0.68985  0.43865  0.94713  Biso   1.000  C
  C585     1.0000 0.66948  0.28264  0.94177  Biso   1.000  C
  C586     1.0000 0.68976  0.43864  0.94707  Biso   1.000  C
  H532     1.0000 0.49538  0.31007  0.05529  Biso   1.000  H
  C587     1.0000 0.43274  0.28688  0.93430  Biso   1.000  C
  C588     1.0000 0.43268  0.28688  0.93430  Biso   1.000  C
  H533     1.0000 0.53913  0.24261  0.01253  Biso   1.000  H
  H534     1.0000 0.53904  0.24260  0.01247  Biso   1.000  H
  H535     1.0000 0.53910  0.24260  0.01247  Biso   1.000  H
  H536     1.0000 0.16212  0.18574  0.23402  Biso   1.000  H
  H537     1.0000 0.16208  0.18565  0.23396  Biso   1.000  H
  H538     1.0000 0.16209  0.18572  0.23396  Biso   1.000  H
  C589     1.0000 0.84290  0.92490  0.12269  Biso   1.000  C
  C590     1.0000 0.00475  0.94304  0.12863  Biso   1.000  C
  C591     1.0000 0.00464  0.94296  0.12857  Biso   1.000  C
  C592     1.0000 0.81881  0.13349  0.98089  Biso   1.000  C
  H539     1.0000 0.81300  0.00050  0.97742  Biso   1.000  H
  C593     1.0000 0.81880  0.13342  0.98089  Biso   1.000  C
  H540     1.0000 0.81299  0.00044  0.97742  Biso   1.000  H
  H541     1.0000 0.76682  0.04359  0.03382  Biso   1.000  H
  H542     1.0000 0.76672  0.04357  0.03376  Biso   1.000  H
  H543     1.0000 0.76679  0.04357  0.03376  Biso   1.000  H
  H544     1.0000 0.62583  0.93790  0.45752  Biso   1.000  H
  H545     1.0000 0.62576  0.93790  0.45752  Biso   1.000  H
  C594     1.0000 0.34040  0.85032  0.29542  Biso   1.000  C
  H546     1.0000 0.40408  0.88124  0.41411  Biso   1.000  H
  C595     1.0000 0.34037  0.85030  0.29537  Biso   1.000  C
  H547     1.0000 0.40407  0.88118  0.41411  Biso   1.000  H
  C596     1.0000 0.27433  0.81999  0.14492  Biso   1.000  C
  C597     1.0000 0.27423  0.81997  0.14486  Biso   1.000  C
  H548     1.0000 0.83966  0.81840  0.40888  Biso   1.000  H
  C598     1.0000 0.80013  0.80080  0.29272  Biso   1.000  C
  C599     1.0000 0.80006  0.80080  0.29272  Biso   1.000  C
  H549     1.0000 0.78610  0.91532  0.47969  Biso   1.000  H
  C600     1.0000 0.74957  0.78910  0.14668  Biso   1.000  C
  O127     1.0000 0.67434  0.51999  0.97342  Biso   1.000  O
  C601     1.0000 0.74054  0.42987  0.89978  Biso   1.000  C
  O128     1.0000 0.67428  0.51999  0.97342  Biso   1.000  O
  C602     1.0000 0.74047  0.42987  0.89978  Biso   1.000  C
  C603     1.0000 0.71932  0.27113  0.89308  Biso   1.000  C
  H550     1.0000 0.64388  0.23145  0.95618  Biso   1.000  H
  C604     1.0000 0.71926  0.27113  0.89308  Biso   1.000  C
  C605     1.0000 0.34302  0.21835  0.92578  Biso   1.000  C
  H551     1.0000 0.45194  0.26708  0.89049  Biso   1.000  H
  H552     1.0000 0.41685  0.34519  0.93072  Biso   1.000  H
  C606     1.0000 0.34295  0.21835  0.92578  Biso   1.000  C
  H553     1.0000 0.45188  0.26708  0.89049  Biso   1.000  H
  H554     1.0000 0.41676  0.34517  0.93066  Biso   1.000  H
  C607     1.0000 0.84019  0.84331  0.14192  Biso   1.000  C
  H555     1.0000 0.78691  0.94757  0.11469  Biso   1.000  H
  C608     1.0000 0.84016  0.84329  0.14186  Biso   1.000  C
  H556     1.0000 0.78684  0.94757  0.11469  Biso   1.000  H
  C609     1.0000 0.00539  0.86231  0.14839  Biso   1.000  C
  O129     1.0000 0.08771  0.98753  0.12239  Biso   1.000  O
  O130     1.0000 0.08764  0.98753  0.12239  Biso   1.000  O
  C610     1.0000 0.73002  0.11166  0.90472  Biso   1.000  C
  C611     1.0000 0.72999  0.11164  0.90466  Biso   1.000  C
  H557     1.0000 0.87861  0.15016  0.97100  Biso   1.000  H
  H558     1.0000 0.81729  0.18563  0.01782  Biso   1.000  H
  H559     1.0000 0.81725  0.18555  0.01776  Biso   1.000  H
  H560     1.0000 0.81736  0.18563  0.01782  Biso   1.000  H
  O131     1.0000 0.24949  0.81178  0.29225  Biso   1.000  O
  C612     1.0000 0.28069  0.72893  0.10692  Biso   1.000  C
  H561     1.0000 0.21151  0.80930  0.15209  Biso   1.000  H
  C613     1.0000 0.26999  0.88841  0.09528  Biso   1.000  C
  C614     1.0000 0.28065  0.72885  0.10687  Biso   1.000  C
  H562     1.0000 0.21145  0.80930  0.15209  Biso   1.000  H
  O132     1.0000 0.85447  0.74114  0.28384  Biso   1.000  O
  O133     1.0000 0.85441  0.74114  0.28384  Biso   1.000  O
  H563     1.0000 0.75753  0.72693  0.14562  Biso   1.000  H
  C615     1.0000 0.65699  0.78172  0.07422  Biso   1.000  C
  H564     1.0000 0.75743  0.72691  0.14557  Biso   1.000  H
  C616     1.0000 0.65696  0.78170  0.07416  Biso   1.000  C
  H565     1.0000 0.69497  0.53258  0.02270  Biso   1.000  H
  H566     1.0000 0.69504  0.53258  0.02270  Biso   1.000  H
  H567     1.0000 0.76544  0.48117  0.88508  Biso   1.000  H
  C617     1.0000 0.75610  0.34926  0.87331  Biso   1.000  C
  H568     1.0000 0.76537  0.48117  0.88508  Biso   1.000  H
  C618     1.0000 0.72568  0.18008  0.85508  Biso   1.000  C
  C619     1.0000 0.72567  0.18001  0.85508  Biso   1.000  C
  C620     1.0000 0.25044  0.21096  0.85332  Biso   1.000  C
  H569     1.0000 0.32993  0.23425  0.97347  Biso   1.000  H
  H570     1.0000 0.35744  0.15885  0.92319  Biso   1.000  H
  C621     1.0000 0.25034  0.21095  0.85326  Biso   1.000  C
  H571     1.0000 0.32986  0.23425  0.97347  Biso   1.000  H
  H572     1.0000 0.35737  0.15885  0.92319  Biso   1.000  H
  C622     1.0000 0.25041  0.21095  0.85326  Biso   1.000  C
  C623     1.0000 0.92476  0.81240  0.15498  Biso   1.000  C
  H573     1.0000 0.06201  0.84038  0.15762  Biso   1.000  H
  H574     1.0000 0.06198  0.84037  0.15756  Biso   1.000  H
  H575     1.0000 0.10767  0.04001  0.15139  Biso   1.000  H
  H576     1.0000 0.10773  0.04001  0.15139  Biso   1.000  H
  H577     1.0000 0.72625  0.05340  0.87231  Biso   1.000  H
  H578     1.0000 0.67119  0.10393  0.91678  Biso   1.000  H
  H579     1.0000 0.72617  0.05333  0.87231  Biso   1.000  H
  H580     1.0000 0.22898  0.75903  0.26390  Biso   1.000  H
  H581     1.0000 0.22897  0.75897  0.26390  Biso   1.000  H
  C624     1.0000 0.24391  0.65081  0.12669  Biso   1.000  C
  C625     1.0000 0.33053  0.71742  0.05823  Biso   1.000  C
  C626     1.0000 0.24384  0.65081  0.12669  Biso   1.000  C
  C627     1.0000 0.33043  0.71741  0.05817  Biso   1.000  C
  H582     1.0000 0.27376  0.94667  0.12769  Biso   1.000  H
  H583     1.0000 0.32882  0.89614  0.08322  Biso   1.000  H
  C628     1.0000 0.18120  0.86658  0.01911  Biso   1.000  C
  H584     1.0000 0.32878  0.89606  0.08316  Biso   1.000  H
  H585     1.0000 0.88561  0.73233  0.32783  Biso   1.000  H
  H586     1.0000 0.88558  0.73231  0.32777  Biso   1.000  H
  C629     1.0000 0.56727  0.71319  0.06570  Biso   1.000  C
  H587     1.0000 0.67009  0.76582  0.02653  Biso   1.000  H
  H588     1.0000 0.64258  0.84121  0.07681  Biso   1.000  H
  H589     1.0000 0.67006  0.76580  0.02647  Biso   1.000  H
  H590     1.0000 0.64264  0.84121  0.07681  Biso   1.000  H
  O134     1.0000 0.80643  0.33995  0.82597  Biso   1.000  O
  O135     1.0000 0.80636  0.33995  0.82597  Biso   1.000  O
  H591     1.0000 0.78850  0.19077  0.84791  Biso   1.000  H
  C630     1.0000 0.64400  0.14258  0.77298  Biso   1.000  C
  C631     1.0000 0.64399  0.14251  0.77298  Biso   1.000  C
  C632     1.0000 0.25608  0.17526  0.77498  Biso   1.000  C
  H592     1.0000 0.24249  0.27314  0.85438  Biso   1.000  H
  C633     1.0000 0.15982  0.15676  0.85808  Biso   1.000  C
  C634     1.0000 0.15976  0.15676  0.85808  Biso   1.000  C
  O136     1.0000 0.93183  0.73200  0.17362  Biso   1.000  O
  O137     1.0000 0.93173  0.73199  0.17356  Biso   1.000  O
  O138     1.0000 0.19358  0.66011  0.17403  Biso   1.000  O
  C635     1.0000 0.25947  0.57020  0.10022  Biso   1.000  C
  C636     1.0000 0.25944  0.57018  0.10016  Biso   1.000  C
  C637     1.0000 0.34569  0.63482  0.02888  Biso   1.000  C
  H593     1.0000 0.35613  0.76861  0.04382  Biso   1.000  H
  C638     1.0000 0.34567  0.63475  0.02888  Biso   1.000  C
  H594     1.0000 0.35607  0.76861  0.04382  Biso   1.000  H
  C639     1.0000 0.17768  0.94565  0.98218  Biso   1.000  C
  C640     1.0000 0.17761  0.94565  0.98218  Biso   1.000  C
  H595     1.0000 0.18279  0.81443  0.98218  Biso   1.000  H
  H596     1.0000 0.18272  0.81443  0.98218  Biso   1.000  H
  H597     1.0000 0.12140  0.84990  0.02900  Biso   1.000  H
  C641     1.0000 0.48194  0.70104  0.98771  Biso   1.000  C
  C642     1.0000 0.48201  0.70104  0.98771  Biso   1.000  C
  H598     1.0000 0.54807  0.73299  0.10951  Biso   1.000  H
  H599     1.0000 0.58316  0.65488  0.06928  Biso   1.000  H
  H600     1.0000 0.54814  0.73299  0.10951  Biso   1.000  H
  H601     1.0000 0.82343  0.38955  0.81668  Biso   1.000  H
  H602     1.0000 0.82336  0.38955  0.81668  Biso   1.000  H
  C643     1.0000 0.65961  0.14975  0.70458  Biso   1.000  C
  C644     1.0000 0.54953  0.10024  0.76239  Biso   1.000  C
  C645     1.0000 0.65955  0.14975  0.70458  Biso   1.000  C
  C646     1.0000 0.54946  0.10024  0.76239  Biso   1.000  C
  C647     1.0000 0.19988  0.19926  0.70728  Biso   1.000  C
  C648     1.0000 0.31030  0.11436  0.76427  Biso   1.000  C
  C649     1.0000 0.07525  0.18767  0.84502  Biso   1.000  C
  C650     1.0000 0.15711  0.07517  0.87731  Biso   1.000  C
  C651     1.0000 0.07516  0.18765  0.84497  Biso   1.000  C
  H603     1.0000 0.91898  0.73041  0.21332  Biso   1.000  H
  H604     1.0000 0.91895  0.73040  0.21326  Biso   1.000  H
  H605     1.0000 0.17659  0.61051  0.18332  Biso   1.000  H
  H606     1.0000 0.17656  0.61050  0.18327  Biso   1.000  H
  C652     1.0000 0.31016  0.56141  0.05287  Biso   1.000  C
  H607     1.0000 0.23458  0.51890  0.11492  Biso   1.000  H
  H608     1.0000 0.23455  0.51888  0.11486  Biso   1.000  H
  C653     1.0000 0.39359  0.62374  0.97100  Biso   1.000  C
  C654     1.0000 0.39353  0.62374  0.97100  Biso   1.000  C
  C655     1.0000 0.08292  0.93476  0.91043  Biso   1.000  C
  C656     1.0000 0.08282  0.93474  0.91037  Biso   1.000  C
  H609     1.0000 0.23326  0.95648  0.96618  Biso   1.000  H
  H610     1.0000 0.18701  0.99956  0.02258  Biso   1.000  H
  H611     1.0000 0.18694  0.99956  0.02258  Biso   1.000  H
  H612     1.0000 0.50470  0.68999  0.94471  Biso   1.000  H
  H613     1.0000 0.46095  0.75745  0.98747  Biso   1.000  H
  H614     1.0000 0.50462  0.68993  0.94471  Biso   1.000  H
  H615     1.0000 0.50469  0.68993  0.94471  Biso   1.000  H
  C657     1.0000 0.58411  0.11417  0.63147  Biso   1.000  C
  O139     1.0000 0.75052  0.18828  0.70775  Biso   1.000  O
  C658     1.0000 0.58410  0.11410  0.63147  Biso   1.000  C
  O140     1.0000 0.75051  0.18822  0.70775  Biso   1.000  O
  C659     1.0000 0.47263  0.06297  0.68952  Biso   1.000  C
  H616     1.0000 0.53703  0.09674  0.80791  Biso   1.000  H
  C660     1.0000 0.47260  0.06295  0.68946  Biso   1.000  C
  H617     1.0000 0.53697  0.09674  0.80791  Biso   1.000  H
  C661     1.0000 0.19863  0.16409  0.63582  Biso   1.000  C
  O141     1.0000 0.14554  0.25893  0.71616  Biso   1.000  O
  C662     1.0000 0.19859  0.16401  0.63576  Biso   1.000  C
  C663     1.0000 0.31068  0.07725  0.69240  Biso   1.000  C
  H618     1.0000 0.34919  0.09737  0.80921  Biso   1.000  H
  C664     1.0000 0.99462  0.13775  0.85161  Biso   1.000  C
  O142     1.0000 0.06819  0.26806  0.82638  Biso   1.000  O
  C665     1.0000 0.07804  0.02348  0.88590  Biso   1.000  C
  H619     1.0000 0.21310  0.05250  0.88531  Biso   1.000  H
  C666     1.0000 0.07796  0.02342  0.88590  Biso   1.000  C
  H620     1.0000 0.21309  0.05243  0.88531  Biso   1.000  H
  O143     1.0000 0.32567  0.48007  0.02658  Biso   1.000  O
  C667     1.0000 0.31699  0.60377  0.88702  Biso   1.000  C
  H621     1.0000 0.41866  0.56906  0.97547  Biso   1.000  H
  C668     1.0000 0.31696  0.60376  0.88696  Biso   1.000  C
  H622     1.0000 0.02776  0.91934  0.92719  Biso   1.000  H
  C669     1.0000 0.06299  0.85973  0.83979  Biso   1.000  C
  C670     1.0000 0.06292  0.85973  0.83979  Biso   1.000  C
  H623     1.0000 0.59593  0.11882  0.58589  Biso   1.000  H
  C671     1.0000 0.49190  0.07177  0.62318  Biso   1.000  C
  H624     1.0000 0.59586  0.11882  0.58589  Biso   1.000  H
  H625     1.0000 0.77103  0.24103  0.73610  Biso   1.000  H
  H626     1.0000 0.77096  0.24103  0.73610  Biso   1.000  H
  C672     1.0000 0.37169  0.01244  0.68211  Biso   1.000  C
  C673     1.0000 0.25260  0.10254  0.62718  Biso   1.000  C
  H627     1.0000 0.16035  0.18167  0.59112  Biso   1.000  H
  H628     1.0000 0.16025  0.18165  0.59106  Biso   1.000  H
  H629     1.0000 0.11441  0.26774  0.67217  Biso   1.000  H
  H630     1.0000 0.93800  0.15968  0.84238  Biso   1.000  H
  C674     1.0000 0.99527  0.05703  0.87137  Biso   1.000  C
  H631     1.0000 0.93799  0.15962  0.84238  Biso   1.000  H
  H632     1.0000 0.08103  0.26965  0.78668  Biso   1.000  H
  H633     1.0000 0.08097  0.26965  0.78668  Biso   1.000  H
  H634     1.0000 0.30510  0.46748  0.97730  Biso   1.000  H
  H635     1.0000 0.30504  0.46748  0.97730  Biso   1.000  H
  C675     1.0000 0.26754  0.51587  0.84208  Biso   1.000  C
  C676     1.0000 0.29218  0.67164  0.85161  Biso   1.000  C
  C677     1.0000 0.29212  0.67164  0.85161  Biso   1.000  C
  C678     1.0000 0.96625  0.81774  0.78633  Biso   1.000  C
  C679     1.0000 0.96623  0.81772  0.78627  Biso   1.000  C
  C680     1.0000 0.13636  0.83266  0.82150  Biso   1.000  C
  O144     1.0000 0.42073  0.03803  0.54766  Biso   1.000  O
  O145     1.0000 0.42067  0.03803  0.54766  Biso   1.000  O
  H636     1.0000 0.33680  0.97443  0.62688  Biso   1.000  H
  C681     1.0000 0.38139  0.94794  0.73592  Biso   1.000  C
  H637     1.0000 0.33673  0.97443  0.62688  Biso   1.000  H
  C682     1.0000 0.38136  0.94792  0.73587  Biso   1.000  C
  O146     1.0000 0.25090  0.06472  0.55507  Biso   1.000  O
  O147     1.0000 0.25087  0.06470  0.55501  Biso   1.000  O
  O148     1.0000 0.91231  0.01254  0.87761  Biso   1.000  O
  O149     1.0000 0.91237  0.01254  0.87761  Biso   1.000  O
  O150     1.0000 0.28516  0.44257  0.87237  Biso   1.000  O
  C683     1.0000 0.19933  0.49944  0.76639  Biso   1.000  C
  O151     1.0000 0.28510  0.44257  0.87237  Biso   1.000  O
  C684     1.0000 0.22376  0.65784  0.77509  Biso   1.000  C
  H638     1.0000 0.32405  0.73185  0.88149  Biso   1.000  H
  O152     1.0000 0.89210  0.84301  0.80244  Biso   1.000  O
  C685     1.0000 0.94655  0.75412  0.71857  Biso   1.000  C
  O153     1.0000 0.89204  0.84301  0.80244  Biso   1.000  O
  C686     1.0000 0.11956  0.76833  0.75510  Biso   1.000  C
  H639     1.0000 0.20242  0.86030  0.85702  Biso   1.000  H
  H640     1.0000 0.20231  0.86021  0.85696  Biso   1.000  H
  H641     1.0000 0.37418  0.06216  0.54248  Biso   1.000  H
  C687     1.0000 0.28378  0.88149  0.71693  Biso   1.000  C
  H642     1.0000 0.40749  0.98317  0.79121  Biso   1.000  H
  H643     1.0000 0.42886  0.91405  0.73057  Biso   1.000  H
  C688     1.0000 0.28374  0.88140  0.71687  Biso   1.000  C
  H644     1.0000 0.21391  0.08475  0.52031  Biso   1.000  H
  H645     1.0000 0.89241  0.96006  0.84861  Biso   1.000  H
  H646     1.0000 0.89235  0.96006  0.84861  Biso   1.000  H
  H647     1.0000 0.24961  0.39508  0.83832  Biso   1.000  H
  H648     1.0000 0.24951  0.39507  0.83826  Biso   1.000  H
  C689     1.0000 0.17697  0.56865  0.73292  Biso   1.000  C
  C690     1.0000 0.17694  0.56863  0.73287  Biso   1.000  C
  H649     1.0000 0.16708  0.43925  0.73681  Biso   1.000  H
  H650     1.0000 0.16702  0.43925  0.73681  Biso   1.000  H
  C691     1.0000 0.20269  0.73627  0.73957  Biso   1.000  C
  C692     1.0000 0.20262  0.73627  0.73957  Biso   1.000  C
  H651     1.0000 0.83795  0.81433  0.76598  Biso   1.000  H
  H652     1.0000 0.88069  0.72675  0.68281  Biso   1.000  H
  H653     1.0000 0.88063  0.72675  0.68281  Biso   1.000  H
  C693     1.0000 0.02199  0.72986  0.70258  Biso   1.000  C
  C694     1.0000 0.02192  0.72986  0.70258  Biso   1.000  C
  C695     1.0000 0.29609  0.81183  0.76427  Biso   1.000  C
  H654     1.0000 0.23860  0.91478  0.72793  Biso   1.000  H
  H655     1.0000 0.25400  0.85076  0.66011  Biso   1.000  H
  C696     1.0000 0.29602  0.81183  0.76427  Biso   1.000  C
  H656     1.0000 0.23851  0.91477  0.72787  Biso   1.000  H
  H657     1.0000 0.25393  0.85076  0.66011  Biso   1.000  H
  H658     1.0000 0.23857  0.91477  0.72787  Biso   1.000  H
  O154     1.0000 0.10954  0.54615  0.65647  Biso   1.000  O
  H659     1.0000 0.17798  0.71282  0.68140  Biso   1.000  H
  H660     1.0000 0.17792  0.71282  0.68140  Biso   1.000  H
  O155     1.0000 0.00361  0.66725  0.63518  Biso   1.000  O
  O156     1.0000 0.00351  0.66717  0.63512  Biso   1.000  O
  H661     1.0000 0.31789  0.84219  0.82050  Biso   1.000  H
  H662     1.0000 0.34835  0.78484  0.75898  Biso   1.000  H
  H663     1.0000 0.31781  0.84213  0.82050  Biso   1.000  H
  H664     1.0000 0.31788  0.84213  0.82050  Biso   1.000  H
  H665     1.0000 0.07610  0.58385  0.65011  Biso   1.000  H
  H666     1.0000 0.07603  0.58385  0.65011  Biso   1.000  H
  H667     1.0000 0.94288  0.64883  0.60847  Biso   1.000  H
  H668     1.0000 0.94281  0.64883  0.60847  Biso   1.000  H
