data_image0
_cell_length_a       12.938
_cell_length_b       14.613
_cell_length_c       25.703
_cell_angle_alpha    88.61
_cell_angle_beta     89.88
_cell_angle_gamma    76.15

_symmetry_space_group_name_H-M    "P 1"
_symmetry_int_tables_number       1

loop_
  _symmetry_equiv_pos_as_xyz
  'x, y, z'

loop_
  _atom_site_label
  _atom_site_occupancy
  _atom_site_fract_x
  _atom_site_fract_y
  _atom_site_fract_z
  _atom_site_thermal_displace_type
  _atom_site_B_iso_or_equiv
  _atom_site_type_symbol
  N1       1.0000 0.88459  0.26798  0.16349  Biso   1.000  N
  C1       1.0000 0.78239  0.32403  0.14730  Biso   1.000  C
  C2       1.0000 0.89440  0.18300  0.18860  Biso   1.000  C
  C3       1.0000 0.97611  0.30501  0.17100  Biso   1.000  C
  N2       1.0000 0.77630  0.34428  0.09118  Biso   1.000  N
  N3       1.0000 0.77630  0.34428  0.09122  Biso   1.000  N
  N4       1.0000 0.77628  0.34435  0.09122  Biso   1.000  N
  H1       1.0000 0.76712  0.38424  0.16591  Biso   1.000  H
  H2       1.0000 0.72719  0.29019  0.15699  Biso   1.000  H
  N5       1.0000 0.88457  0.26805  0.16349  Biso   1.000  N
  O1       1.0000 0.82570  0.13828  0.19241  Biso   1.000  O
  N6       1.0000 0.99330  0.15534  0.20988  Biso   1.000  N
  N7       1.0000 0.99330  0.15534  0.20992  Biso   1.000  N
  O2       1.0000 0.82568  0.13835  0.19241  Biso   1.000  O
  H3       1.0000 0.95829  0.36371  0.19171  Biso   1.000  H
  N8       1.0000 0.03170  0.31879  0.12391  Biso   1.000  N
  C4       1.0000 0.05540  0.22453  0.20082  Biso   1.000  C
  C5       1.0000 0.70250  0.31840  0.06130  Biso   1.000  C
  C6       1.0000 0.81018  0.42147  0.06702  Biso   1.000  C
  C7       1.0000 0.81016  0.42154  0.06702  Biso   1.000  C
  C8       1.0000 0.81023  0.42154  0.06702  Biso   1.000  C
  C9       1.0000 0.02296  0.08251  0.24861  Biso   1.000  C
  C10      1.0000 0.02303  0.08251  0.24861  Biso   1.000  C
  C11      1.0000 0.00472  0.40081  0.09099  Biso   1.000  C
  C12      1.0000 0.12902  0.25508  0.12068  Biso   1.000  C
  C13      1.0000 0.12902  0.25508  0.12072  Biso   1.000  C
  C14      1.0000 0.12900  0.25515  0.12068  Biso   1.000  C
  C15      1.0000 0.12900  0.25515  0.12072  Biso   1.000  C
  N9       1.0000 0.13965  0.19423  0.16248  Biso   1.000  N
  H4       1.0000 0.08210  0.24591  0.23370  Biso   1.000  H
  N10      1.0000 0.13965  0.19423  0.16252  Biso   1.000  N
  N11      1.0000 0.13973  0.19423  0.16248  Biso   1.000  N
  N12      1.0000 0.13973  0.19423  0.16252  Biso   1.000  N
  O3       1.0000 0.65035  0.26034  0.07523  Biso   1.000  O
  O4       1.0000 0.65035  0.26034  0.07519  Biso   1.000  O
  N13      1.0000 0.69533  0.36392  0.01541  Biso   1.000  N
  O5       1.0000 0.65043  0.26034  0.07519  Biso   1.000  O
  O6       1.0000 0.65043  0.26034  0.07523  Biso   1.000  O
  C16      1.0000 0.75368  0.43571  0.01452  Biso   1.000  C
  C17      1.0000 0.75376  0.43571  0.01452  Biso   1.000  C
  N14      1.0000 0.92372  0.39967  0.05308  Biso   1.000  N
  H5       1.0000 0.78999  0.47952  0.08819  Biso   1.000  H
  N15      1.0000 0.92372  0.39967  0.05312  Biso   1.000  N
  H6       1.0000 0.78999  0.47952  0.08823  Biso   1.000  H
  N16      1.0000 0.92370  0.39974  0.05308  Biso   1.000  N
  N17      1.0000 0.92370  0.39974  0.05312  Biso   1.000  N
  H7       1.0000 0.95903  0.06035  0.25869  Biso   1.000  H
  H8       1.0000 0.95903  0.06035  0.25872  Biso   1.000  H
  H9       1.0000 0.95911  0.06035  0.25869  Biso   1.000  H
  H10      1.0000 0.95911  0.06035  0.25872  Biso   1.000  H
  N18      1.0000 0.10468  0.00260  0.23242  Biso   1.000  N
  H11      1.0000 0.04841  0.10911  0.27982  Biso   1.000  H
  H12      1.0000 0.98027  0.45658  0.11290  Biso   1.000  H
  H13      1.0000 0.98035  0.45658  0.11290  Biso   1.000  H
  H14      1.0000 0.98033  0.45665  0.11290  Biso   1.000  H
  H15      1.0000 0.06960  0.40812  0.07250  Biso   1.000  H
  O7       1.0000 0.19150  0.25321  0.08492  Biso   1.000  O
  C18      1.0000 0.24429  0.14058  0.17879  Biso   1.000  C
  C19      1.0000 0.24427  0.14065  0.17883  Biso   1.000  C
  C20      1.0000 0.24427  0.14065  0.17879  Biso   1.000  C
  C21      1.0000 0.60594  0.36947  0.98070  Biso   1.000  C
  H16      1.0000 0.70581  0.50017  0.01039  Biso   1.000  H
  H17      1.0000 0.70579  0.50024  0.01039  Biso   1.000  H
  N19      1.0000 0.84053  0.42038  0.97719  Biso   1.000  N
  C22      1.0000 0.93679  0.40500  0.00121  Biso   1.000  C
  C23      1.0000 0.93687  0.40500  0.00121  Biso   1.000  C
  C24      1.0000 0.08367  0.91401  0.22740  Biso   1.000  C
  C25      1.0000 0.21657  0.00072  0.23179  Biso   1.000  C
  N20      1.0000 0.24970  0.04130  0.18451  Biso   1.000  N
  H18      1.0000 0.29741  0.15033  0.15271  Biso   1.000  H
  H19      1.0000 0.26279  0.16453  0.21241  Biso   1.000  H
  H20      1.0000 0.56693  0.43634  0.97630  Biso   1.000  H
  H21      1.0000 0.55674  0.33478  0.99689  Biso   1.000  H
  N21      1.0000 0.63629  0.33174  0.93042  Biso   1.000  N
  H22      1.0000 0.55674  0.33478  0.99693  Biso   1.000  H
  N22      1.0000 0.63637  0.33174  0.93042  Biso   1.000  N
  C26      1.0000 0.82752  0.44819  0.92220  Biso   1.000  C
  O8       1.0000 0.02341  0.39427  0.97941  Biso   1.000  O
  O9       1.0000 0.99851  0.89621  0.22981  Biso   1.000  O
  N23      1.0000 0.17997  0.85329  0.21872  Biso   1.000  N
  N24      1.0000 0.18005  0.85329  0.21872  Biso   1.000  N
  N25      1.0000 0.17995  0.85336  0.21872  Biso   1.000  N
  C27      1.0000 0.26875  0.89442  0.22732  Biso   1.000  C
  C28      1.0000 0.26883  0.89442  0.22732  Biso   1.000  C
  H23      1.0000 0.23977  0.02792  0.26378  Biso   1.000  H
  H24      1.0000 0.23977  0.02792  0.26382  Biso   1.000  H
  C29      1.0000 0.32988  0.97611  0.16050  Biso   1.000  C
  C30      1.0000 0.67356  0.38463  0.88850  Biso   1.000  C
  C31      1.0000 0.60119  0.25745  0.91138  Biso   1.000  C
  C32      1.0000 0.67354  0.38470  0.88850  Biso   1.000  C
  C33      1.0000 0.60119  0.25745  0.91142  Biso   1.000  C
  C34      1.0000 0.60127  0.25745  0.91138  Biso   1.000  C
  C35      1.0000 0.60127  0.25745  0.91142  Biso   1.000  C
  N26      1.0000 0.78612  0.38133  0.89278  Biso   1.000  N
  H25      1.0000 0.77824  0.51128  0.91870  Biso   1.000  H
  H26      1.0000 0.89721  0.45249  0.90769  Biso   1.000  H
  N27      1.0000 0.78612  0.38133  0.89282  Biso   1.000  N
  H27      1.0000 0.89721  0.45249  0.90773  Biso   1.000  H
  C36      1.0000 0.19227  0.75170  0.22249  Biso   1.000  C
  N28      1.0000 0.33952  0.89119  0.18420  Biso   1.000  N
  H28      1.0000 0.30823  0.86824  0.25989  Biso   1.000  H
  H29      1.0000 0.30831  0.86824  0.25989  Biso   1.000  H
  N29      1.0000 0.33950  0.89126  0.18420  Biso   1.000  N
  O10      1.0000 0.38162  0.99371  0.12279  Biso   1.000  O
  O11      1.0000 0.38162  0.99371  0.12282  Biso   1.000  O
  C37      1.0000 0.66535  0.32855  0.84020  Biso   1.000  C
  H30      1.0000 0.62942  0.45074  0.88519  Biso   1.000  H
  O12      1.0000 0.56012  0.20454  0.93800  Biso   1.000  O
  N30      1.0000 0.61410  0.25594  0.85958  Biso   1.000  N
  N31      1.0000 0.61410  0.25594  0.85962  Biso   1.000  N
  N32      1.0000 0.61418  0.25594  0.85958  Biso   1.000  N
  O13      1.0000 0.56010  0.20461  0.93800  Biso   1.000  O
  N33      1.0000 0.61418  0.25594  0.85962  Biso   1.000  N
  C38      1.0000 0.84354  0.33193  0.85449  Biso   1.000  C
  C39      1.0000 0.84354  0.33193  0.85453  Biso   1.000  C
  N34      1.0000 0.22358  0.70579  0.17529  Biso   1.000  N
  H31      1.0000 0.24616  0.72519  0.24962  Biso   1.000  H
  H32      1.0000 0.12385  0.73873  0.23370  Biso   1.000  H
  N35      1.0000 0.22358  0.70579  0.17532  Biso   1.000  N
  H33      1.0000 0.24624  0.72519  0.24962  Biso   1.000  H
  H34      1.0000 0.12393  0.73873  0.23370  Biso   1.000  H
  C40      1.0000 0.42145  0.80790  0.17248  Biso   1.000  C
  C41      1.0000 0.42145  0.80790  0.17252  Biso   1.000  C
  C42      1.0000 0.42152  0.80790  0.17248  Biso   1.000  C
  C43      1.0000 0.42152  0.80790  0.17252  Biso   1.000  C
  N36      1.0000 0.77632  0.29428  0.82471  Biso   1.000  N
  H35      1.0000 0.62204  0.36884  0.81218  Biso   1.000  H
  H36      1.0000 0.62204  0.36884  0.81222  Biso   1.000  H
  C44      1.0000 0.57846  0.19217  0.82752  Biso   1.000  C
  C45      1.0000 0.57838  0.19217  0.82752  Biso   1.000  C
  O14      1.0000 0.93815  0.32058  0.84659  Biso   1.000  O
  O15      1.0000 0.93808  0.32058  0.84663  Biso   1.000  O
  O16      1.0000 0.93815  0.32058  0.84663  Biso   1.000  O
  C46      1.0000 0.15636  0.66814  0.14551  Biso   1.000  C
  C47      1.0000 0.33455  0.67152  0.15980  Biso   1.000  C
  C48      1.0000 0.33463  0.67152  0.15980  Biso   1.000  C
  N37      1.0000 0.38580  0.74413  0.14042  Biso   1.000  N
  H37      1.0000 0.48122  0.82750  0.15501  Biso   1.000  H
  H38      1.0000 0.44900  0.77494  0.20549  Biso   1.000  H
  H39      1.0000 0.48115  0.82750  0.15501  Biso   1.000  H
  H40      1.0000 0.44901  0.77494  0.20552  Biso   1.000  H
  C49      1.0000 0.80763  0.24837  0.77751  Biso   1.000  C
  N38      1.0000 0.66038  0.10888  0.81580  Biso   1.000  N
  H41      1.0000 0.51868  0.17257  0.84499  Biso   1.000  H
  H42      1.0000 0.55090  0.22513  0.79451  Biso   1.000  H
  N39      1.0000 0.66046  0.10888  0.81580  Biso   1.000  N
  H43      1.0000 0.51876  0.17257  0.84499  Biso   1.000  H
  H44      1.0000 0.55098  0.22513  0.79451  Biso   1.000  H
  O17      1.0000 0.06175  0.67949  0.15341  Biso   1.000  O
  N40      1.0000 0.21378  0.61874  0.10722  Biso   1.000  N
  O18      1.0000 0.06183  0.67949  0.15341  Biso   1.000  O
  H45      1.0000 0.37787  0.63123  0.18782  Biso   1.000  H
  C50      1.0000 0.32634  0.61544  0.11150  Biso   1.000  C
  C51      1.0000 0.32642  0.61544  0.11150  Biso   1.000  C
  C52      1.0000 0.39871  0.74262  0.08862  Biso   1.000  C
  N41      1.0000 0.81994  0.14678  0.78128  Biso   1.000  N
  H46      1.0000 0.75374  0.27488  0.75038  Biso   1.000  H
  H47      1.0000 0.87605  0.26134  0.76630  Biso   1.000  H
  N42      1.0000 0.81994  0.14678  0.78132  Biso   1.000  N
  H48      1.0000 0.75374  0.27487  0.75042  Biso   1.000  H
  C53      1.0000 0.73115  0.10565  0.77268  Biso   1.000  C
  C54      1.0000 0.67003  0.02396  0.83950  Biso   1.000  C
  C55      1.0000 0.73115  0.10565  0.77272  Biso   1.000  C
  C56      1.0000 0.17239  0.55188  0.07780  Biso   1.000  C
  N43      1.0000 0.36362  0.66833  0.06958  Biso   1.000  N
  H49      1.0000 0.37048  0.54933  0.11481  Biso   1.000  H
  N44      1.0000 0.36354  0.66833  0.06962  Biso   1.000  N
  N45      1.0000 0.36362  0.66833  0.06962  Biso   1.000  N
  O19      1.0000 0.43978  0.79553  0.06200  Biso   1.000  O
  C57      1.0000 0.91623  0.08606  0.77260  Biso   1.000  C
  C58      1.0000 0.78333  0.99935  0.76821  Biso   1.000  C
  H50      1.0000 0.69167  0.13183  0.74011  Biso   1.000  H
  H51      1.0000 0.69159  0.13183  0.74011  Biso   1.000  H
  N46      1.0000 0.75021  0.95877  0.81549  Biso   1.000  N
  O20      1.0000 0.61828  0.00636  0.87721  Biso   1.000  O
  O21      1.0000 0.61836  0.00636  0.87721  Biso   1.000  O
  H52      1.0000 0.22166  0.48879  0.08130  Biso   1.000  H
  H53      1.0000 0.10269  0.54758  0.09231  Biso   1.000  H
  N47      1.0000 0.15938  0.57970  0.02281  Biso   1.000  N
  H54      1.0000 0.10267  0.54765  0.09231  Biso   1.000  H
  H55      1.0000 0.22174  0.48879  0.08130  Biso   1.000  H
  N48      1.0000 0.15946  0.57970  0.02281  Biso   1.000  N
  C59      1.0000 0.39397  0.63060  0.01930  Biso   1.000  C
  C60      1.0000 0.39405  0.63060  0.01930  Biso   1.000  C
  N49      1.0000 0.89522  0.99747  0.76758  Biso   1.000  N
  N50      1.0000 0.89522  0.99747  0.76762  Biso   1.000  N
  O22      1.0000 0.00140  0.10386  0.77019  Biso   1.000  O
  O23      1.0000 0.00147  0.10386  0.77019  Biso   1.000  O
  H56      1.0000 0.76013  0.97215  0.73622  Biso   1.000  H
  C61      1.0000 0.75561  0.85949  0.82121  Biso   1.000  C
  C62      1.0000 0.06311  0.59507  0.99879  Biso   1.000  C
  C63      1.0000 0.24623  0.56436  0.98548  Biso   1.000  C
  C64      1.0000 0.24623  0.56436  0.98552  Biso   1.000  C
  N51      1.0000 0.30458  0.63615  0.98459  Biso   1.000  N
  N52      1.0000 0.30458  0.63615  0.98463  Biso   1.000  N
  N53      1.0000 0.30465  0.63615  0.98459  Biso   1.000  N
  N54      1.0000 0.30465  0.63615  0.98463  Biso   1.000  N
  H57      1.0000 0.43298  0.56373  0.02370  Biso   1.000  H
  H58      1.0000 0.44317  0.66529  0.00311  Biso   1.000  H
  H59      1.0000 0.44324  0.66529  0.00311  Biso   1.000  H
  C65      1.0000 0.97695  0.91756  0.75139  Biso   1.000  C
  N55      1.0000 0.86025  0.80584  0.83752  Biso   1.000  N
  H60      1.0000 0.70249  0.84974  0.84729  Biso   1.000  H
  H61      1.0000 0.73711  0.83554  0.78759  Biso   1.000  H
  H62      1.0000 0.70249  0.84973  0.84733  Biso   1.000  H
  H63      1.0000 0.73711  0.83554  0.78763  Biso   1.000  H
  H64      1.0000 0.70257  0.84974  0.84729  Biso   1.000  H
  H65      1.0000 0.70257  0.84973  0.84733  Biso   1.000  H
  N56      1.0000 0.07619  0.60040  0.94692  Biso   1.000  N
  O24      1.0000 0.97649  0.60580  0.02059  Biso   1.000  O
  O25      1.0000 0.97649  0.60580  0.02063  Biso   1.000  O
  C66      1.0000 0.18973  0.57860  0.93298  Biso   1.000  C
  C67      1.0000 0.18965  0.57860  0.93302  Biso   1.000  C
  C68      1.0000 0.18973  0.57860  0.93302  Biso   1.000  C
  H66      1.0000 0.29409  0.49990  0.98961  Biso   1.000  H
  C69      1.0000 0.29741  0.68167  0.93870  Biso   1.000  C
  H67      1.0000 0.95150  0.89096  0.72018  Biso   1.000  H
  H68      1.0000 0.95150  0.89096  0.72022  Biso   1.000  H
  H69      1.0000 0.95158  0.89096  0.72018  Biso   1.000  H
  H70      1.0000 0.95158  0.89096  0.72022  Biso   1.000  H
  N57      1.0000 0.00660  0.84473  0.79012  Biso   1.000  N
  H71      1.0000 0.04087  0.93972  0.74131  Biso   1.000  H
  H72      1.0000 0.04078  0.93979  0.74131  Biso   1.000  H
  N58      1.0000 0.00668  0.84473  0.79012  Biso   1.000  N
  H73      1.0000 0.04085  0.93979  0.74131  Biso   1.000  H
  C70      1.0000 0.94450  0.77554  0.79918  Biso   1.000  C
  C71      1.0000 0.87089  0.74499  0.87932  Biso   1.000  C
  C72      1.0000 0.94450  0.77554  0.79922  Biso   1.000  C
  C73      1.0000 0.94458  0.77554  0.79918  Biso   1.000  C
  C74      1.0000 0.87096  0.74499  0.87932  Biso   1.000  C
  C75      1.0000 0.99519  0.59926  0.90901  Biso   1.000  C
  C76      1.0000 0.99526  0.59926  0.90901  Biso   1.000  C
  N59      1.0000 0.22360  0.65579  0.90882  Biso   1.000  N
  H74      1.0000 0.20992  0.52055  0.91181  Biso   1.000  H
  O26      1.0000 0.34955  0.73973  0.92481  Biso   1.000  O
  O27      1.0000 0.34945  0.73980  0.92481  Biso   1.000  O
  O28      1.0000 0.34953  0.73980  0.92481  Biso   1.000  O
  C77      1.0000 0.10551  0.81707  0.81140  Biso   1.000  C
  H75      1.0000 0.91780  0.75416  0.76630  Biso   1.000  H
  H76      1.0000 0.91788  0.75416  0.76630  Biso   1.000  H
  C78      1.0000 0.02380  0.69507  0.82900  Biso   1.000  C
  O29      1.0000 0.80840  0.74686  0.91508  Biso   1.000  O
  N60      1.0000 0.96820  0.68128  0.87609  Biso   1.000  N
  O30      1.0000 0.80840  0.74686  0.91512  Biso   1.000  O
  N61      1.0000 0.96820  0.68128  0.87612  Biso   1.000  N
  H77      1.0000 0.93030  0.59195  0.92750  Biso   1.000  H
  H78      1.0000 0.01963  0.54349  0.88710  Biso   1.000  H
  C79      1.0000 0.21751  0.67604  0.85270  Biso   1.000  C
  O31      1.0000 0.17420  0.86179  0.80759  Biso   1.000  O
  N62      1.0000 0.11532  0.73209  0.83651  Biso   1.000  N
  H79      1.0000 0.04161  0.63636  0.80829  Biso   1.000  H
  H80      1.0000 0.23279  0.61583  0.83409  Biso   1.000  H
  H81      1.0000 0.27271  0.70988  0.84301  Biso   1.000  H
  H82      1.0000 0.23286  0.61583  0.83409  Biso   1.000  H
  H83      1.0000 0.23284  0.61590  0.83409  Biso   1.000  H
  N63      1.0000 0.88459  0.26798  0.16349  Biso   1.000  N
  C80      1.0000 0.78239  0.32403  0.14730  Biso   1.000  C
  C81      1.0000 0.89440  0.18300  0.18860  Biso   1.000  C
  C82      1.0000 0.97611  0.30501  0.17100  Biso   1.000  C
  N64      1.0000 0.77630  0.34428  0.09118  Biso   1.000  N
  N65      1.0000 0.77630  0.34428  0.09122  Biso   1.000  N
  N66      1.0000 0.77628  0.34435  0.09122  Biso   1.000  N
  H84      1.0000 0.76712  0.38424  0.16591  Biso   1.000  H
  H85      1.0000 0.72719  0.29019  0.15699  Biso   1.000  H
  N67      1.0000 0.88457  0.26805  0.16349  Biso   1.000  N
  O32      1.0000 0.82570  0.13828  0.19241  Biso   1.000  O
  N68      1.0000 0.99330  0.15534  0.20988  Biso   1.000  N
  O33      1.0000 0.82568  0.13835  0.19241  Biso   1.000  O
  N69      1.0000 0.99330  0.15534  0.20992  Biso   1.000  N
  H86      1.0000 0.95829  0.36371  0.19171  Biso   1.000  H
  N70      1.0000 0.03170  0.31879  0.12391  Biso   1.000  N
  C83      1.0000 0.05540  0.22453  0.20082  Biso   1.000  C
  C84      1.0000 0.70250  0.31840  0.06130  Biso   1.000  C
  C85      1.0000 0.81023  0.42154  0.06702  Biso   1.000  C
  C86      1.0000 0.81018  0.42147  0.06702  Biso   1.000  C
  C87      1.0000 0.81016  0.42154  0.06702  Biso   1.000  C
  C88      1.0000 0.02296  0.08251  0.24861  Biso   1.000  C
  C89      1.0000 0.02303  0.08251  0.24861  Biso   1.000  C
  C90      1.0000 0.00472  0.40081  0.09099  Biso   1.000  C
  C91      1.0000 0.12902  0.25508  0.12068  Biso   1.000  C
  C92      1.0000 0.12902  0.25508  0.12072  Biso   1.000  C
  C93      1.0000 0.12900  0.25515  0.12068  Biso   1.000  C
  C94      1.0000 0.12900  0.25515  0.12072  Biso   1.000  C
  N71      1.0000 0.13965  0.19423  0.16248  Biso   1.000  N
  H87      1.0000 0.08210  0.24591  0.23370  Biso   1.000  H
  N72      1.0000 0.13965  0.19423  0.16252  Biso   1.000  N
  N73      1.0000 0.13973  0.19423  0.16248  Biso   1.000  N
  N74      1.0000 0.13973  0.19423  0.16252  Biso   1.000  N
  O34      1.0000 0.65035  0.26034  0.07523  Biso   1.000  O
  N75      1.0000 0.69533  0.36392  0.01541  Biso   1.000  N
  O35      1.0000 0.65035  0.26034  0.07519  Biso   1.000  O
  O36      1.0000 0.65043  0.26034  0.07519  Biso   1.000  O
  O37      1.0000 0.65043  0.26034  0.07523  Biso   1.000  O
  C95      1.0000 0.75368  0.43571  0.01452  Biso   1.000  C
  C96      1.0000 0.75376  0.43571  0.01452  Biso   1.000  C
  H88      1.0000 0.78999  0.47952  0.08819  Biso   1.000  H
  H89      1.0000 0.78999  0.47952  0.08823  Biso   1.000  H
  N76      1.0000 0.92372  0.39967  0.05308  Biso   1.000  N
  N77      1.0000 0.92372  0.39967  0.05312  Biso   1.000  N
  N78      1.0000 0.92370  0.39974  0.05308  Biso   1.000  N
  N79      1.0000 0.92370  0.39974  0.05312  Biso   1.000  N
  H90      1.0000 0.95903  0.06035  0.25869  Biso   1.000  H
  H91      1.0000 0.95903  0.06035  0.25872  Biso   1.000  H
  H92      1.0000 0.95911  0.06035  0.25869  Biso   1.000  H
  H93      1.0000 0.95911  0.06035  0.25872  Biso   1.000  H
  N80      1.0000 0.10468  0.00260  0.23242  Biso   1.000  N
  H94      1.0000 0.04841  0.10911  0.27982  Biso   1.000  H
  H95      1.0000 0.98027  0.45658  0.11290  Biso   1.000  H
  H96      1.0000 0.98035  0.45658  0.11290  Biso   1.000  H
  H97      1.0000 0.98033  0.45665  0.11290  Biso   1.000  H
  H98      1.0000 0.06960  0.40812  0.07250  Biso   1.000  H
  O38      1.0000 0.19150  0.25321  0.08492  Biso   1.000  O
  C97      1.0000 0.24429  0.14058  0.17879  Biso   1.000  C
  C98      1.0000 0.24427  0.14065  0.17883  Biso   1.000  C
  C99      1.0000 0.24427  0.14065  0.17879  Biso   1.000  C
  C100     1.0000 0.60594  0.36947  0.98070  Biso   1.000  C
  H99      1.0000 0.70581  0.50017  0.01039  Biso   1.000  H
  H100     1.0000 0.70579  0.50024  0.01039  Biso   1.000  H
  N81      1.0000 0.84053  0.42038  0.97719  Biso   1.000  N
  C101     1.0000 0.93679  0.40500  0.00121  Biso   1.000  C
  C102     1.0000 0.93687  0.40500  0.00121  Biso   1.000  C
  C103     1.0000 0.08367  0.91401  0.22740  Biso   1.000  C
  C104     1.0000 0.21657  0.00072  0.23179  Biso   1.000  C
  N82      1.0000 0.24970  0.04130  0.18451  Biso   1.000  N
  H101     1.0000 0.29741  0.15033  0.15271  Biso   1.000  H
  H102     1.0000 0.26279  0.16453  0.21241  Biso   1.000  H
  H103     1.0000 0.56693  0.43634  0.97630  Biso   1.000  H
  H104     1.0000 0.55674  0.33478  0.99689  Biso   1.000  H
  N83      1.0000 0.63629  0.33174  0.93042  Biso   1.000  N
  H105     1.0000 0.55674  0.33478  0.99693  Biso   1.000  H
  N84      1.0000 0.63637  0.33174  0.93042  Biso   1.000  N
  C105     1.0000 0.82752  0.44819  0.92220  Biso   1.000  C
  O39      1.0000 0.02341  0.39427  0.97941  Biso   1.000  O
  O40      1.0000 0.99851  0.89621  0.22981  Biso   1.000  O
  N85      1.0000 0.17997  0.85329  0.21872  Biso   1.000  N
  N86      1.0000 0.18005  0.85329  0.21872  Biso   1.000  N
  N87      1.0000 0.17995  0.85336  0.21872  Biso   1.000  N
  C106     1.0000 0.26875  0.89442  0.22732  Biso   1.000  C
  C107     1.0000 0.26883  0.89442  0.22732  Biso   1.000  C
  H106     1.0000 0.23977  0.02792  0.26378  Biso   1.000  H
  H107     1.0000 0.23977  0.02792  0.26382  Biso   1.000  H
  C108     1.0000 0.32988  0.97611  0.16050  Biso   1.000  C
  C109     1.0000 0.67356  0.38463  0.88850  Biso   1.000  C
  C110     1.0000 0.60119  0.25745  0.91138  Biso   1.000  C
  C111     1.0000 0.67354  0.38470  0.88850  Biso   1.000  C
  C112     1.0000 0.60119  0.25745  0.91142  Biso   1.000  C
  C113     1.0000 0.60127  0.25745  0.91138  Biso   1.000  C
  C114     1.0000 0.60127  0.25745  0.91142  Biso   1.000  C
  N88      1.0000 0.78612  0.38133  0.89278  Biso   1.000  N
  H108     1.0000 0.77824  0.51128  0.91870  Biso   1.000  H
  H109     1.0000 0.89721  0.45249  0.90769  Biso   1.000  H
  N89      1.0000 0.78612  0.38133  0.89282  Biso   1.000  N
  H110     1.0000 0.89721  0.45249  0.90773  Biso   1.000  H
  C115     1.0000 0.19227  0.75170  0.22249  Biso   1.000  C
  N90      1.0000 0.33952  0.89119  0.18420  Biso   1.000  N
  H111     1.0000 0.30823  0.86824  0.25989  Biso   1.000  H
  H112     1.0000 0.30831  0.86824  0.25989  Biso   1.000  H
  N91      1.0000 0.33950  0.89126  0.18420  Biso   1.000  N
  O41      1.0000 0.38162  0.99371  0.12279  Biso   1.000  O
  O42      1.0000 0.38162  0.99371  0.12282  Biso   1.000  O
  C116     1.0000 0.66535  0.32855  0.84020  Biso   1.000  C
  H113     1.0000 0.62942  0.45074  0.88519  Biso   1.000  H
  O43      1.0000 0.56012  0.20454  0.93800  Biso   1.000  O
  N92      1.0000 0.61410  0.25594  0.85958  Biso   1.000  N
  N93      1.0000 0.61410  0.25594  0.85962  Biso   1.000  N
  N94      1.0000 0.61418  0.25594  0.85958  Biso   1.000  N
  O44      1.0000 0.56010  0.20461  0.93800  Biso   1.000  O
  N95      1.0000 0.61418  0.25594  0.85962  Biso   1.000  N
  C117     1.0000 0.84354  0.33193  0.85449  Biso   1.000  C
  C118     1.0000 0.84354  0.33193  0.85453  Biso   1.000  C
  N96      1.0000 0.22358  0.70579  0.17529  Biso   1.000  N
  H114     1.0000 0.24616  0.72519  0.24962  Biso   1.000  H
  H115     1.0000 0.12385  0.73873  0.23370  Biso   1.000  H
  N97      1.0000 0.22358  0.70579  0.17532  Biso   1.000  N
  H116     1.0000 0.24624  0.72519  0.24962  Biso   1.000  H
  H117     1.0000 0.12393  0.73873  0.23370  Biso   1.000  H
  C119     1.0000 0.42145  0.80790  0.17248  Biso   1.000  C
  C120     1.0000 0.42145  0.80790  0.17252  Biso   1.000  C
  C121     1.0000 0.42152  0.80790  0.17248  Biso   1.000  C
  C122     1.0000 0.42152  0.80790  0.17252  Biso   1.000  C
  N98      1.0000 0.77632  0.29428  0.82471  Biso   1.000  N
  H118     1.0000 0.62204  0.36884  0.81218  Biso   1.000  H
  H119     1.0000 0.62204  0.36884  0.81222  Biso   1.000  H
  C123     1.0000 0.57846  0.19217  0.82752  Biso   1.000  C
  C124     1.0000 0.57838  0.19217  0.82752  Biso   1.000  C
  O45      1.0000 0.93815  0.32058  0.84659  Biso   1.000  O
  O46      1.0000 0.93808  0.32058  0.84663  Biso   1.000  O
  O47      1.0000 0.93815  0.32058  0.84663  Biso   1.000  O
  C125     1.0000 0.15636  0.66814  0.14551  Biso   1.000  C
  C126     1.0000 0.33455  0.67152  0.15980  Biso   1.000  C
  C127     1.0000 0.33463  0.67152  0.15980  Biso   1.000  C
  N99      1.0000 0.38580  0.74413  0.14042  Biso   1.000  N
  H120     1.0000 0.48122  0.82750  0.15501  Biso   1.000  H
  H121     1.0000 0.44900  0.77494  0.20549  Biso   1.000  H
  H122     1.0000 0.48115  0.82750  0.15501  Biso   1.000  H
  H123     1.0000 0.44901  0.77494  0.20552  Biso   1.000  H
  C128     1.0000 0.80763  0.24837  0.77751  Biso   1.000  C
  N100     1.0000 0.66038  0.10888  0.81580  Biso   1.000  N
  H124     1.0000 0.51868  0.17257  0.84499  Biso   1.000  H
  H125     1.0000 0.55090  0.22513  0.79451  Biso   1.000  H
  N101     1.0000 0.66046  0.10888  0.81580  Biso   1.000  N
  H126     1.0000 0.51876  0.17257  0.84499  Biso   1.000  H
  H127     1.0000 0.55098  0.22513  0.79451  Biso   1.000  H
  O48      1.0000 0.06175  0.67949  0.15341  Biso   1.000  O
  N102     1.0000 0.21378  0.61874  0.10722  Biso   1.000  N
  O49      1.0000 0.06183  0.67949  0.15341  Biso   1.000  O
  H128     1.0000 0.37787  0.63123  0.18782  Biso   1.000  H
  C129     1.0000 0.32634  0.61544  0.11150  Biso   1.000  C
  C130     1.0000 0.32642  0.61544  0.11150  Biso   1.000  C
  C131     1.0000 0.39871  0.74262  0.08862  Biso   1.000  C
  N103     1.0000 0.81994  0.14678  0.78128  Biso   1.000  N
  H129     1.0000 0.75374  0.27488  0.75038  Biso   1.000  H
  H130     1.0000 0.87605  0.26134  0.76630  Biso   1.000  H
  N104     1.0000 0.81994  0.14678  0.78132  Biso   1.000  N
  H131     1.0000 0.75374  0.27487  0.75042  Biso   1.000  H
  C132     1.0000 0.73115  0.10565  0.77268  Biso   1.000  C
  C133     1.0000 0.67003  0.02396  0.83950  Biso   1.000  C
  C134     1.0000 0.73115  0.10565  0.77272  Biso   1.000  C
  C135     1.0000 0.17239  0.55188  0.07780  Biso   1.000  C
  N105     1.0000 0.36362  0.66833  0.06958  Biso   1.000  N
  H132     1.0000 0.37048  0.54933  0.11481  Biso   1.000  H
  N106     1.0000 0.36354  0.66833  0.06962  Biso   1.000  N
  N107     1.0000 0.36362  0.66833  0.06962  Biso   1.000  N
  O50      1.0000 0.43978  0.79553  0.06200  Biso   1.000  O
  C136     1.0000 0.91623  0.08606  0.77260  Biso   1.000  C
  C137     1.0000 0.78333  0.99935  0.76821  Biso   1.000  C
  H133     1.0000 0.69167  0.13183  0.74011  Biso   1.000  H
  H134     1.0000 0.69159  0.13183  0.74011  Biso   1.000  H
  N108     1.0000 0.75021  0.95877  0.81549  Biso   1.000  N
  O51      1.0000 0.61828  0.00636  0.87721  Biso   1.000  O
  O52      1.0000 0.61836  0.00636  0.87721  Biso   1.000  O
  H135     1.0000 0.22166  0.48879  0.08130  Biso   1.000  H
  H136     1.0000 0.10269  0.54758  0.09231  Biso   1.000  H
  N109     1.0000 0.15938  0.57970  0.02281  Biso   1.000  N
  H137     1.0000 0.10267  0.54765  0.09231  Biso   1.000  H
  H138     1.0000 0.22174  0.48879  0.08130  Biso   1.000  H
  N110     1.0000 0.15946  0.57970  0.02281  Biso   1.000  N
  C138     1.0000 0.39397  0.63060  0.01930  Biso   1.000  C
  C139     1.0000 0.39405  0.63060  0.01930  Biso   1.000  C
  N111     1.0000 0.89522  0.99747  0.76758  Biso   1.000  N
  N112     1.0000 0.89522  0.99747  0.76762  Biso   1.000  N
  O53      1.0000 0.00140  0.10386  0.77019  Biso   1.000  O
  O54      1.0000 0.00147  0.10386  0.77019  Biso   1.000  O
  H139     1.0000 0.76013  0.97215  0.73622  Biso   1.000  H
  C140     1.0000 0.75561  0.85949  0.82121  Biso   1.000  C
  C141     1.0000 0.06311  0.59507  0.99879  Biso   1.000  C
  C142     1.0000 0.24623  0.56436  0.98548  Biso   1.000  C
  C143     1.0000 0.24623  0.56436  0.98552  Biso   1.000  C
  N113     1.0000 0.30458  0.63615  0.98459  Biso   1.000  N
  N114     1.0000 0.30458  0.63615  0.98463  Biso   1.000  N
  N115     1.0000 0.30465  0.63615  0.98459  Biso   1.000  N
  N116     1.0000 0.30465  0.63615  0.98463  Biso   1.000  N
  H140     1.0000 0.43298  0.56373  0.02370  Biso   1.000  H
  H141     1.0000 0.44317  0.66529  0.00311  Biso   1.000  H
  H142     1.0000 0.44324  0.66529  0.00311  Biso   1.000  H
  C144     1.0000 0.97695  0.91756  0.75139  Biso   1.000  C
  N117     1.0000 0.86025  0.80584  0.83752  Biso   1.000  N
  H143     1.0000 0.70249  0.84974  0.84729  Biso   1.000  H
  H144     1.0000 0.73711  0.83554  0.78759  Biso   1.000  H
  H145     1.0000 0.70249  0.84973  0.84733  Biso   1.000  H
  H146     1.0000 0.73711  0.83554  0.78763  Biso   1.000  H
  H147     1.0000 0.70257  0.84974  0.84729  Biso   1.000  H
  H148     1.0000 0.70257  0.84973  0.84733  Biso   1.000  H
  N118     1.0000 0.07619  0.60040  0.94692  Biso   1.000  N
  O55      1.0000 0.97649  0.60580  0.02059  Biso   1.000  O
  O56      1.0000 0.97649  0.60580  0.02063  Biso   1.000  O
  C145     1.0000 0.18973  0.57860  0.93298  Biso   1.000  C
  C146     1.0000 0.18965  0.57860  0.93302  Biso   1.000  C
  C147     1.0000 0.18973  0.57860  0.93302  Biso   1.000  C
  H149     1.0000 0.29409  0.49990  0.98961  Biso   1.000  H
  C148     1.0000 0.29741  0.68167  0.93870  Biso   1.000  C
  H150     1.0000 0.95150  0.89096  0.72018  Biso   1.000  H
  H151     1.0000 0.95150  0.89096  0.72022  Biso   1.000  H
  H152     1.0000 0.95158  0.89096  0.72018  Biso   1.000  H
  H153     1.0000 0.95158  0.89096  0.72022  Biso   1.000  H
  N119     1.0000 0.00660  0.84473  0.79012  Biso   1.000  N
  H154     1.0000 0.04087  0.93972  0.74131  Biso   1.000  H
  H155     1.0000 0.04078  0.93979  0.74131  Biso   1.000  H
  N120     1.0000 0.00668  0.84473  0.79012  Biso   1.000  N
  H156     1.0000 0.04085  0.93979  0.74131  Biso   1.000  H
  C149     1.0000 0.94450  0.77554  0.79918  Biso   1.000  C
  C150     1.0000 0.87089  0.74499  0.87932  Biso   1.000  C
  C151     1.0000 0.94450  0.77554  0.79922  Biso   1.000  C
  C152     1.0000 0.94458  0.77554  0.79918  Biso   1.000  C
  C153     1.0000 0.87096  0.74499  0.87932  Biso   1.000  C
  C154     1.0000 0.99519  0.59926  0.90901  Biso   1.000  C
  C155     1.0000 0.99526  0.59926  0.90901  Biso   1.000  C
  N121     1.0000 0.22360  0.65579  0.90882  Biso   1.000  N
  H157     1.0000 0.20992  0.52055  0.91181  Biso   1.000  H
  O57      1.0000 0.34955  0.73973  0.92481  Biso   1.000  O
  O58      1.0000 0.34945  0.73980  0.92481  Biso   1.000  O
  O59      1.0000 0.34953  0.73980  0.92481  Biso   1.000  O
  C156     1.0000 0.10551  0.81707  0.81140  Biso   1.000  C
  H158     1.0000 0.91780  0.75416  0.76630  Biso   1.000  H
  H159     1.0000 0.91788  0.75416  0.76630  Biso   1.000  H
  C157     1.0000 0.02380  0.69507  0.82900  Biso   1.000  C
  O60      1.0000 0.80840  0.74686  0.91508  Biso   1.000  O
  N122     1.0000 0.96820  0.68128  0.87609  Biso   1.000  N
  O61      1.0000 0.80840  0.74686  0.91512  Biso   1.000  O
  N123     1.0000 0.96820  0.68128  0.87612  Biso   1.000  N
  H160     1.0000 0.93030  0.59195  0.92750  Biso   1.000  H
  H161     1.0000 0.01963  0.54349  0.88710  Biso   1.000  H
  C158     1.0000 0.21751  0.67604  0.85270  Biso   1.000  C
  O62      1.0000 0.17420  0.86179  0.80759  Biso   1.000  O
  N124     1.0000 0.11532  0.73209  0.83651  Biso   1.000  N
  H162     1.0000 0.04161  0.63636  0.80829  Biso   1.000  H
  H163     1.0000 0.23279  0.61583  0.83409  Biso   1.000  H
  H164     1.0000 0.27271  0.70988  0.84301  Biso   1.000  H
  H165     1.0000 0.23286  0.61583  0.83409  Biso   1.000  H
  H166     1.0000 0.23284  0.61590  0.83409  Biso   1.000  H
  N125     1.0000 0.88459  0.26798  0.16349  Biso   1.000  N
  C159     1.0000 0.89440  0.18300  0.18860  Biso   1.000  C
  C160     1.0000 0.78239  0.32403  0.14730  Biso   1.000  C
  C161     1.0000 0.97611  0.30501  0.17100  Biso   1.000  C
  O63      1.0000 0.82568  0.13835  0.19241  Biso   1.000  O
  O64      1.0000 0.82570  0.13828  0.19241  Biso   1.000  O
  N126     1.0000 0.99330  0.15534  0.20988  Biso   1.000  N
  N127     1.0000 0.99330  0.15534  0.20992  Biso   1.000  N
  N128     1.0000 0.88457  0.26805  0.16349  Biso   1.000  N
  H167     1.0000 0.76712  0.38424  0.16591  Biso   1.000  H
  H168     1.0000 0.72719  0.29019  0.15699  Biso   1.000  H
  N129     1.0000 0.77630  0.34428  0.09118  Biso   1.000  N
  N130     1.0000 0.77630  0.34428  0.09122  Biso   1.000  N
  N131     1.0000 0.77628  0.34435  0.09122  Biso   1.000  N
  C162     1.0000 0.05540  0.22453  0.20082  Biso   1.000  C
  H169     1.0000 0.95829  0.36371  0.19171  Biso   1.000  H
  N132     1.0000 0.03170  0.31879  0.12391  Biso   1.000  N
  C163     1.0000 0.02296  0.08251  0.24861  Biso   1.000  C
  C164     1.0000 0.02303  0.08251  0.24861  Biso   1.000  C
  C165     1.0000 0.70250  0.31840  0.06130  Biso   1.000  C
  C166     1.0000 0.81023  0.42154  0.06702  Biso   1.000  C
  C167     1.0000 0.81018  0.42147  0.06702  Biso   1.000  C
  C168     1.0000 0.81016  0.42154  0.06702  Biso   1.000  C
  N133     1.0000 0.13965  0.19423  0.16248  Biso   1.000  N
  H170     1.0000 0.08210  0.24591  0.23370  Biso   1.000  H
  N134     1.0000 0.13965  0.19423  0.16252  Biso   1.000  N
  N135     1.0000 0.13973  0.19423  0.16248  Biso   1.000  N
  N136     1.0000 0.13973  0.19423  0.16252  Biso   1.000  N
  C169     1.0000 0.12902  0.25508  0.12068  Biso   1.000  C
  C170     1.0000 0.00472  0.40081  0.09099  Biso   1.000  C
  C171     1.0000 0.12902  0.25508  0.12072  Biso   1.000  C
  C172     1.0000 0.12900  0.25515  0.12068  Biso   1.000  C
  C173     1.0000 0.12900  0.25515  0.12072  Biso   1.000  C
  H171     1.0000 0.95903  0.06035  0.25869  Biso   1.000  H
  H172     1.0000 0.95903  0.06035  0.25872  Biso   1.000  H
  H173     1.0000 0.95911  0.06035  0.25869  Biso   1.000  H
  H174     1.0000 0.95911  0.06035  0.25872  Biso   1.000  H
  N137     1.0000 0.10468  0.00260  0.23242  Biso   1.000  N
  H175     1.0000 0.04841  0.10911  0.27982  Biso   1.000  H
  N138     1.0000 0.69533  0.36392  0.01541  Biso   1.000  N
  O65      1.0000 0.65035  0.26034  0.07519  Biso   1.000  O
  O66      1.0000 0.65035  0.26034  0.07523  Biso   1.000  O
  O67      1.0000 0.65043  0.26034  0.07519  Biso   1.000  O
  O68      1.0000 0.65043  0.26034  0.07523  Biso   1.000  O
  C174     1.0000 0.75368  0.43571  0.01452  Biso   1.000  C
  H176     1.0000 0.78999  0.47952  0.08819  Biso   1.000  H
  H177     1.0000 0.78999  0.47952  0.08823  Biso   1.000  H
  C175     1.0000 0.75376  0.43571  0.01452  Biso   1.000  C
  N139     1.0000 0.92372  0.39967  0.05308  Biso   1.000  N
  N140     1.0000 0.92372  0.39967  0.05312  Biso   1.000  N
  N141     1.0000 0.92370  0.39974  0.05308  Biso   1.000  N
  N142     1.0000 0.92370  0.39974  0.05312  Biso   1.000  N
  C176     1.0000 0.24429  0.14058  0.17879  Biso   1.000  C
  C177     1.0000 0.24427  0.14065  0.17883  Biso   1.000  C
  C178     1.0000 0.24427  0.14065  0.17879  Biso   1.000  C
  O69      1.0000 0.19150  0.25321  0.08492  Biso   1.000  O
  H178     1.0000 0.98027  0.45658  0.11290  Biso   1.000  H
  H179     1.0000 0.98035  0.45658  0.11290  Biso   1.000  H
  H180     1.0000 0.98033  0.45665  0.11290  Biso   1.000  H
  H181     1.0000 0.06960  0.40812  0.07250  Biso   1.000  H
  C179     1.0000 0.08367  0.91401  0.22740  Biso   1.000  C
  C180     1.0000 0.21657  0.00072  0.23179  Biso   1.000  C
  C181     1.0000 0.60594  0.36947  0.98070  Biso   1.000  C
  H182     1.0000 0.70581  0.50017  0.01039  Biso   1.000  H
  H183     1.0000 0.70579  0.50024  0.01039  Biso   1.000  H
  N143     1.0000 0.84053  0.42038  0.97719  Biso   1.000  N
  C182     1.0000 0.93679  0.40500  0.00121  Biso   1.000  C
  C183     1.0000 0.93687  0.40500  0.00121  Biso   1.000  C
  N144     1.0000 0.24970  0.04130  0.18451  Biso   1.000  N
  H184     1.0000 0.29741  0.15033  0.15271  Biso   1.000  H
  H185     1.0000 0.26279  0.16453  0.21241  Biso   1.000  H
  O70      1.0000 0.99851  0.89621  0.22981  Biso   1.000  O
  N145     1.0000 0.17997  0.85329  0.21872  Biso   1.000  N
  N146     1.0000 0.18005  0.85329  0.21872  Biso   1.000  N
  N147     1.0000 0.17995  0.85336  0.21872  Biso   1.000  N
  C184     1.0000 0.26875  0.89442  0.22732  Biso   1.000  C
  C185     1.0000 0.26883  0.89442  0.22732  Biso   1.000  C
  H186     1.0000 0.23977  0.02792  0.26378  Biso   1.000  H
  H187     1.0000 0.23977  0.02792  0.26382  Biso   1.000  H
  H188     1.0000 0.56693  0.43634  0.97630  Biso   1.000  H
  H189     1.0000 0.55674  0.33478  0.99689  Biso   1.000  H
  N148     1.0000 0.63629  0.33174  0.93042  Biso   1.000  N
  H190     1.0000 0.55674  0.33478  0.99693  Biso   1.000  H
  N149     1.0000 0.63637  0.33174  0.93042  Biso   1.000  N
  C186     1.0000 0.82752  0.44819  0.92220  Biso   1.000  C
  O71      1.0000 0.02341  0.39427  0.97941  Biso   1.000  O
  C187     1.0000 0.32988  0.97611  0.16050  Biso   1.000  C
  C188     1.0000 0.19227  0.75170  0.22249  Biso   1.000  C
  N150     1.0000 0.33952  0.89119  0.18420  Biso   1.000  N
  H191     1.0000 0.30823  0.86824  0.25989  Biso   1.000  H
  H192     1.0000 0.30831  0.86824  0.25989  Biso   1.000  H
  N151     1.0000 0.33950  0.89126  0.18420  Biso   1.000  N
  C189     1.0000 0.67356  0.38463  0.88850  Biso   1.000  C
  C190     1.0000 0.60119  0.25745  0.91138  Biso   1.000  C
  C191     1.0000 0.67354  0.38470  0.88850  Biso   1.000  C
  C192     1.0000 0.60119  0.25745  0.91142  Biso   1.000  C
  C193     1.0000 0.60127  0.25745  0.91138  Biso   1.000  C
  C194     1.0000 0.60127  0.25745  0.91142  Biso   1.000  C
  N152     1.0000 0.78612  0.38133  0.89278  Biso   1.000  N
  H193     1.0000 0.77824  0.51128  0.91870  Biso   1.000  H
  H194     1.0000 0.89721  0.45249  0.90769  Biso   1.000  H
  N153     1.0000 0.78612  0.38133  0.89282  Biso   1.000  N
  H195     1.0000 0.89721  0.45249  0.90773  Biso   1.000  H
  O72      1.0000 0.38162  0.99371  0.12279  Biso   1.000  O
  O73      1.0000 0.38162  0.99371  0.12282  Biso   1.000  O
  N154     1.0000 0.22358  0.70579  0.17529  Biso   1.000  N
  H196     1.0000 0.24616  0.72519  0.24962  Biso   1.000  H
  H197     1.0000 0.12385  0.73873  0.23370  Biso   1.000  H
  N155     1.0000 0.22358  0.70579  0.17532  Biso   1.000  N
  H198     1.0000 0.24624  0.72519  0.24962  Biso   1.000  H
  H199     1.0000 0.12393  0.73873  0.23370  Biso   1.000  H
  C195     1.0000 0.42145  0.80790  0.17248  Biso   1.000  C
  C196     1.0000 0.42145  0.80790  0.17252  Biso   1.000  C
  C197     1.0000 0.42152  0.80790  0.17248  Biso   1.000  C
  C198     1.0000 0.42152  0.80790  0.17252  Biso   1.000  C
  C199     1.0000 0.66535  0.32855  0.84020  Biso   1.000  C
  H200     1.0000 0.62942  0.45074  0.88519  Biso   1.000  H
  O74      1.0000 0.56012  0.20454  0.93800  Biso   1.000  O
  N156     1.0000 0.61410  0.25594  0.85958  Biso   1.000  N
  N157     1.0000 0.61410  0.25594  0.85962  Biso   1.000  N
  N158     1.0000 0.61418  0.25594  0.85958  Biso   1.000  N
  O75      1.0000 0.56010  0.20461  0.93800  Biso   1.000  O
  N159     1.0000 0.61418  0.25594  0.85962  Biso   1.000  N
  C200     1.0000 0.84354  0.33193  0.85449  Biso   1.000  C
  C201     1.0000 0.84354  0.33193  0.85453  Biso   1.000  C
  C202     1.0000 0.15636  0.66814  0.14551  Biso   1.000  C
  C203     1.0000 0.33455  0.67152  0.15980  Biso   1.000  C
  C204     1.0000 0.33463  0.67152  0.15980  Biso   1.000  C
  N160     1.0000 0.38580  0.74413  0.14042  Biso   1.000  N
  H201     1.0000 0.48122  0.82750  0.15501  Biso   1.000  H
  H202     1.0000 0.44900  0.77494  0.20549  Biso   1.000  H
  H203     1.0000 0.48115  0.82750  0.15501  Biso   1.000  H
  H204     1.0000 0.44901  0.77494  0.20552  Biso   1.000  H
  N161     1.0000 0.77632  0.29428  0.82471  Biso   1.000  N
  H205     1.0000 0.62204  0.36884  0.81218  Biso   1.000  H
  H206     1.0000 0.62204  0.36884  0.81222  Biso   1.000  H
  C205     1.0000 0.57846  0.19217  0.82752  Biso   1.000  C
  C206     1.0000 0.57838  0.19217  0.82752  Biso   1.000  C
  O76      1.0000 0.93815  0.32058  0.84659  Biso   1.000  O
  O77      1.0000 0.93808  0.32058  0.84663  Biso   1.000  O
  O78      1.0000 0.93815  0.32058  0.84663  Biso   1.000  O
  O79      1.0000 0.06175  0.67949  0.15341  Biso   1.000  O
  N162     1.0000 0.21378  0.61874  0.10722  Biso   1.000  N
  O80      1.0000 0.06183  0.67949  0.15341  Biso   1.000  O
  H207     1.0000 0.37787  0.63123  0.18782  Biso   1.000  H
  C207     1.0000 0.32634  0.61544  0.11150  Biso   1.000  C
  C208     1.0000 0.32642  0.61544  0.11150  Biso   1.000  C
  C209     1.0000 0.39871  0.74262  0.08862  Biso   1.000  C
  C210     1.0000 0.80763  0.24837  0.77751  Biso   1.000  C
  N163     1.0000 0.66038  0.10888  0.81580  Biso   1.000  N
  H208     1.0000 0.51868  0.17257  0.84499  Biso   1.000  H
  H209     1.0000 0.55090  0.22513  0.79451  Biso   1.000  H
  N164     1.0000 0.66046  0.10888  0.81580  Biso   1.000  N
  H210     1.0000 0.51876  0.17257  0.84499  Biso   1.000  H
  H211     1.0000 0.55098  0.22513  0.79451  Biso   1.000  H
  C211     1.0000 0.17239  0.55188  0.07780  Biso   1.000  C
  N165     1.0000 0.36362  0.66833  0.06958  Biso   1.000  N
  H212     1.0000 0.37048  0.54933  0.11481  Biso   1.000  H
  N166     1.0000 0.36354  0.66833  0.06962  Biso   1.000  N
  N167     1.0000 0.36362  0.66833  0.06962  Biso   1.000  N
  O81      1.0000 0.43978  0.79553  0.06200  Biso   1.000  O
  N168     1.0000 0.81994  0.14678  0.78128  Biso   1.000  N
  H213     1.0000 0.75374  0.27488  0.75038  Biso   1.000  H
  H214     1.0000 0.87605  0.26134  0.76630  Biso   1.000  H
  N169     1.0000 0.81994  0.14678  0.78132  Biso   1.000  N
  H215     1.0000 0.75374  0.27487  0.75042  Biso   1.000  H
  C212     1.0000 0.73115  0.10565  0.77268  Biso   1.000  C
  C213     1.0000 0.67003  0.02396  0.83950  Biso   1.000  C
  C214     1.0000 0.73115  0.10565  0.77272  Biso   1.000  C
  H216     1.0000 0.22166  0.48879  0.08130  Biso   1.000  H
  H217     1.0000 0.10269  0.54758  0.09231  Biso   1.000  H
  N170     1.0000 0.15938  0.57970  0.02281  Biso   1.000  N
  H218     1.0000 0.10267  0.54765  0.09231  Biso   1.000  H
  H219     1.0000 0.22174  0.48879  0.08130  Biso   1.000  H
  N171     1.0000 0.15946  0.57970  0.02281  Biso   1.000  N
  C215     1.0000 0.39397  0.63060  0.01930  Biso   1.000  C
  C216     1.0000 0.39405  0.63060  0.01930  Biso   1.000  C
  C217     1.0000 0.91623  0.08606  0.77260  Biso   1.000  C
  C218     1.0000 0.78333  0.99935  0.76821  Biso   1.000  C
  H220     1.0000 0.69167  0.13183  0.74011  Biso   1.000  H
  H221     1.0000 0.69159  0.13183  0.74011  Biso   1.000  H
  N172     1.0000 0.75021  0.95877  0.81549  Biso   1.000  N
  O82      1.0000 0.61828  0.00636  0.87721  Biso   1.000  O
  O83      1.0000 0.61836  0.00636  0.87721  Biso   1.000  O
  C219     1.0000 0.24623  0.56436  0.98548  Biso   1.000  C
  C220     1.0000 0.06311  0.59507  0.99879  Biso   1.000  C
  C221     1.0000 0.24623  0.56436  0.98552  Biso   1.000  C
  N173     1.0000 0.30458  0.63615  0.98459  Biso   1.000  N
  N174     1.0000 0.30458  0.63615  0.98463  Biso   1.000  N
  N175     1.0000 0.30465  0.63615  0.98459  Biso   1.000  N
  N176     1.0000 0.30465  0.63615  0.98463  Biso   1.000  N
  H222     1.0000 0.43298  0.56373  0.02370  Biso   1.000  H
  H223     1.0000 0.44317  0.66529  0.00311  Biso   1.000  H
  H224     1.0000 0.44324  0.66529  0.00311  Biso   1.000  H
  N177     1.0000 0.89522  0.99747  0.76758  Biso   1.000  N
  N178     1.0000 0.89522  0.99747  0.76762  Biso   1.000  N
  O84      1.0000 0.00140  0.10386  0.77019  Biso   1.000  O
  O85      1.0000 0.00147  0.10386  0.77019  Biso   1.000  O
  H225     1.0000 0.76013  0.97215  0.73622  Biso   1.000  H
  C222     1.0000 0.75561  0.85949  0.82121  Biso   1.000  C
  H226     1.0000 0.29409  0.49990  0.98961  Biso   1.000  H
  C223     1.0000 0.18973  0.57860  0.93298  Biso   1.000  C
  C224     1.0000 0.18965  0.57860  0.93302  Biso   1.000  C
  C225     1.0000 0.18973  0.57860  0.93302  Biso   1.000  C
  O86      1.0000 0.97649  0.60580  0.02059  Biso   1.000  O
  O87      1.0000 0.97649  0.60580  0.02063  Biso   1.000  O
  N179     1.0000 0.07619  0.60040  0.94692  Biso   1.000  N
  C226     1.0000 0.29741  0.68167  0.93870  Biso   1.000  C
  C227     1.0000 0.97695  0.91756  0.75139  Biso   1.000  C
  N180     1.0000 0.86025  0.80584  0.83752  Biso   1.000  N
  H227     1.0000 0.70249  0.84974  0.84729  Biso   1.000  H
  H228     1.0000 0.73711  0.83554  0.78759  Biso   1.000  H
  H229     1.0000 0.70249  0.84973  0.84733  Biso   1.000  H
  H230     1.0000 0.73711  0.83554  0.78763  Biso   1.000  H
  H231     1.0000 0.70257  0.84974  0.84729  Biso   1.000  H
  H232     1.0000 0.70257  0.84973  0.84733  Biso   1.000  H
  N181     1.0000 0.22360  0.65579  0.90882  Biso   1.000  N
  H233     1.0000 0.20992  0.52055  0.91181  Biso   1.000  H
  C228     1.0000 0.99519  0.59926  0.90901  Biso   1.000  C
  C229     1.0000 0.99526  0.59926  0.90901  Biso   1.000  C
  O88      1.0000 0.34955  0.73973  0.92481  Biso   1.000  O
  O89      1.0000 0.34945  0.73980  0.92481  Biso   1.000  O
  O90      1.0000 0.34953  0.73980  0.92481  Biso   1.000  O
  H234     1.0000 0.95150  0.89096  0.72018  Biso   1.000  H
  H235     1.0000 0.95150  0.89096  0.72022  Biso   1.000  H
  H236     1.0000 0.95158  0.89096  0.72018  Biso   1.000  H
  H237     1.0000 0.95158  0.89096  0.72022  Biso   1.000  H
  N182     1.0000 0.00660  0.84473  0.79012  Biso   1.000  N
  H238     1.0000 0.04087  0.93972  0.74131  Biso   1.000  H
  H239     1.0000 0.04078  0.93979  0.74131  Biso   1.000  H
  N183     1.0000 0.00668  0.84473  0.79012  Biso   1.000  N
  H240     1.0000 0.04085  0.93979  0.74131  Biso   1.000  H
  C230     1.0000 0.94450  0.77554  0.79918  Biso   1.000  C
  C231     1.0000 0.87089  0.74499  0.87932  Biso   1.000  C
  C232     1.0000 0.94450  0.77554  0.79922  Biso   1.000  C
  C233     1.0000 0.94458  0.77554  0.79918  Biso   1.000  C
  C234     1.0000 0.87096  0.74499  0.87932  Biso   1.000  C
  C235     1.0000 0.21751  0.67604  0.85270  Biso   1.000  C
  N184     1.0000 0.96820  0.68128  0.87609  Biso   1.000  N
  H241     1.0000 0.93030  0.59195  0.92750  Biso   1.000  H
  N185     1.0000 0.96820  0.68128  0.87612  Biso   1.000  N
  H242     1.0000 0.01963  0.54349  0.88710  Biso   1.000  H
  C236     1.0000 0.10551  0.81707  0.81140  Biso   1.000  C
  C237     1.0000 0.02380  0.69507  0.82900  Biso   1.000  C
  H243     1.0000 0.91780  0.75416  0.76630  Biso   1.000  H
  H244     1.0000 0.91788  0.75416  0.76630  Biso   1.000  H
  O91      1.0000 0.80840  0.74686  0.91508  Biso   1.000  O
  O92      1.0000 0.80840  0.74686  0.91512  Biso   1.000  O
  N186     1.0000 0.11532  0.73209  0.83651  Biso   1.000  N
  H245     1.0000 0.23279  0.61583  0.83409  Biso   1.000  H
  H246     1.0000 0.27271  0.70988  0.84301  Biso   1.000  H
  H247     1.0000 0.23286  0.61583  0.83409  Biso   1.000  H
  H248     1.0000 0.23284  0.61590  0.83409  Biso   1.000  H
  O93      1.0000 0.17420  0.86179  0.80759  Biso   1.000  O
  H249     1.0000 0.04161  0.63636  0.80829  Biso   1.000  H
  N187     1.0000 0.88459  0.26798  0.16349  Biso   1.000  N
  C238     1.0000 0.89440  0.18300  0.18860  Biso   1.000  C
  C239     1.0000 0.78239  0.32403  0.14730  Biso   1.000  C
  C240     1.0000 0.97611  0.30501  0.17100  Biso   1.000  C
  O94      1.0000 0.82568  0.13835  0.19241  Biso   1.000  O
  O95      1.0000 0.82570  0.13828  0.19241  Biso   1.000  O
  N188     1.0000 0.99330  0.15534  0.20988  Biso   1.000  N
  N189     1.0000 0.99330  0.15534  0.20992  Biso   1.000  N
  N190     1.0000 0.88457  0.26805  0.16349  Biso   1.000  N
  H250     1.0000 0.76712  0.38424  0.16591  Biso   1.000  H
  H251     1.0000 0.72719  0.29019  0.15699  Biso   1.000  H
  N191     1.0000 0.77630  0.34428  0.09118  Biso   1.000  N
  N192     1.0000 0.77630  0.34428  0.09122  Biso   1.000  N
  N193     1.0000 0.77628  0.34435  0.09122  Biso   1.000  N
  C241     1.0000 0.05540  0.22453  0.20082  Biso   1.000  C
  H252     1.0000 0.95829  0.36371  0.19171  Biso   1.000  H
  N194     1.0000 0.03170  0.31879  0.12391  Biso   1.000  N
  C242     1.0000 0.02296  0.08251  0.24861  Biso   1.000  C
  C243     1.0000 0.02303  0.08251  0.24861  Biso   1.000  C
  C244     1.0000 0.70250  0.31840  0.06130  Biso   1.000  C
  C245     1.0000 0.81023  0.42154  0.06702  Biso   1.000  C
  C246     1.0000 0.81018  0.42147  0.06702  Biso   1.000  C
  C247     1.0000 0.81016  0.42154  0.06702  Biso   1.000  C
  N195     1.0000 0.13965  0.19423  0.16248  Biso   1.000  N
  H253     1.0000 0.08210  0.24591  0.23370  Biso   1.000  H
  N196     1.0000 0.13965  0.19423  0.16252  Biso   1.000  N
  N197     1.0000 0.13973  0.19423  0.16248  Biso   1.000  N
  N198     1.0000 0.13973  0.19423  0.16252  Biso   1.000  N
  C248     1.0000 0.12902  0.25508  0.12068  Biso   1.000  C
  C249     1.0000 0.00472  0.40081  0.09099  Biso   1.000  C
  C250     1.0000 0.12902  0.25508  0.12072  Biso   1.000  C
  C251     1.0000 0.12900  0.25515  0.12068  Biso   1.000  C
  C252     1.0000 0.12900  0.25515  0.12072  Biso   1.000  C
  H254     1.0000 0.95903  0.06035  0.25869  Biso   1.000  H
  H255     1.0000 0.95903  0.06035  0.25872  Biso   1.000  H
  H256     1.0000 0.95911  0.06035  0.25869  Biso   1.000  H
  H257     1.0000 0.95911  0.06035  0.25872  Biso   1.000  H
  N199     1.0000 0.10468  0.00260  0.23242  Biso   1.000  N
  H258     1.0000 0.04841  0.10911  0.27982  Biso   1.000  H
  N200     1.0000 0.69533  0.36392  0.01541  Biso   1.000  N
  O96      1.0000 0.65035  0.26034  0.07519  Biso   1.000  O
  O97      1.0000 0.65035  0.26034  0.07523  Biso   1.000  O
  O98      1.0000 0.65043  0.26034  0.07519  Biso   1.000  O
  O99      1.0000 0.65043  0.26034  0.07523  Biso   1.000  O
  C253     1.0000 0.75368  0.43571  0.01452  Biso   1.000  C
  H259     1.0000 0.78999  0.47952  0.08819  Biso   1.000  H
  C254     1.0000 0.75376  0.43571  0.01452  Biso   1.000  C
  H260     1.0000 0.78999  0.47952  0.08823  Biso   1.000  H
  N201     1.0000 0.92372  0.39967  0.05308  Biso   1.000  N
  N202     1.0000 0.92372  0.39967  0.05312  Biso   1.000  N
  N203     1.0000 0.92370  0.39974  0.05308  Biso   1.000  N
  N204     1.0000 0.92370  0.39974  0.05312  Biso   1.000  N
  C255     1.0000 0.24429  0.14058  0.17879  Biso   1.000  C
  C256     1.0000 0.24427  0.14065  0.17883  Biso   1.000  C
  C257     1.0000 0.24427  0.14065  0.17879  Biso   1.000  C
  O100     1.0000 0.19150  0.25321  0.08492  Biso   1.000  O
  H261     1.0000 0.98027  0.45658  0.11290  Biso   1.000  H
  H262     1.0000 0.98035  0.45658  0.11290  Biso   1.000  H
  H263     1.0000 0.98033  0.45665  0.11290  Biso   1.000  H
  H264     1.0000 0.06960  0.40812  0.07250  Biso   1.000  H
  C258     1.0000 0.08367  0.91401  0.22740  Biso   1.000  C
  C259     1.0000 0.21657  0.00072  0.23179  Biso   1.000  C
  C260     1.0000 0.60594  0.36947  0.98070  Biso   1.000  C
  H265     1.0000 0.70581  0.50017  0.01039  Biso   1.000  H
  H266     1.0000 0.70579  0.50024  0.01039  Biso   1.000  H
  N205     1.0000 0.84053  0.42038  0.97719  Biso   1.000  N
  C261     1.0000 0.93679  0.40500  0.00121  Biso   1.000  C
  C262     1.0000 0.93687  0.40500  0.00121  Biso   1.000  C
  N206     1.0000 0.24970  0.04130  0.18451  Biso   1.000  N
  H267     1.0000 0.29741  0.15033  0.15271  Biso   1.000  H
  H268     1.0000 0.26279  0.16453  0.21241  Biso   1.000  H
  O101     1.0000 0.99851  0.89621  0.22981  Biso   1.000  O
  N207     1.0000 0.17997  0.85329  0.21872  Biso   1.000  N
  N208     1.0000 0.18005  0.85329  0.21872  Biso   1.000  N
  N209     1.0000 0.17995  0.85336  0.21872  Biso   1.000  N
  C263     1.0000 0.26875  0.89442  0.22732  Biso   1.000  C
  C264     1.0000 0.26883  0.89442  0.22732  Biso   1.000  C
  H269     1.0000 0.23977  0.02792  0.26378  Biso   1.000  H
  H270     1.0000 0.23977  0.02792  0.26382  Biso   1.000  H
  H271     1.0000 0.56693  0.43634  0.97630  Biso   1.000  H
  H272     1.0000 0.55674  0.33478  0.99689  Biso   1.000  H
  N210     1.0000 0.63629  0.33174  0.93042  Biso   1.000  N
  H273     1.0000 0.55674  0.33478  0.99693  Biso   1.000  H
  N211     1.0000 0.63637  0.33174  0.93042  Biso   1.000  N
  C265     1.0000 0.82752  0.44819  0.92220  Biso   1.000  C
  O102     1.0000 0.02341  0.39427  0.97941  Biso   1.000  O
  C266     1.0000 0.32988  0.97611  0.16050  Biso   1.000  C
  C267     1.0000 0.19227  0.75170  0.22249  Biso   1.000  C
  N212     1.0000 0.33952  0.89119  0.18420  Biso   1.000  N
  H274     1.0000 0.30823  0.86824  0.25989  Biso   1.000  H
  H275     1.0000 0.30831  0.86824  0.25989  Biso   1.000  H
  N213     1.0000 0.33950  0.89126  0.18420  Biso   1.000  N
  C268     1.0000 0.67356  0.38463  0.88850  Biso   1.000  C
  C269     1.0000 0.60119  0.25745  0.91138  Biso   1.000  C
  C270     1.0000 0.67354  0.38470  0.88850  Biso   1.000  C
  C271     1.0000 0.60119  0.25745  0.91142  Biso   1.000  C
  C272     1.0000 0.60127  0.25745  0.91138  Biso   1.000  C
  C273     1.0000 0.60127  0.25745  0.91142  Biso   1.000  C
  N214     1.0000 0.78612  0.38133  0.89278  Biso   1.000  N
  H276     1.0000 0.77824  0.51128  0.91870  Biso   1.000  H
  H277     1.0000 0.89721  0.45249  0.90769  Biso   1.000  H
  N215     1.0000 0.78612  0.38133  0.89282  Biso   1.000  N
  H278     1.0000 0.89721  0.45249  0.90773  Biso   1.000  H
  O103     1.0000 0.38162  0.99371  0.12279  Biso   1.000  O
  O104     1.0000 0.38162  0.99371  0.12282  Biso   1.000  O
  N216     1.0000 0.22358  0.70579  0.17529  Biso   1.000  N
  H279     1.0000 0.24616  0.72519  0.24962  Biso   1.000  H
  H280     1.0000 0.12385  0.73873  0.23370  Biso   1.000  H
  N217     1.0000 0.22358  0.70579  0.17532  Biso   1.000  N
  H281     1.0000 0.24624  0.72519  0.24962  Biso   1.000  H
  H282     1.0000 0.12393  0.73873  0.23370  Biso   1.000  H
  C274     1.0000 0.42145  0.80790  0.17248  Biso   1.000  C
  C275     1.0000 0.42145  0.80790  0.17252  Biso   1.000  C
  C276     1.0000 0.42152  0.80790  0.17248  Biso   1.000  C
  C277     1.0000 0.42152  0.80790  0.17252  Biso   1.000  C
  C278     1.0000 0.66535  0.32855  0.84020  Biso   1.000  C
  H283     1.0000 0.62942  0.45074  0.88519  Biso   1.000  H
  O105     1.0000 0.56012  0.20454  0.93800  Biso   1.000  O
  N218     1.0000 0.61410  0.25594  0.85958  Biso   1.000  N
  N219     1.0000 0.61410  0.25594  0.85962  Biso   1.000  N
  N220     1.0000 0.61418  0.25594  0.85958  Biso   1.000  N
  O106     1.0000 0.56010  0.20461  0.93800  Biso   1.000  O
  N221     1.0000 0.61418  0.25594  0.85962  Biso   1.000  N
  C279     1.0000 0.84354  0.33193  0.85449  Biso   1.000  C
  C280     1.0000 0.84354  0.33193  0.85453  Biso   1.000  C
  C281     1.0000 0.15636  0.66814  0.14551  Biso   1.000  C
  C282     1.0000 0.33455  0.67152  0.15980  Biso   1.000  C
  C283     1.0000 0.33463  0.67152  0.15980  Biso   1.000  C
  N222     1.0000 0.38580  0.74413  0.14042  Biso   1.000  N
  H284     1.0000 0.48122  0.82750  0.15501  Biso   1.000  H
  H285     1.0000 0.44900  0.77494  0.20549  Biso   1.000  H
  H286     1.0000 0.48115  0.82750  0.15501  Biso   1.000  H
  H287     1.0000 0.44901  0.77494  0.20552  Biso   1.000  H
  N223     1.0000 0.77632  0.29428  0.82471  Biso   1.000  N
  H288     1.0000 0.62204  0.36884  0.81218  Biso   1.000  H
  H289     1.0000 0.62204  0.36884  0.81222  Biso   1.000  H
  C284     1.0000 0.57846  0.19217  0.82752  Biso   1.000  C
  C285     1.0000 0.57838  0.19217  0.82752  Biso   1.000  C
  O107     1.0000 0.93815  0.32058  0.84659  Biso   1.000  O
  O108     1.0000 0.93808  0.32058  0.84663  Biso   1.000  O
  O109     1.0000 0.93815  0.32058  0.84663  Biso   1.000  O
  O110     1.0000 0.06175  0.67949  0.15341  Biso   1.000  O
  N224     1.0000 0.21378  0.61874  0.10722  Biso   1.000  N
  O111     1.0000 0.06183  0.67949  0.15341  Biso   1.000  O
  H290     1.0000 0.37787  0.63123  0.18782  Biso   1.000  H
  C286     1.0000 0.32634  0.61544  0.11150  Biso   1.000  C
  C287     1.0000 0.32642  0.61544  0.11150  Biso   1.000  C
  C288     1.0000 0.39871  0.74262  0.08862  Biso   1.000  C
  C289     1.0000 0.80763  0.24837  0.77751  Biso   1.000  C
  N225     1.0000 0.66038  0.10888  0.81580  Biso   1.000  N
  H291     1.0000 0.51868  0.17257  0.84499  Biso   1.000  H
  H292     1.0000 0.55090  0.22513  0.79451  Biso   1.000  H
  N226     1.0000 0.66046  0.10888  0.81580  Biso   1.000  N
  H293     1.0000 0.51876  0.17257  0.84499  Biso   1.000  H
  H294     1.0000 0.55098  0.22513  0.79451  Biso   1.000  H
  C290     1.0000 0.17239  0.55188  0.07780  Biso   1.000  C
  N227     1.0000 0.36362  0.66833  0.06958  Biso   1.000  N
  H295     1.0000 0.37048  0.54933  0.11481  Biso   1.000  H
  N228     1.0000 0.36354  0.66833  0.06962  Biso   1.000  N
  N229     1.0000 0.36362  0.66833  0.06962  Biso   1.000  N
  O112     1.0000 0.43978  0.79553  0.06200  Biso   1.000  O
  N230     1.0000 0.81994  0.14678  0.78128  Biso   1.000  N
  H296     1.0000 0.75374  0.27488  0.75038  Biso   1.000  H
  H297     1.0000 0.87605  0.26134  0.76630  Biso   1.000  H
  N231     1.0000 0.81994  0.14678  0.78132  Biso   1.000  N
  H298     1.0000 0.75374  0.27487  0.75042  Biso   1.000  H
  C291     1.0000 0.73115  0.10565  0.77268  Biso   1.000  C
  C292     1.0000 0.67003  0.02396  0.83950  Biso   1.000  C
  C293     1.0000 0.73115  0.10565  0.77272  Biso   1.000  C
  H299     1.0000 0.22166  0.48879  0.08130  Biso   1.000  H
  H300     1.0000 0.10269  0.54758  0.09231  Biso   1.000  H
  N232     1.0000 0.15938  0.57970  0.02281  Biso   1.000  N
  H301     1.0000 0.10267  0.54765  0.09231  Biso   1.000  H
  H302     1.0000 0.22174  0.48879  0.08130  Biso   1.000  H
  N233     1.0000 0.15946  0.57970  0.02281  Biso   1.000  N
  C294     1.0000 0.39397  0.63060  0.01930  Biso   1.000  C
  C295     1.0000 0.39405  0.63060  0.01930  Biso   1.000  C
  C296     1.0000 0.91623  0.08606  0.77260  Biso   1.000  C
  C297     1.0000 0.78333  0.99935  0.76821  Biso   1.000  C
  H303     1.0000 0.69167  0.13183  0.74011  Biso   1.000  H
  H304     1.0000 0.69159  0.13183  0.74011  Biso   1.000  H
  N234     1.0000 0.75021  0.95877  0.81549  Biso   1.000  N
  O113     1.0000 0.61828  0.00636  0.87721  Biso   1.000  O
  O114     1.0000 0.61836  0.00636  0.87721  Biso   1.000  O
  C298     1.0000 0.24623  0.56436  0.98548  Biso   1.000  C
  C299     1.0000 0.06311  0.59507  0.99879  Biso   1.000  C
  C300     1.0000 0.24623  0.56436  0.98552  Biso   1.000  C
  N235     1.0000 0.30458  0.63615  0.98459  Biso   1.000  N
  N236     1.0000 0.30458  0.63615  0.98463  Biso   1.000  N
  N237     1.0000 0.30465  0.63615  0.98459  Biso   1.000  N
  N238     1.0000 0.30465  0.63615  0.98463  Biso   1.000  N
  H305     1.0000 0.43298  0.56373  0.02370  Biso   1.000  H
  H306     1.0000 0.44317  0.66529  0.00311  Biso   1.000  H
  H307     1.0000 0.44324  0.66529  0.00311  Biso   1.000  H
  N239     1.0000 0.89522  0.99747  0.76758  Biso   1.000  N
  N240     1.0000 0.89522  0.99747  0.76762  Biso   1.000  N
  O115     1.0000 0.00140  0.10386  0.77019  Biso   1.000  O
  O116     1.0000 0.00147  0.10386  0.77019  Biso   1.000  O
  H308     1.0000 0.76013  0.97215  0.73622  Biso   1.000  H
  C301     1.0000 0.75561  0.85949  0.82121  Biso   1.000  C
  H309     1.0000 0.29409  0.49990  0.98961  Biso   1.000  H
  C302     1.0000 0.18973  0.57860  0.93298  Biso   1.000  C
  C303     1.0000 0.18965  0.57860  0.93302  Biso   1.000  C
  C304     1.0000 0.18973  0.57860  0.93302  Biso   1.000  C
  O117     1.0000 0.97649  0.60580  0.02059  Biso   1.000  O
  O118     1.0000 0.97649  0.60580  0.02063  Biso   1.000  O
  N241     1.0000 0.07619  0.60040  0.94692  Biso   1.000  N
  C305     1.0000 0.29741  0.68167  0.93870  Biso   1.000  C
  C306     1.0000 0.97695  0.91756  0.75139  Biso   1.000  C
  N242     1.0000 0.86025  0.80584  0.83752  Biso   1.000  N
  H310     1.0000 0.70249  0.84974  0.84729  Biso   1.000  H
  H311     1.0000 0.73711  0.83554  0.78759  Biso   1.000  H
  H312     1.0000 0.70249  0.84973  0.84733  Biso   1.000  H
  H313     1.0000 0.73711  0.83554  0.78763  Biso   1.000  H
  H314     1.0000 0.70257  0.84974  0.84729  Biso   1.000  H
  H315     1.0000 0.70257  0.84973  0.84733  Biso   1.000  H
  N243     1.0000 0.22360  0.65579  0.90882  Biso   1.000  N
  H316     1.0000 0.20992  0.52055  0.91181  Biso   1.000  H
  C307     1.0000 0.99519  0.59926  0.90901  Biso   1.000  C
  C308     1.0000 0.99526  0.59926  0.90901  Biso   1.000  C
  O119     1.0000 0.34955  0.73973  0.92481  Biso   1.000  O
  O120     1.0000 0.34945  0.73980  0.92481  Biso   1.000  O
  O121     1.0000 0.34953  0.73980  0.92481  Biso   1.000  O
  H317     1.0000 0.95150  0.89096  0.72018  Biso   1.000  H
  H318     1.0000 0.95150  0.89096  0.72022  Biso   1.000  H
  H319     1.0000 0.95158  0.89096  0.72018  Biso   1.000  H
  H320     1.0000 0.95158  0.89096  0.72022  Biso   1.000  H
  N244     1.0000 0.00660  0.84473  0.79012  Biso   1.000  N
  H321     1.0000 0.04087  0.93972  0.74131  Biso   1.000  H
  H322     1.0000 0.04078  0.93979  0.74131  Biso   1.000  H
  N245     1.0000 0.00668  0.84473  0.79012  Biso   1.000  N
  H323     1.0000 0.04085  0.93979  0.74131  Biso   1.000  H
  C309     1.0000 0.94450  0.77554  0.79918  Biso   1.000  C
  C310     1.0000 0.87089  0.74499  0.87932  Biso   1.000  C
  C311     1.0000 0.94450  0.77554  0.79922  Biso   1.000  C
  C312     1.0000 0.94458  0.77554  0.79918  Biso   1.000  C
  C313     1.0000 0.87096  0.74499  0.87932  Biso   1.000  C
  C314     1.0000 0.21751  0.67604  0.85270  Biso   1.000  C
  N246     1.0000 0.96820  0.68128  0.87609  Biso   1.000  N
  H324     1.0000 0.93030  0.59195  0.92750  Biso   1.000  H
  N247     1.0000 0.96820  0.68128  0.87612  Biso   1.000  N
  H325     1.0000 0.01963  0.54349  0.88710  Biso   1.000  H
  C315     1.0000 0.10551  0.81707  0.81140  Biso   1.000  C
  C316     1.0000 0.02380  0.69507  0.82900  Biso   1.000  C
  H326     1.0000 0.91780  0.75416  0.76630  Biso   1.000  H
  H327     1.0000 0.91788  0.75416  0.76630  Biso   1.000  H
  O122     1.0000 0.80840  0.74686  0.91508  Biso   1.000  O
  O123     1.0000 0.80840  0.74686  0.91512  Biso   1.000  O
  N248     1.0000 0.11532  0.73209  0.83651  Biso   1.000  N
  H328     1.0000 0.23279  0.61583  0.83409  Biso   1.000  H
  H329     1.0000 0.27271  0.70988  0.84301  Biso   1.000  H
  H330     1.0000 0.23286  0.61583  0.83409  Biso   1.000  H
  H331     1.0000 0.23284  0.61590  0.83409  Biso   1.000  H
  O124     1.0000 0.17420  0.86179  0.80759  Biso   1.000  O
  H332     1.0000 0.04161  0.63636  0.80829  Biso   1.000  H
  N249     1.0000 0.88459  0.26798  0.16349  Biso   1.000  N
  C317     1.0000 0.78239  0.32403  0.14730  Biso   1.000  C
  C318     1.0000 0.89440  0.18300  0.18860  Biso   1.000  C
  C319     1.0000 0.97611  0.30501  0.17100  Biso   1.000  C
  H333     1.0000 0.76712  0.38424  0.16591  Biso   1.000  H
  H334     1.0000 0.72719  0.29019  0.15699  Biso   1.000  H
  N250     1.0000 0.77630  0.34428  0.09118  Biso   1.000  N
  N251     1.0000 0.77630  0.34428  0.09122  Biso   1.000  N
  N252     1.0000 0.77628  0.34435  0.09122  Biso   1.000  N
  N253     1.0000 0.88457  0.26805  0.16349  Biso   1.000  N
  O125     1.0000 0.82570  0.13828  0.19241  Biso   1.000  O
  N254     1.0000 0.99330  0.15534  0.20988  Biso   1.000  N
  N255     1.0000 0.99330  0.15534  0.20992  Biso   1.000  N
  O126     1.0000 0.82568  0.13835  0.19241  Biso   1.000  O
  H335     1.0000 0.95829  0.36371  0.19171  Biso   1.000  H
  N256     1.0000 0.03170  0.31879  0.12391  Biso   1.000  N
  C320     1.0000 0.05540  0.22453  0.20082  Biso   1.000  C
  C321     1.0000 0.70250  0.31840  0.06130  Biso   1.000  C
  C322     1.0000 0.81018  0.42147  0.06702  Biso   1.000  C
  C323     1.0000 0.81016  0.42154  0.06702  Biso   1.000  C
  C324     1.0000 0.81023  0.42154  0.06702  Biso   1.000  C
  C325     1.0000 0.02296  0.08251  0.24861  Biso   1.000  C
  C326     1.0000 0.02303  0.08251  0.24861  Biso   1.000  C
  C327     1.0000 0.12902  0.25508  0.12068  Biso   1.000  C
  C328     1.0000 0.00472  0.40081  0.09099  Biso   1.000  C
  C329     1.0000 0.12902  0.25508  0.12072  Biso   1.000  C
  C330     1.0000 0.12900  0.25515  0.12068  Biso   1.000  C
  C331     1.0000 0.12900  0.25515  0.12072  Biso   1.000  C
  N257     1.0000 0.13965  0.19423  0.16248  Biso   1.000  N
  H336     1.0000 0.08210  0.24591  0.23370  Biso   1.000  H
  N258     1.0000 0.13965  0.19423  0.16252  Biso   1.000  N
  N259     1.0000 0.13973  0.19423  0.16248  Biso   1.000  N
  N260     1.0000 0.13973  0.19423  0.16252  Biso   1.000  N
  N261     1.0000 0.69533  0.36392  0.01541  Biso   1.000  N
  O127     1.0000 0.65035  0.26034  0.07519  Biso   1.000  O
  O128     1.0000 0.65035  0.26034  0.07523  Biso   1.000  O
  O129     1.0000 0.65043  0.26034  0.07519  Biso   1.000  O
  O130     1.0000 0.65043  0.26034  0.07523  Biso   1.000  O
  N262     1.0000 0.92372  0.39967  0.05308  Biso   1.000  N
  C332     1.0000 0.75368  0.43571  0.01452  Biso   1.000  C
  H337     1.0000 0.78999  0.47952  0.08819  Biso   1.000  H
  N263     1.0000 0.92372  0.39967  0.05312  Biso   1.000  N
  H338     1.0000 0.78999  0.47952  0.08823  Biso   1.000  H
  N264     1.0000 0.92370  0.39974  0.05308  Biso   1.000  N
  C333     1.0000 0.75376  0.43571  0.01452  Biso   1.000  C
  N265     1.0000 0.92370  0.39974  0.05312  Biso   1.000  N
  H339     1.0000 0.95903  0.06035  0.25869  Biso   1.000  H
  H340     1.0000 0.95903  0.06035  0.25872  Biso   1.000  H
  H341     1.0000 0.95911  0.06035  0.25869  Biso   1.000  H
  H342     1.0000 0.95911  0.06035  0.25872  Biso   1.000  H
  N266     1.0000 0.10468  0.00260  0.23242  Biso   1.000  N
  H343     1.0000 0.04841  0.10911  0.27982  Biso   1.000  H
  O131     1.0000 0.19150  0.25321  0.08492  Biso   1.000  O
  H344     1.0000 0.98027  0.45658  0.11290  Biso   1.000  H
  H345     1.0000 0.98035  0.45658  0.11290  Biso   1.000  H
  H346     1.0000 0.98033  0.45665  0.11290  Biso   1.000  H
  H347     1.0000 0.06960  0.40812  0.07250  Biso   1.000  H
  C334     1.0000 0.24429  0.14058  0.17879  Biso   1.000  C
  C335     1.0000 0.24427  0.14065  0.17883  Biso   1.000  C
  C336     1.0000 0.24427  0.14065  0.17879  Biso   1.000  C
  C337     1.0000 0.60594  0.36947  0.98070  Biso   1.000  C
  C338     1.0000 0.93679  0.40500  0.00121  Biso   1.000  C
  C339     1.0000 0.93687  0.40500  0.00121  Biso   1.000  C
  N267     1.0000 0.84053  0.42038  0.97719  Biso   1.000  N
  H348     1.0000 0.70581  0.50017  0.01039  Biso   1.000  H
  H349     1.0000 0.70579  0.50024  0.01039  Biso   1.000  H
  C340     1.0000 0.08367  0.91401  0.22740  Biso   1.000  C
  C341     1.0000 0.21657  0.00072  0.23179  Biso   1.000  C
  N268     1.0000 0.24970  0.04130  0.18451  Biso   1.000  N
  H350     1.0000 0.29741  0.15033  0.15271  Biso   1.000  H
  H351     1.0000 0.26279  0.16453  0.21241  Biso   1.000  H
  H352     1.0000 0.56693  0.43634  0.97630  Biso   1.000  H
  H353     1.0000 0.55674  0.33478  0.99689  Biso   1.000  H
  N269     1.0000 0.63629  0.33174  0.93042  Biso   1.000  N
  H354     1.0000 0.55674  0.33478  0.99693  Biso   1.000  H
  N270     1.0000 0.63637  0.33174  0.93042  Biso   1.000  N
  O132     1.0000 0.02341  0.39427  0.97941  Biso   1.000  O
  C342     1.0000 0.82752  0.44819  0.92220  Biso   1.000  C
  O133     1.0000 0.99851  0.89621  0.22981  Biso   1.000  O
  N271     1.0000 0.17997  0.85329  0.21872  Biso   1.000  N
  N272     1.0000 0.18005  0.85329  0.21872  Biso   1.000  N
  N273     1.0000 0.17995  0.85336  0.21872  Biso   1.000  N
  C343     1.0000 0.26875  0.89442  0.22732  Biso   1.000  C
  C344     1.0000 0.26883  0.89442  0.22732  Biso   1.000  C
  H355     1.0000 0.23977  0.02792  0.26378  Biso   1.000  H
  H356     1.0000 0.23977  0.02792  0.26382  Biso   1.000  H
  C345     1.0000 0.32988  0.97611  0.16050  Biso   1.000  C
  C346     1.0000 0.67356  0.38463  0.88850  Biso   1.000  C
  C347     1.0000 0.60119  0.25745  0.91138  Biso   1.000  C
  C348     1.0000 0.67354  0.38470  0.88850  Biso   1.000  C
  C349     1.0000 0.60119  0.25745  0.91142  Biso   1.000  C
  C350     1.0000 0.60127  0.25745  0.91138  Biso   1.000  C
  C351     1.0000 0.60127  0.25745  0.91142  Biso   1.000  C
  N274     1.0000 0.78612  0.38133  0.89278  Biso   1.000  N
  H357     1.0000 0.77824  0.51128  0.91870  Biso   1.000  H
  H358     1.0000 0.89721  0.45249  0.90769  Biso   1.000  H
  N275     1.0000 0.78612  0.38133  0.89282  Biso   1.000  N
  H359     1.0000 0.89721  0.45249  0.90773  Biso   1.000  H
  C352     1.0000 0.19227  0.75170  0.22249  Biso   1.000  C
  N276     1.0000 0.33952  0.89119  0.18420  Biso   1.000  N
  H360     1.0000 0.30823  0.86824  0.25989  Biso   1.000  H
  H361     1.0000 0.30831  0.86824  0.25989  Biso   1.000  H
  N277     1.0000 0.33950  0.89126  0.18420  Biso   1.000  N
  O134     1.0000 0.38162  0.99371  0.12279  Biso   1.000  O
  O135     1.0000 0.38162  0.99371  0.12282  Biso   1.000  O
  C353     1.0000 0.66535  0.32855  0.84020  Biso   1.000  C
  H362     1.0000 0.62942  0.45074  0.88519  Biso   1.000  H
  O136     1.0000 0.56012  0.20454  0.93800  Biso   1.000  O
  N278     1.0000 0.61410  0.25594  0.85958  Biso   1.000  N
  N279     1.0000 0.61410  0.25594  0.85962  Biso   1.000  N
  N280     1.0000 0.61418  0.25594  0.85958  Biso   1.000  N
  O137     1.0000 0.56010  0.20461  0.93800  Biso   1.000  O
  N281     1.0000 0.61418  0.25594  0.85962  Biso   1.000  N
  C354     1.0000 0.84354  0.33193  0.85449  Biso   1.000  C
  C355     1.0000 0.84354  0.33193  0.85453  Biso   1.000  C
  N282     1.0000 0.22358  0.70579  0.17529  Biso   1.000  N
  H363     1.0000 0.24616  0.72519  0.24962  Biso   1.000  H
  H364     1.0000 0.12385  0.73873  0.23370  Biso   1.000  H
  N283     1.0000 0.22358  0.70579  0.17532  Biso   1.000  N
  H365     1.0000 0.24624  0.72519  0.24962  Biso   1.000  H
  H366     1.0000 0.12393  0.73873  0.23370  Biso   1.000  H
  C356     1.0000 0.42145  0.80790  0.17248  Biso   1.000  C
  C357     1.0000 0.42145  0.80790  0.17252  Biso   1.000  C
  C358     1.0000 0.42152  0.80790  0.17248  Biso   1.000  C
  C359     1.0000 0.42152  0.80790  0.17252  Biso   1.000  C
  N284     1.0000 0.77632  0.29428  0.82471  Biso   1.000  N
  H367     1.0000 0.62204  0.36884  0.81218  Biso   1.000  H
  H368     1.0000 0.62204  0.36884  0.81222  Biso   1.000  H
  C360     1.0000 0.57846  0.19217  0.82752  Biso   1.000  C
  C361     1.0000 0.57838  0.19217  0.82752  Biso   1.000  C
  O138     1.0000 0.93815  0.32058  0.84659  Biso   1.000  O
  O139     1.0000 0.93808  0.32058  0.84663  Biso   1.000  O
  O140     1.0000 0.93815  0.32058  0.84663  Biso   1.000  O
  C362     1.0000 0.15636  0.66814  0.14551  Biso   1.000  C
  C363     1.0000 0.33455  0.67152  0.15980  Biso   1.000  C
  C364     1.0000 0.33463  0.67152  0.15980  Biso   1.000  C
  N285     1.0000 0.38580  0.74413  0.14042  Biso   1.000  N
  H369     1.0000 0.48122  0.82750  0.15501  Biso   1.000  H
  H370     1.0000 0.44900  0.77494  0.20549  Biso   1.000  H
  H371     1.0000 0.48115  0.82750  0.15501  Biso   1.000  H
  H372     1.0000 0.44901  0.77494  0.20552  Biso   1.000  H
  C365     1.0000 0.80763  0.24837  0.77751  Biso   1.000  C
  N286     1.0000 0.66038  0.10888  0.81580  Biso   1.000  N
  H373     1.0000 0.51868  0.17257  0.84499  Biso   1.000  H
  H374     1.0000 0.55090  0.22513  0.79451  Biso   1.000  H
  N287     1.0000 0.66046  0.10888  0.81580  Biso   1.000  N
  H375     1.0000 0.51876  0.17257  0.84499  Biso   1.000  H
  H376     1.0000 0.55098  0.22513  0.79451  Biso   1.000  H
  O141     1.0000 0.06175  0.67949  0.15341  Biso   1.000  O
  N288     1.0000 0.21378  0.61874  0.10722  Biso   1.000  N
  O142     1.0000 0.06183  0.67949  0.15341  Biso   1.000  O
  H377     1.0000 0.37787  0.63123  0.18782  Biso   1.000  H
  C366     1.0000 0.32634  0.61544  0.11150  Biso   1.000  C
  C367     1.0000 0.32642  0.61544  0.11150  Biso   1.000  C
  C368     1.0000 0.39871  0.74262  0.08862  Biso   1.000  C
  N289     1.0000 0.81994  0.14678  0.78128  Biso   1.000  N
  H378     1.0000 0.75374  0.27488  0.75038  Biso   1.000  H
  H379     1.0000 0.87605  0.26134  0.76630  Biso   1.000  H
  N290     1.0000 0.81994  0.14678  0.78132  Biso   1.000  N
  H380     1.0000 0.75374  0.27487  0.75042  Biso   1.000  H
  C369     1.0000 0.73115  0.10565  0.77268  Biso   1.000  C
  C370     1.0000 0.67003  0.02396  0.83950  Biso   1.000  C
  C371     1.0000 0.73115  0.10565  0.77272  Biso   1.000  C
  C372     1.0000 0.17239  0.55188  0.07780  Biso   1.000  C
  N291     1.0000 0.36362  0.66833  0.06958  Biso   1.000  N
  H381     1.0000 0.37048  0.54933  0.11481  Biso   1.000  H
  N292     1.0000 0.36354  0.66833  0.06962  Biso   1.000  N
  N293     1.0000 0.36362  0.66833  0.06962  Biso   1.000  N
  O143     1.0000 0.43978  0.79553  0.06200  Biso   1.000  O
  C373     1.0000 0.91623  0.08606  0.77260  Biso   1.000  C
  C374     1.0000 0.78333  0.99935  0.76821  Biso   1.000  C
  H382     1.0000 0.69167  0.13183  0.74011  Biso   1.000  H
  H383     1.0000 0.69159  0.13183  0.74011  Biso   1.000  H
  N294     1.0000 0.75021  0.95877  0.81549  Biso   1.000  N
  O144     1.0000 0.61828  0.00636  0.87721  Biso   1.000  O
  O145     1.0000 0.61836  0.00636  0.87721  Biso   1.000  O
  H384     1.0000 0.22166  0.48879  0.08130  Biso   1.000  H
  H385     1.0000 0.10269  0.54758  0.09231  Biso   1.000  H
  N295     1.0000 0.15938  0.57970  0.02281  Biso   1.000  N
  H386     1.0000 0.10267  0.54765  0.09231  Biso   1.000  H
  H387     1.0000 0.22174  0.48879  0.08130  Biso   1.000  H
  N296     1.0000 0.15946  0.57970  0.02281  Biso   1.000  N
  C375     1.0000 0.39397  0.63060  0.01930  Biso   1.000  C
  C376     1.0000 0.39405  0.63060  0.01930  Biso   1.000  C
  N297     1.0000 0.89522  0.99747  0.76758  Biso   1.000  N
  N298     1.0000 0.89522  0.99747  0.76762  Biso   1.000  N
  O146     1.0000 0.00140  0.10386  0.77019  Biso   1.000  O
  O147     1.0000 0.00147  0.10386  0.77019  Biso   1.000  O
  H388     1.0000 0.76013  0.97215  0.73622  Biso   1.000  H
  C377     1.0000 0.75561  0.85949  0.82121  Biso   1.000  C
  C378     1.0000 0.24623  0.56436  0.98548  Biso   1.000  C
  C379     1.0000 0.06311  0.59507  0.99879  Biso   1.000  C
  C380     1.0000 0.24623  0.56436  0.98552  Biso   1.000  C
  N299     1.0000 0.30458  0.63615  0.98459  Biso   1.000  N
  N300     1.0000 0.30458  0.63615  0.98463  Biso   1.000  N
  N301     1.0000 0.30465  0.63615  0.98459  Biso   1.000  N
  N302     1.0000 0.30465  0.63615  0.98463  Biso   1.000  N
  H389     1.0000 0.43298  0.56373  0.02370  Biso   1.000  H
  H390     1.0000 0.44317  0.66529  0.00311  Biso   1.000  H
  H391     1.0000 0.44324  0.66529  0.00311  Biso   1.000  H
  C381     1.0000 0.97695  0.91756  0.75139  Biso   1.000  C
  N303     1.0000 0.86025  0.80584  0.83752  Biso   1.000  N
  H392     1.0000 0.70249  0.84974  0.84729  Biso   1.000  H
  H393     1.0000 0.73711  0.83554  0.78759  Biso   1.000  H
  H394     1.0000 0.70249  0.84973  0.84733  Biso   1.000  H
  H395     1.0000 0.73711  0.83554  0.78763  Biso   1.000  H
  H396     1.0000 0.70257  0.84974  0.84729  Biso   1.000  H
  H397     1.0000 0.70257  0.84973  0.84733  Biso   1.000  H
  H398     1.0000 0.29409  0.49990  0.98961  Biso   1.000  H
  C382     1.0000 0.18973  0.57860  0.93298  Biso   1.000  C
  C383     1.0000 0.18965  0.57860  0.93302  Biso   1.000  C
  C384     1.0000 0.18973  0.57860  0.93302  Biso   1.000  C
  O148     1.0000 0.97649  0.60580  0.02059  Biso   1.000  O
  O149     1.0000 0.97649  0.60580  0.02063  Biso   1.000  O
  N304     1.0000 0.07619  0.60040  0.94692  Biso   1.000  N
  C385     1.0000 0.29741  0.68167  0.93870  Biso   1.000  C
  H399     1.0000 0.95150  0.89096  0.72018  Biso   1.000  H
  H400     1.0000 0.95150  0.89096  0.72022  Biso   1.000  H
  H401     1.0000 0.95158  0.89096  0.72018  Biso   1.000  H
  H402     1.0000 0.95158  0.89096  0.72022  Biso   1.000  H
  N305     1.0000 0.00660  0.84473  0.79012  Biso   1.000  N
  H403     1.0000 0.04087  0.93972  0.74131  Biso   1.000  H
  H404     1.0000 0.04078  0.93979  0.74131  Biso   1.000  H
  N306     1.0000 0.00668  0.84473  0.79012  Biso   1.000  N
  H405     1.0000 0.04085  0.93979  0.74131  Biso   1.000  H
  C386     1.0000 0.94450  0.77554  0.79918  Biso   1.000  C
  C387     1.0000 0.87089  0.74499  0.87932  Biso   1.000  C
  C388     1.0000 0.94450  0.77554  0.79922  Biso   1.000  C
  C389     1.0000 0.94458  0.77554  0.79918  Biso   1.000  C
  C390     1.0000 0.87096  0.74499  0.87932  Biso   1.000  C
  N307     1.0000 0.22360  0.65579  0.90882  Biso   1.000  N
  H406     1.0000 0.20992  0.52055  0.91181  Biso   1.000  H
  C391     1.0000 0.99519  0.59926  0.90901  Biso   1.000  C
  C392     1.0000 0.99526  0.59926  0.90901  Biso   1.000  C
  O150     1.0000 0.34955  0.73973  0.92481  Biso   1.000  O
  O151     1.0000 0.34945  0.73980  0.92481  Biso   1.000  O
  O152     1.0000 0.34953  0.73980  0.92481  Biso   1.000  O
  C393     1.0000 0.10551  0.81707  0.81140  Biso   1.000  C
  H407     1.0000 0.91780  0.75416  0.76630  Biso   1.000  H
  H408     1.0000 0.91788  0.75416  0.76630  Biso   1.000  H
  C394     1.0000 0.02380  0.69507  0.82900  Biso   1.000  C
  O153     1.0000 0.80840  0.74686  0.91508  Biso   1.000  O
  N308     1.0000 0.96820  0.68128  0.87609  Biso   1.000  N
  O154     1.0000 0.80840  0.74686  0.91512  Biso   1.000  O
  N309     1.0000 0.96820  0.68128  0.87612  Biso   1.000  N
  C395     1.0000 0.21751  0.67604  0.85270  Biso   1.000  C
  H409     1.0000 0.93030  0.59195  0.92750  Biso   1.000  H
  H410     1.0000 0.01963  0.54349  0.88710  Biso   1.000  H
  O155     1.0000 0.17420  0.86179  0.80759  Biso   1.000  O
  N310     1.0000 0.11532  0.73209  0.83651  Biso   1.000  N
  H411     1.0000 0.04161  0.63636  0.80829  Biso   1.000  H
  H412     1.0000 0.23279  0.61583  0.83409  Biso   1.000  H
  H413     1.0000 0.27271  0.70988  0.84301  Biso   1.000  H
  H414     1.0000 0.23286  0.61583  0.83409  Biso   1.000  H
  H415     1.0000 0.23284  0.61590  0.83409  Biso   1.000  H
  N311     1.0000 0.88459  0.26798  0.16349  Biso   1.000  N
  C396     1.0000 0.78239  0.32403  0.14730  Biso   1.000  C
  C397     1.0000 0.89440  0.18300  0.18860  Biso   1.000  C
  C398     1.0000 0.97611  0.30501  0.17100  Biso   1.000  C
  H416     1.0000 0.76712  0.38424  0.16591  Biso   1.000  H
  H417     1.0000 0.72719  0.29019  0.15699  Biso   1.000  H
  N312     1.0000 0.77630  0.34428  0.09118  Biso   1.000  N
  N313     1.0000 0.77630  0.34428  0.09122  Biso   1.000  N
  N314     1.0000 0.77628  0.34435  0.09122  Biso   1.000  N
  N315     1.0000 0.88457  0.26805  0.16349  Biso   1.000  N
  O156     1.0000 0.82570  0.13828  0.19241  Biso   1.000  O
  N316     1.0000 0.99330  0.15534  0.20988  Biso   1.000  N
  N317     1.0000 0.99330  0.15534  0.20992  Biso   1.000  N
  O157     1.0000 0.82568  0.13835  0.19241  Biso   1.000  O
  H418     1.0000 0.95829  0.36371  0.19171  Biso   1.000  H
  N318     1.0000 0.03170  0.31879  0.12391  Biso   1.000  N
  C399     1.0000 0.05540  0.22453  0.20082  Biso   1.000  C
  C400     1.0000 0.70250  0.31840  0.06130  Biso   1.000  C
  C401     1.0000 0.81018  0.42147  0.06702  Biso   1.000  C
  C402     1.0000 0.81016  0.42154  0.06702  Biso   1.000  C
  C403     1.0000 0.81023  0.42154  0.06702  Biso   1.000  C
  C404     1.0000 0.02296  0.08251  0.24861  Biso   1.000  C
  C405     1.0000 0.02303  0.08251  0.24861  Biso   1.000  C
  C406     1.0000 0.12902  0.25508  0.12068  Biso   1.000  C
  C407     1.0000 0.00472  0.40081  0.09099  Biso   1.000  C
  C408     1.0000 0.12902  0.25508  0.12072  Biso   1.000  C
  C409     1.0000 0.12900  0.25515  0.12068  Biso   1.000  C
  C410     1.0000 0.12900  0.25515  0.12072  Biso   1.000  C
  N319     1.0000 0.13965  0.19423  0.16248  Biso   1.000  N
  H419     1.0000 0.08210  0.24591  0.23370  Biso   1.000  H
  N320     1.0000 0.13965  0.19423  0.16252  Biso   1.000  N
  N321     1.0000 0.13973  0.19423  0.16248  Biso   1.000  N
  N322     1.0000 0.13973  0.19423  0.16252  Biso   1.000  N
  N323     1.0000 0.69533  0.36392  0.01541  Biso   1.000  N
  O158     1.0000 0.65035  0.26034  0.07519  Biso   1.000  O
  O159     1.0000 0.65035  0.26034  0.07523  Biso   1.000  O
  O160     1.0000 0.65043  0.26034  0.07519  Biso   1.000  O
  O161     1.0000 0.65043  0.26034  0.07523  Biso   1.000  O
  N324     1.0000 0.92372  0.39967  0.05308  Biso   1.000  N
  C411     1.0000 0.75368  0.43571  0.01452  Biso   1.000  C
  H420     1.0000 0.78999  0.47952  0.08819  Biso   1.000  H
  N325     1.0000 0.92372  0.39967  0.05312  Biso   1.000  N
  H421     1.0000 0.78999  0.47952  0.08823  Biso   1.000  H
  N326     1.0000 0.92370  0.39974  0.05308  Biso   1.000  N
  C412     1.0000 0.75376  0.43571  0.01452  Biso   1.000  C
  N327     1.0000 0.92370  0.39974  0.05312  Biso   1.000  N
  H422     1.0000 0.95903  0.06035  0.25869  Biso   1.000  H
  H423     1.0000 0.95903  0.06035  0.25872  Biso   1.000  H
  H424     1.0000 0.95911  0.06035  0.25869  Biso   1.000  H
  H425     1.0000 0.95911  0.06035  0.25872  Biso   1.000  H
  N328     1.0000 0.10468  0.00260  0.23242  Biso   1.000  N
  H426     1.0000 0.04841  0.10911  0.27982  Biso   1.000  H
  O162     1.0000 0.19150  0.25321  0.08492  Biso   1.000  O
  H427     1.0000 0.98027  0.45658  0.11290  Biso   1.000  H
  H428     1.0000 0.98035  0.45658  0.11290  Biso   1.000  H
  H429     1.0000 0.98033  0.45665  0.11290  Biso   1.000  H
  H430     1.0000 0.06960  0.40812  0.07250  Biso   1.000  H
  C413     1.0000 0.24429  0.14058  0.17879  Biso   1.000  C
  C414     1.0000 0.24427  0.14065  0.17883  Biso   1.000  C
  C415     1.0000 0.24427  0.14065  0.17879  Biso   1.000  C
  C416     1.0000 0.60594  0.36947  0.98070  Biso   1.000  C
  C417     1.0000 0.93679  0.40500  0.00121  Biso   1.000  C
  C418     1.0000 0.93687  0.40500  0.00121  Biso   1.000  C
  N329     1.0000 0.84053  0.42038  0.97719  Biso   1.000  N
  H431     1.0000 0.70581  0.50017  0.01039  Biso   1.000  H
  H432     1.0000 0.70579  0.50024  0.01039  Biso   1.000  H
  C419     1.0000 0.08367  0.91401  0.22740  Biso   1.000  C
  C420     1.0000 0.21657  0.00072  0.23179  Biso   1.000  C
  N330     1.0000 0.24970  0.04130  0.18451  Biso   1.000  N
  H433     1.0000 0.29741  0.15033  0.15271  Biso   1.000  H
  H434     1.0000 0.26279  0.16453  0.21241  Biso   1.000  H
  H435     1.0000 0.56693  0.43634  0.97630  Biso   1.000  H
  H436     1.0000 0.55674  0.33478  0.99689  Biso   1.000  H
  N331     1.0000 0.63629  0.33174  0.93042  Biso   1.000  N
  H437     1.0000 0.55674  0.33478  0.99693  Biso   1.000  H
  N332     1.0000 0.63637  0.33174  0.93042  Biso   1.000  N
  O163     1.0000 0.02341  0.39427  0.97941  Biso   1.000  O
  C421     1.0000 0.82752  0.44819  0.92220  Biso   1.000  C
  O164     1.0000 0.99851  0.89621  0.22981  Biso   1.000  O
  N333     1.0000 0.17997  0.85329  0.21872  Biso   1.000  N
  N334     1.0000 0.18005  0.85329  0.21872  Biso   1.000  N
  N335     1.0000 0.17995  0.85336  0.21872  Biso   1.000  N
  C422     1.0000 0.26875  0.89442  0.22732  Biso   1.000  C
  C423     1.0000 0.26883  0.89442  0.22732  Biso   1.000  C
  H438     1.0000 0.23977  0.02792  0.26378  Biso   1.000  H
  H439     1.0000 0.23977  0.02792  0.26382  Biso   1.000  H
  C424     1.0000 0.32988  0.97611  0.16050  Biso   1.000  C
  C425     1.0000 0.67356  0.38463  0.88850  Biso   1.000  C
  C426     1.0000 0.60119  0.25745  0.91138  Biso   1.000  C
  C427     1.0000 0.67354  0.38470  0.88850  Biso   1.000  C
  C428     1.0000 0.60119  0.25745  0.91142  Biso   1.000  C
  C429     1.0000 0.60127  0.25745  0.91138  Biso   1.000  C
  C430     1.0000 0.60127  0.25745  0.91142  Biso   1.000  C
  N336     1.0000 0.78612  0.38133  0.89278  Biso   1.000  N
  H440     1.0000 0.77824  0.51128  0.91870  Biso   1.000  H
  H441     1.0000 0.89721  0.45249  0.90769  Biso   1.000  H
  N337     1.0000 0.78612  0.38133  0.89282  Biso   1.000  N
  H442     1.0000 0.89721  0.45249  0.90773  Biso   1.000  H
  C431     1.0000 0.19227  0.75170  0.22249  Biso   1.000  C
  N338     1.0000 0.33952  0.89119  0.18420  Biso   1.000  N
  H443     1.0000 0.30823  0.86824  0.25989  Biso   1.000  H
  H444     1.0000 0.30831  0.86824  0.25989  Biso   1.000  H
  N339     1.0000 0.33950  0.89126  0.18420  Biso   1.000  N
  O165     1.0000 0.38162  0.99371  0.12279  Biso   1.000  O
  O166     1.0000 0.38162  0.99371  0.12282  Biso   1.000  O
  C432     1.0000 0.66535  0.32855  0.84020  Biso   1.000  C
  H445     1.0000 0.62942  0.45074  0.88519  Biso   1.000  H
  O167     1.0000 0.56012  0.20454  0.93800  Biso   1.000  O
  N340     1.0000 0.61410  0.25594  0.85958  Biso   1.000  N
  N341     1.0000 0.61410  0.25594  0.85962  Biso   1.000  N
  N342     1.0000 0.61418  0.25594  0.85958  Biso   1.000  N
  O168     1.0000 0.56010  0.20461  0.93800  Biso   1.000  O
  N343     1.0000 0.61418  0.25594  0.85962  Biso   1.000  N
  C433     1.0000 0.84354  0.33193  0.85449  Biso   1.000  C
  C434     1.0000 0.84354  0.33193  0.85453  Biso   1.000  C
  N344     1.0000 0.22358  0.70579  0.17529  Biso   1.000  N
  H446     1.0000 0.24616  0.72519  0.24962  Biso   1.000  H
  H447     1.0000 0.12385  0.73873  0.23370  Biso   1.000  H
  N345     1.0000 0.22358  0.70579  0.17532  Biso   1.000  N
  H448     1.0000 0.24624  0.72519  0.24962  Biso   1.000  H
  H449     1.0000 0.12393  0.73873  0.23370  Biso   1.000  H
  C435     1.0000 0.42145  0.80790  0.17248  Biso   1.000  C
  C436     1.0000 0.42145  0.80790  0.17252  Biso   1.000  C
  C437     1.0000 0.42152  0.80790  0.17248  Biso   1.000  C
  C438     1.0000 0.42152  0.80790  0.17252  Biso   1.000  C
  N346     1.0000 0.77632  0.29428  0.82471  Biso   1.000  N
  H450     1.0000 0.62204  0.36884  0.81218  Biso   1.000  H
  H451     1.0000 0.62204  0.36884  0.81222  Biso   1.000  H
  C439     1.0000 0.57846  0.19217  0.82752  Biso   1.000  C
  C440     1.0000 0.57838  0.19217  0.82752  Biso   1.000  C
  O169     1.0000 0.93815  0.32058  0.84659  Biso   1.000  O
  O170     1.0000 0.93808  0.32058  0.84663  Biso   1.000  O
  O171     1.0000 0.93815  0.32058  0.84663  Biso   1.000  O
  C441     1.0000 0.15636  0.66814  0.14551  Biso   1.000  C
  C442     1.0000 0.33455  0.67152  0.15980  Biso   1.000  C
  C443     1.0000 0.33463  0.67152  0.15980  Biso   1.000  C
  N347     1.0000 0.38580  0.74413  0.14042  Biso   1.000  N
  H452     1.0000 0.48122  0.82750  0.15501  Biso   1.000  H
  H453     1.0000 0.44900  0.77494  0.20549  Biso   1.000  H
  H454     1.0000 0.48115  0.82750  0.15501  Biso   1.000  H
  H455     1.0000 0.44901  0.77494  0.20552  Biso   1.000  H
  C444     1.0000 0.80763  0.24837  0.77751  Biso   1.000  C
  N348     1.0000 0.66038  0.10888  0.81580  Biso   1.000  N
  H456     1.0000 0.51868  0.17257  0.84499  Biso   1.000  H
  H457     1.0000 0.55090  0.22513  0.79451  Biso   1.000  H
  N349     1.0000 0.66046  0.10888  0.81580  Biso   1.000  N
  H458     1.0000 0.51876  0.17257  0.84499  Biso   1.000  H
  H459     1.0000 0.55098  0.22513  0.79451  Biso   1.000  H
  O172     1.0000 0.06175  0.67949  0.15341  Biso   1.000  O
  N350     1.0000 0.21378  0.61874  0.10722  Biso   1.000  N
  O173     1.0000 0.06183  0.67949  0.15341  Biso   1.000  O
  H460     1.0000 0.37787  0.63123  0.18782  Biso   1.000  H
  C445     1.0000 0.32634  0.61544  0.11150  Biso   1.000  C
  C446     1.0000 0.32642  0.61544  0.11150  Biso   1.000  C
  C447     1.0000 0.39871  0.74262  0.08862  Biso   1.000  C
  N351     1.0000 0.81994  0.14678  0.78128  Biso   1.000  N
  H461     1.0000 0.75374  0.27488  0.75038  Biso   1.000  H
  H462     1.0000 0.87605  0.26134  0.76630  Biso   1.000  H
  N352     1.0000 0.81994  0.14678  0.78132  Biso   1.000  N
  H463     1.0000 0.75374  0.27487  0.75042  Biso   1.000  H
  C448     1.0000 0.73115  0.10565  0.77268  Biso   1.000  C
  C449     1.0000 0.67003  0.02396  0.83950  Biso   1.000  C
  C450     1.0000 0.73115  0.10565  0.77272  Biso   1.000  C
  C451     1.0000 0.17239  0.55188  0.07780  Biso   1.000  C
  N353     1.0000 0.36362  0.66833  0.06958  Biso   1.000  N
  H464     1.0000 0.37048  0.54933  0.11481  Biso   1.000  H
  N354     1.0000 0.36354  0.66833  0.06962  Biso   1.000  N
  N355     1.0000 0.36362  0.66833  0.06962  Biso   1.000  N
  O174     1.0000 0.43978  0.79553  0.06200  Biso   1.000  O
  C452     1.0000 0.91623  0.08606  0.77260  Biso   1.000  C
  C453     1.0000 0.78333  0.99935  0.76821  Biso   1.000  C
  H465     1.0000 0.69167  0.13183  0.74011  Biso   1.000  H
  H466     1.0000 0.69159  0.13183  0.74011  Biso   1.000  H
  N356     1.0000 0.75021  0.95877  0.81549  Biso   1.000  N
  O175     1.0000 0.61828  0.00636  0.87721  Biso   1.000  O
  O176     1.0000 0.61836  0.00636  0.87721  Biso   1.000  O
  H467     1.0000 0.22166  0.48879  0.08130  Biso   1.000  H
  H468     1.0000 0.10269  0.54758  0.09231  Biso   1.000  H
  N357     1.0000 0.15938  0.57970  0.02281  Biso   1.000  N
  H469     1.0000 0.10267  0.54765  0.09231  Biso   1.000  H
  H470     1.0000 0.22174  0.48879  0.08130  Biso   1.000  H
  N358     1.0000 0.15946  0.57970  0.02281  Biso   1.000  N
  C454     1.0000 0.39397  0.63060  0.01930  Biso   1.000  C
  C455     1.0000 0.39405  0.63060  0.01930  Biso   1.000  C
  N359     1.0000 0.89522  0.99747  0.76758  Biso   1.000  N
  N360     1.0000 0.89522  0.99747  0.76762  Biso   1.000  N
  O177     1.0000 0.00140  0.10386  0.77019  Biso   1.000  O
  O178     1.0000 0.00147  0.10386  0.77019  Biso   1.000  O
  H471     1.0000 0.76013  0.97215  0.73622  Biso   1.000  H
  C456     1.0000 0.75561  0.85949  0.82121  Biso   1.000  C
  C457     1.0000 0.24623  0.56436  0.98548  Biso   1.000  C
  C458     1.0000 0.06311  0.59507  0.99879  Biso   1.000  C
  C459     1.0000 0.24623  0.56436  0.98552  Biso   1.000  C
  N361     1.0000 0.30458  0.63615  0.98459  Biso   1.000  N
  N362     1.0000 0.30458  0.63615  0.98463  Biso   1.000  N
  N363     1.0000 0.30465  0.63615  0.98459  Biso   1.000  N
  N364     1.0000 0.30465  0.63615  0.98463  Biso   1.000  N
  H472     1.0000 0.43298  0.56373  0.02370  Biso   1.000  H
  H473     1.0000 0.44317  0.66529  0.00311  Biso   1.000  H
  H474     1.0000 0.44324  0.66529  0.00311  Biso   1.000  H
  C460     1.0000 0.97695  0.91756  0.75139  Biso   1.000  C
  N365     1.0000 0.86025  0.80584  0.83752  Biso   1.000  N
  H475     1.0000 0.70249  0.84974  0.84729  Biso   1.000  H
  H476     1.0000 0.73711  0.83554  0.78759  Biso   1.000  H
  H477     1.0000 0.70249  0.84973  0.84733  Biso   1.000  H
  H478     1.0000 0.73711  0.83554  0.78763  Biso   1.000  H
  H479     1.0000 0.70257  0.84974  0.84729  Biso   1.000  H
  H480     1.0000 0.70257  0.84973  0.84733  Biso   1.000  H
  H481     1.0000 0.29409  0.49990  0.98961  Biso   1.000  H
  C461     1.0000 0.18973  0.57860  0.93298  Biso   1.000  C
  C462     1.0000 0.18965  0.57860  0.93302  Biso   1.000  C
  C463     1.0000 0.18973  0.57860  0.93302  Biso   1.000  C
  O179     1.0000 0.97649  0.60580  0.02059  Biso   1.000  O
  O180     1.0000 0.97649  0.60580  0.02063  Biso   1.000  O
  N366     1.0000 0.07619  0.60040  0.94692  Biso   1.000  N
  C464     1.0000 0.29741  0.68167  0.93870  Biso   1.000  C
  H482     1.0000 0.95150  0.89096  0.72018  Biso   1.000  H
  H483     1.0000 0.95150  0.89096  0.72022  Biso   1.000  H
  H484     1.0000 0.95158  0.89096  0.72018  Biso   1.000  H
  H485     1.0000 0.95158  0.89096  0.72022  Biso   1.000  H
  N367     1.0000 0.00660  0.84473  0.79012  Biso   1.000  N
  H486     1.0000 0.04087  0.93972  0.74131  Biso   1.000  H
  H487     1.0000 0.04078  0.93979  0.74131  Biso   1.000  H
  N368     1.0000 0.00668  0.84473  0.79012  Biso   1.000  N
  H488     1.0000 0.04085  0.93979  0.74131  Biso   1.000  H
  C465     1.0000 0.94450  0.77554  0.79918  Biso   1.000  C
  C466     1.0000 0.87089  0.74499  0.87932  Biso   1.000  C
  C467     1.0000 0.94450  0.77554  0.79922  Biso   1.000  C
  C468     1.0000 0.94458  0.77554  0.79918  Biso   1.000  C
  C469     1.0000 0.87096  0.74499  0.87932  Biso   1.000  C
  N369     1.0000 0.22360  0.65579  0.90882  Biso   1.000  N
  H489     1.0000 0.20992  0.52055  0.91181  Biso   1.000  H
  C470     1.0000 0.99519  0.59926  0.90901  Biso   1.000  C
  C471     1.0000 0.99526  0.59926  0.90901  Biso   1.000  C
  O181     1.0000 0.34955  0.73973  0.92481  Biso   1.000  O
  O182     1.0000 0.34945  0.73980  0.92481  Biso   1.000  O
  O183     1.0000 0.34953  0.73980  0.92481  Biso   1.000  O
  C472     1.0000 0.10551  0.81707  0.81140  Biso   1.000  C
  H490     1.0000 0.91780  0.75416  0.76630  Biso   1.000  H
  H491     1.0000 0.91788  0.75416  0.76630  Biso   1.000  H
  C473     1.0000 0.02380  0.69507  0.82900  Biso   1.000  C
  O184     1.0000 0.80840  0.74686  0.91508  Biso   1.000  O
  N370     1.0000 0.96820  0.68128  0.87609  Biso   1.000  N
  O185     1.0000 0.80840  0.74686  0.91512  Biso   1.000  O
  N371     1.0000 0.96820  0.68128  0.87612  Biso   1.000  N
  C474     1.0000 0.21751  0.67604  0.85270  Biso   1.000  C
  H492     1.0000 0.93030  0.59195  0.92750  Biso   1.000  H
  H493     1.0000 0.01963  0.54349  0.88710  Biso   1.000  H
  O186     1.0000 0.17420  0.86179  0.80759  Biso   1.000  O
  N372     1.0000 0.11532  0.73209  0.83651  Biso   1.000  N
  H494     1.0000 0.04161  0.63636  0.80829  Biso   1.000  H
  H495     1.0000 0.23279  0.61583  0.83409  Biso   1.000  H
  H496     1.0000 0.27271  0.70988  0.84301  Biso   1.000  H
  H497     1.0000 0.23286  0.61583  0.83409  Biso   1.000  H
  H498     1.0000 0.23284  0.61590  0.83409  Biso   1.000  H
  N373     1.0000 0.88459  0.26798  0.16349  Biso   1.000  N
  C475     1.0000 0.78239  0.32403  0.14730  Biso   1.000  C
  C476     1.0000 0.89440  0.18300  0.18860  Biso   1.000  C
  C477     1.0000 0.97611  0.30501  0.17100  Biso   1.000  C
  H499     1.0000 0.76712  0.38424  0.16591  Biso   1.000  H
  H500     1.0000 0.72719  0.29019  0.15699  Biso   1.000  H
  N374     1.0000 0.77630  0.34428  0.09118  Biso   1.000  N
  N375     1.0000 0.77630  0.34428  0.09122  Biso   1.000  N
  N376     1.0000 0.77628  0.34435  0.09122  Biso   1.000  N
  N377     1.0000 0.88457  0.26805  0.16349  Biso   1.000  N
  O187     1.0000 0.82570  0.13828  0.19241  Biso   1.000  O
  N378     1.0000 0.99330  0.15534  0.20988  Biso   1.000  N
  N379     1.0000 0.99330  0.15534  0.20992  Biso   1.000  N
  O188     1.0000 0.82568  0.13835  0.19241  Biso   1.000  O
  H501     1.0000 0.95829  0.36371  0.19171  Biso   1.000  H
  N380     1.0000 0.03170  0.31879  0.12391  Biso   1.000  N
  C478     1.0000 0.05540  0.22453  0.20082  Biso   1.000  C
  C479     1.0000 0.70250  0.31840  0.06130  Biso   1.000  C
  C480     1.0000 0.81018  0.42147  0.06702  Biso   1.000  C
  C481     1.0000 0.81016  0.42154  0.06702  Biso   1.000  C
  C482     1.0000 0.81023  0.42154  0.06702  Biso   1.000  C
  C483     1.0000 0.02296  0.08251  0.24861  Biso   1.000  C
  C484     1.0000 0.02303  0.08251  0.24861  Biso   1.000  C
  C485     1.0000 0.00472  0.40081  0.09099  Biso   1.000  C
  C486     1.0000 0.12902  0.25508  0.12068  Biso   1.000  C
  C487     1.0000 0.12902  0.25508  0.12072  Biso   1.000  C
  C488     1.0000 0.12900  0.25515  0.12068  Biso   1.000  C
  C489     1.0000 0.12900  0.25515  0.12072  Biso   1.000  C
  N381     1.0000 0.13965  0.19423  0.16248  Biso   1.000  N
  H502     1.0000 0.08210  0.24591  0.23370  Biso   1.000  H
  N382     1.0000 0.13965  0.19423  0.16252  Biso   1.000  N
  N383     1.0000 0.13973  0.19423  0.16248  Biso   1.000  N
  N384     1.0000 0.13973  0.19423  0.16252  Biso   1.000  N
  N385     1.0000 0.69533  0.36392  0.01541  Biso   1.000  N
  O189     1.0000 0.65035  0.26034  0.07519  Biso   1.000  O
  O190     1.0000 0.65035  0.26034  0.07523  Biso   1.000  O
  O191     1.0000 0.65043  0.26034  0.07519  Biso   1.000  O
  O192     1.0000 0.65043  0.26034  0.07523  Biso   1.000  O
  N386     1.0000 0.92372  0.39967  0.05308  Biso   1.000  N
  C490     1.0000 0.75368  0.43571  0.01452  Biso   1.000  C
  H503     1.0000 0.78999  0.47952  0.08819  Biso   1.000  H
  N387     1.0000 0.92372  0.39967  0.05312  Biso   1.000  N
  H504     1.0000 0.78999  0.47952  0.08823  Biso   1.000  H
  N388     1.0000 0.92370  0.39974  0.05308  Biso   1.000  N
  C491     1.0000 0.75376  0.43571  0.01452  Biso   1.000  C
  N389     1.0000 0.92370  0.39974  0.05312  Biso   1.000  N
  H505     1.0000 0.95903  0.06035  0.25869  Biso   1.000  H
  H506     1.0000 0.95903  0.06035  0.25872  Biso   1.000  H
  H507     1.0000 0.95911  0.06035  0.25869  Biso   1.000  H
  H508     1.0000 0.95911  0.06035  0.25872  Biso   1.000  H
  N390     1.0000 0.10468  0.00260  0.23242  Biso   1.000  N
  H509     1.0000 0.04841  0.10911  0.27982  Biso   1.000  H
  H510     1.0000 0.98027  0.45658  0.11290  Biso   1.000  H
  H511     1.0000 0.98035  0.45658  0.11290  Biso   1.000  H
  H512     1.0000 0.98033  0.45665  0.11290  Biso   1.000  H
  H513     1.0000 0.06960  0.40812  0.07250  Biso   1.000  H
  O193     1.0000 0.19150  0.25321  0.08492  Biso   1.000  O
  C492     1.0000 0.24429  0.14058  0.17879  Biso   1.000  C
  C493     1.0000 0.24427  0.14065  0.17883  Biso   1.000  C
  C494     1.0000 0.24427  0.14065  0.17879  Biso   1.000  C
  C495     1.0000 0.60594  0.36947  0.98070  Biso   1.000  C
  C496     1.0000 0.93679  0.40500  0.00121  Biso   1.000  C
  C497     1.0000 0.93687  0.40500  0.00121  Biso   1.000  C
  N391     1.0000 0.84053  0.42038  0.97719  Biso   1.000  N
  H514     1.0000 0.70581  0.50017  0.01039  Biso   1.000  H
  H515     1.0000 0.70579  0.50024  0.01039  Biso   1.000  H
  C498     1.0000 0.08367  0.91401  0.22740  Biso   1.000  C
  C499     1.0000 0.21657  0.00072  0.23179  Biso   1.000  C
  N392     1.0000 0.24970  0.04130  0.18451  Biso   1.000  N
  H516     1.0000 0.29741  0.15033  0.15271  Biso   1.000  H
  H517     1.0000 0.26279  0.16453  0.21241  Biso   1.000  H
  H518     1.0000 0.56693  0.43634  0.97630  Biso   1.000  H
  H519     1.0000 0.55674  0.33478  0.99689  Biso   1.000  H
  N393     1.0000 0.63629  0.33174  0.93042  Biso   1.000  N
  H520     1.0000 0.55674  0.33478  0.99693  Biso   1.000  H
  N394     1.0000 0.63637  0.33174  0.93042  Biso   1.000  N
  O194     1.0000 0.02341  0.39427  0.97941  Biso   1.000  O
  C500     1.0000 0.82752  0.44819  0.92220  Biso   1.000  C
  O195     1.0000 0.99851  0.89621  0.22981  Biso   1.000  O
  N395     1.0000 0.17997  0.85329  0.21872  Biso   1.000  N
  N396     1.0000 0.18005  0.85329  0.21872  Biso   1.000  N
  N397     1.0000 0.17995  0.85336  0.21872  Biso   1.000  N
  C501     1.0000 0.26875  0.89442  0.22732  Biso   1.000  C
  C502     1.0000 0.26883  0.89442  0.22732  Biso   1.000  C
  H521     1.0000 0.23977  0.02792  0.26378  Biso   1.000  H
  H522     1.0000 0.23977  0.02792  0.26382  Biso   1.000  H
  C503     1.0000 0.32988  0.97611  0.16050  Biso   1.000  C
  C504     1.0000 0.67356  0.38463  0.88850  Biso   1.000  C
  C505     1.0000 0.60119  0.25745  0.91138  Biso   1.000  C
  C506     1.0000 0.67354  0.38470  0.88850  Biso   1.000  C
  C507     1.0000 0.60119  0.25745  0.91142  Biso   1.000  C
  C508     1.0000 0.60127  0.25745  0.91138  Biso   1.000  C
  C509     1.0000 0.60127  0.25745  0.91142  Biso   1.000  C
  N398     1.0000 0.78612  0.38133  0.89278  Biso   1.000  N
  H523     1.0000 0.77824  0.51128  0.91870  Biso   1.000  H
  H524     1.0000 0.89721  0.45249  0.90769  Biso   1.000  H
  N399     1.0000 0.78612  0.38133  0.89282  Biso   1.000  N
  H525     1.0000 0.89721  0.45249  0.90773  Biso   1.000  H
  C510     1.0000 0.19227  0.75170  0.22249  Biso   1.000  C
  N400     1.0000 0.33952  0.89119  0.18420  Biso   1.000  N
  H526     1.0000 0.30823  0.86824  0.25989  Biso   1.000  H
  H527     1.0000 0.30831  0.86824  0.25989  Biso   1.000  H
  N401     1.0000 0.33950  0.89126  0.18420  Biso   1.000  N
  O196     1.0000 0.38162  0.99371  0.12279  Biso   1.000  O
  O197     1.0000 0.38162  0.99371  0.12282  Biso   1.000  O
  C511     1.0000 0.66535  0.32855  0.84020  Biso   1.000  C
  H528     1.0000 0.62942  0.45074  0.88519  Biso   1.000  H
  O198     1.0000 0.56012  0.20454  0.93800  Biso   1.000  O
  N402     1.0000 0.61410  0.25594  0.85958  Biso   1.000  N
  N403     1.0000 0.61410  0.25594  0.85962  Biso   1.000  N
  N404     1.0000 0.61418  0.25594  0.85958  Biso   1.000  N
  O199     1.0000 0.56010  0.20461  0.93800  Biso   1.000  O
  N405     1.0000 0.61418  0.25594  0.85962  Biso   1.000  N
  C512     1.0000 0.84354  0.33193  0.85449  Biso   1.000  C
  C513     1.0000 0.84354  0.33193  0.85453  Biso   1.000  C
  N406     1.0000 0.22358  0.70579  0.17529  Biso   1.000  N
  H529     1.0000 0.24616  0.72519  0.24962  Biso   1.000  H
  H530     1.0000 0.12385  0.73873  0.23370  Biso   1.000  H
  N407     1.0000 0.22358  0.70579  0.17532  Biso   1.000  N
  H531     1.0000 0.24624  0.72519  0.24962  Biso   1.000  H
  H532     1.0000 0.12393  0.73873  0.23370  Biso   1.000  H
  C514     1.0000 0.42145  0.80790  0.17248  Biso   1.000  C
  C515     1.0000 0.42145  0.80790  0.17252  Biso   1.000  C
  C516     1.0000 0.42152  0.80790  0.17248  Biso   1.000  C
  C517     1.0000 0.42152  0.80790  0.17252  Biso   1.000  C
  N408     1.0000 0.77632  0.29428  0.82471  Biso   1.000  N
  H533     1.0000 0.62204  0.36884  0.81218  Biso   1.000  H
  H534     1.0000 0.62204  0.36884  0.81222  Biso   1.000  H
  C518     1.0000 0.57846  0.19217  0.82752  Biso   1.000  C
  C519     1.0000 0.57838  0.19217  0.82752  Biso   1.000  C
  O200     1.0000 0.93815  0.32058  0.84659  Biso   1.000  O
  O201     1.0000 0.93808  0.32058  0.84663  Biso   1.000  O
  O202     1.0000 0.93815  0.32058  0.84663  Biso   1.000  O
  C520     1.0000 0.15636  0.66814  0.14551  Biso   1.000  C
  C521     1.0000 0.33455  0.67152  0.15980  Biso   1.000  C
  C522     1.0000 0.33463  0.67152  0.15980  Biso   1.000  C
  N409     1.0000 0.38580  0.74413  0.14042  Biso   1.000  N
  H535     1.0000 0.48122  0.82750  0.15501  Biso   1.000  H
  H536     1.0000 0.44900  0.77494  0.20549  Biso   1.000  H
  H537     1.0000 0.48115  0.82750  0.15501  Biso   1.000  H
  H538     1.0000 0.44901  0.77494  0.20552  Biso   1.000  H
  C523     1.0000 0.80763  0.24837  0.77751  Biso   1.000  C
  N410     1.0000 0.66038  0.10888  0.81580  Biso   1.000  N
  H539     1.0000 0.51868  0.17257  0.84499  Biso   1.000  H
  H540     1.0000 0.55090  0.22513  0.79451  Biso   1.000  H
  N411     1.0000 0.66046  0.10888  0.81580  Biso   1.000  N
  H541     1.0000 0.51876  0.17257  0.84499  Biso   1.000  H
  H542     1.0000 0.55098  0.22513  0.79451  Biso   1.000  H
  O203     1.0000 0.06175  0.67949  0.15341  Biso   1.000  O
  N412     1.0000 0.21378  0.61874  0.10722  Biso   1.000  N
  O204     1.0000 0.06183  0.67949  0.15341  Biso   1.000  O
  H543     1.0000 0.37787  0.63123  0.18782  Biso   1.000  H
  C524     1.0000 0.32634  0.61544  0.11150  Biso   1.000  C
  C525     1.0000 0.32642  0.61544  0.11150  Biso   1.000  C
  C526     1.0000 0.39871  0.74262  0.08862  Biso   1.000  C
  N413     1.0000 0.81994  0.14678  0.78128  Biso   1.000  N
  H544     1.0000 0.75374  0.27488  0.75038  Biso   1.000  H
  H545     1.0000 0.87605  0.26134  0.76630  Biso   1.000  H
  N414     1.0000 0.81994  0.14678  0.78132  Biso   1.000  N
  H546     1.0000 0.75374  0.27487  0.75042  Biso   1.000  H
  C527     1.0000 0.73115  0.10565  0.77268  Biso   1.000  C
  C528     1.0000 0.67003  0.02396  0.83950  Biso   1.000  C
  C529     1.0000 0.73115  0.10565  0.77272  Biso   1.000  C
  C530     1.0000 0.17239  0.55188  0.07780  Biso   1.000  C
  N415     1.0000 0.36362  0.66833  0.06958  Biso   1.000  N
  H547     1.0000 0.37048  0.54933  0.11481  Biso   1.000  H
  N416     1.0000 0.36354  0.66833  0.06962  Biso   1.000  N
  N417     1.0000 0.36362  0.66833  0.06962  Biso   1.000  N
  O205     1.0000 0.43978  0.79553  0.06200  Biso   1.000  O
  C531     1.0000 0.91623  0.08606  0.77260  Biso   1.000  C
  C532     1.0000 0.78333  0.99935  0.76821  Biso   1.000  C
  H548     1.0000 0.69167  0.13183  0.74011  Biso   1.000  H
  H549     1.0000 0.69159  0.13183  0.74011  Biso   1.000  H
  N418     1.0000 0.75021  0.95877  0.81549  Biso   1.000  N
  O206     1.0000 0.61828  0.00636  0.87721  Biso   1.000  O
  O207     1.0000 0.61836  0.00636  0.87721  Biso   1.000  O
  H550     1.0000 0.22166  0.48879  0.08130  Biso   1.000  H
  H551     1.0000 0.10269  0.54758  0.09231  Biso   1.000  H
  N419     1.0000 0.15938  0.57970  0.02281  Biso   1.000  N
  H552     1.0000 0.10267  0.54765  0.09231  Biso   1.000  H
  H553     1.0000 0.22174  0.48879  0.08130  Biso   1.000  H
  N420     1.0000 0.15946  0.57970  0.02281  Biso   1.000  N
  C533     1.0000 0.39397  0.63060  0.01930  Biso   1.000  C
  C534     1.0000 0.39405  0.63060  0.01930  Biso   1.000  C
  N421     1.0000 0.89522  0.99747  0.76758  Biso   1.000  N
  N422     1.0000 0.89522  0.99747  0.76762  Biso   1.000  N
  O208     1.0000 0.00140  0.10386  0.77019  Biso   1.000  O
  O209     1.0000 0.00147  0.10386  0.77019  Biso   1.000  O
  H554     1.0000 0.76013  0.97215  0.73622  Biso   1.000  H
  C535     1.0000 0.75561  0.85949  0.82121  Biso   1.000  C
  C536     1.0000 0.24623  0.56436  0.98548  Biso   1.000  C
  C537     1.0000 0.06311  0.59507  0.99879  Biso   1.000  C
  C538     1.0000 0.24623  0.56436  0.98552  Biso   1.000  C
  N423     1.0000 0.30458  0.63615  0.98459  Biso   1.000  N
  N424     1.0000 0.30458  0.63615  0.98463  Biso   1.000  N
  N425     1.0000 0.30465  0.63615  0.98459  Biso   1.000  N
  N426     1.0000 0.30465  0.63615  0.98463  Biso   1.000  N
  H555     1.0000 0.43298  0.56373  0.02370  Biso   1.000  H
  H556     1.0000 0.44317  0.66529  0.00311  Biso   1.000  H
  H557     1.0000 0.44324  0.66529  0.00311  Biso   1.000  H
  C539     1.0000 0.97695  0.91756  0.75139  Biso   1.000  C
  N427     1.0000 0.86025  0.80584  0.83752  Biso   1.000  N
  H558     1.0000 0.70249  0.84974  0.84729  Biso   1.000  H
  H559     1.0000 0.73711  0.83554  0.78759  Biso   1.000  H
  H560     1.0000 0.70249  0.84973  0.84733  Biso   1.000  H
  H561     1.0000 0.73711  0.83554  0.78763  Biso   1.000  H
  H562     1.0000 0.70257  0.84974  0.84729  Biso   1.000  H
  H563     1.0000 0.70257  0.84973  0.84733  Biso   1.000  H
  H564     1.0000 0.29409  0.49990  0.98961  Biso   1.000  H
  C540     1.0000 0.18973  0.57860  0.93298  Biso   1.000  C
  C541     1.0000 0.18965  0.57860  0.93302  Biso   1.000  C
  C542     1.0000 0.18973  0.57860  0.93302  Biso   1.000  C
  O210     1.0000 0.97649  0.60580  0.02059  Biso   1.000  O
  O211     1.0000 0.97649  0.60580  0.02063  Biso   1.000  O
  N428     1.0000 0.07619  0.60040  0.94692  Biso   1.000  N
  C543     1.0000 0.29741  0.68167  0.93870  Biso   1.000  C
  H565     1.0000 0.95150  0.89096  0.72018  Biso   1.000  H
  H566     1.0000 0.95150  0.89096  0.72022  Biso   1.000  H
  H567     1.0000 0.95158  0.89096  0.72018  Biso   1.000  H
  H568     1.0000 0.95158  0.89096  0.72022  Biso   1.000  H
  N429     1.0000 0.00660  0.84473  0.79012  Biso   1.000  N
  H569     1.0000 0.04087  0.93972  0.74131  Biso   1.000  H
  H570     1.0000 0.04078  0.93979  0.74131  Biso   1.000  H
  N430     1.0000 0.00668  0.84473  0.79012  Biso   1.000  N
  H571     1.0000 0.04085  0.93979  0.74131  Biso   1.000  H
  C544     1.0000 0.94450  0.77554  0.79918  Biso   1.000  C
  C545     1.0000 0.87089  0.74499  0.87932  Biso   1.000  C
  C546     1.0000 0.94450  0.77554  0.79922  Biso   1.000  C
  C547     1.0000 0.94458  0.77554  0.79918  Biso   1.000  C
  C548     1.0000 0.87096  0.74499  0.87932  Biso   1.000  C
  N431     1.0000 0.22360  0.65579  0.90882  Biso   1.000  N
  H572     1.0000 0.20992  0.52055  0.91181  Biso   1.000  H
  C549     1.0000 0.99519  0.59926  0.90901  Biso   1.000  C
  C550     1.0000 0.99526  0.59926  0.90901  Biso   1.000  C
  O212     1.0000 0.34955  0.73973  0.92481  Biso   1.000  O
  O213     1.0000 0.34945  0.73980  0.92481  Biso   1.000  O
  O214     1.0000 0.34953  0.73980  0.92481  Biso   1.000  O
  C551     1.0000 0.10551  0.81707  0.81140  Biso   1.000  C
  H573     1.0000 0.91780  0.75416  0.76630  Biso   1.000  H
  H574     1.0000 0.91788  0.75416  0.76630  Biso   1.000  H
  C552     1.0000 0.02380  0.69507  0.82900  Biso   1.000  C
  O215     1.0000 0.80840  0.74686  0.91508  Biso   1.000  O
  N432     1.0000 0.96820  0.68128  0.87609  Biso   1.000  N
  O216     1.0000 0.80840  0.74686  0.91512  Biso   1.000  O
  N433     1.0000 0.96820  0.68128  0.87612  Biso   1.000  N
  C553     1.0000 0.21751  0.67604  0.85270  Biso   1.000  C
  H575     1.0000 0.93030  0.59195  0.92750  Biso   1.000  H
  H576     1.0000 0.01963  0.54349  0.88710  Biso   1.000  H
  O217     1.0000 0.17420  0.86179  0.80759  Biso   1.000  O
  N434     1.0000 0.11532  0.73209  0.83651  Biso   1.000  N
  H577     1.0000 0.04161  0.63636  0.80829  Biso   1.000  H
  H578     1.0000 0.23279  0.61583  0.83409  Biso   1.000  H
  H579     1.0000 0.27271  0.70988  0.84301  Biso   1.000  H
  H580     1.0000 0.23286  0.61583  0.83409  Biso   1.000  H
  H581     1.0000 0.23284  0.61590  0.83409  Biso   1.000  H
  N435     1.0000 0.88459  0.26798  0.16349  Biso   1.000  N
  C554     1.0000 0.78239  0.32403  0.14730  Biso   1.000  C
  C555     1.0000 0.89440  0.18300  0.18860  Biso   1.000  C
  C556     1.0000 0.97611  0.30501  0.17100  Biso   1.000  C
  H582     1.0000 0.76712  0.38424  0.16591  Biso   1.000  H
  H583     1.0000 0.72719  0.29019  0.15699  Biso   1.000  H
  N436     1.0000 0.77630  0.34428  0.09118  Biso   1.000  N
  N437     1.0000 0.77630  0.34428  0.09122  Biso   1.000  N
  N438     1.0000 0.77628  0.34435  0.09122  Biso   1.000  N
  N439     1.0000 0.88457  0.26805  0.16349  Biso   1.000  N
  O218     1.0000 0.82570  0.13828  0.19241  Biso   1.000  O
  N440     1.0000 0.99330  0.15534  0.20988  Biso   1.000  N
  N441     1.0000 0.99330  0.15534  0.20992  Biso   1.000  N
  O219     1.0000 0.82568  0.13835  0.19241  Biso   1.000  O
  H584     1.0000 0.95829  0.36371  0.19171  Biso   1.000  H
  N442     1.0000 0.03170  0.31879  0.12391  Biso   1.000  N
  C557     1.0000 0.05540  0.22453  0.20082  Biso   1.000  C
  C558     1.0000 0.70250  0.31840  0.06130  Biso   1.000  C
  C559     1.0000 0.81018  0.42147  0.06702  Biso   1.000  C
  C560     1.0000 0.81016  0.42154  0.06702  Biso   1.000  C
  C561     1.0000 0.81023  0.42154  0.06702  Biso   1.000  C
  C562     1.0000 0.02296  0.08251  0.24861  Biso   1.000  C
  C563     1.0000 0.02303  0.08251  0.24861  Biso   1.000  C
  C564     1.0000 0.00472  0.40081  0.09099  Biso   1.000  C
  C565     1.0000 0.12902  0.25508  0.12068  Biso   1.000  C
  C566     1.0000 0.12902  0.25508  0.12072  Biso   1.000  C
  C567     1.0000 0.12900  0.25515  0.12068  Biso   1.000  C
  C568     1.0000 0.12900  0.25515  0.12072  Biso   1.000  C
  N443     1.0000 0.13965  0.19423  0.16248  Biso   1.000  N
  H585     1.0000 0.08210  0.24591  0.23370  Biso   1.000  H
  N444     1.0000 0.13965  0.19423  0.16252  Biso   1.000  N
  N445     1.0000 0.13973  0.19423  0.16248  Biso   1.000  N
  N446     1.0000 0.13973  0.19423  0.16252  Biso   1.000  N
  N447     1.0000 0.69533  0.36392  0.01541  Biso   1.000  N
  O220     1.0000 0.65035  0.26034  0.07519  Biso   1.000  O
  O221     1.0000 0.65035  0.26034  0.07523  Biso   1.000  O
  O222     1.0000 0.65043  0.26034  0.07519  Biso   1.000  O
  O223     1.0000 0.65043  0.26034  0.07523  Biso   1.000  O
  N448     1.0000 0.92372  0.39967  0.05308  Biso   1.000  N
  C569     1.0000 0.75368  0.43571  0.01452  Biso   1.000  C
  H586     1.0000 0.78999  0.47952  0.08819  Biso   1.000  H
  N449     1.0000 0.92372  0.39967  0.05312  Biso   1.000  N
  H587     1.0000 0.78999  0.47952  0.08823  Biso   1.000  H
  N450     1.0000 0.92370  0.39974  0.05308  Biso   1.000  N
  C570     1.0000 0.75376  0.43571  0.01452  Biso   1.000  C
  N451     1.0000 0.92370  0.39974  0.05312  Biso   1.000  N
  H588     1.0000 0.95903  0.06035  0.25869  Biso   1.000  H
  H589     1.0000 0.95903  0.06035  0.25872  Biso   1.000  H
  H590     1.0000 0.95911  0.06035  0.25869  Biso   1.000  H
  H591     1.0000 0.95911  0.06035  0.25872  Biso   1.000  H
  N452     1.0000 0.10468  0.00260  0.23242  Biso   1.000  N
  H592     1.0000 0.04841  0.10911  0.27982  Biso   1.000  H
  H593     1.0000 0.98027  0.45658  0.11290  Biso   1.000  H
  H594     1.0000 0.98035  0.45658  0.11290  Biso   1.000  H
  H595     1.0000 0.98033  0.45665  0.11290  Biso   1.000  H
  H596     1.0000 0.06960  0.40812  0.07250  Biso   1.000  H
  O224     1.0000 0.19150  0.25321  0.08492  Biso   1.000  O
  C571     1.0000 0.24429  0.14058  0.17879  Biso   1.000  C
  C572     1.0000 0.24427  0.14065  0.17883  Biso   1.000  C
  C573     1.0000 0.24427  0.14065  0.17879  Biso   1.000  C
  C574     1.0000 0.60594  0.36947  0.98070  Biso   1.000  C
  C575     1.0000 0.93679  0.40500  0.00121  Biso   1.000  C
  C576     1.0000 0.93687  0.40500  0.00121  Biso   1.000  C
  N453     1.0000 0.84053  0.42038  0.97719  Biso   1.000  N
  H597     1.0000 0.70581  0.50017  0.01039  Biso   1.000  H
  H598     1.0000 0.70579  0.50024  0.01039  Biso   1.000  H
  C577     1.0000 0.08367  0.91401  0.22740  Biso   1.000  C
  C578     1.0000 0.21657  0.00072  0.23179  Biso   1.000  C
  N454     1.0000 0.24970  0.04130  0.18451  Biso   1.000  N
  H599     1.0000 0.29741  0.15033  0.15271  Biso   1.000  H
  H600     1.0000 0.26279  0.16453  0.21241  Biso   1.000  H
  H601     1.0000 0.56693  0.43634  0.97630  Biso   1.000  H
  H602     1.0000 0.55674  0.33478  0.99689  Biso   1.000  H
  N455     1.0000 0.63629  0.33174  0.93042  Biso   1.000  N
  H603     1.0000 0.55674  0.33478  0.99693  Biso   1.000  H
  N456     1.0000 0.63637  0.33174  0.93042  Biso   1.000  N
  O225     1.0000 0.02341  0.39427  0.97941  Biso   1.000  O
  C579     1.0000 0.82752  0.44819  0.92220  Biso   1.000  C
  O226     1.0000 0.99851  0.89621  0.22981  Biso   1.000  O
  N457     1.0000 0.17997  0.85329  0.21872  Biso   1.000  N
  N458     1.0000 0.18005  0.85329  0.21872  Biso   1.000  N
  N459     1.0000 0.17995  0.85336  0.21872  Biso   1.000  N
  C580     1.0000 0.26875  0.89442  0.22732  Biso   1.000  C
  C581     1.0000 0.26883  0.89442  0.22732  Biso   1.000  C
  H604     1.0000 0.23977  0.02792  0.26378  Biso   1.000  H
  H605     1.0000 0.23977  0.02792  0.26382  Biso   1.000  H
  C582     1.0000 0.32988  0.97611  0.16050  Biso   1.000  C
  C583     1.0000 0.67356  0.38463  0.88850  Biso   1.000  C
  C584     1.0000 0.60119  0.25745  0.91138  Biso   1.000  C
  C585     1.0000 0.67354  0.38470  0.88850  Biso   1.000  C
  C586     1.0000 0.60119  0.25745  0.91142  Biso   1.000  C
  C587     1.0000 0.60127  0.25745  0.91138  Biso   1.000  C
  C588     1.0000 0.60127  0.25745  0.91142  Biso   1.000  C
  N460     1.0000 0.78612  0.38133  0.89278  Biso   1.000  N
  H606     1.0000 0.77824  0.51128  0.91870  Biso   1.000  H
  H607     1.0000 0.89721  0.45249  0.90769  Biso   1.000  H
  N461     1.0000 0.78612  0.38133  0.89282  Biso   1.000  N
  H608     1.0000 0.89721  0.45249  0.90773  Biso   1.000  H
  C589     1.0000 0.19227  0.75170  0.22249  Biso   1.000  C
  N462     1.0000 0.33952  0.89119  0.18420  Biso   1.000  N
  H609     1.0000 0.30823  0.86824  0.25989  Biso   1.000  H
  H610     1.0000 0.30831  0.86824  0.25989  Biso   1.000  H
  N463     1.0000 0.33950  0.89126  0.18420  Biso   1.000  N
  O227     1.0000 0.38162  0.99371  0.12279  Biso   1.000  O
  O228     1.0000 0.38162  0.99371  0.12282  Biso   1.000  O
  C590     1.0000 0.66535  0.32855  0.84020  Biso   1.000  C
  H611     1.0000 0.62942  0.45074  0.88519  Biso   1.000  H
  O229     1.0000 0.56012  0.20454  0.93800  Biso   1.000  O
  N464     1.0000 0.61410  0.25594  0.85958  Biso   1.000  N
  N465     1.0000 0.61410  0.25594  0.85962  Biso   1.000  N
  N466     1.0000 0.61418  0.25594  0.85958  Biso   1.000  N
  O230     1.0000 0.56010  0.20461  0.93800  Biso   1.000  O
  N467     1.0000 0.61418  0.25594  0.85962  Biso   1.000  N
  C591     1.0000 0.84354  0.33193  0.85449  Biso   1.000  C
  C592     1.0000 0.84354  0.33193  0.85453  Biso   1.000  C
  N468     1.0000 0.22358  0.70579  0.17529  Biso   1.000  N
  H612     1.0000 0.24616  0.72519  0.24962  Biso   1.000  H
  H613     1.0000 0.12385  0.73873  0.23370  Biso   1.000  H
  N469     1.0000 0.22358  0.70579  0.17532  Biso   1.000  N
  H614     1.0000 0.24624  0.72519  0.24962  Biso   1.000  H
  H615     1.0000 0.12393  0.73873  0.23370  Biso   1.000  H
  C593     1.0000 0.42145  0.80790  0.17248  Biso   1.000  C
  C594     1.0000 0.42145  0.80790  0.17252  Biso   1.000  C
  C595     1.0000 0.42152  0.80790  0.17248  Biso   1.000  C
  C596     1.0000 0.42152  0.80790  0.17252  Biso   1.000  C
  N470     1.0000 0.77632  0.29428  0.82471  Biso   1.000  N
  H616     1.0000 0.62204  0.36884  0.81218  Biso   1.000  H
  H617     1.0000 0.62204  0.36884  0.81222  Biso   1.000  H
  C597     1.0000 0.57846  0.19217  0.82752  Biso   1.000  C
  C598     1.0000 0.57838  0.19217  0.82752  Biso   1.000  C
  O231     1.0000 0.93815  0.32058  0.84659  Biso   1.000  O
  O232     1.0000 0.93808  0.32058  0.84663  Biso   1.000  O
  O233     1.0000 0.93815  0.32058  0.84663  Biso   1.000  O
  C599     1.0000 0.15636  0.66814  0.14551  Biso   1.000  C
  C600     1.0000 0.33455  0.67152  0.15980  Biso   1.000  C
  C601     1.0000 0.33463  0.67152  0.15980  Biso   1.000  C
  N471     1.0000 0.38580  0.74413  0.14042  Biso   1.000  N
  H618     1.0000 0.48122  0.82750  0.15501  Biso   1.000  H
  H619     1.0000 0.44900  0.77494  0.20549  Biso   1.000  H
  H620     1.0000 0.48115  0.82750  0.15501  Biso   1.000  H
  H621     1.0000 0.44901  0.77494  0.20552  Biso   1.000  H
  C602     1.0000 0.80763  0.24837  0.77751  Biso   1.000  C
  N472     1.0000 0.66038  0.10888  0.81580  Biso   1.000  N
  H622     1.0000 0.51868  0.17257  0.84499  Biso   1.000  H
  H623     1.0000 0.55090  0.22513  0.79451  Biso   1.000  H
  N473     1.0000 0.66046  0.10888  0.81580  Biso   1.000  N
  H624     1.0000 0.51876  0.17257  0.84499  Biso   1.000  H
  H625     1.0000 0.55098  0.22513  0.79451  Biso   1.000  H
  O234     1.0000 0.06175  0.67949  0.15341  Biso   1.000  O
  N474     1.0000 0.21378  0.61874  0.10722  Biso   1.000  N
  O235     1.0000 0.06183  0.67949  0.15341  Biso   1.000  O
  H626     1.0000 0.37787  0.63123  0.18782  Biso   1.000  H
  C603     1.0000 0.32634  0.61544  0.11150  Biso   1.000  C
  C604     1.0000 0.32642  0.61544  0.11150  Biso   1.000  C
  C605     1.0000 0.39871  0.74262  0.08862  Biso   1.000  C
  N475     1.0000 0.81994  0.14678  0.78128  Biso   1.000  N
  H627     1.0000 0.75374  0.27488  0.75038  Biso   1.000  H
  H628     1.0000 0.87605  0.26134  0.76630  Biso   1.000  H
  N476     1.0000 0.81994  0.14678  0.78132  Biso   1.000  N
  H629     1.0000 0.75374  0.27487  0.75042  Biso   1.000  H
  C606     1.0000 0.73115  0.10565  0.77268  Biso   1.000  C
  C607     1.0000 0.67003  0.02396  0.83950  Biso   1.000  C
  C608     1.0000 0.73115  0.10565  0.77272  Biso   1.000  C
  C609     1.0000 0.17239  0.55188  0.07780  Biso   1.000  C
  N477     1.0000 0.36362  0.66833  0.06958  Biso   1.000  N
  H630     1.0000 0.37048  0.54933  0.11481  Biso   1.000  H
  N478     1.0000 0.36354  0.66833  0.06962  Biso   1.000  N
  N479     1.0000 0.36362  0.66833  0.06962  Biso   1.000  N
  O236     1.0000 0.43978  0.79553  0.06200  Biso   1.000  O
  C610     1.0000 0.91623  0.08606  0.77260  Biso   1.000  C
  C611     1.0000 0.78333  0.99935  0.76821  Biso   1.000  C
  H631     1.0000 0.69167  0.13183  0.74011  Biso   1.000  H
  H632     1.0000 0.69159  0.13183  0.74011  Biso   1.000  H
  N480     1.0000 0.75021  0.95877  0.81549  Biso   1.000  N
  O237     1.0000 0.61828  0.00636  0.87721  Biso   1.000  O
  O238     1.0000 0.61836  0.00636  0.87721  Biso   1.000  O
  H633     1.0000 0.22166  0.48879  0.08130  Biso   1.000  H
  H634     1.0000 0.10269  0.54758  0.09231  Biso   1.000  H
  N481     1.0000 0.15938  0.57970  0.02281  Biso   1.000  N
  H635     1.0000 0.10267  0.54765  0.09231  Biso   1.000  H
  H636     1.0000 0.22174  0.48879  0.08130  Biso   1.000  H
  N482     1.0000 0.15946  0.57970  0.02281  Biso   1.000  N
  C612     1.0000 0.39397  0.63060  0.01930  Biso   1.000  C
  C613     1.0000 0.39405  0.63060  0.01930  Biso   1.000  C
  N483     1.0000 0.89522  0.99747  0.76758  Biso   1.000  N
  N484     1.0000 0.89522  0.99747  0.76762  Biso   1.000  N
  O239     1.0000 0.00140  0.10386  0.77019  Biso   1.000  O
  O240     1.0000 0.00147  0.10386  0.77019  Biso   1.000  O
  H637     1.0000 0.76013  0.97215  0.73622  Biso   1.000  H
  C614     1.0000 0.75561  0.85949  0.82121  Biso   1.000  C
  C615     1.0000 0.24623  0.56436  0.98548  Biso   1.000  C
  C616     1.0000 0.06311  0.59507  0.99879  Biso   1.000  C
  C617     1.0000 0.24623  0.56436  0.98552  Biso   1.000  C
  N485     1.0000 0.30458  0.63615  0.98459  Biso   1.000  N
  N486     1.0000 0.30458  0.63615  0.98463  Biso   1.000  N
  N487     1.0000 0.30465  0.63615  0.98459  Biso   1.000  N
  N488     1.0000 0.30465  0.63615  0.98463  Biso   1.000  N
  H638     1.0000 0.43298  0.56373  0.02370  Biso   1.000  H
  H639     1.0000 0.44317  0.66529  0.00311  Biso   1.000  H
  H640     1.0000 0.44324  0.66529  0.00311  Biso   1.000  H
  C618     1.0000 0.97695  0.91756  0.75139  Biso   1.000  C
  N489     1.0000 0.86025  0.80584  0.83752  Biso   1.000  N
  H641     1.0000 0.70249  0.84974  0.84729  Biso   1.000  H
  H642     1.0000 0.73711  0.83554  0.78759  Biso   1.000  H
  H643     1.0000 0.70249  0.84973  0.84733  Biso   1.000  H
  H644     1.0000 0.73711  0.83554  0.78763  Biso   1.000  H
  H645     1.0000 0.70257  0.84974  0.84729  Biso   1.000  H
  H646     1.0000 0.70257  0.84973  0.84733  Biso   1.000  H
  H647     1.0000 0.29409  0.49990  0.98961  Biso   1.000  H
  C619     1.0000 0.18973  0.57860  0.93298  Biso   1.000  C
  C620     1.0000 0.18965  0.57860  0.93302  Biso   1.000  C
  C621     1.0000 0.18973  0.57860  0.93302  Biso   1.000  C
  O241     1.0000 0.97649  0.60580  0.02059  Biso   1.000  O
  O242     1.0000 0.97649  0.60580  0.02063  Biso   1.000  O
  N490     1.0000 0.07619  0.60040  0.94692  Biso   1.000  N
  C622     1.0000 0.29741  0.68167  0.93870  Biso   1.000  C
  H648     1.0000 0.95150  0.89096  0.72018  Biso   1.000  H
  H649     1.0000 0.95150  0.89096  0.72022  Biso   1.000  H
  H650     1.0000 0.95158  0.89096  0.72018  Biso   1.000  H
  H651     1.0000 0.95158  0.89096  0.72022  Biso   1.000  H
  N491     1.0000 0.00660  0.84473  0.79012  Biso   1.000  N
  H652     1.0000 0.04087  0.93972  0.74131  Biso   1.000  H
  H653     1.0000 0.04078  0.93979  0.74131  Biso   1.000  H
  N492     1.0000 0.00668  0.84473  0.79012  Biso   1.000  N
  H654     1.0000 0.04085  0.93979  0.74131  Biso   1.000  H
  C623     1.0000 0.94450  0.77554  0.79918  Biso   1.000  C
  C624     1.0000 0.87089  0.74499  0.87932  Biso   1.000  C
  C625     1.0000 0.94450  0.77554  0.79922  Biso   1.000  C
  C626     1.0000 0.94458  0.77554  0.79918  Biso   1.000  C
  C627     1.0000 0.87096  0.74499  0.87932  Biso   1.000  C
  N493     1.0000 0.22360  0.65579  0.90882  Biso   1.000  N
  H655     1.0000 0.20992  0.52055  0.91181  Biso   1.000  H
  C628     1.0000 0.99519  0.59926  0.90901  Biso   1.000  C
  C629     1.0000 0.99526  0.59926  0.90901  Biso   1.000  C
  O243     1.0000 0.34955  0.73973  0.92481  Biso   1.000  O
  O244     1.0000 0.34945  0.73980  0.92481  Biso   1.000  O
  O245     1.0000 0.34953  0.73980  0.92481  Biso   1.000  O
  C630     1.0000 0.10551  0.81707  0.81140  Biso   1.000  C
  H656     1.0000 0.91780  0.75416  0.76630  Biso   1.000  H
  H657     1.0000 0.91788  0.75416  0.76630  Biso   1.000  H
  C631     1.0000 0.02380  0.69507  0.82900  Biso   1.000  C
  O246     1.0000 0.80840  0.74686  0.91508  Biso   1.000  O
  N494     1.0000 0.96820  0.68128  0.87609  Biso   1.000  N
  O247     1.0000 0.80840  0.74686  0.91512  Biso   1.000  O
  N495     1.0000 0.96820  0.68128  0.87612  Biso   1.000  N
  C632     1.0000 0.21751  0.67604  0.85270  Biso   1.000  C
  H658     1.0000 0.93030  0.59195  0.92750  Biso   1.000  H
  H659     1.0000 0.01963  0.54349  0.88710  Biso   1.000  H
  O248     1.0000 0.17420  0.86179  0.80759  Biso   1.000  O
  N496     1.0000 0.11532  0.73209  0.83651  Biso   1.000  N
  H660     1.0000 0.04161  0.63636  0.80829  Biso   1.000  H
  H661     1.0000 0.23279  0.61583  0.83409  Biso   1.000  H
  H662     1.0000 0.27271  0.70988  0.84301  Biso   1.000  H
  H663     1.0000 0.23286  0.61583  0.83409  Biso   1.000  H
  H664     1.0000 0.23284  0.61590  0.83409  Biso   1.000  H
  C633     1.0000 0.68698  0.74652  0.28659  Biso   1.000  C
  N497     1.0000 0.71712  0.70005  0.33640  Biso   1.000  N
  N498     1.0000 0.71719  0.70005  0.33640  Biso   1.000  N
  N499     1.0000 0.67924  0.84663  0.28601  Biso   1.000  N
  H665     1.0000 0.73984  0.71724  0.26028  Biso   1.000  H
  H666     1.0000 0.61730  0.73571  0.27620  Biso   1.000  H
  N500     1.0000 0.67932  0.84663  0.28601  Biso   1.000  N
  H667     1.0000 0.73992  0.71724  0.26028  Biso   1.000  H
  C634     1.0000 0.64663  0.67124  0.36789  Biso   1.000  C
  C635     1.0000 0.64671  0.67124  0.36789  Biso   1.000  C
  C636     1.0000 0.82553  0.66641  0.35431  Biso   1.000  C
  C637     1.0000 0.82561  0.66641  0.35431  Biso   1.000  C
  C638     1.0000 0.58631  0.91038  0.27410  Biso   1.000  C
  C639     1.0000 0.77074  0.88604  0.27468  Biso   1.000  C
  C640     1.0000 0.58629  0.91045  0.27410  Biso   1.000  C
  C641     1.0000 0.77081  0.88604  0.27468  Biso   1.000  C
  O249     1.0000 0.54995  0.68419  0.36042  Biso   1.000  O
  N501     1.0000 0.70066  0.62341  0.41019  Biso   1.000  N
  O250     1.0000 0.55001  0.68426  0.36042  Biso   1.000  O
  C642     1.0000 0.81287  0.61355  0.40688  Biso   1.000  C
  N502     1.0000 0.87894  0.73935  0.37042  Biso   1.000  N
  H668     1.0000 0.86945  0.62300  0.32882  Biso   1.000  H
  O251     1.0000 0.49780  0.89330  0.27309  Biso   1.000  O
  N503     1.0000 0.60870  0.99580  0.26460  Biso   1.000  N
  N504     1.0000 0.84128  0.88289  0.31881  Biso   1.000  N
  C643     1.0000 0.72014  0.99014  0.26519  Biso   1.000  C
  H669     1.0000 0.81051  0.85691  0.24339  Biso   1.000  H
  N505     1.0000 0.84126  0.88296  0.31881  Biso   1.000  N
  C644     1.0000 0.72022  0.99014  0.26519  Biso   1.000  C
  C645     1.0000 0.65493  0.56193  0.44401  Biso   1.000  C
  C646     1.0000 0.65500  0.56193  0.44401  Biso   1.000  C
  N506     1.0000 0.85403  0.66883  0.44452  Biso   1.000  N
  H670     1.0000 0.85338  0.54601  0.40720  Biso   1.000  H
  N507     1.0000 0.85411  0.66883  0.44452  Biso   1.000  N
  C647     1.0000 0.89374  0.73842  0.42160  Biso   1.000  C
  C648     1.0000 0.91867  0.80079  0.33438  Biso   1.000  C
  C649     1.0000 0.52984  0.07454  0.24378  Biso   1.000  C
  C650     1.0000 0.52992  0.07454  0.24378  Biso   1.000  C
  C651     1.0000 0.83257  0.96881  0.33940  Biso   1.000  C
  N508     1.0000 0.75565  0.03275  0.31041  Biso   1.000  N
  H671     1.0000 0.74487  0.01438  0.23179  Biso   1.000  H
  N509     1.0000 0.64215  0.58921  0.49640  Biso   1.000  N
  H672     1.0000 0.58458  0.55960  0.42988  Biso   1.000  H
  H673     1.0000 0.70115  0.49734  0.44312  Biso   1.000  H
  H674     1.0000 0.58456  0.55967  0.42988  Biso   1.000  H
  C652     1.0000 0.88291  0.63356  0.49608  Biso   1.000  C
  C653     1.0000 0.88299  0.63356  0.49608  Biso   1.000  C
  O252     1.0000 0.93728  0.79143  0.44530  Biso   1.000  O
  H675     1.0000 0.97897  0.81993  0.35100  Biso   1.000  H
  H676     1.0000 0.94617  0.76503  0.30309  Biso   1.000  H
  N510     1.0000 0.50034  0.15222  0.27842  Biso   1.000  N
  H677     1.0000 0.46534  0.05280  0.23499  Biso   1.000  H
  H678     1.0000 0.55730  0.09698  0.21121  Biso   1.000  H
  N511     1.0000 0.50042  0.15222  0.27842  Biso   1.000  N
  H679     1.0000 0.46542  0.05280  0.23499  Biso   1.000  H
  O253     1.0000 0.88382  0.98765  0.37540  Biso   1.000  O
  O254     1.0000 0.88390  0.98765  0.37540  Biso   1.000  O
  C654     1.0000 0.74955  0.13333  0.31189  Biso   1.000  C
  C655     1.0000 0.73221  0.56804  0.53189  Biso   1.000  C
  C656     1.0000 0.54718  0.59934  0.52239  Biso   1.000  C
  C657     1.0000 0.73229  0.56804  0.53189  Biso   1.000  C
  N512     1.0000 0.79171  0.64072  0.53010  Biso   1.000  N
  N513     1.0000 0.79179  0.64072  0.53010  Biso   1.000  N
  H680     1.0000 0.93132  0.66926  0.51111  Biso   1.000  H
  H681     1.0000 0.92210  0.56667  0.49461  Biso   1.000  H
  H682     1.0000 0.93139  0.66926  0.51111  Biso   1.000  H
  H683     1.0000 0.92218  0.56667  0.49461  Biso   1.000  H
  C658     1.0000 0.40140  0.17938  0.29862  Biso   1.000  C
  C659     1.0000 0.56226  0.21838  0.28690  Biso   1.000  C
  C660     1.0000 0.40139  0.17945  0.29862  Biso   1.000  C
  C661     1.0000 0.56232  0.21845  0.28690  Biso   1.000  C
  N514     1.0000 0.64648  0.18904  0.32551  Biso   1.000  N
  H684     1.0000 0.80228  0.14404  0.33749  Biso   1.000  H
  H685     1.0000 0.76934  0.15502  0.27741  Biso   1.000  H
  H686     1.0000 0.76942  0.15502  0.27741  Biso   1.000  H
  H687     1.0000 0.77886  0.50364  0.52679  Biso   1.000  H
  C662     1.0000 0.68043  0.57803  0.58641  Biso   1.000  C
  O255     1.0000 0.46045  0.61140  0.50142  Biso   1.000  O
  N515     1.0000 0.56675  0.59591  0.57431  Biso   1.000  N
  N516     1.0000 0.56673  0.59598  0.57431  Biso   1.000  N
  C663     1.0000 0.78402  0.68733  0.57571  Biso   1.000  C
  C664     1.0000 0.78410  0.68733  0.57571  Biso   1.000  C
  O256     1.0000 0.33095  0.13494  0.29791  Biso   1.000  O
  N517     1.0000 0.39169  0.26471  0.32130  Biso   1.000  N
  C665     1.0000 0.48670  0.30078  0.31220  Biso   1.000  C
  H688     1.0000 0.59081  0.23854  0.25339  Biso   1.000  H
  C666     1.0000 0.48668  0.30085  0.31220  Biso   1.000  C
  C667     1.0000 0.63305  0.25153  0.36439  Biso   1.000  C
  N518     1.0000 0.71254  0.66021  0.60719  Biso   1.000  N
  H689     1.0000 0.70561  0.52002  0.60879  Biso   1.000  H
  N519     1.0000 0.71252  0.66028  0.60719  Biso   1.000  N
  H690     1.0000 0.70569  0.52002  0.60879  Biso   1.000  H
  C668     1.0000 0.48780  0.59913  0.61291  Biso   1.000  C
  C669     1.0000 0.48788  0.59913  0.61291  Biso   1.000  C
  O257     1.0000 0.83214  0.74791  0.58598  Biso   1.000  O
  C670     1.0000 0.29138  0.32154  0.33831  Biso   1.000  C
  N520     1.0000 0.53859  0.31570  0.35890  Biso   1.000  N
  H691     1.0000 0.47104  0.35820  0.28889  Biso   1.000  H
  H692     1.0000 0.47112  0.35820  0.28889  Biso   1.000  H
  O258     1.0000 0.69855  0.24972  0.40031  Biso   1.000  O
  O259     1.0000 0.69863  0.24972  0.40031  Biso   1.000  O
  C671     1.0000 0.70852  0.67851  0.66172  Biso   1.000  C
  C672     1.0000 0.70858  0.67858  0.66172  Biso   1.000  C
  N521     1.0000 0.46132  0.68436  0.64109  Biso   1.000  N
  H693     1.0000 0.42250  0.58994  0.59610  Biso   1.000  H
  H694     1.0000 0.51292  0.54586  0.63802  Biso   1.000  H
  H695     1.0000 0.42257  0.58994  0.59610  Biso   1.000  H
  N522     1.0000 0.28737  0.33985  0.39280  Biso   1.000  N
  H696     1.0000 0.27625  0.38239  0.31870  Biso   1.000  H
  H697     1.0000 0.23454  0.28922  0.32979  Biso   1.000  H
  H698     1.0000 0.27633  0.38239  0.31870  Biso   1.000  H
  H699     1.0000 0.23462  0.28922  0.32979  Biso   1.000  H
  C673     1.0000 0.51211  0.40093  0.38711  Biso   1.000  C
  N523     1.0000 0.60822  0.73535  0.67869  Biso   1.000  N
  H700     1.0000 0.72366  0.61767  0.68129  Biso   1.000  H
  H701     1.0000 0.76537  0.71084  0.67020  Biso   1.000  H
  C674     1.0000 0.51321  0.69928  0.68779  Biso   1.000  C
  C675     1.0000 0.36685  0.74853  0.63560  Biso   1.000  C
  C676     1.0000 0.51328  0.69928  0.68779  Biso   1.000  C
  C677     1.0000 0.21589  0.31273  0.42428  Biso   1.000  C
  C678     1.0000 0.31948  0.42202  0.41362  Biso   1.000  C
  N524     1.0000 0.43316  0.40415  0.42568  Biso   1.000  N
  H702     1.0000 0.57733  0.41012  0.40389  Biso   1.000  H
  H703     1.0000 0.48699  0.45420  0.36201  Biso   1.000  H
  H704     1.0000 0.57741  0.41012  0.40389  Biso   1.000  H
  C679     1.0000 0.59850  0.82068  0.70141  Biso   1.000  C
  C680     1.0000 0.59858  0.82068  0.70141  Biso   1.000  C
  H705     1.0000 0.52879  0.64186  0.71110  Biso   1.000  H
  C681     1.0000 0.43764  0.78168  0.71309  Biso   1.000  C
  H706     1.0000 0.52886  0.64186  0.71110  Biso   1.000  H
  O260     1.0000 0.30136  0.75034  0.59968  Biso   1.000  O
  N525     1.0000 0.35343  0.81102  0.67448  Biso   1.000  N
  O261     1.0000 0.16777  0.25215  0.41401  Biso   1.000  O
  N526     1.0000 0.20820  0.35934  0.46989  Biso   1.000  N
  H707     1.0000 0.29430  0.48004  0.39120  Biso   1.000  H
  C682     1.0000 0.26770  0.43201  0.46810  Biso   1.000  C
  C683     1.0000 0.45273  0.40072  0.47760  Biso   1.000  C
  C684     1.0000 0.45281  0.40072  0.47760  Biso   1.000  C
  O262     1.0000 0.66896  0.86512  0.70211  Biso   1.000  O
  N527     1.0000 0.49956  0.84783  0.72161  Biso   1.000  N
  H708     1.0000 0.40908  0.76158  0.74660  Biso   1.000  H
  H709     1.0000 0.40916  0.76158  0.74660  Biso   1.000  H
  C685     1.0000 0.25035  0.86673  0.68810  Biso   1.000  C
  C686     1.0000 0.11700  0.36650  0.50391  Biso   1.000  C
  N528     1.0000 0.35776  0.41085  0.50360  Biso   1.000  N
  H710     1.0000 0.22105  0.49642  0.47320  Biso   1.000  H
  H711     1.0000 0.22113  0.49642  0.47320  Biso   1.000  H
  O263     1.0000 0.53946  0.38865  0.49861  Biso   1.000  O
  C687     1.0000 0.47007  0.92552  0.75621  Biso   1.000  C
  C688     1.0000 0.47005  0.92559  0.75621  Biso   1.000  C
  N529     1.0000 0.24423  0.96738  0.68958  Biso   1.000  N
  H712     1.0000 0.19763  0.85602  0.66250  Biso   1.000  H
  H713     1.0000 0.23057  0.84504  0.72258  Biso   1.000  H
  H714     1.0000 0.06859  0.33080  0.48888  Biso   1.000  H
  H715     1.0000 0.07779  0.43346  0.50539  Biso   1.000  H
  N530     1.0000 0.14588  0.33123  0.55551  Biso   1.000  N
  H716     1.0000 0.06857  0.33087  0.48888  Biso   1.000  H
  C689     1.0000 0.34498  0.43813  0.55602  Biso   1.000  C
  H717     1.0000 0.53449  0.94726  0.76501  Biso   1.000  H
  H718     1.0000 0.44261  0.90307  0.78878  Biso   1.000  H
  H719     1.0000 0.53457  0.94726  0.76501  Biso   1.000  H
  N531     1.0000 0.39121  0.00426  0.73539  Biso   1.000  N
  N532     1.0000 0.39129  0.00426  0.73539  Biso   1.000  N
  C690     1.0000 0.27977  0.00992  0.73481  Biso   1.000  C
  C691     1.0000 0.16734  0.03125  0.66059  Biso   1.000  C
  C692     1.0000 0.10617  0.26163  0.57839  Biso   1.000  C
  C693     1.0000 0.18704  0.38651  0.59311  Biso   1.000  C
  C694     1.0000 0.18712  0.38651  0.59311  Biso   1.000  C
  N533     1.0000 0.29925  0.37665  0.58980  Biso   1.000  N
  H720     1.0000 0.41532  0.44046  0.57011  Biso   1.000  H
  H721     1.0000 0.29876  0.50272  0.55691  Biso   1.000  H
  H722     1.0000 0.41540  0.44046  0.57011  Biso   1.000  H
  C695     1.0000 0.41360  0.08968  0.72589  Biso   1.000  C
  C696     1.0000 0.41368  0.08968  0.72589  Biso   1.000  C
  H723     1.0000 0.25504  0.98567  0.76820  Biso   1.000  H
  C697     1.0000 0.22917  0.11402  0.72531  Biso   1.000  C
  O264     1.0000 0.11608  0.01241  0.62459  Biso   1.000  O
  N534     1.0000 0.15863  0.11717  0.68122  Biso   1.000  N
  O265     1.0000 0.11607  0.01248  0.62459  Biso   1.000  O
  N535     1.0000 0.12095  0.26077  0.62961  Biso   1.000  N
  O266     1.0000 0.06263  0.20863  0.55469  Biso   1.000  O
  O267     1.0000 0.06271  0.20863  0.55469  Biso   1.000  O
  C698     1.0000 0.17437  0.33364  0.64568  Biso   1.000  C
  H724     1.0000 0.14652  0.45405  0.59279  Biso   1.000  H
  H725     1.0000 0.14660  0.45405  0.59279  Biso   1.000  H
  C699     1.0000 0.35327  0.32882  0.63210  Biso   1.000  C
  O268     1.0000 0.50211  0.10676  0.72690  Biso   1.000  O
  N536     1.0000 0.32067  0.15343  0.71398  Biso   1.000  N
  O269     1.0000 0.50219  0.10676  0.72690  Biso   1.000  O
  H726     1.0000 0.18940  0.14315  0.75660  Biso   1.000  H
  H727     1.0000 0.18948  0.14315  0.75660  Biso   1.000  H
  C700     1.0000 0.08124  0.19927  0.66561  Biso   1.000  C
  N537     1.0000 0.28270  0.30008  0.66359  Biso   1.000  N
  N538     1.0000 0.28277  0.30008  0.66359  Biso   1.000  N
  H728     1.0000 0.13045  0.37706  0.67121  Biso   1.000  H
  O270     1.0000 0.44996  0.31587  0.63961  Biso   1.000  O
  C701     1.0000 0.31293  0.25354  0.71340  Biso   1.000  C
  C702     1.0000 0.31300  0.25354  0.71340  Biso   1.000  C
  H729     1.0000 0.02094  0.18013  0.64899  Biso   1.000  H
  H730     1.0000 0.05374  0.23503  0.69690  Biso   1.000  H
  H731     1.0000 0.26007  0.28282  0.73971  Biso   1.000  H
  H732     1.0000 0.38261  0.26435  0.72379  Biso   1.000  H
  H733     1.0000 0.26005  0.28289  0.73971  Biso   1.000  H
  H734     1.0000 0.38269  0.26435  0.72379  Biso   1.000  H
  C703     1.0000 0.68698  0.74652  0.28659  Biso   1.000  C
  N539     1.0000 0.71712  0.70005  0.33640  Biso   1.000  N
  N540     1.0000 0.71719  0.70005  0.33640  Biso   1.000  N
  H735     1.0000 0.61730  0.73571  0.27620  Biso   1.000  H
  N541     1.0000 0.67924  0.84663  0.28601  Biso   1.000  N
  H736     1.0000 0.73984  0.71724  0.26028  Biso   1.000  H
  N542     1.0000 0.67932  0.84663  0.28601  Biso   1.000  N
  H737     1.0000 0.73992  0.71724  0.26028  Biso   1.000  H
  C704     1.0000 0.64663  0.67124  0.36789  Biso   1.000  C
  C705     1.0000 0.64671  0.67124  0.36789  Biso   1.000  C
  C706     1.0000 0.82553  0.66641  0.35431  Biso   1.000  C
  C707     1.0000 0.82561  0.66641  0.35431  Biso   1.000  C
  C708     1.0000 0.58631  0.91038  0.27410  Biso   1.000  C
  C709     1.0000 0.77074  0.88604  0.27468  Biso   1.000  C
  C710     1.0000 0.58629  0.91045  0.27410  Biso   1.000  C
  C711     1.0000 0.77081  0.88604  0.27468  Biso   1.000  C
  N543     1.0000 0.70066  0.62341  0.41019  Biso   1.000  N
  O271     1.0000 0.54995  0.68419  0.36042  Biso   1.000  O
  O272     1.0000 0.55001  0.68426  0.36042  Biso   1.000  O
  C712     1.0000 0.81287  0.61355  0.40688  Biso   1.000  C
  N544     1.0000 0.87894  0.73935  0.37042  Biso   1.000  N
  H738     1.0000 0.86945  0.62300  0.32882  Biso   1.000  H
  O273     1.0000 0.49780  0.89330  0.27309  Biso   1.000  O
  N545     1.0000 0.60870  0.99580  0.26460  Biso   1.000  N
  N546     1.0000 0.84128  0.88289  0.31881  Biso   1.000  N
  N547     1.0000 0.84126  0.88296  0.31881  Biso   1.000  N
  H739     1.0000 0.81051  0.85691  0.24339  Biso   1.000  H
  C713     1.0000 0.72014  0.99014  0.26519  Biso   1.000  C
  C714     1.0000 0.72022  0.99014  0.26519  Biso   1.000  C
  C715     1.0000 0.65493  0.56193  0.44401  Biso   1.000  C
  C716     1.0000 0.65500  0.56193  0.44401  Biso   1.000  C
  H740     1.0000 0.85338  0.54601  0.40720  Biso   1.000  H
  N548     1.0000 0.85403  0.66883  0.44452  Biso   1.000  N
  N549     1.0000 0.85411  0.66883  0.44452  Biso   1.000  N
  C717     1.0000 0.89374  0.73842  0.42160  Biso   1.000  C
  C718     1.0000 0.91867  0.80079  0.33438  Biso   1.000  C
  C719     1.0000 0.52984  0.07454  0.24378  Biso   1.000  C
  C720     1.0000 0.52992  0.07454  0.24378  Biso   1.000  C
  C721     1.0000 0.83257  0.96881  0.33940  Biso   1.000  C
  N550     1.0000 0.75565  0.03275  0.31041  Biso   1.000  N
  H741     1.0000 0.74487  0.01438  0.23179  Biso   1.000  H
  N551     1.0000 0.64215  0.58921  0.49640  Biso   1.000  N
  H742     1.0000 0.70115  0.49734  0.44312  Biso   1.000  H
  H743     1.0000 0.58458  0.55960  0.42988  Biso   1.000  H
  H744     1.0000 0.58456  0.55967  0.42988  Biso   1.000  H
  C722     1.0000 0.88291  0.63356  0.49608  Biso   1.000  C
  C723     1.0000 0.88299  0.63356  0.49608  Biso   1.000  C
  O274     1.0000 0.93728  0.79143  0.44530  Biso   1.000  O
  H745     1.0000 0.97897  0.81993  0.35100  Biso   1.000  H
  H746     1.0000 0.94617  0.76503  0.30309  Biso   1.000  H
  N552     1.0000 0.50034  0.15222  0.27842  Biso   1.000  N
  H747     1.0000 0.46534  0.05280  0.23499  Biso   1.000  H
  H748     1.0000 0.55730  0.09698  0.21121  Biso   1.000  H
  N553     1.0000 0.50042  0.15222  0.27842  Biso   1.000  N
  H749     1.0000 0.46542  0.05280  0.23499  Biso   1.000  H
  O275     1.0000 0.88382  0.98765  0.37540  Biso   1.000  O
  O276     1.0000 0.88390  0.98765  0.37540  Biso   1.000  O
  C724     1.0000 0.74955  0.13333  0.31189  Biso   1.000  C
  C725     1.0000 0.54718  0.59934  0.52239  Biso   1.000  C
  C726     1.0000 0.73221  0.56804  0.53189  Biso   1.000  C
  C727     1.0000 0.73229  0.56804  0.53189  Biso   1.000  C
  N554     1.0000 0.79171  0.64072  0.53010  Biso   1.000  N
  N555     1.0000 0.79179  0.64072  0.53010  Biso   1.000  N
  H750     1.0000 0.93132  0.66926  0.51111  Biso   1.000  H
  H751     1.0000 0.92210  0.56667  0.49461  Biso   1.000  H
  H752     1.0000 0.93139  0.66926  0.51111  Biso   1.000  H
  H753     1.0000 0.92218  0.56667  0.49461  Biso   1.000  H
  C728     1.0000 0.40140  0.17938  0.29862  Biso   1.000  C
  C729     1.0000 0.56226  0.21838  0.28690  Biso   1.000  C
  C730     1.0000 0.40139  0.17945  0.29862  Biso   1.000  C
  C731     1.0000 0.56232  0.21845  0.28690  Biso   1.000  C
  N556     1.0000 0.64648  0.18904  0.32551  Biso   1.000  N
  H754     1.0000 0.80228  0.14404  0.33749  Biso   1.000  H
  H755     1.0000 0.76934  0.15502  0.27741  Biso   1.000  H
  H756     1.0000 0.76942  0.15502  0.27741  Biso   1.000  H
  O277     1.0000 0.46045  0.61140  0.50142  Biso   1.000  O
  N557     1.0000 0.56675  0.59591  0.57431  Biso   1.000  N
  N558     1.0000 0.56673  0.59598  0.57431  Biso   1.000  N
  C732     1.0000 0.68043  0.57803  0.58641  Biso   1.000  C
  H757     1.0000 0.77886  0.50364  0.52679  Biso   1.000  H
  C733     1.0000 0.78402  0.68733  0.57571  Biso   1.000  C
  C734     1.0000 0.78410  0.68733  0.57571  Biso   1.000  C
  O278     1.0000 0.33095  0.13494  0.29791  Biso   1.000  O
  N559     1.0000 0.39169  0.26471  0.32130  Biso   1.000  N
  C735     1.0000 0.48670  0.30078  0.31220  Biso   1.000  C
  H758     1.0000 0.59081  0.23854  0.25339  Biso   1.000  H
  C736     1.0000 0.48668  0.30085  0.31220  Biso   1.000  C
  C737     1.0000 0.63305  0.25153  0.36439  Biso   1.000  C
  C738     1.0000 0.48780  0.59913  0.61291  Biso   1.000  C
  C739     1.0000 0.48788  0.59913  0.61291  Biso   1.000  C
  N560     1.0000 0.71254  0.66021  0.60719  Biso   1.000  N
  H759     1.0000 0.70561  0.52002  0.60879  Biso   1.000  H
  N561     1.0000 0.71252  0.66028  0.60719  Biso   1.000  N
  H760     1.0000 0.70569  0.52002  0.60879  Biso   1.000  H
  O279     1.0000 0.83214  0.74791  0.58598  Biso   1.000  O
  C740     1.0000 0.29138  0.32154  0.33831  Biso   1.000  C
  N562     1.0000 0.53859  0.31570  0.35890  Biso   1.000  N
  H761     1.0000 0.47104  0.35820  0.28889  Biso   1.000  H
  H762     1.0000 0.47112  0.35820  0.28889  Biso   1.000  H
  O280     1.0000 0.69855  0.24972  0.40031  Biso   1.000  O
  O281     1.0000 0.69863  0.24972  0.40031  Biso   1.000  O
  N563     1.0000 0.46132  0.68436  0.64109  Biso   1.000  N
  H763     1.0000 0.51292  0.54586  0.63802  Biso   1.000  H
  H764     1.0000 0.42250  0.58994  0.59610  Biso   1.000  H
  H765     1.0000 0.42257  0.58994  0.59610  Biso   1.000  H
  C741     1.0000 0.70852  0.67851  0.66172  Biso   1.000  C
  C742     1.0000 0.70858  0.67858  0.66172  Biso   1.000  C
  N564     1.0000 0.28737  0.33985  0.39280  Biso   1.000  N
  H766     1.0000 0.27625  0.38239  0.31870  Biso   1.000  H
  H767     1.0000 0.23454  0.28922  0.32979  Biso   1.000  H
  H768     1.0000 0.27633  0.38239  0.31870  Biso   1.000  H
  H769     1.0000 0.23462  0.28922  0.32979  Biso   1.000  H
  C743     1.0000 0.51211  0.40093  0.38711  Biso   1.000  C
  C744     1.0000 0.36685  0.74853  0.63560  Biso   1.000  C
  C745     1.0000 0.51321  0.69928  0.68779  Biso   1.000  C
  C746     1.0000 0.51328  0.69928  0.68779  Biso   1.000  C
  N565     1.0000 0.60822  0.73535  0.67869  Biso   1.000  N
  H770     1.0000 0.72366  0.61767  0.68129  Biso   1.000  H
  H771     1.0000 0.76537  0.71084  0.67020  Biso   1.000  H
  C747     1.0000 0.21589  0.31273  0.42428  Biso   1.000  C
  C748     1.0000 0.31948  0.42202  0.41362  Biso   1.000  C
  N566     1.0000 0.43316  0.40415  0.42568  Biso   1.000  N
  H772     1.0000 0.57733  0.41012  0.40389  Biso   1.000  H
  H773     1.0000 0.48699  0.45420  0.36201  Biso   1.000  H
  H774     1.0000 0.57741  0.41012  0.40389  Biso   1.000  H
  O282     1.0000 0.30136  0.75034  0.59968  Biso   1.000  O
  N567     1.0000 0.35343  0.81102  0.67448  Biso   1.000  N
  C749     1.0000 0.43764  0.78168  0.71309  Biso   1.000  C
  H775     1.0000 0.52879  0.64186  0.71110  Biso   1.000  H
  H776     1.0000 0.52886  0.64186  0.71110  Biso   1.000  H
  C750     1.0000 0.59850  0.82068  0.70141  Biso   1.000  C
  C751     1.0000 0.59858  0.82068  0.70141  Biso   1.000  C
  N568     1.0000 0.20820  0.35934  0.46989  Biso   1.000  N
  O283     1.0000 0.16777  0.25215  0.41401  Biso   1.000  O
  C752     1.0000 0.26770  0.43201  0.46810  Biso   1.000  C
  H777     1.0000 0.29430  0.48004  0.39120  Biso   1.000  H
  C753     1.0000 0.45273  0.40072  0.47760  Biso   1.000  C
  C754     1.0000 0.45281  0.40072  0.47760  Biso   1.000  C
  C755     1.0000 0.25035  0.86673  0.68810  Biso   1.000  C
  N569     1.0000 0.49956  0.84783  0.72161  Biso   1.000  N
  H778     1.0000 0.40908  0.76158  0.74660  Biso   1.000  H
  H779     1.0000 0.40916  0.76158  0.74660  Biso   1.000  H
  O284     1.0000 0.66896  0.86512  0.70211  Biso   1.000  O
  C756     1.0000 0.11700  0.36650  0.50391  Biso   1.000  C
  N570     1.0000 0.35776  0.41085  0.50360  Biso   1.000  N
  H780     1.0000 0.22105  0.49642  0.47320  Biso   1.000  H
  H781     1.0000 0.22113  0.49642  0.47320  Biso   1.000  H
  O285     1.0000 0.53946  0.38865  0.49861  Biso   1.000  O
  N571     1.0000 0.24423  0.96738  0.68958  Biso   1.000  N
  H782     1.0000 0.19763  0.85602  0.66250  Biso   1.000  H
  H783     1.0000 0.23057  0.84504  0.72258  Biso   1.000  H
  C757     1.0000 0.47007  0.92552  0.75621  Biso   1.000  C
  C758     1.0000 0.47005  0.92559  0.75621  Biso   1.000  C
  N572     1.0000 0.14588  0.33123  0.55551  Biso   1.000  N
  H784     1.0000 0.06859  0.33080  0.48888  Biso   1.000  H
  H785     1.0000 0.07779  0.43346  0.50539  Biso   1.000  H
  H786     1.0000 0.06857  0.33087  0.48888  Biso   1.000  H
  C759     1.0000 0.34498  0.43813  0.55602  Biso   1.000  C
  C760     1.0000 0.27977  0.00992  0.73481  Biso   1.000  C
  C761     1.0000 0.16734  0.03125  0.66059  Biso   1.000  C
  H787     1.0000 0.44261  0.90307  0.78878  Biso   1.000  H
  H788     1.0000 0.53449  0.94726  0.76501  Biso   1.000  H
  H789     1.0000 0.53457  0.94726  0.76501  Biso   1.000  H
  N573     1.0000 0.39121  0.00426  0.73539  Biso   1.000  N
  N574     1.0000 0.39129  0.00426  0.73539  Biso   1.000  N
  C762     1.0000 0.10617  0.26163  0.57839  Biso   1.000  C
  C763     1.0000 0.18704  0.38651  0.59311  Biso   1.000  C
  C764     1.0000 0.18712  0.38651  0.59311  Biso   1.000  C
  N575     1.0000 0.29925  0.37665  0.58980  Biso   1.000  N
  H790     1.0000 0.41532  0.44046  0.57011  Biso   1.000  H
  H791     1.0000 0.29876  0.50272  0.55691  Biso   1.000  H
  H792     1.0000 0.41540  0.44046  0.57011  Biso   1.000  H
  H793     1.0000 0.25504  0.98567  0.76820  Biso   1.000  H
  C765     1.0000 0.22917  0.11402  0.72531  Biso   1.000  C
  O286     1.0000 0.11608  0.01241  0.62459  Biso   1.000  O
  N576     1.0000 0.15863  0.11717  0.68122  Biso   1.000  N
  O287     1.0000 0.11607  0.01248  0.62459  Biso   1.000  O
  C766     1.0000 0.41360  0.08968  0.72589  Biso   1.000  C
  C767     1.0000 0.41368  0.08968  0.72589  Biso   1.000  C
  N577     1.0000 0.12095  0.26077  0.62961  Biso   1.000  N
  O288     1.0000 0.06263  0.20863  0.55469  Biso   1.000  O
  O289     1.0000 0.06271  0.20863  0.55469  Biso   1.000  O
  C768     1.0000 0.17437  0.33364  0.64568  Biso   1.000  C
  H794     1.0000 0.14652  0.45405  0.59279  Biso   1.000  H
  H795     1.0000 0.14660  0.45405  0.59279  Biso   1.000  H
  C769     1.0000 0.35327  0.32882  0.63210  Biso   1.000  C
  N578     1.0000 0.32067  0.15343  0.71398  Biso   1.000  N
  H796     1.0000 0.18940  0.14315  0.75660  Biso   1.000  H
  H797     1.0000 0.18948  0.14315  0.75660  Biso   1.000  H
  C770     1.0000 0.08124  0.19927  0.66561  Biso   1.000  C
  O290     1.0000 0.50211  0.10676  0.72690  Biso   1.000  O
  O291     1.0000 0.50219  0.10676  0.72690  Biso   1.000  O
  N579     1.0000 0.28270  0.30008  0.66359  Biso   1.000  N
  N580     1.0000 0.28277  0.30008  0.66359  Biso   1.000  N
  H798     1.0000 0.13045  0.37706  0.67121  Biso   1.000  H
  O292     1.0000 0.44996  0.31587  0.63961  Biso   1.000  O
  C771     1.0000 0.31293  0.25354  0.71340  Biso   1.000  C
  C772     1.0000 0.31300  0.25354  0.71340  Biso   1.000  C
  H799     1.0000 0.02094  0.18013  0.64899  Biso   1.000  H
  H800     1.0000 0.05374  0.23503  0.69690  Biso   1.000  H
  H801     1.0000 0.26007  0.28282  0.73971  Biso   1.000  H
  H802     1.0000 0.38261  0.26435  0.72379  Biso   1.000  H
  H803     1.0000 0.26005  0.28289  0.73971  Biso   1.000  H
  H804     1.0000 0.38269  0.26435  0.72379  Biso   1.000  H
