data_image0
_cell_length_a       17.681
_cell_length_b       17.681
_cell_length_c       43.55
_cell_angle_alpha    90
_cell_angle_beta     90
_cell_angle_gamma    120

_symmetry_space_group_name_H-M    "P 1"
_symmetry_int_tables_number       1

loop_
  _symmetry_equiv_pos_as_xyz
  'x, y, z'

loop_
  _atom_site_label
  _atom_site_occupancy
  _atom_site_fract_x
  _atom_site_fract_y
  _atom_site_fract_z
  _atom_site_thermal_displace_type
  _atom_site_B_iso_or_equiv
  _atom_site_type_symbol
  C1       1.0000 0.11411  0.33692  0.51371  Biso   1.000  C
  N1       1.0000 0.15323  0.31720  0.49385  Biso   1.000  N
  C2       1.0000 0.14168  0.36219  0.54459  Biso   1.000  C
  H1       1.0000 0.06147  0.33470  0.50751  Biso   1.000  H
  C3       1.0000 0.11250  0.28461  0.46441  Biso   1.000  C
  C4       1.0000 0.09906  0.38747  0.56475  Biso   1.000  C
  C5       1.0000 0.22069  0.36637  0.55497  Biso   1.000  C
  C6       1.0000 0.08319  0.18822  0.46319  Biso   1.000  C
  C7       1.0000 0.17650  0.33457  0.43793  Biso   1.000  C
  H2       1.0000 0.06008  0.29199  0.46259  Biso   1.000  H
  C8       1.0000 0.12471  0.41242  0.59499  Biso   1.000  C
  H3       1.0000 0.04859  0.38799  0.55759  Biso   1.000  H
  H4       1.0000 0.25160  0.34959  0.54131  Biso   1.000  H
  C9       1.0000 0.25350  0.39400  0.58429  Biso   1.000  C
  C10      1.0000 0.03950  0.14642  0.43279  Biso   1.000  C
  H5       1.0000 0.04169  0.15791  0.48021  Biso   1.000  H
  H6       1.0000 0.13452  0.18058  0.46629  Biso   1.000  H
  C11      1.0000 0.13242  0.29199  0.40739  Biso   1.000  C
  N2       1.0000 0.19651  0.42469  0.43745  Biso   1.000  N
  H7       1.0000 0.23137  0.33209  0.44051  Biso   1.000  H
  C12      1.0000 0.08313  0.44272  0.61665  Biso   1.000  C
  C13      1.0000 0.20518  0.41771  0.60471  Biso   1.000  C
  C14      1.0000 0.33422  0.39629  0.59295  Biso   1.000  C
  C15      1.0000 0.10320  0.19351  0.40721  Biso   1.000  C
  H8       1.0000 0.02238  0.08379  0.43279  Biso   1.000  H
  H9       1.0000 0.98623  0.15073  0.43001  Biso   1.000  H
  H10      1.0000 0.17368  0.32157  0.39031  Biso   1.000  H
  H11      1.0000 0.08078  0.29911  0.40420  Biso   1.000  H
  C16      1.0000 0.27623  0.48301  0.43559  Biso   1.000  C
  N3       1.0000 0.01558  0.44540  0.61049  Biso   1.000  N
  H12      1.0000 0.10848  0.46140  0.63639  Biso   1.000  H
  H13      1.0000 0.22650  0.43717  0.62489  Biso   1.000  H
  N4       1.0000 0.37363  0.42861  0.61908  Biso   1.000  N
  H14      1.0000 0.35930  0.37349  0.57910  Biso   1.000  H
  H15      1.0000 0.07559  0.16758  0.38730  Biso   1.000  H
  H16      1.0000 0.15501  0.18639  0.40969  Biso   1.000  H
  C17      1.0000 0.30522  0.57751  0.43440  Biso   1.000  C
  H17      1.0000 0.31910  0.46558  0.43490  Biso   1.000  H
  C18      1.0000 0.97959  0.47498  0.63479  Biso   1.000  C
  C19      1.0000 0.44834  0.41842  0.62503  Biso   1.000  C
  C20      1.0000 0.24232  0.60612  0.43359  Biso   1.000  C
  C21      1.0000 0.39390  0.63622  0.43359  Biso   1.000  C
  H18      1.0000 0.01927  0.49248  0.65300  Biso   1.000  H
  C22      1.0000 0.97011  0.55172  0.62503  Biso   1.000  C
  C23      1.0000 0.89038  0.39328  0.64349  Biso   1.000  C
  H19      1.0000 0.46408  0.39968  0.60551  Biso   1.000  H
  C24      1.0000 0.42837  0.34998  0.64891  Biso   1.000  C
  C25      1.0000 0.52504  0.50463  0.63479  Biso   1.000  C
  H20      1.0000 0.18148  0.56511  0.43249  Biso   1.000  H
  C26      1.0000 0.27229  0.69481  0.43440  Biso   1.000  C
  C27      1.0000 0.42251  0.72772  0.43440  Biso   1.000  C
  H21      1.0000 0.43488  0.61637  0.43249  Biso   1.000  H
  N5       1.0000 0.05503  0.62643  0.61908  Biso   1.000  N
  H22      1.0000 0.93562  0.53591  0.60551  Biso   1.000  H
  C28      1.0000 0.92161  0.57157  0.64891  Biso   1.000  C
  C29      1.0000 0.84169  0.41908  0.66670  Biso   1.000  C
  H23      1.0000 0.85438  0.36879  0.62480  Biso   1.000  H
  H24      1.0000 0.90084  0.34802  0.65261  Biso   1.000  H
  H25      1.0000 0.37969  0.29369  0.64140  Biso   1.000  H
  H26      1.0000 0.40799  0.36579  0.66769  Biso   1.000  H
  C30      1.0000 0.50412  0.33712  0.65729  Biso   1.000  C
  N6       1.0000 0.55460  0.57020  0.61049  Biso   1.000  N
  C31      1.0000 0.60668  0.49712  0.64349  Biso   1.000  C
  H27      1.0000 0.50749  0.52677  0.65300  Biso   1.000  H
  C32      1.0000 0.36380  0.75770  0.43359  Biso   1.000  C
  C33      1.0000 0.20682  0.72380  0.43559  Biso   1.000  C
  C34      1.0000 0.51702  0.79322  0.43559  Biso   1.000  C
  C35      1.0000 0.06211  0.66581  0.59295  Biso   1.000  C
  H28      1.0000 0.91401  0.62029  0.64140  Biso   1.000  H
  H29      1.0000 0.95779  0.59201  0.66769  Biso   1.000  H
  C36      1.0000 0.83297  0.49588  0.65729  Biso   1.000  C
  H30      1.0000 0.78246  0.36827  0.66990  Biso   1.000  H
  H31      1.0000 0.87279  0.43253  0.68659  Biso   1.000  H
  H32      1.0000 0.48700  0.29473  0.67440  Biso   1.000  H
  H33      1.0000 0.52008  0.31328  0.63940  Biso   1.000  H
  C37      1.0000 0.58091  0.42260  0.66670  Biso   1.000  C
  C38      1.0000 0.55729  0.64040  0.61665  Biso   1.000  C
  H34      1.0000 0.63120  0.48563  0.62480  Biso   1.000  H
  H35      1.0000 0.65201  0.55283  0.65261  Biso   1.000  H
  H36      1.0000 0.38357  0.81850  0.43249  Biso   1.000  H
  N7       1.0000 0.22816  0.80348  0.43745  Biso   1.000  N
  H37      1.0000 0.14651  0.68090  0.43490  Biso   1.000  H
  N8       1.0000 0.57531  0.77180  0.43745  Biso   1.000  N
  H38      1.0000 0.53438  0.85350  0.43490  Biso   1.000  H
  C39      1.0000 0.14053  0.74653  0.58429  Biso   1.000  C
  H39      1.0000 0.01422  0.64073  0.57910  Biso   1.000  H
  H40      1.0000 0.80771  0.51299  0.67440  Biso   1.000  H
  H41      1.0000 0.79319  0.47988  0.63940  Biso   1.000  H
  H42      1.0000 0.63167  0.41418  0.66990  Biso   1.000  H
  H43      1.0000 0.56747  0.44030  0.68659  Biso   1.000  H
  H44      1.0000 0.53860  0.64713  0.63639  Biso   1.000  H
  C40      1.0000 0.58759  0.71231  0.59499  Biso   1.000  C
  C41      1.0000 0.15810  0.82353  0.43793  Biso   1.000  C
  C42      1.0000 0.66538  0.84188  0.43793  Biso   1.000  C
  C43      1.0000 0.14572  0.77931  0.55497  Biso   1.000  C
  C44      1.0000 0.21251  0.79479  0.60471  Biso   1.000  C
  C45      1.0000 0.61251  0.71159  0.56475  Biso   1.000  C
  C46      1.0000 0.58230  0.78748  0.60471  Biso   1.000  C
  C47      1.0000 0.17212  0.88753  0.46441  Biso   1.000  C
  C48      1.0000 0.15961  0.86761  0.40739  Biso   1.000  C
  H45      1.0000 0.10072  0.76860  0.44051  Biso   1.000  H
  C49      1.0000 0.71540  0.82790  0.46441  Biso   1.000  C
  C50      1.0000 0.70801  0.84038  0.40739  Biso   1.000  C
  H46      1.0000 0.66790  0.89928  0.44051  Biso   1.000  H
  C51      1.0000 0.22049  0.85827  0.54459  Biso   1.000  C
  H47      1.0000 0.09804  0.74842  0.54131  Biso   1.000  H
  C52      1.0000 0.28772  0.87532  0.59499  Biso   1.000  C
  H48      1.0000 0.21069  0.77350  0.62489  Biso   1.000  H
  C53      1.0000 0.63782  0.77951  0.54459  Biso   1.000  C
  H49      1.0000 0.61201  0.66058  0.55759  Biso   1.000  H
  C54      1.0000 0.60599  0.85951  0.58429  Biso   1.000  C
  H50      1.0000 0.56280  0.78931  0.62489  Biso   1.000  H
  N9       1.0000 0.16401  0.84678  0.49385  Biso   1.000  N
  H51      1.0000 0.23190  0.93990  0.46259  Biso   1.000  H
  C55      1.0000 0.10502  0.91679  0.46319  Biso   1.000  C
  C56      1.0000 0.09028  0.89680  0.40721  Biso   1.000  C
  H52      1.0000 0.14788  0.82627  0.39031  Biso   1.000  H
  H53      1.0000 0.21833  0.91920  0.40420  Biso   1.000  H
  N10      1.0000 0.68280  0.83600  0.49385  Biso   1.000  N
  H54      1.0000 0.70800  0.76808  0.46259  Biso   1.000  H
  C57      1.0000 0.81178  0.89497  0.46319  Biso   1.000  C
  C58      1.0000 0.80654  0.90973  0.40721  Biso   1.000  C
  H55      1.0000 0.67843  0.85213  0.39031  Biso   1.000  H
  H56      1.0000 0.70092  0.78173  0.40420  Biso   1.000  H
  C59      1.0000 0.22282  0.88590  0.51371  Biso   1.000  C
  C60      1.0000 0.28842  0.90092  0.56475  Biso   1.000  C
  C61      1.0000 0.35959  0.91692  0.61665  Biso   1.000  C
  C62      1.0000 0.66309  0.77722  0.51371  Biso   1.000  C
  C63      1.0000 0.63358  0.85429  0.55497  Biso   1.000  C
  C64      1.0000 0.60372  0.93788  0.59295  Biso   1.000  C
  H57      1.0000 0.11623  0.95832  0.48021  Biso   1.000  H
  H58      1.0000 0.04613  0.86552  0.46629  Biso   1.000  H
  C65      1.0000 0.10690  0.96048  0.43279  Biso   1.000  C
  H59      1.0000 0.09199  0.92443  0.38730  Biso   1.000  H
  H60      1.0000 0.03141  0.84501  0.40969  Biso   1.000  H
  H61      1.0000 0.84211  0.88381  0.48021  Biso   1.000  H
  H62      1.0000 0.81940  0.95388  0.46629  Biso   1.000  H
  C66      1.0000 0.85359  0.89308  0.43279  Biso   1.000  C
  H63      1.0000 0.83236  0.90797  0.38730  Biso   1.000  H
  H64      1.0000 0.81357  0.96857  0.40969  Biso   1.000  H
  H65      1.0000 0.27320  0.93847  0.50751  Biso   1.000  H
  H66      1.0000 0.33939  0.95140  0.55759  Biso   1.000  H
  N11      1.0000 0.42981  0.98438  0.61049  Biso   1.000  N
  H67      1.0000 0.35289  0.89151  0.63639  Biso   1.000  H
  H68      1.0000 0.66531  0.72681  0.50751  Biso   1.000  H
  H69      1.0000 0.65044  0.90203  0.54131  Biso   1.000  H
  N12      1.0000 0.57142  0.94500  0.61908  Biso   1.000  N
  H70      1.0000 0.62650  0.98582  0.57910  Biso   1.000  H
  H71      1.0000 0.06139  0.97759  0.43279  Biso   1.000  H
  H72      1.0000 0.16451  0.01383  0.43001  Biso   1.000  H
  H73      1.0000 0.91622  0.93860  0.43279  Biso   1.000  H
  H74      1.0000 0.84928  0.83548  0.43001  Biso   1.000  H
  C67      1.0000 0.49534  0.02043  0.63479  Biso   1.000  C
  C68      1.0000 0.58152  0.02990  0.62503  Biso   1.000  C
  H75      1.0000 0.47322  0.98072  0.65300  Biso   1.000  H
  C69      1.0000 0.50287  0.10957  0.64349  Biso   1.000  C
  H76      1.0000 0.60029  0.06438  0.60551  Biso   1.000  H
  C70      1.0000 0.64995  0.07842  0.64891  Biso   1.000  C
  C71      1.0000 0.57734  0.15829  0.66670  Biso   1.000  C
  H77      1.0000 0.51433  0.14562  0.62480  Biso   1.000  H
  H78      1.0000 0.44711  0.09919  0.65261  Biso   1.000  H
  H79      1.0000 0.70622  0.08600  0.64140  Biso   1.000  H
  H80      1.0000 0.63420  0.04218  0.66769  Biso   1.000  H
  C72      1.0000 0.66284  0.16698  0.65729  Biso   1.000  C
  H81      1.0000 0.58580  0.21753  0.66990  Biso   1.000  H
  H82      1.0000 0.55964  0.12721  0.68659  Biso   1.000  H
  H83      1.0000 0.70526  0.19232  0.67440  Biso   1.000  H
  H84      1.0000 0.68666  0.20682  0.63940  Biso   1.000  H
  C73      1.0000 0.41453  0.37421  0.40179  Biso   1.000  C
  N13      1.0000 0.44641  0.41072  0.37692  Biso   1.000  N
  H85      1.0000 0.40054  0.40562  0.41621  Biso   1.000  H
  C74      1.0000 0.39657  0.28650  0.41070  Biso   1.000  C
  C75      1.0000 0.45702  0.49901  0.37169  Biso   1.000  C
  C76      1.0000 0.41628  0.23837  0.39010  Biso   1.000  C
  C77      1.0000 0.36500  0.25548  0.43869  Biso   1.000  C
  C78      1.0000 0.38931  0.48791  0.34659  Biso   1.000  C
  H86      1.0000 0.44610  0.52220  0.39109  Biso   1.000  H
  C79      1.0000 0.54862  0.56119  0.35956  Biso   1.000  C
  H87      1.0000 0.43741  0.26071  0.37010  Biso   1.000  H
  C80      1.0000 0.40500  0.15733  0.39878  Biso   1.000  C
  C81      1.0000 0.34898  0.17300  0.44820  Biso   1.000  C
  H88      1.0000 0.35319  0.29023  0.45240  Biso   1.000  H
  H89      1.0000 0.39638  0.45839  0.32850  Biso   1.000  H
  H90      1.0000 0.32953  0.45082  0.35470  Biso   1.000  H
  C82      1.0000 0.40221  0.57830  0.33699  Biso   1.000  C
  N14      1.0000 0.61294  0.57693  0.38427  Biso   1.000  N
  C83      1.0000 0.55642  0.64883  0.35040  Biso   1.000  C
  H91      1.0000 0.56078  0.53461  0.34131  Biso   1.000  H
  C84      1.0000 0.37327  0.12598  0.42739  Biso   1.000  C
  C85      1.0000 0.42918  0.10750  0.37669  Biso   1.000  C
  C86      1.0000 0.31997  0.13917  0.47830  Biso   1.000  C
  H92      1.0000 0.36084  0.57033  0.32030  Biso   1.000  H
  H93      1.0000 0.38918  0.60507  0.35470  Biso   1.000  H
  C87      1.0000 0.49274  0.63753  0.32641  Biso   1.000  C
  C88      1.0000 0.67830  0.57079  0.37669  Biso   1.000  C
  H94      1.0000 0.54649  0.67593  0.36879  Biso   1.000  H
  H95      1.0000 0.61622  0.68880  0.34289  Biso   1.000  H
  H96      1.0000 0.36732  0.07190  0.43371  Biso   1.000  H
  N15      1.0000 0.42312  0.03598  0.38427  Biso   1.000  N
  H97      1.0000 0.44929  0.13029  0.35669  Biso   1.000  H
  N16      1.0000 0.30688  0.17770  0.49931  Biso   1.000  N
  H98      1.0000 0.30981  0.08209  0.48241  Biso   1.000  H
  H99      1.0000 0.50410  0.61298  0.30769  Biso   1.000  H
  H100     1.0000 0.49953  0.69500  0.32101  Biso   1.000  H
  C89      1.0000 0.75229  0.59502  0.39878  Biso   1.000  C
  H101     1.0000 0.68097  0.55067  0.35669  Biso   1.000  H
  C90      1.0000 0.43881  0.98740  0.35956  Biso   1.000  C
  C91      1.0000 0.27653  0.13532  0.52969  Biso   1.000  C
  C92      1.0000 0.82209  0.58372  0.39010  Biso   1.000  C
  C93      1.0000 0.75269  0.62669  0.42739  Biso   1.000  C
  H102     1.0000 0.46539  0.02619  0.34131  Biso   1.000  H
  C94      1.0000 0.50098  0.95801  0.37169  Biso   1.000  C
  C95      1.0000 0.35123  0.90759  0.35040  Biso   1.000  C
  H103     1.0000 0.27841  0.07981  0.52980  Biso   1.000  H
  C96      1.0000 0.18688  0.11507  0.53589  Biso   1.000  C
  C97      1.0000 0.33497  0.19338  0.55401  Biso   1.000  C
  C98      1.0000 0.88989  0.60338  0.41070  Biso   1.000  C
  H104     1.0000 0.82331  0.56262  0.37010  Biso   1.000  H
  H105     1.0000 0.70462  0.63270  0.43371  Biso   1.000  H
  C99      1.0000 0.82399  0.65098  0.44820  Biso   1.000  C
  N17      1.0000 0.58932  0.03572  0.37692  Biso   1.000  N
  H106     1.0000 0.47782  0.92392  0.39109  Biso   1.000  H
  C100     1.0000 0.51214  0.90139  0.34659  Biso   1.000  C
  C101     1.0000 0.36248  0.85521  0.32641  Biso   1.000  C
  H107     1.0000 0.32415  0.87063  0.36879  Biso   1.000  H
  H108     1.0000 0.31118  0.92738  0.34289  Biso   1.000  H
  H109     1.0000 0.14837  0.07380  0.51991  Biso   1.000  H
  H110     1.0000 0.18439  0.16947  0.53350  Biso   1.000  H
  C102     1.0000 0.14982  0.07680  0.56659  Biso   1.000  C
  N18      1.0000 0.42347  0.20807  0.55109  Biso   1.000  N
  C103     1.0000 0.30589  0.15831  0.58501  Biso   1.000  C
  H111     1.0000 0.33732  0.25091  0.55249  Biso   1.000  H
  C104     1.0000 0.89048  0.63498  0.43869  Biso   1.000  C
  C105     1.0000 0.95967  0.58548  0.40179  Biso   1.000  C
  C106     1.0000 0.81921  0.67998  0.47830  Biso   1.000  C
  C107     1.0000 0.62577  0.04029  0.40179  Biso   1.000  C
  H112     1.0000 0.54160  0.93802  0.32850  Biso   1.000  H
  H113     1.0000 0.54928  0.87872  0.35470  Biso   1.000  H
  C108     1.0000 0.42178  0.82393  0.33699  Biso   1.000  C
  H114     1.0000 0.38706  0.89113  0.30769  Biso   1.000  H
  H115     1.0000 0.30504  0.80447  0.32101  Biso   1.000  H
  H116     1.0000 0.14200  0.01750  0.56829  Biso   1.000  H
  H117     1.0000 0.09209  0.07243  0.56930  Biso   1.000  H
  C109     1.0000 0.21323  0.13643  0.59150  Biso   1.000  C
  C110     1.0000 0.48536  0.28468  0.55419  Biso   1.000  C
  H118     1.0000 0.34529  0.20180  0.60030  Biso   1.000  H
  H119     1.0000 0.31018  0.10488  0.58751  Biso   1.000  H
  H120     1.0000 0.93700  0.64680  0.45240  Biso   1.000  H
  N19      1.0000 0.96432  0.55361  0.37692  Biso   1.000  N
  H121     1.0000 0.00509  0.59952  0.41621  Biso   1.000  H
  N20      1.0000 0.87079  0.69311  0.49931  Biso   1.000  N
  H122     1.0000 0.77227  0.69017  0.48241  Biso   1.000  H
  C111     1.0000 0.71350  0.11011  0.41070  Biso   1.000  C
  H123     1.0000 0.59448  0.99491  0.41621  Biso   1.000  H
  H124     1.0000 0.42972  0.79049  0.32030  Biso   1.000  H
  H125     1.0000 0.39496  0.78409  0.35470  Biso   1.000  H
  H126     1.0000 0.21081  0.19109  0.59261  Biso   1.000  H
  H127     1.0000 0.19479  0.10691  0.61171  Biso   1.000  H
  C112     1.0000 0.57990  0.31041  0.55440  Biso   1.000  C
  H128     1.0000 0.47138  0.32967  0.55669  Biso   1.000  H
  C113     1.0000 0.04200  0.54303  0.37169  Biso   1.000  C
  C114     1.0000 0.85877  0.72348  0.52969  Biso   1.000  C
  C115     1.0000 0.76159  0.17790  0.39010  Biso   1.000  C
  C116     1.0000 0.74448  0.10952  0.43869  Biso   1.000  C
  C117     1.0000 0.64309  0.39811  0.55511  Biso   1.000  C
  C118     1.0000 0.60187  0.24497  0.55511  Biso   1.000  C
  H129     1.0000 0.07610  0.55387  0.39109  Biso   1.000  H
  C119     1.0000 0.09857  0.61069  0.34659  Biso   1.000  C
  C120     1.0000 0.01259  0.45140  0.35956  Biso   1.000  C
  H130     1.0000 0.80138  0.72158  0.52980  Biso   1.000  H
  C121     1.0000 0.92817  0.81308  0.53589  Biso   1.000  C
  C122     1.0000 0.85839  0.66503  0.55401  Biso   1.000  C
  C123     1.0000 0.84271  0.24771  0.39878  Biso   1.000  C
  H131     1.0000 0.73929  0.17672  0.37010  Biso   1.000  H
  C124     1.0000 0.82699  0.17600  0.44820  Biso   1.000  C
  H132     1.0000 0.70981  0.06302  0.45240  Biso   1.000  H
  C125     1.0000 0.73051  0.42012  0.55440  Biso   1.000  C
  H133     1.0000 0.62720  0.44200  0.55589  Biso   1.000  H
  H134     1.0000 0.55802  0.18521  0.55589  Biso   1.000  H
  C126     1.0000 0.68959  0.26952  0.55440  Biso   1.000  C
  H135     1.0000 0.06198  0.60357  0.32850  Biso   1.000  H
  H136     1.0000 0.12130  0.67051  0.35470  Biso   1.000  H
  C127     1.0000 0.17612  0.59782  0.33699  Biso   1.000  C
  N21      1.0000 0.96397  0.38708  0.38427  Biso   1.000  N
  H137     1.0000 0.97380  0.43919  0.34131  Biso   1.000  H
  C128     1.0000 0.09238  0.44357  0.35040  Biso   1.000  C
  H138     1.0000 0.92538  0.85161  0.51991  Biso   1.000  H
  H139     1.0000 0.98510  0.81562  0.53350  Biso   1.000  H
  C129     1.0000 0.92698  0.85017  0.56659  Biso   1.000  C
  N22      1.0000 0.78459  0.57647  0.55109  Biso   1.000  N
  C130     1.0000 0.85239  0.69409  0.58501  Biso   1.000  C
  H140     1.0000 0.91360  0.66267  0.55249  Biso   1.000  H
  C131     1.0000 0.89249  0.32170  0.37669  Biso   1.000  C
  C132     1.0000 0.87401  0.24732  0.42739  Biso   1.000  C
  C133     1.0000 0.86076  0.18077  0.47830  Biso   1.000  C
  C134     1.0000 0.79931  0.51462  0.55419  Biso   1.000  C
  C135     1.0000 0.75500  0.35691  0.55511  Biso   1.000  C
  C136     1.0000 0.71530  0.20069  0.55419  Biso   1.000  C
  H141     1.0000 0.20950  0.63923  0.32030  Biso   1.000  H
  H142     1.0000 0.21594  0.61082  0.35470  Biso   1.000  H
  C137     1.0000 0.14478  0.50731  0.32641  Biso   1.000  C
  H143     1.0000 0.12941  0.45349  0.36879  Biso   1.000  H
  H144     1.0000 0.07263  0.38381  0.34289  Biso   1.000  H
  H145     1.0000 0.87553  0.85801  0.56829  Biso   1.000  H
  H146     1.0000 0.98028  0.90790  0.56930  Biso   1.000  H
  C138     1.0000 0.92319  0.78682  0.59150  Biso   1.000  C
  H147     1.0000 0.85651  0.65471  0.60030  Biso   1.000  H
  H148     1.0000 0.79469  0.68978  0.58751  Biso   1.000  H
  H149     1.0000 0.86971  0.31903  0.35669  Biso   1.000  H
  H150     1.0000 0.92808  0.29539  0.43371  Biso   1.000  H
  N23      1.0000 0.82230  0.12918  0.49931  Biso   1.000  N
  H151     1.0000 0.91789  0.22773  0.48241  Biso   1.000  H
  H152     1.0000 0.85833  0.52860  0.55669  Biso   1.000  H
  H153     1.0000 0.81480  0.37277  0.55589  Biso   1.000  H
  N24      1.0000 0.79187  0.21538  0.55109  Biso   1.000  N
  H154     1.0000 0.67032  0.14172  0.55669  Biso   1.000  H
  H155     1.0000 0.10886  0.49588  0.30769  Biso   1.000  H
  H156     1.0000 0.19551  0.50052  0.32101  Biso   1.000  H
  H157     1.0000 0.98030  0.78917  0.59261  Biso   1.000  H
  H158     1.0000 0.91206  0.80518  0.61171  Biso   1.000  H
  C139     1.0000 0.86467  0.14119  0.52969  Biso   1.000  C
  C140     1.0000 0.80661  0.14159  0.55401  Biso   1.000  C
  H159     1.0000 0.92018  0.19860  0.52980  Biso   1.000  H
  C141     1.0000 0.88488  0.07177  0.53589  Biso   1.000  C
  C142     1.0000 0.84168  0.14759  0.58501  Biso   1.000  C
  H160     1.0000 0.74910  0.08640  0.55249  Biso   1.000  H
  H161     1.0000 0.92621  0.07458  0.51991  Biso   1.000  H
  H162     1.0000 0.83048  0.01489  0.53350  Biso   1.000  H
  C143     1.0000 0.92322  0.07301  0.56659  Biso   1.000  C
  C144     1.0000 0.86358  0.07680  0.59150  Biso   1.000  C
  H163     1.0000 0.79817  0.14348  0.60030  Biso   1.000  H
  H164     1.0000 0.89510  0.20533  0.58751  Biso   1.000  H
  H165     1.0000 0.98249  0.12448  0.56829  Biso   1.000  H
  H166     1.0000 0.92763  0.01972  0.56930  Biso   1.000  H
  H167     1.0000 0.80891  0.01972  0.59261  Biso   1.000  H
  H168     1.0000 0.89311  0.08790  0.61171  Biso   1.000  H
  C145     1.0000 0.02917  0.18854  0.65972  Biso   1.000  C
  C146     1.0000 0.08836  0.15726  0.67033  Biso   1.000  C
  H169     1.0000 0.05369  0.22446  0.64103  Biso   1.000  H
  C147     1.0000 0.01786  0.24092  0.68374  Biso   1.000  C
  H170     1.0000 0.97171  0.13786  0.65433  Biso   1.000  H
  C148     1.0000 0.17878  0.23471  0.67993  Biso   1.000  C
  H171     1.0000 0.09636  0.12382  0.65364  Biso   1.000  H
  H172     1.0000 0.06154  0.11742  0.68804  Biso   1.000  H
  C149     1.0000 0.10544  0.32072  0.69290  Biso   1.000  C
  H173     1.0000 0.99078  0.20396  0.70214  Biso   1.000  H
  H174     1.0000 0.97787  0.26071  0.67623  Biso   1.000  H
  C150     1.0000 0.16767  0.29134  0.70503  Biso   1.000  C
  H175     1.0000 0.20830  0.27135  0.66184  Biso   1.000  H
  H176     1.0000 0.21586  0.21205  0.68804  Biso   1.000  H
  N25      1.0000 0.08975  0.36931  0.71761  Biso   1.000  N
  H177     1.0000 0.13208  0.35952  0.67463  Biso   1.000  H
  N26      1.0000 0.25596  0.36905  0.71026  Biso   1.000  N
  H178     1.0000 0.14446  0.25725  0.72443  Biso   1.000  H
  C151     1.0000 0.09587  0.44083  0.71003  Biso   1.000  C
  C152     1.0000 0.29246  0.37362  0.73513  Biso   1.000  C
  C153     1.0000 0.07169  0.49065  0.73212  Biso   1.000  C
  H179     1.0000 0.11598  0.46362  0.69003  Biso   1.000  H
  H180     1.0000 0.26106  0.32824  0.74953  Biso   1.000  H
  C154     1.0000 0.38019  0.44344  0.74404  Biso   1.000  C
  C155     1.0000 0.08298  0.57170  0.72344  Biso   1.000  C
  C156     1.0000 0.03996  0.45931  0.76073  Biso   1.000  C
  C157     1.0000 0.42828  0.51123  0.72344  Biso   1.000  C
  C158     1.0000 0.41118  0.44285  0.77203  Biso   1.000  C
  C159     1.0000 0.06327  0.61983  0.74404  Biso   1.000  C
  H181     1.0000 0.10404  0.59404  0.70344  Biso   1.000  H
  H182     1.0000 0.03396  0.40523  0.76703  Biso   1.000  H
  C160     1.0000 0.01568  0.50633  0.78154  Biso   1.000  C
  H183     1.0000 0.40598  0.51005  0.70344  Biso   1.000  H
  C161     1.0000 0.50934  0.58104  0.73212  Biso   1.000  C
  C162     1.0000 0.49368  0.50933  0.78154  Biso   1.000  C
  H184     1.0000 0.37650  0.39635  0.78574  Biso   1.000  H
  C163     1.0000 0.08116  0.70754  0.73513  Biso   1.000  C
  C164     1.0000 0.03164  0.58881  0.77203  Biso   1.000  C
  C165     1.0000 0.98669  0.47256  0.81164  Biso   1.000  C
  C166     1.0000 0.54065  0.58065  0.76073  Biso   1.000  C
  C167     1.0000 0.55918  0.65503  0.71003  Biso   1.000  C
  C168     1.0000 0.52749  0.51417  0.81164  Biso   1.000  C
  N27      1.0000 0.11310  0.74405  0.71026  Biso   1.000  N
  H185     1.0000 0.06717  0.73895  0.74953  Biso   1.000  H
  H186     1.0000 0.01988  0.62356  0.78574  Biso   1.000  H
  N28      1.0000 0.97357  0.51103  0.83263  Biso   1.000  N
  H187     1.0000 0.97645  0.41542  0.81573  Biso   1.000  H
  H188     1.0000 0.59477  0.62871  0.76703  Biso   1.000  H
  N29      1.0000 0.63066  0.72041  0.71761  Biso   1.000  N
  H189     1.0000 0.53640  0.65236  0.69003  Biso   1.000  H
  N30      1.0000 0.48893  0.46251  0.83263  Biso   1.000  N
  H190     1.0000 0.58458  0.56106  0.81573  Biso   1.000  H
  C169     1.0000 0.12365  0.83234  0.70503  Biso   1.000  C
  C170     1.0000 0.94316  0.46865  0.86303  Biso   1.000  C
  C171     1.0000 0.67929  0.78473  0.69290  Biso   1.000  C
  C172     1.0000 0.53136  0.47452  0.86303  Biso   1.000  C
  H191     1.0000 0.11274  0.85553  0.72443  Biso   1.000  H
  C173     1.0000 0.05595  0.82124  0.67993  Biso   1.000  C
  C174     1.0000 0.21526  0.89452  0.69290  Biso   1.000  C
  C175     1.0000 0.00166  0.52670  0.88732  Biso   1.000  C
  H192     1.0000 0.94504  0.41313  0.86312  Biso   1.000  H
  C176     1.0000 0.85358  0.44840  0.86923  Biso   1.000  C
  C177     1.0000 0.70870  0.87636  0.70503  Biso   1.000  C
  C178     1.0000 0.75911  0.77696  0.68374  Biso   1.000  C
  H193     1.0000 0.64049  0.77252  0.67463  Biso   1.000  H
  H194     1.0000 0.58687  0.53193  0.86312  Biso   1.000  H
  C179     1.0000 0.55157  0.40510  0.86923  Biso   1.000  C
  C180     1.0000 0.47325  0.47492  0.88732  Biso   1.000  C
  H195     1.0000 0.06307  0.79172  0.66184  Biso   1.000  H
  C181     1.0000 0.06884  0.91163  0.67033  Biso   1.000  C
  H196     1.0000 0.99617  0.78415  0.68804  Biso   1.000  H
  N31      1.0000 0.27957  0.91025  0.71761  Biso   1.000  N
  C182     1.0000 0.22305  0.98216  0.68374  Biso   1.000  C
  H197     1.0000 0.22747  0.86794  0.67463  Biso   1.000  H
  N32      1.0000 0.09020  0.54146  0.88443  Biso   1.000  N
  H198     1.0000 0.00396  0.58424  0.88583  Biso   1.000  H
  C183     1.0000 0.97259  0.49163  0.91832  Biso   1.000  C
  H199     1.0000 0.81507  0.40713  0.85323  Biso   1.000  H
  H200     1.0000 0.85103  0.50280  0.86684  Biso   1.000  H
  C184     1.0000 0.81646  0.41013  0.89993  Biso   1.000  C
  N33      1.0000 0.63096  0.88694  0.71026  Biso   1.000  N
  H201     1.0000 0.74274  0.88720  0.72443  Biso   1.000  H
  C185     1.0000 0.76526  0.94402  0.67993  Biso   1.000  C
  C186     1.0000 0.81147  0.84064  0.65972  Biso   1.000  C
  H202     1.0000 0.79605  0.78682  0.70214  Biso   1.000  H
  H203     1.0000 0.73926  0.71714  0.67623  Biso   1.000  H
  H204     1.0000 0.59285  0.40791  0.85323  Biso   1.000  H
  H205     1.0000 0.49717  0.34822  0.86684  Biso   1.000  H
  C187     1.0000 0.58986  0.40634  0.89993  Biso   1.000  C
  N34      1.0000 0.45857  0.54871  0.88443  Biso   1.000  N
  C188     1.0000 0.50838  0.48092  0.91832  Biso   1.000  C
  H206     1.0000 0.41579  0.41973  0.88583  Biso   1.000  H
  H207     1.0000 0.02748  0.90366  0.65364  Biso   1.000  H
  H208     1.0000 0.05588  0.93840  0.68804  Biso   1.000  H
  C189     1.0000 0.15937  0.97086  0.65972  Biso   1.000  C
  C190     1.0000 0.34494  0.90412  0.71003  Biso   1.000  C
  H209     1.0000 0.21313  0.00926  0.70214  Biso   1.000  H
  H210     1.0000 0.28285  0.02213  0.67623  Biso   1.000  H
  C191     1.0000 0.15205  0.61800  0.88753  Biso   1.000  C
  H211     1.0000 0.01198  0.53513  0.93364  Biso   1.000  H
  C192     1.0000 0.87986  0.46976  0.92482  Biso   1.000  C
  H212     1.0000 0.97687  0.43821  0.92083  Biso   1.000  H
  H213     1.0000 0.80864  0.35083  0.90163  Biso   1.000  H
  H214     1.0000 0.75878  0.40576  0.90264  Biso   1.000  H
  C193     1.0000 0.62636  0.91881  0.73513  Biso   1.000  C
  H215     1.0000 0.72871  0.93697  0.66184  Biso   1.000  H
  C194     1.0000 0.84276  0.93115  0.67033  Biso   1.000  C
  H216     1.0000 0.78799  0.00384  0.68804  Biso   1.000  H
  H217     1.0000 0.77556  0.82921  0.64103  Biso   1.000  H
  H218     1.0000 0.86215  0.83385  0.65433  Biso   1.000  H
  H219     1.0000 0.64913  0.45781  0.90163  Biso   1.000  H
  H220     1.0000 0.59426  0.35305  0.90264  Biso   1.000  H
  C195     1.0000 0.53027  0.41013  0.92482  Biso   1.000  C
  C196     1.0000 0.38194  0.53402  0.88753  Biso   1.000  C
  H221     1.0000 0.46486  0.47681  0.93364  Biso   1.000  H
  H222     1.0000 0.56179  0.53866  0.92083  Biso   1.000  H
  H223     1.0000 0.17074  0.94630  0.64103  Biso   1.000  H
  H224     1.0000 0.16611  0.02833  0.65433  Biso   1.000  H
  C197     1.0000 0.41898  0.92835  0.73212  Biso   1.000  C
  H225     1.0000 0.34766  0.88400  0.69003  Biso   1.000  H
  C198     1.0000 0.24659  0.64374  0.88774  Biso   1.000  C
  H226     1.0000 0.13807  0.66300  0.89003  Biso   1.000  H
  H227     1.0000 0.87745  0.52442  0.92592  Biso   1.000  H
  H228     1.0000 0.86149  0.44024  0.94503  Biso   1.000  H
  C199     1.0000 0.55653  0.93670  0.74404  Biso   1.000  C
  H229     1.0000 0.67179  0.93285  0.74953  Biso   1.000  H
  H230     1.0000 0.87619  0.97256  0.65364  Biso   1.000  H
  H231     1.0000 0.88257  0.94415  0.68804  Biso   1.000  H
  H232     1.0000 0.47560  0.35305  0.92592  Biso   1.000  H
  H233     1.0000 0.55975  0.42123  0.94503  Biso   1.000  H
  C200     1.0000 0.35629  0.60285  0.88774  Biso   1.000  C
  H234     1.0000 0.33695  0.47505  0.89003  Biso   1.000  H
  C201     1.0000 0.48878  0.91705  0.72344  Biso   1.000  C
  C202     1.0000 0.41938  0.96002  0.76073  Biso   1.000  C
  C203     1.0000 0.30979  0.73144  0.88843  Biso   1.000  C
  C204     1.0000 0.26859  0.57836  0.88843  Biso   1.000  C
  C205     1.0000 0.55717  0.96831  0.77203  Biso   1.000  C
  C206     1.0000 0.42164  0.69023  0.88843  Biso   1.000  C
  H235     1.0000 0.49000  0.89595  0.70344  Biso   1.000  H
  H236     1.0000 0.37126  0.96603  0.76703  Biso   1.000  H
  C207     1.0000 0.49063  0.98431  0.78154  Biso   1.000  C
  C208     1.0000 0.39720  0.75345  0.88774  Biso   1.000  C
  H237     1.0000 0.29389  0.77533  0.88923  Biso   1.000  H
  H238     1.0000 0.22466  0.51854  0.88923  Biso   1.000  H
  H239     1.0000 0.60369  0.98013  0.78574  Biso   1.000  H
  H240     1.0000 0.48144  0.70610  0.88923  Biso   1.000  H
  C209     1.0000 0.48584  0.01331  0.81164  Biso   1.000  C
  C210     1.0000 0.46600  0.84795  0.88753  Biso   1.000  C
  N35      1.0000 0.53743  0.02644  0.83263  Biso   1.000  N
  H241     1.0000 0.43894  0.02356  0.81573  Biso   1.000  H
  N36      1.0000 0.45126  0.90986  0.88443  Biso   1.000  N
  H242     1.0000 0.52496  0.86193  0.89003  Biso   1.000  H
  C211     1.0000 0.52546  0.05680  0.86303  Biso   1.000  C
  C212     1.0000 0.52508  0.99835  0.88732  Biso   1.000  C
  H243     1.0000 0.46807  0.05491  0.86312  Biso   1.000  H
  C213     1.0000 0.59486  0.14641  0.86923  Biso   1.000  C
  H244     1.0000 0.58024  0.99600  0.88583  Biso   1.000  H
  C214     1.0000 0.51908  0.02742  0.91832  Biso   1.000  C
  H245     1.0000 0.59207  0.18494  0.85323  Biso   1.000  H
  H246     1.0000 0.65179  0.14895  0.86684  Biso   1.000  H
  C215     1.0000 0.59367  0.18350  0.89993  Biso   1.000  C
  H247     1.0000 0.52315  0.98804  0.93364  Biso   1.000  H
  C216     1.0000 0.58983  0.12015  0.92482  Biso   1.000  C
  H248     1.0000 0.46133  0.02311  0.92083  Biso   1.000  H
  H249     1.0000 0.54211  0.19134  0.90163  Biso   1.000  H
  H250     1.0000 0.64697  0.24123  0.90264  Biso   1.000  H
  H251     1.0000 0.64688  0.12250  0.92592  Biso   1.000  H
  H252     1.0000 0.57875  0.13850  0.94503  Biso   1.000  H
  C217     1.0000 0.16634  0.16255  0.32397  Biso   1.000  C
  C218     1.0000 0.25492  0.23824  0.31557  Biso   1.000  C
  H253     1.0000 0.14102  0.17966  0.34106  Biso   1.000  H
  H254     1.0000 0.12655  0.14655  0.30606  Biso   1.000  H
  C219     1.0000 0.17505  0.08575  0.33336  Biso   1.000  C
  C220     1.0000 0.30347  0.21839  0.29169  Biso   1.000  C
  H255     1.0000 0.24732  0.28696  0.30806  Biso   1.000  H
  H256     1.0000 0.29115  0.25868  0.33437  Biso   1.000  H
  C221     1.0000 0.22374  0.05995  0.31017  Biso   1.000  C
  H257     1.0000 0.11582  0.03494  0.33656  Biso   1.000  H
  H258     1.0000 0.20612  0.09914  0.35327  Biso   1.000  H
  N37      1.0000 0.38830  0.29303  0.28576  Biso   1.000  N
  H259     1.0000 0.26893  0.20258  0.27217  Biso   1.000  H
  C222     1.0000 0.31295  0.14165  0.30145  Biso   1.000  C
  H260     1.0000 0.18774  0.03546  0.29146  Biso   1.000  H
  H261     1.0000 0.23414  0.01469  0.31927  Biso   1.000  H
  C223     1.0000 0.39541  0.33248  0.25961  Biso   1.000  C
  N38      1.0000 0.34895  0.11207  0.27718  Biso   1.000  N
  H262     1.0000 0.35264  0.15915  0.31966  Biso   1.000  H
  C224     1.0000 0.47380  0.41313  0.25098  Biso   1.000  C
  H263     1.0000 0.34749  0.30734  0.24576  Biso   1.000  H
  C225     1.0000 0.41644  0.10939  0.28331  Biso   1.000  C
  C226     1.0000 0.47903  0.44598  0.22163  Biso   1.000  C
  C227     1.0000 0.54582  0.46146  0.27137  Biso   1.000  C
  H264     1.0000 0.44184  0.12807  0.30308  Biso   1.000  H
  C228     1.0000 0.45802  0.07909  0.26168  Biso   1.000  C
  C229     1.0000 0.55380  0.52494  0.21127  Biso   1.000  C
  H265     1.0000 0.43135  0.41509  0.20797  Biso   1.000  H
  C230     1.0000 0.62103  0.54199  0.26168  Biso   1.000  C
  H266     1.0000 0.54405  0.44017  0.29157  Biso   1.000  H
  C231     1.0000 0.43242  0.05414  0.23141  Biso   1.000  C
  C232     1.0000 0.53854  0.08438  0.27137  Biso   1.000  C
  C233     1.0000 0.62173  0.56759  0.23141  Biso   1.000  C
  C234     1.0000 0.55613  0.55257  0.18037  Biso   1.000  C
  C235     1.0000 0.69296  0.58359  0.28331  Biso   1.000  C
  H267     1.0000 0.38195  0.05466  0.22427  Biso   1.000  H
  C236     1.0000 0.47504  0.02887  0.21127  Biso   1.000  C
  C237     1.0000 0.58681  0.06067  0.25098  Biso   1.000  C
  H268     1.0000 0.55981  0.10384  0.29157  Biso   1.000  H
  H269     1.0000 0.67276  0.61807  0.22427  Biso   1.000  H
  N39      1.0000 0.49732  0.51345  0.16051  Biso   1.000  N
  H270     1.0000 0.60651  0.60514  0.17417  Biso   1.000  H
  N40      1.0000 0.76311  0.65105  0.27718  Biso   1.000  N
  H271     1.0000 0.68625  0.55818  0.30308  Biso   1.000  H
  C238     1.0000 0.55405  0.03305  0.22163  Biso   1.000  C
  C239     1.0000 0.44747  0.00359  0.18037  Biso   1.000  C
  C240     1.0000 0.66753  0.06296  0.25961  Biso   1.000  C
  C241     1.0000 0.50542  0.55420  0.13107  Biso   1.000  C
  C242     1.0000 0.82873  0.68703  0.30145  Biso   1.000  C
  H272     1.0000 0.58491  0.01626  0.20797  Biso   1.000  H
  H273     1.0000 0.39484  0.00137  0.17417  Biso   1.000  H
  N41      1.0000 0.48653  0.98387  0.16051  Biso   1.000  N
  N42      1.0000 0.70694  0.09528  0.28576  Biso   1.000  N
  H274     1.0000 0.69261  0.04016  0.24576  Biso   1.000  H
  H275     1.0000 0.56526  0.60658  0.12928  Biso   1.000  H
  C243     1.0000 0.43833  0.58346  0.12987  Biso   1.000  C
  C244     1.0000 0.49146  0.49020  0.10459  Biso   1.000  C
  C245     1.0000 0.91494  0.69657  0.29169  Biso   1.000  C
  C246     1.0000 0.83623  0.77624  0.31017  Biso   1.000  C
  H276     1.0000 0.80653  0.64739  0.31966  Biso   1.000  H
  C247     1.0000 0.44592  0.95128  0.13107  Biso   1.000  C
  C248     1.0000 0.78165  0.08510  0.29169  Biso   1.000  C
  H277     1.0000 0.44954  0.62499  0.14687  Biso   1.000  H
  H278     1.0000 0.37944  0.53219  0.13297  Biso   1.000  H
  C249     1.0000 0.44021  0.62715  0.09947  Biso   1.000  C
  N43      1.0000 0.56153  0.47015  0.10411  Biso   1.000  N
  C250     1.0000 0.49292  0.53428  0.07408  Biso   1.000  C
  H279     1.0000 0.43403  0.43527  0.10716  Biso   1.000  H
  N44      1.0000 0.90473  0.61167  0.28576  Biso   1.000  N
  H280     1.0000 0.93365  0.73105  0.27217  Biso   1.000  H
  C251     1.0000 0.98337  0.74509  0.31557  Biso   1.000  C
  C252     1.0000 0.91076  0.82496  0.33336  Biso   1.000  C
  H281     1.0000 0.84775  0.81229  0.29146  Biso   1.000  H
  H282     1.0000 0.78053  0.76586  0.31927  Biso   1.000  H
  C253     1.0000 0.50981  0.00124  0.10459  Biso   1.000  C
  H283     1.0000 0.39345  0.95866  0.12928  Biso   1.000  H
  C254     1.0000 0.41661  0.85489  0.12987  Biso   1.000  C
  H284     1.0000 0.79744  0.06635  0.27217  Biso   1.000  H
  C255     1.0000 0.76173  0.01665  0.31557  Biso   1.000  C
  C256     1.0000 0.85831  0.17124  0.30145  Biso   1.000  C
  H285     1.0000 0.39475  0.64426  0.09947  Biso   1.000  H
  H286     1.0000 0.49785  0.68044  0.09667  Biso   1.000  H
  C257     1.0000 0.42364  0.56347  0.07387  Biso   1.000  C
  C258     1.0000 0.54013  0.39047  0.10227  Biso   1.000  C
  H287     1.0000 0.48124  0.49294  0.05697  Biso   1.000  H
  H288     1.0000 0.55163  0.58587  0.07086  Biso   1.000  H
  C259     1.0000 0.93702  0.60455  0.25961  Biso   1.000  C
  H289     1.0000 0.96751  0.70885  0.33437  Biso   1.000  H
  C260     1.0000 0.99620  0.83365  0.32397  Biso   1.000  C
  H290     1.0000 0.03964  0.75267  0.30806  Biso   1.000  H
  H291     1.0000 0.91916  0.88420  0.33656  Biso   1.000  H
  H292     1.0000 0.89306  0.79388  0.35327  Biso   1.000  H
  N45      1.0000 0.52982  0.09137  0.10411  Biso   1.000  N
  C261     1.0000 0.46578  0.95866  0.07408  Biso   1.000  C
  H293     1.0000 0.56473  0.99876  0.10716  Biso   1.000  H
  H294     1.0000 0.37505  0.82458  0.14687  Biso   1.000  H
  H295     1.0000 0.46788  0.84725  0.13297  Biso   1.000  H
  C262     1.0000 0.37286  0.81309  0.09947  Biso   1.000  C
  H296     1.0000 0.74130  0.03246  0.33437  Biso   1.000  H
  C263     1.0000 0.83742  0.00379  0.32397  Biso   1.000  C
  H297     1.0000 0.71311  0.96036  0.30806  Biso   1.000  H
  N46      1.0000 0.88796  0.23687  0.27718  Biso   1.000  N
  C264     1.0000 0.94005  0.16379  0.31017  Biso   1.000  C
  H298     1.0000 0.84080  0.19344  0.31966  Biso   1.000  H
  H299     1.0000 0.42535  0.59110  0.05396  Biso   1.000  H
  H300     1.0000 0.36472  0.51168  0.07637  Biso   1.000  H
  C265     1.0000 0.60566  0.36148  0.10106  Biso   1.000  C
  H301     1.0000 0.47982  0.34757  0.10156  Biso   1.000  H
  C266     1.0000 0.93935  0.52618  0.25098  Biso   1.000  C
  H302     1.0000 0.95986  0.65249  0.24576  Biso   1.000  H
  H303     1.0000 0.03862  0.85899  0.34106  Biso   1.000  H
  H304     1.0000 0.02002  0.87349  0.30606  Biso   1.000  H
  C267     1.0000 0.60954  0.14968  0.10227  Biso   1.000  C
  C268     1.0000 0.43662  0.86018  0.07387  Biso   1.000  C
  H305     1.0000 0.50705  0.98824  0.05697  Biso   1.000  H
  H306     1.0000 0.41414  0.96578  0.07086  Biso   1.000  H
  H307     1.0000 0.35575  0.75046  0.09947  Biso   1.000  H
  H308     1.0000 0.31950  0.81734  0.09667  Biso   1.000  H
  C269     1.0000 0.91422  0.08928  0.33336  Biso   1.000  C
  H309     1.0000 0.82038  0.96134  0.34106  Biso   1.000  H
  H310     1.0000 0.85350  0.97995  0.30606  Biso   1.000  H
  C270     1.0000 0.89066  0.30708  0.28331  Biso   1.000  C
  H311     1.0000 0.96456  0.15230  0.29146  Biso   1.000  H
  H312     1.0000 0.98532  0.21950  0.31927  Biso   1.000  H
  C271     1.0000 0.69711  0.42437  0.10028  Biso   1.000  C
  C272     1.0000 0.57562  0.27279  0.10028  Biso   1.000  C
  C273     1.0000 0.96694  0.52096  0.22163  Biso   1.000  C
  C274     1.0000 0.91561  0.45415  0.27137  Biso   1.000  C
  C275     1.0000 0.63852  0.24418  0.10106  Biso   1.000  C
  H313     1.0000 0.65240  0.13225  0.10156  Biso   1.000  H
  H314     1.0000 0.40901  0.83425  0.05396  Biso   1.000  H
  H315     1.0000 0.48838  0.85306  0.07637  Biso   1.000  H
  H316     1.0000 0.96503  0.08085  0.33656  Biso   1.000  H
  H317     1.0000 0.90084  0.10697  0.35327  Biso   1.000  H
  C276     1.0000 0.92095  0.37898  0.26168  Biso   1.000  C
  H318     1.0000 0.87193  0.31374  0.30308  Biso   1.000  H
  H319     1.0000 0.71694  0.48517  0.09917  Biso   1.000  H
  C277     1.0000 0.75582  0.39439  0.10106  Biso   1.000  C
  H320     1.0000 0.51485  0.23178  0.09917  Biso   1.000  H
  C278     1.0000 0.97112  0.44618  0.21127  Biso   1.000  C
  H321     1.0000 0.98374  0.56870  0.20797  Biso   1.000  H
  H322     1.0000 0.89616  0.45598  0.29157  Biso   1.000  H
  C279     1.0000 0.72726  0.30290  0.10028  Biso   1.000  C
  C280     1.0000 0.94582  0.37826  0.23141  Biso   1.000  C
  C281     1.0000 0.85033  0.45989  0.10227  Biso   1.000  C
  C282     1.0000 0.99645  0.44389  0.18037  Biso   1.000  C
  H323     1.0000 0.76824  0.28304  0.09917  Biso   1.000  H
  H324     1.0000 0.94531  0.32726  0.22427  Biso   1.000  H
  N47      1.0000 0.90862  0.43847  0.10411  Biso   1.000  N
  H325     1.0000 0.86774  0.52017  0.10156  Biso   1.000  H
  H326     1.0000 0.99862  0.39348  0.17417  Biso   1.000  H
  N48      1.0000 0.01611  0.50267  0.16051  Biso   1.000  N
  C283     1.0000 0.99875  0.50855  0.10459  Biso   1.000  C
  C284     1.0000 0.04871  0.49457  0.13107  Biso   1.000  C
  C285     1.0000 0.04132  0.50705  0.07408  Biso   1.000  C
  H327     1.0000 0.00121  0.56595  0.10716  Biso   1.000  H
  H328     1.0000 0.04131  0.43475  0.12928  Biso   1.000  H
  C286     1.0000 0.14514  0.56164  0.12987  Biso   1.000  C
  C287     1.0000 0.13982  0.57634  0.07387  Biso   1.000  C
  H329     1.0000 0.01170  0.51874  0.05697  Biso   1.000  H
  H330     1.0000 0.03419  0.44834  0.07086  Biso   1.000  H
  H331     1.0000 0.17541  0.55048  0.14687  Biso   1.000  H
  H332     1.0000 0.15271  0.62055  0.13297  Biso   1.000  H
  C288     1.0000 0.18695  0.55975  0.09947  Biso   1.000  C
  H333     1.0000 0.16572  0.57464  0.05396  Biso   1.000  H
  H334     1.0000 0.14693  0.63525  0.07637  Biso   1.000  H
  H335     1.0000 0.24953  0.60527  0.09947  Biso   1.000  H
  H336     1.0000 0.18264  0.50215  0.09667  Biso   1.000  H
  C289     1.0000 0.19697  0.74346  0.25816  Biso   1.000  C
  C290     1.0000 0.25655  0.73967  0.23327  Biso   1.000  C
  C291     1.0000 0.25649  0.73967  0.23327  Biso   1.000  C
  H337     1.0000 0.14230  0.68638  0.25927  Biso   1.000  H
  H338     1.0000 0.22644  0.75456  0.27837  Biso   1.000  H
  C292     1.0000 0.17507  0.81425  0.25166  Biso   1.000  C
  H339     1.0000 0.14224  0.68638  0.25927  Biso   1.000  H
  C293     1.0000 0.17501  0.81425  0.25166  Biso   1.000  C
  C294     1.0000 0.21826  0.73843  0.20257  Biso   1.000  C
  H340     1.0000 0.31582  0.79113  0.23497  Biso   1.000  H
  H341     1.0000 0.26096  0.68638  0.23596  Biso   1.000  H
  C295     1.0000 0.21824  0.73850  0.20257  Biso   1.000  C
  C296     1.0000 0.19691  0.74346  0.25816  Biso   1.000  C
  C297     1.0000 0.13994  0.80824  0.22067  Biso   1.000  C
  H342     1.0000 0.13156  0.81014  0.26696  Biso   1.000  H
  H343     1.0000 0.22848  0.87198  0.25417  Biso   1.000  H
  H344     1.0000 0.13150  0.81014  0.26696  Biso   1.000  H
  H345     1.0000 0.22842  0.87198  0.25417  Biso   1.000  H
  C298     1.0000 0.19806  0.80785  0.19637  Biso   1.000  C
  H346     1.0000 0.25954  0.74124  0.18657  Biso   1.000  H
  H347     1.0000 0.16386  0.68155  0.20016  Biso   1.000  H
  C299     1.0000 0.19800  0.80785  0.19637  Biso   1.000  C
  H348     1.0000 0.16380  0.68155  0.20016  Biso   1.000  H
  H349     1.0000 0.25948  0.74124  0.18657  Biso   1.000  H
  N49      1.0000 0.12526  0.88204  0.21777  Biso   1.000  N
  H350     1.0000 0.08249  0.75306  0.21917  Biso   1.000  H
  N50      1.0000 0.12520  0.88204  0.21777  Biso   1.000  N
  H351     1.0000 0.08243  0.75306  0.21917  Biso   1.000  H
  N51      1.0000 0.15562  0.79584  0.16597  Biso   1.000  N
  H352     1.0000 0.25357  0.86526  0.19646  Biso   1.000  H
  H353     1.0000 0.25351  0.86526  0.19646  Biso   1.000  H
  C300     1.0000 0.04863  0.86735  0.22087  Biso   1.000  C
  C301     1.0000 0.19415  0.84743  0.14496  Biso   1.000  C
  C302     1.0000 0.19412  0.84749  0.14496  Biso   1.000  C
  C303     1.0000 0.02298  0.93618  0.22106  Biso   1.000  C
  H354     1.0000 0.00364  0.80838  0.22338  Biso   1.000  H
  C304     1.0000 0.02292  0.93618  0.22106  Biso   1.000  C
  H355     1.0000 0.00359  0.80838  0.22338  Biso   1.000  H
  C305     1.0000 0.16037  0.84266  0.11486  Biso   1.000  C
  H356     1.0000 0.25128  0.89439  0.14907  Biso   1.000  H
  C306     1.0000 0.16032  0.84266  0.11486  Biso   1.000  C
  H357     1.0000 0.25122  0.89439  0.14907  Biso   1.000  H
  C307     1.0000 0.93525  0.91163  0.22177  Biso   1.000  C
  C308     1.0000 0.93523  0.91169  0.22177  Biso   1.000  C
  C309     1.0000 0.08833  0.02356  0.22177  Biso   1.000  C
  C310     1.0000 0.20734  0.91398  0.09408  Biso   1.000  C
  C311     1.0000 0.07787  0.77618  0.10537  Biso   1.000  C
  C312     1.0000 0.07781  0.77618  0.10537  Biso   1.000  C
  C313     1.0000 0.20729  0.91398  0.09408  Biso   1.000  C
  C314     1.0000 0.91328  0.97706  0.22106  Biso   1.000  C
  H358     1.0000 0.89135  0.85187  0.22257  Biso   1.000  H
  C315     1.0000 0.91323  0.97706  0.22106  Biso   1.000  C
  H359     1.0000 0.14807  0.03943  0.22257  Biso   1.000  H
  C316     1.0000 0.06384  0.08678  0.22106  Biso   1.000  C
  H360     1.0000 0.14811  0.03950  0.22257  Biso   1.000  H
  C317     1.0000 0.17604  0.91437  0.06546  Biso   1.000  C
  H361     1.0000 0.26146  0.96204  0.10037  Biso   1.000  H
  H362     1.0000 0.26141  0.96204  0.10037  Biso   1.000  H
  C318     1.0000 0.04689  0.77677  0.07736  Biso   1.000  C
  H363     1.0000 0.04320  0.72968  0.11906  Biso   1.000  H
  C319     1.0000 0.04683  0.77677  0.07736  Biso   1.000  C
  H364     1.0000 0.04314  0.72968  0.11906  Biso   1.000  H
  C320     1.0000 0.81875  0.95133  0.22087  Biso   1.000  C
  C321     1.0000 0.81872  0.95140  0.22087  Biso   1.000  C
  C322     1.0000 0.97648  0.06477  0.22177  Biso   1.000  C
  C323     1.0000 0.97637  0.06477  0.22177  Biso   1.000  C
  C324     1.0000 0.13263  0.18128  0.22087  Biso   1.000  C
  C325     1.0000 0.09498  0.84456  0.05676  Biso   1.000  C
  C326     1.0000 0.22587  0.98836  0.04335  Biso   1.000  C
  C327     1.0000 0.09492  0.84456  0.05676  Biso   1.000  C
  C328     1.0000 0.22581  0.98836  0.04335  Biso   1.000  C
  C329     1.0000 0.95915  0.70695  0.06847  Biso   1.000  C
  C330     1.0000 0.95910  0.70695  0.06847  Biso   1.000  C
  N52      1.0000 0.75686  0.87473  0.21777  Biso   1.000  N
  H365     1.0000 0.80477  0.99633  0.22338  Biso   1.000  H
  N53      1.0000 0.75684  0.87479  0.21777  Biso   1.000  N
  H366     1.0000 0.80474  0.99640  0.22338  Biso   1.000  H
  H367     1.0000 0.80471  0.99633  0.22338  Biso   1.000  H
  H368     1.0000 0.96058  0.10866  0.22257  Biso   1.000  H
  H369     1.0000 0.96053  0.10866  0.22257  Biso   1.000  H
  N54      1.0000 0.11792  0.24313  0.21777  Biso   1.000  N
  H370     1.0000 0.19166  0.19526  0.22338  Biso   1.000  H
  N55      1.0000 0.11795  0.24319  0.21777  Biso   1.000  N
  H371     1.0000 0.07267  0.84338  0.03676  Biso   1.000  H
  H372     1.0000 0.07261  0.84338  0.03676  Biso   1.000  H
  H373     1.0000 0.20310  0.98568  0.02338  Biso   1.000  H
  H374     1.0000 0.20304  0.98568  0.02338  Biso   1.000  H
  N56      1.0000 0.29730  0.05374  0.05093  Biso   1.000  N
  N57      1.0000 0.92265  0.70238  0.04358  Biso   1.000  N
  H375     1.0000 0.92775  0.66156  0.08287  Biso   1.000  H
  C331     1.0000 0.66835  0.86003  0.22067  Biso   1.000  C
  C332     1.0000 0.66833  0.86010  0.22067  Biso   1.000  C
  C333     1.0000 0.19172  0.33168  0.22067  Biso   1.000  C
  C334     1.0000 0.34592  0.11806  0.02622  Biso   1.000  C
  C335     1.0000 0.83436  0.62467  0.03835  Biso   1.000  C
  C336     1.0000 0.83431  0.62467  0.03835  Biso   1.000  C
  C337     1.0000 0.60986  0.80198  0.19637  Biso   1.000  C
  C338     1.0000 0.63928  0.82496  0.25166  Biso   1.000  C
  H376     1.0000 0.67065  0.91757  0.21917  Biso   1.000  H
  C339     1.0000 0.63922  0.82496  0.25166  Biso   1.000  C
  C340     1.0000 0.19210  0.39013  0.19637  Biso   1.000  C
  C341     1.0000 0.18577  0.36075  0.25166  Biso   1.000  C
  H377     1.0000 0.24693  0.32933  0.21917  Biso   1.000  H
  C342     1.0000 0.19213  0.39020  0.19637  Biso   1.000  C
  C343     1.0000 0.18572  0.36075  0.25166  Biso   1.000  C
  H378     1.0000 0.24696  0.32940  0.21917  Biso   1.000  H
  C344     1.0000 0.37530  0.20962  0.03835  Biso   1.000  C
  C345     1.0000 0.42571  0.11023  0.01706  Biso   1.000  C
  H379     1.0000 0.30712  0.10585  0.00797  Biso   1.000  H
  C346     1.0000 0.37528  0.20969  0.03835  Biso   1.000  C
  C347     1.0000 0.42574  0.11029  0.01706  Biso   1.000  C
  H380     1.0000 0.81115  0.59058  0.05777  Biso   1.000  H
  C348     1.0000 0.84547  0.56804  0.01327  Biso   1.000  C
  C349     1.0000 0.77214  0.65405  0.02622  Biso   1.000  C
  C350     1.0000 0.84542  0.56804  0.01327  Biso   1.000  C
  N58      1.0000 0.64027  0.84436  0.16597  Biso   1.000  N
  H381     1.0000 0.61174  0.74646  0.19646  Biso   1.000  H
  C351     1.0000 0.52027  0.78173  0.20257  Biso   1.000  C
  N59      1.0000 0.64021  0.84436  0.16597  Biso   1.000  N
  C352     1.0000 0.52025  0.78180  0.20257  Biso   1.000  C
  C353     1.0000 0.54656  0.80309  0.25816  Biso   1.000  C
  H382     1.0000 0.67867  0.86846  0.26696  Biso   1.000  H
  H383     1.0000 0.64356  0.77154  0.25417  Biso   1.000  H
  H384     1.0000 0.67862  0.86846  0.26696  Biso   1.000  H
  H385     1.0000 0.64351  0.77154  0.25417  Biso   1.000  H
  N60      1.0000 0.20412  0.35977  0.16597  Biso   1.000  N
  H386     1.0000 0.13476  0.38824  0.19646  Biso   1.000  H
  C354     1.0000 0.26156  0.47974  0.20257  Biso   1.000  C
  H387     1.0000 0.13465  0.38824  0.19646  Biso   1.000  H
  C355     1.0000 0.26144  0.47974  0.20257  Biso   1.000  C
  C356     1.0000 0.25658  0.45348  0.25816  Biso   1.000  C
  H388     1.0000 0.18984  0.32137  0.26696  Biso   1.000  H
  H389     1.0000 0.12797  0.35644  0.25417  Biso   1.000  H
  C357     1.0000 0.25646  0.45348  0.25816  Biso   1.000  C
  N61      1.0000 0.29760  0.22027  0.04358  Biso   1.000  N
  H390     1.0000 0.40943  0.22053  0.05777  Biso   1.000  H
  C358     1.0000 0.43195  0.27735  0.01327  Biso   1.000  C
  H391     1.0000 0.40946  0.22060  0.05777  Biso   1.000  H
  C359     1.0000 0.43190  0.27735  0.01327  Biso   1.000  C
  C360     1.0000 0.47811  0.17397  0.99307  Biso   1.000  C
  H392     1.0000 0.46268  0.12015  0.03548  Biso   1.000  H
  H393     1.0000 0.40590  0.05047  0.00958  Biso   1.000  H
  H394     1.0000 0.87499  0.60468  0.99518  Biso   1.000  H
  H395     1.0000 0.87493  0.60468  0.99518  Biso   1.000  H
  H396     1.0000 0.88255  0.54538  0.02138  Biso   1.000  H
  C361     1.0000 0.75502  0.49052  0.00367  Biso   1.000  C
  C362     1.0000 0.75505  0.49059  0.00367  Biso   1.000  C
  N62      1.0000 0.75645  0.70264  0.05093  Biso   1.000  N
  C363     1.0000 0.68456  0.57425  0.01706  Biso   1.000  C
  H397     1.0000 0.79877  0.69285  0.00797  Biso   1.000  H
  C364     1.0000 0.68450  0.57425  0.01706  Biso   1.000  C
  H398     1.0000 0.79872  0.69285  0.00797  Biso   1.000  H
  C365     1.0000 0.65335  0.80583  0.14496  Biso   1.000  C
  C366     1.0000 0.65333  0.80589  0.14496  Biso   1.000  C
  H399     1.0000 0.48176  0.74046  0.18657  Biso   1.000  H
  H400     1.0000 0.51772  0.83613  0.20016  Biso   1.000  H
  C367     1.0000 0.48315  0.74346  0.23327  Biso   1.000  C
  H401     1.0000 0.48170  0.74046  0.18657  Biso   1.000  H
  H402     1.0000 0.51775  0.83620  0.20016  Biso   1.000  H
  H403     1.0000 0.54414  0.85775  0.25927  Biso   1.000  H
  H404     1.0000 0.52818  0.77357  0.27837  Biso   1.000  H
  H405     1.0000 0.52812  0.77357  0.27837  Biso   1.000  H
  C368     1.0000 0.15248  0.34664  0.14496  Biso   1.000  C
  H406     1.0000 0.25871  0.51827  0.18657  Biso   1.000  H
  H407     1.0000 0.31848  0.48228  0.20016  Biso   1.000  H
  C369     1.0000 0.26037  0.51683  0.23327  Biso   1.000  C
  H408     1.0000 0.31843  0.48228  0.20016  Biso   1.000  H
  C370     1.0000 0.26034  0.51690  0.23327  Biso   1.000  C
  H409     1.0000 0.31363  0.45583  0.25927  Biso   1.000  H
  H410     1.0000 0.24545  0.47183  0.27837  Biso   1.000  H
  H411     1.0000 0.31366  0.45590  0.25927  Biso   1.000  H
  H412     1.0000 0.24537  0.47190  0.27837  Biso   1.000  H
  C371     1.0000 0.29306  0.25214  0.06847  Biso   1.000  C
  C372     1.0000 0.29300  0.25214  0.06847  Biso   1.000  C
  H413     1.0000 0.39537  0.27023  0.99518  Biso   1.000  H
  H414     1.0000 0.39534  0.27029  0.99518  Biso   1.000  H
  H415     1.0000 0.45463  0.33717  0.02138  Biso   1.000  H
  C373     1.0000 0.50945  0.26448  0.00367  Biso   1.000  C
  H416     1.0000 0.45457  0.33717  0.02138  Biso   1.000  H
  H417     1.0000 0.44225  0.16254  0.97437  Biso   1.000  H
  H418     1.0000 0.52878  0.16717  0.98767  Biso   1.000  H
  H419     1.0000 0.44219  0.16254  0.97437  Biso   1.000  H
  H420     1.0000 0.76305  0.45715  0.98696  Biso   1.000  H
  C374     1.0000 0.69587  0.52187  0.99307  Biso   1.000  C
  C375     1.0000 0.69581  0.52187  0.99307  Biso   1.000  C
  H421     1.0000 0.72823  0.45075  0.02138  Biso   1.000  H
  C376     1.0000 0.76256  0.77415  0.04335  Biso   1.000  C
  C377     1.0000 0.76251  0.77415  0.04335  Biso   1.000  C
  H422     1.0000 0.65748  0.53728  0.03548  Biso   1.000  H
  H423     1.0000 0.64457  0.59404  0.00958  Biso   1.000  H
  H424     1.0000 0.65742  0.53728  0.03548  Biso   1.000  H
  H425     1.0000 0.64451  0.59404  0.00958  Biso   1.000  H
  C378     1.0000 0.68237  0.83966  0.11486  Biso   1.000  C
  H426     1.0000 0.64314  0.74875  0.14907  Biso   1.000  H
  C379     1.0000 0.68231  0.83966  0.11486  Biso   1.000  C
  H427     1.0000 0.47533  0.68416  0.23497  Biso   1.000  H
  H428     1.0000 0.42548  0.73908  0.23596  Biso   1.000  H
  H429     1.0000 0.42542  0.73908  0.23596  Biso   1.000  H
  C380     1.0000 0.15732  0.31764  0.11486  Biso   1.000  C
  H430     1.0000 0.10565  0.35683  0.14907  Biso   1.000  H
  H431     1.0000 0.10557  0.35689  0.14907  Biso   1.000  H
  H432     1.0000 0.20880  0.52467  0.23497  Biso   1.000  H
  H433     1.0000 0.31367  0.57456  0.23596  Biso   1.000  H
  H434     1.0000 0.31355  0.57456  0.23596  Biso   1.000  H
  C381     1.0000 0.22316  0.27003  0.07736  Biso   1.000  C
  H435     1.0000 0.33842  0.26618  0.08287  Biso   1.000  H
  C382     1.0000 0.22319  0.27010  0.07736  Biso   1.000  C
  H436     1.0000 0.54285  0.30582  0.98696  Biso   1.000  H
  H437     1.0000 0.54277  0.30589  0.98696  Biso   1.000  H
  H438     1.0000 0.54921  0.27748  0.02138  Biso   1.000  H
  H439     1.0000 0.72035  0.55773  0.97437  Biso   1.000  H
  H440     1.0000 0.63837  0.47113  0.98767  Biso   1.000  H
  H441     1.0000 0.72033  0.55779  0.97437  Biso   1.000  H
  H442     1.0000 0.63835  0.47119  0.98767  Biso   1.000  H
  C383     1.0000 0.73839  0.82398  0.06546  Biso   1.000  C
  H443     1.0000 0.78267  0.79695  0.02338  Biso   1.000  H
  C384     1.0000 0.73833  0.82398  0.06546  Biso   1.000  C
  H444     1.0000 0.78261  0.79695  0.02338  Biso   1.000  H
  C385     1.0000 0.70665  0.79264  0.09408  Biso   1.000  C
  C386     1.0000 0.70659  0.79264  0.09408  Biso   1.000  C
  C387     1.0000 0.69833  0.92214  0.10537  Biso   1.000  C
  C388     1.0000 0.22381  0.30164  0.10537  Biso   1.000  C
  C389     1.0000 0.22375  0.30164  0.10537  Biso   1.000  C
  C390     1.0000 0.08607  0.29335  0.09408  Biso   1.000  C
  C391     1.0000 0.08596  0.29335  0.09408  Biso   1.000  C
  C392     1.0000 0.15542  0.25038  0.05676  Biso   1.000  C
  C393     1.0000 0.74967  0.90503  0.05676  Biso   1.000  C
  C394     1.0000 0.74965  0.90510  0.05676  Biso   1.000  C
  H445     1.0000 0.70065  0.73856  0.10037  Biso   1.000  H
  H446     1.0000 0.70060  0.73856  0.10037  Biso   1.000  H
  C395     1.0000 0.72996  0.95316  0.07736  Biso   1.000  C
  C396     1.0000 0.72990  0.95316  0.07736  Biso   1.000  C
  H447     1.0000 0.68658  0.95688  0.11906  Biso   1.000  H
  H448     1.0000 0.68652  0.95688  0.11906  Biso   1.000  H
  H449     1.0000 0.27033  0.31346  0.11906  Biso   1.000  H
  C397     1.0000 0.08568  0.26167  0.06546  Biso   1.000  C
  C398     1.0000 0.08562  0.26167  0.06546  Biso   1.000  C
  H450     1.0000 0.03795  0.29936  0.10037  Biso   1.000  H
  H451     1.0000 0.15664  0.22928  0.03676  Biso   1.000  H
  H452     1.0000 0.77074  0.92737  0.03676  Biso   1.000  H
  C399     1.0000 0.74780  0.04087  0.06847  Biso   1.000  C
  C400     1.0000 0.01157  0.23745  0.04335  Biso   1.000  C
  N63      1.0000 0.77979  0.07738  0.04358  Biso   1.000  N
  H453     1.0000 0.73387  0.07228  0.08287  Biso   1.000  H
  N64      1.0000 0.77974  0.07738  0.04358  Biso   1.000  N
  N65      1.0000 0.94626  0.24358  0.05093  Biso   1.000  N
  H454     1.0000 0.01435  0.21733  0.02338  Biso   1.000  H
  H455     1.0000 0.01433  0.21740  0.02338  Biso   1.000  H
  C401     1.0000 0.79035  0.16567  0.03835  Biso   1.000  C
  C402     1.0000 0.88189  0.22784  0.02622  Biso   1.000  C
  H456     1.0000 0.77937  0.18886  0.05777  Biso   1.000  H
  C403     1.0000 0.72264  0.15457  0.01327  Biso   1.000  C
  C404     1.0000 0.88971  0.31542  0.01706  Biso   1.000  C
  H457     1.0000 0.89411  0.20126  0.00797  Biso   1.000  H
  C405     1.0000 0.88974  0.31549  0.01706  Biso   1.000  C
  H458     1.0000 0.72971  0.12505  0.99518  Biso   1.000  H
  H459     1.0000 0.72965  0.12505  0.99518  Biso   1.000  H
  H460     1.0000 0.66280  0.11748  0.02138  Biso   1.000  H
  C406     1.0000 0.73554  0.24496  0.00367  Biso   1.000  C
  C407     1.0000 0.82603  0.30412  0.99307  Biso   1.000  C
  C408     1.0000 0.82607  0.30419  0.99307  Biso   1.000  C
  H461     1.0000 0.87985  0.34252  0.03548  Biso   1.000  H
  H462     1.0000 0.94949  0.35546  0.00958  Biso   1.000  H
  H463     1.0000 0.87977  0.34259  0.03548  Biso   1.000  H
  H464     1.0000 0.69414  0.23692  0.98696  Biso   1.000  H
  H465     1.0000 0.69417  0.23699  0.98696  Biso   1.000  H
  H466     1.0000 0.72257  0.27173  0.02138  Biso   1.000  H
  H467     1.0000 0.72255  0.27180  0.02138  Biso   1.000  H
  H468     1.0000 0.83737  0.27963  0.97437  Biso   1.000  H
  H469     1.0000 0.83286  0.36166  0.98767  Biso   1.000  H
  H470     1.0000 0.83741  0.27970  0.97437  Biso   1.000  H
  C409     1.0000 0.19697  0.74346  0.25816  Biso   1.000  C
  C410     1.0000 0.25655  0.73967  0.23327  Biso   1.000  C
  C411     1.0000 0.25649  0.73967  0.23327  Biso   1.000  C
  H471     1.0000 0.22644  0.75456  0.27837  Biso   1.000  H
  H472     1.0000 0.14230  0.68638  0.25927  Biso   1.000  H
  C412     1.0000 0.17501  0.81425  0.25166  Biso   1.000  C
  H473     1.0000 0.14224  0.68638  0.25927  Biso   1.000  H
  C413     1.0000 0.17507  0.81425  0.25166  Biso   1.000  C
  H474     1.0000 0.31582  0.79113  0.23497  Biso   1.000  H
  H475     1.0000 0.26096  0.68638  0.23596  Biso   1.000  H
  C414     1.0000 0.21826  0.73843  0.20257  Biso   1.000  C
  C415     1.0000 0.21824  0.73850  0.20257  Biso   1.000  C
  C416     1.0000 0.19691  0.74346  0.25816  Biso   1.000  C
  C417     1.0000 0.13994  0.80824  0.22067  Biso   1.000  C
  H476     1.0000 0.13150  0.81014  0.26696  Biso   1.000  H
  H477     1.0000 0.22842  0.87198  0.25417  Biso   1.000  H
  H478     1.0000 0.13156  0.81014  0.26696  Biso   1.000  H
  H479     1.0000 0.22848  0.87198  0.25417  Biso   1.000  H
  H480     1.0000 0.25954  0.74124  0.18657  Biso   1.000  H
  C418     1.0000 0.19800  0.80785  0.19637  Biso   1.000  C
  H481     1.0000 0.16380  0.68155  0.20016  Biso   1.000  H
  C419     1.0000 0.19806  0.80785  0.19637  Biso   1.000  C
  H482     1.0000 0.16386  0.68155  0.20016  Biso   1.000  H
  H483     1.0000 0.25948  0.74124  0.18657  Biso   1.000  H
  N66      1.0000 0.12520  0.88204  0.21777  Biso   1.000  N
  H484     1.0000 0.08249  0.75306  0.21917  Biso   1.000  H
  H485     1.0000 0.08243  0.75306  0.21917  Biso   1.000  H
  N67      1.0000 0.12526  0.88204  0.21777  Biso   1.000  N
  N68      1.0000 0.15562  0.79584  0.16597  Biso   1.000  N
  H486     1.0000 0.25357  0.86526  0.19646  Biso   1.000  H
  H487     1.0000 0.25351  0.86526  0.19646  Biso   1.000  H
  C420     1.0000 0.04863  0.86735  0.22087  Biso   1.000  C
  C421     1.0000 0.19415  0.84743  0.14496  Biso   1.000  C
  C422     1.0000 0.19412  0.84749  0.14496  Biso   1.000  C
  H488     1.0000 0.00364  0.80838  0.22338  Biso   1.000  H
  C423     1.0000 0.02298  0.93618  0.22106  Biso   1.000  C
  C424     1.0000 0.02292  0.93618  0.22106  Biso   1.000  C
  H489     1.0000 0.00359  0.80838  0.22338  Biso   1.000  H
  C425     1.0000 0.16037  0.84266  0.11486  Biso   1.000  C
  H490     1.0000 0.25122  0.89439  0.14907  Biso   1.000  H
  C426     1.0000 0.16032  0.84266  0.11486  Biso   1.000  C
  H491     1.0000 0.25128  0.89439  0.14907  Biso   1.000  H
  C427     1.0000 0.93525  0.91163  0.22177  Biso   1.000  C
  C428     1.0000 0.93523  0.91169  0.22177  Biso   1.000  C
  C429     1.0000 0.08833  0.02356  0.22177  Biso   1.000  C
  C430     1.0000 0.20734  0.91398  0.09408  Biso   1.000  C
  C431     1.0000 0.07787  0.77618  0.10537  Biso   1.000  C
  C432     1.0000 0.07781  0.77618  0.10537  Biso   1.000  C
  C433     1.0000 0.20729  0.91398  0.09408  Biso   1.000  C
  C434     1.0000 0.91328  0.97706  0.22106  Biso   1.000  C
  H492     1.0000 0.89135  0.85187  0.22257  Biso   1.000  H
  C435     1.0000 0.91323  0.97706  0.22106  Biso   1.000  C
  C436     1.0000 0.06384  0.08678  0.22106  Biso   1.000  C
  H493     1.0000 0.14807  0.03943  0.22257  Biso   1.000  H
  H494     1.0000 0.14811  0.03950  0.22257  Biso   1.000  H
  C437     1.0000 0.17604  0.91437  0.06546  Biso   1.000  C
  H495     1.0000 0.26146  0.96204  0.10037  Biso   1.000  H
  H496     1.0000 0.26141  0.96204  0.10037  Biso   1.000  H
  C438     1.0000 0.04689  0.77677  0.07736  Biso   1.000  C
  H497     1.0000 0.04314  0.72968  0.11906  Biso   1.000  H
  C439     1.0000 0.04683  0.77677  0.07736  Biso   1.000  C
  H498     1.0000 0.04320  0.72968  0.11906  Biso   1.000  H
  C440     1.0000 0.81875  0.95133  0.22087  Biso   1.000  C
  C441     1.0000 0.81872  0.95140  0.22087  Biso   1.000  C
  C442     1.0000 0.97648  0.06477  0.22177  Biso   1.000  C
  C443     1.0000 0.97637  0.06477  0.22177  Biso   1.000  C
  C444     1.0000 0.13263  0.18128  0.22087  Biso   1.000  C
  C445     1.0000 0.09498  0.84456  0.05676  Biso   1.000  C
  C446     1.0000 0.22587  0.98836  0.04335  Biso   1.000  C
  C447     1.0000 0.09492  0.84456  0.05676  Biso   1.000  C
  C448     1.0000 0.22581  0.98836  0.04335  Biso   1.000  C
  C449     1.0000 0.95915  0.70695  0.06847  Biso   1.000  C
  C450     1.0000 0.95910  0.70695  0.06847  Biso   1.000  C
  N69      1.0000 0.75686  0.87473  0.21777  Biso   1.000  N
  H499     1.0000 0.80477  0.99633  0.22338  Biso   1.000  H
  N70      1.0000 0.75684  0.87479  0.21777  Biso   1.000  N
  H500     1.0000 0.80474  0.99640  0.22338  Biso   1.000  H
  H501     1.0000 0.80471  0.99633  0.22338  Biso   1.000  H
  H502     1.0000 0.96058  0.10866  0.22257  Biso   1.000  H
  H503     1.0000 0.96053  0.10866  0.22257  Biso   1.000  H
  N71      1.0000 0.11792  0.24313  0.21777  Biso   1.000  N
  H504     1.0000 0.19166  0.19526  0.22338  Biso   1.000  H
  N72      1.0000 0.11795  0.24319  0.21777  Biso   1.000  N
  H505     1.0000 0.07267  0.84338  0.03676  Biso   1.000  H
  H506     1.0000 0.07261  0.84338  0.03676  Biso   1.000  H
  N73      1.0000 0.29730  0.05374  0.05093  Biso   1.000  N
  H507     1.0000 0.20304  0.98568  0.02338  Biso   1.000  H
  H508     1.0000 0.20310  0.98568  0.02338  Biso   1.000  H
  N74      1.0000 0.92265  0.70238  0.04358  Biso   1.000  N
  H509     1.0000 0.92775  0.66156  0.08287  Biso   1.000  H
  C451     1.0000 0.66835  0.86003  0.22067  Biso   1.000  C
  C452     1.0000 0.66833  0.86010  0.22067  Biso   1.000  C
  C453     1.0000 0.19172  0.33168  0.22067  Biso   1.000  C
  C454     1.0000 0.34592  0.11806  0.02622  Biso   1.000  C
  C455     1.0000 0.83436  0.62467  0.03835  Biso   1.000  C
  C456     1.0000 0.83431  0.62467  0.03835  Biso   1.000  C
  C457     1.0000 0.60986  0.80198  0.19637  Biso   1.000  C
  C458     1.0000 0.63928  0.82496  0.25166  Biso   1.000  C
  H510     1.0000 0.67065  0.91757  0.21917  Biso   1.000  H
  C459     1.0000 0.63922  0.82496  0.25166  Biso   1.000  C
  C460     1.0000 0.19210  0.39013  0.19637  Biso   1.000  C
  C461     1.0000 0.18577  0.36075  0.25166  Biso   1.000  C
  H511     1.0000 0.24693  0.32933  0.21917  Biso   1.000  H
  C462     1.0000 0.19213  0.39020  0.19637  Biso   1.000  C
  C463     1.0000 0.18572  0.36075  0.25166  Biso   1.000  C
  H512     1.0000 0.24696  0.32940  0.21917  Biso   1.000  H
  H513     1.0000 0.30712  0.10585  0.00797  Biso   1.000  H
  C464     1.0000 0.37530  0.20962  0.03835  Biso   1.000  C
  C465     1.0000 0.42571  0.11023  0.01706  Biso   1.000  C
  C466     1.0000 0.37528  0.20969  0.03835  Biso   1.000  C
  C467     1.0000 0.42574  0.11029  0.01706  Biso   1.000  C
  H514     1.0000 0.81115  0.59058  0.05777  Biso   1.000  H
  C468     1.0000 0.84547  0.56804  0.01327  Biso   1.000  C
  C469     1.0000 0.77214  0.65405  0.02622  Biso   1.000  C
  C470     1.0000 0.84542  0.56804  0.01327  Biso   1.000  C
  N75      1.0000 0.64027  0.84436  0.16597  Biso   1.000  N
  H515     1.0000 0.61174  0.74646  0.19646  Biso   1.000  H
  C471     1.0000 0.52027  0.78173  0.20257  Biso   1.000  C
  N76      1.0000 0.64021  0.84436  0.16597  Biso   1.000  N
  C472     1.0000 0.52025  0.78180  0.20257  Biso   1.000  C
  C473     1.0000 0.54656  0.80309  0.25816  Biso   1.000  C
  H516     1.0000 0.67867  0.86846  0.26696  Biso   1.000  H
  H517     1.0000 0.64356  0.77154  0.25417  Biso   1.000  H
  H518     1.0000 0.67862  0.86846  0.26696  Biso   1.000  H
  H519     1.0000 0.64351  0.77154  0.25417  Biso   1.000  H
  N77      1.0000 0.20412  0.35977  0.16597  Biso   1.000  N
  H520     1.0000 0.13476  0.38824  0.19646  Biso   1.000  H
  C474     1.0000 0.26156  0.47974  0.20257  Biso   1.000  C
  H521     1.0000 0.13465  0.38824  0.19646  Biso   1.000  H
  C475     1.0000 0.26144  0.47974  0.20257  Biso   1.000  C
  C476     1.0000 0.25658  0.45348  0.25816  Biso   1.000  C
  H522     1.0000 0.18984  0.32137  0.26696  Biso   1.000  H
  H523     1.0000 0.12797  0.35644  0.25417  Biso   1.000  H
  C477     1.0000 0.25646  0.45348  0.25816  Biso   1.000  C
  N78      1.0000 0.29760  0.22027  0.04358  Biso   1.000  N
  H524     1.0000 0.40943  0.22053  0.05777  Biso   1.000  H
  C478     1.0000 0.43195  0.27735  0.01327  Biso   1.000  C
  H525     1.0000 0.40946  0.22060  0.05777  Biso   1.000  H
  C479     1.0000 0.43190  0.27735  0.01327  Biso   1.000  C
  C480     1.0000 0.47811  0.17397  0.99307  Biso   1.000  C
  H526     1.0000 0.46268  0.12015  0.03548  Biso   1.000  H
  H527     1.0000 0.40590  0.05047  0.00958  Biso   1.000  H
  H528     1.0000 0.87499  0.60468  0.99518  Biso   1.000  H
  H529     1.0000 0.87493  0.60468  0.99518  Biso   1.000  H
  H530     1.0000 0.88255  0.54538  0.02138  Biso   1.000  H
  C481     1.0000 0.75502  0.49052  0.00367  Biso   1.000  C
  C482     1.0000 0.75505  0.49059  0.00367  Biso   1.000  C
  N79      1.0000 0.75645  0.70264  0.05093  Biso   1.000  N
  C483     1.0000 0.68456  0.57425  0.01706  Biso   1.000  C
  H531     1.0000 0.79877  0.69285  0.00797  Biso   1.000  H
  C484     1.0000 0.68450  0.57425  0.01706  Biso   1.000  C
  H532     1.0000 0.79872  0.69285  0.00797  Biso   1.000  H
  C485     1.0000 0.65335  0.80583  0.14496  Biso   1.000  C
  C486     1.0000 0.65333  0.80589  0.14496  Biso   1.000  C
  H533     1.0000 0.48176  0.74046  0.18657  Biso   1.000  H
  H534     1.0000 0.51772  0.83613  0.20016  Biso   1.000  H
  C487     1.0000 0.48315  0.74346  0.23327  Biso   1.000  C
  H535     1.0000 0.48170  0.74046  0.18657  Biso   1.000  H
  H536     1.0000 0.51775  0.83620  0.20016  Biso   1.000  H
  H537     1.0000 0.54414  0.85775  0.25927  Biso   1.000  H
  H538     1.0000 0.52818  0.77357  0.27837  Biso   1.000  H
  H539     1.0000 0.52812  0.77357  0.27837  Biso   1.000  H
  C488     1.0000 0.15248  0.34664  0.14496  Biso   1.000  C
  H540     1.0000 0.25871  0.51827  0.18657  Biso   1.000  H
  H541     1.0000 0.31848  0.48228  0.20016  Biso   1.000  H
  C489     1.0000 0.26037  0.51683  0.23327  Biso   1.000  C
  H542     1.0000 0.31843  0.48228  0.20016  Biso   1.000  H
  C490     1.0000 0.26034  0.51690  0.23327  Biso   1.000  C
  H543     1.0000 0.31363  0.45583  0.25927  Biso   1.000  H
  H544     1.0000 0.24545  0.47183  0.27837  Biso   1.000  H
  H545     1.0000 0.31366  0.45590  0.25927  Biso   1.000  H
  H546     1.0000 0.24537  0.47190  0.27837  Biso   1.000  H
  C491     1.0000 0.29306  0.25214  0.06847  Biso   1.000  C
  C492     1.0000 0.29300  0.25214  0.06847  Biso   1.000  C
  H547     1.0000 0.39537  0.27023  0.99518  Biso   1.000  H
  H548     1.0000 0.39534  0.27029  0.99518  Biso   1.000  H
  H549     1.0000 0.45463  0.33717  0.02138  Biso   1.000  H
  C493     1.0000 0.50945  0.26448  0.00367  Biso   1.000  C
  H550     1.0000 0.45457  0.33717  0.02138  Biso   1.000  H
  H551     1.0000 0.44225  0.16254  0.97437  Biso   1.000  H
  H552     1.0000 0.52878  0.16717  0.98767  Biso   1.000  H
  H553     1.0000 0.44219  0.16254  0.97437  Biso   1.000  H
  H554     1.0000 0.76305  0.45715  0.98696  Biso   1.000  H
  C494     1.0000 0.69587  0.52187  0.99307  Biso   1.000  C
  C495     1.0000 0.69581  0.52187  0.99307  Biso   1.000  C
  H555     1.0000 0.72823  0.45075  0.02138  Biso   1.000  H
  C496     1.0000 0.76256  0.77415  0.04335  Biso   1.000  C
  C497     1.0000 0.76251  0.77415  0.04335  Biso   1.000  C
  H556     1.0000 0.65748  0.53728  0.03548  Biso   1.000  H
  H557     1.0000 0.64457  0.59404  0.00958  Biso   1.000  H
  H558     1.0000 0.65742  0.53728  0.03548  Biso   1.000  H
  H559     1.0000 0.64451  0.59404  0.00958  Biso   1.000  H
  C498     1.0000 0.68237  0.83966  0.11486  Biso   1.000  C
  H560     1.0000 0.64314  0.74875  0.14907  Biso   1.000  H
  C499     1.0000 0.68231  0.83966  0.11486  Biso   1.000  C
  H561     1.0000 0.47533  0.68416  0.23497  Biso   1.000  H
  H562     1.0000 0.42548  0.73908  0.23596  Biso   1.000  H
  H563     1.0000 0.42542  0.73908  0.23596  Biso   1.000  H
  C500     1.0000 0.15732  0.31764  0.11486  Biso   1.000  C
  H564     1.0000 0.10565  0.35683  0.14907  Biso   1.000  H
  H565     1.0000 0.10557  0.35689  0.14907  Biso   1.000  H
  H566     1.0000 0.20880  0.52467  0.23497  Biso   1.000  H
  H567     1.0000 0.31367  0.57456  0.23596  Biso   1.000  H
  H568     1.0000 0.31355  0.57456  0.23596  Biso   1.000  H
  H569     1.0000 0.33842  0.26618  0.08287  Biso   1.000  H
  C501     1.0000 0.22316  0.27003  0.07736  Biso   1.000  C
  C502     1.0000 0.22319  0.27010  0.07736  Biso   1.000  C
  H570     1.0000 0.54285  0.30582  0.98696  Biso   1.000  H
  H571     1.0000 0.54277  0.30589  0.98696  Biso   1.000  H
  H572     1.0000 0.54921  0.27748  0.02138  Biso   1.000  H
  H573     1.0000 0.72035  0.55773  0.97437  Biso   1.000  H
  H574     1.0000 0.63837  0.47113  0.98767  Biso   1.000  H
  H575     1.0000 0.72033  0.55779  0.97437  Biso   1.000  H
  H576     1.0000 0.63835  0.47119  0.98767  Biso   1.000  H
  C503     1.0000 0.73839  0.82398  0.06546  Biso   1.000  C
  H577     1.0000 0.78267  0.79695  0.02338  Biso   1.000  H
  C504     1.0000 0.73833  0.82398  0.06546  Biso   1.000  C
  H578     1.0000 0.78261  0.79695  0.02338  Biso   1.000  H
  C505     1.0000 0.70665  0.79264  0.09408  Biso   1.000  C
  C506     1.0000 0.70659  0.79264  0.09408  Biso   1.000  C
  C507     1.0000 0.69833  0.92214  0.10537  Biso   1.000  C
  C508     1.0000 0.22381  0.30164  0.10537  Biso   1.000  C
  C509     1.0000 0.22375  0.30164  0.10537  Biso   1.000  C
  C510     1.0000 0.08607  0.29335  0.09408  Biso   1.000  C
  C511     1.0000 0.08596  0.29335  0.09408  Biso   1.000  C
  C512     1.0000 0.15542  0.25038  0.05676  Biso   1.000  C
  C513     1.0000 0.74967  0.90503  0.05676  Biso   1.000  C
  C514     1.0000 0.74965  0.90510  0.05676  Biso   1.000  C
  H579     1.0000 0.70065  0.73856  0.10037  Biso   1.000  H
  H580     1.0000 0.70060  0.73856  0.10037  Biso   1.000  H
  C515     1.0000 0.72996  0.95316  0.07736  Biso   1.000  C
  C516     1.0000 0.72990  0.95316  0.07736  Biso   1.000  C
  H581     1.0000 0.68658  0.95688  0.11906  Biso   1.000  H
  H582     1.0000 0.68652  0.95688  0.11906  Biso   1.000  H
  H583     1.0000 0.27033  0.31346  0.11906  Biso   1.000  H
  C517     1.0000 0.08568  0.26167  0.06546  Biso   1.000  C
  C518     1.0000 0.08562  0.26167  0.06546  Biso   1.000  C
  H584     1.0000 0.03795  0.29936  0.10037  Biso   1.000  H
  H585     1.0000 0.15664  0.22928  0.03676  Biso   1.000  H
  H586     1.0000 0.77074  0.92737  0.03676  Biso   1.000  H
  C519     1.0000 0.74780  0.04087  0.06847  Biso   1.000  C
  C520     1.0000 0.01157  0.23745  0.04335  Biso   1.000  C
  N80      1.0000 0.77979  0.07738  0.04358  Biso   1.000  N
  H587     1.0000 0.73387  0.07228  0.08287  Biso   1.000  H
  N81      1.0000 0.77974  0.07738  0.04358  Biso   1.000  N
  N82      1.0000 0.94626  0.24358  0.05093  Biso   1.000  N
  H588     1.0000 0.01435  0.21733  0.02338  Biso   1.000  H
  H589     1.0000 0.01433  0.21740  0.02338  Biso   1.000  H
  C521     1.0000 0.79035  0.16567  0.03835  Biso   1.000  C
  C522     1.0000 0.88189  0.22784  0.02622  Biso   1.000  C
  H590     1.0000 0.77937  0.18886  0.05777  Biso   1.000  H
  C523     1.0000 0.72264  0.15457  0.01327  Biso   1.000  C
  H591     1.0000 0.89411  0.20126  0.00797  Biso   1.000  H
  C524     1.0000 0.88971  0.31542  0.01706  Biso   1.000  C
  C525     1.0000 0.88974  0.31549  0.01706  Biso   1.000  C
  H592     1.0000 0.72971  0.12505  0.99518  Biso   1.000  H
  H593     1.0000 0.72965  0.12505  0.99518  Biso   1.000  H
  H594     1.0000 0.66280  0.11748  0.02138  Biso   1.000  H
  C526     1.0000 0.73554  0.24496  0.00367  Biso   1.000  C
  C527     1.0000 0.82603  0.30412  0.99307  Biso   1.000  C
  C528     1.0000 0.82607  0.30419  0.99307  Biso   1.000  C
  H595     1.0000 0.87985  0.34252  0.03548  Biso   1.000  H
  H596     1.0000 0.94949  0.35546  0.00958  Biso   1.000  H
  H597     1.0000 0.87977  0.34259  0.03548  Biso   1.000  H
  H598     1.0000 0.69414  0.23692  0.98696  Biso   1.000  H
  H599     1.0000 0.69417  0.23699  0.98696  Biso   1.000  H
  H600     1.0000 0.72257  0.27173  0.02138  Biso   1.000  H
  H601     1.0000 0.72255  0.27180  0.02138  Biso   1.000  H
  H602     1.0000 0.83737  0.27963  0.97437  Biso   1.000  H
  H603     1.0000 0.83286  0.36166  0.98767  Biso   1.000  H
  H604     1.0000 0.83741  0.27970  0.97437  Biso   1.000  H
  C529     1.0000 0.19697  0.74346  0.25816  Biso   1.000  C
  C530     1.0000 0.25655  0.73967  0.23327  Biso   1.000  C
  C531     1.0000 0.25649  0.73967  0.23327  Biso   1.000  C
  H605     1.0000 0.22644  0.75456  0.27837  Biso   1.000  H
  C532     1.0000 0.17501  0.81425  0.25166  Biso   1.000  C
  H606     1.0000 0.14230  0.68638  0.25927  Biso   1.000  H
  C533     1.0000 0.17507  0.81425  0.25166  Biso   1.000  C
  H607     1.0000 0.14224  0.68638  0.25927  Biso   1.000  H
  H608     1.0000 0.31582  0.79113  0.23497  Biso   1.000  H
  H609     1.0000 0.26096  0.68638  0.23596  Biso   1.000  H
  C534     1.0000 0.21826  0.73843  0.20257  Biso   1.000  C
  C535     1.0000 0.21824  0.73850  0.20257  Biso   1.000  C
  C536     1.0000 0.19691  0.74346  0.25816  Biso   1.000  C
  C537     1.0000 0.13994  0.80824  0.22067  Biso   1.000  C
  H610     1.0000 0.13150  0.81014  0.26696  Biso   1.000  H
  H611     1.0000 0.22842  0.87198  0.25417  Biso   1.000  H
  H612     1.0000 0.13156  0.81014  0.26696  Biso   1.000  H
  H613     1.0000 0.22848  0.87198  0.25417  Biso   1.000  H
  C538     1.0000 0.19800  0.80785  0.19637  Biso   1.000  C
  H614     1.0000 0.25954  0.74124  0.18657  Biso   1.000  H
  H615     1.0000 0.16380  0.68155  0.20016  Biso   1.000  H
  C539     1.0000 0.19806  0.80785  0.19637  Biso   1.000  C
  H616     1.0000 0.16386  0.68155  0.20016  Biso   1.000  H
  H617     1.0000 0.25948  0.74124  0.18657  Biso   1.000  H
  N83      1.0000 0.12520  0.88204  0.21777  Biso   1.000  N
  N84      1.0000 0.12526  0.88204  0.21777  Biso   1.000  N
  H618     1.0000 0.08249  0.75306  0.21917  Biso   1.000  H
  H619     1.0000 0.08243  0.75306  0.21917  Biso   1.000  H
  N85      1.0000 0.15562  0.79584  0.16597  Biso   1.000  N
  H620     1.0000 0.25357  0.86526  0.19646  Biso   1.000  H
  H621     1.0000 0.25351  0.86526  0.19646  Biso   1.000  H
  C540     1.0000 0.04863  0.86735  0.22087  Biso   1.000  C
  C541     1.0000 0.19415  0.84743  0.14496  Biso   1.000  C
  C542     1.0000 0.19412  0.84749  0.14496  Biso   1.000  C
  H622     1.0000 0.00364  0.80838  0.22338  Biso   1.000  H
  C543     1.0000 0.02298  0.93618  0.22106  Biso   1.000  C
  C544     1.0000 0.02292  0.93618  0.22106  Biso   1.000  C
  H623     1.0000 0.00359  0.80838  0.22338  Biso   1.000  H
  H624     1.0000 0.25122  0.89439  0.14907  Biso   1.000  H
  C545     1.0000 0.16037  0.84266  0.11486  Biso   1.000  C
  H625     1.0000 0.25128  0.89439  0.14907  Biso   1.000  H
  C546     1.0000 0.16032  0.84266  0.11486  Biso   1.000  C
  C547     1.0000 0.93525  0.91163  0.22177  Biso   1.000  C
  C548     1.0000 0.93523  0.91169  0.22177  Biso   1.000  C
  C549     1.0000 0.08833  0.02356  0.22177  Biso   1.000  C
  C550     1.0000 0.20734  0.91398  0.09408  Biso   1.000  C
  C551     1.0000 0.07787  0.77618  0.10537  Biso   1.000  C
  C552     1.0000 0.07781  0.77618  0.10537  Biso   1.000  C
  C553     1.0000 0.20729  0.91398  0.09408  Biso   1.000  C
  C554     1.0000 0.91328  0.97706  0.22106  Biso   1.000  C
  H626     1.0000 0.89135  0.85187  0.22257  Biso   1.000  H
  C555     1.0000 0.91323  0.97706  0.22106  Biso   1.000  C
  C556     1.0000 0.06384  0.08678  0.22106  Biso   1.000  C
  H627     1.0000 0.14807  0.03943  0.22257  Biso   1.000  H
  H628     1.0000 0.14811  0.03950  0.22257  Biso   1.000  H
  C557     1.0000 0.17604  0.91437  0.06546  Biso   1.000  C
  H629     1.0000 0.26146  0.96204  0.10037  Biso   1.000  H
  H630     1.0000 0.26141  0.96204  0.10037  Biso   1.000  H
  H631     1.0000 0.04314  0.72968  0.11906  Biso   1.000  H
  C558     1.0000 0.04689  0.77677  0.07736  Biso   1.000  C
  H632     1.0000 0.04320  0.72968  0.11906  Biso   1.000  H
  C559     1.0000 0.04683  0.77677  0.07736  Biso   1.000  C
  C560     1.0000 0.81875  0.95133  0.22087  Biso   1.000  C
  C561     1.0000 0.81872  0.95140  0.22087  Biso   1.000  C
  C562     1.0000 0.97648  0.06477  0.22177  Biso   1.000  C
  C563     1.0000 0.97637  0.06477  0.22177  Biso   1.000  C
  C564     1.0000 0.13263  0.18128  0.22087  Biso   1.000  C
  C565     1.0000 0.09498  0.84456  0.05676  Biso   1.000  C
  C566     1.0000 0.22587  0.98836  0.04335  Biso   1.000  C
  C567     1.0000 0.09492  0.84456  0.05676  Biso   1.000  C
  C568     1.0000 0.22581  0.98836  0.04335  Biso   1.000  C
  C569     1.0000 0.95915  0.70695  0.06847  Biso   1.000  C
  C570     1.0000 0.95910  0.70695  0.06847  Biso   1.000  C
  N86      1.0000 0.75686  0.87473  0.21777  Biso   1.000  N
  H633     1.0000 0.80477  0.99633  0.22338  Biso   1.000  H
  N87      1.0000 0.75684  0.87479  0.21777  Biso   1.000  N
  H634     1.0000 0.80474  0.99640  0.22338  Biso   1.000  H
  H635     1.0000 0.80471  0.99633  0.22338  Biso   1.000  H
  H636     1.0000 0.96058  0.10866  0.22257  Biso   1.000  H
  H637     1.0000 0.96053  0.10866  0.22257  Biso   1.000  H
  N88      1.0000 0.11792  0.24313  0.21777  Biso   1.000  N
  H638     1.0000 0.19166  0.19526  0.22338  Biso   1.000  H
  N89      1.0000 0.11795  0.24319  0.21777  Biso   1.000  N
  H639     1.0000 0.07267  0.84338  0.03676  Biso   1.000  H
  H640     1.0000 0.07261  0.84338  0.03676  Biso   1.000  H
  N90      1.0000 0.29730  0.05374  0.05093  Biso   1.000  N
  H641     1.0000 0.20304  0.98568  0.02338  Biso   1.000  H
  H642     1.0000 0.20310  0.98568  0.02338  Biso   1.000  H
  N91      1.0000 0.92265  0.70238  0.04358  Biso   1.000  N
  H643     1.0000 0.92775  0.66156  0.08287  Biso   1.000  H
  C571     1.0000 0.66835  0.86003  0.22067  Biso   1.000  C
  C572     1.0000 0.66833  0.86010  0.22067  Biso   1.000  C
  C573     1.0000 0.19172  0.33168  0.22067  Biso   1.000  C
  C574     1.0000 0.34592  0.11806  0.02622  Biso   1.000  C
  C575     1.0000 0.83436  0.62467  0.03835  Biso   1.000  C
  C576     1.0000 0.83431  0.62467  0.03835  Biso   1.000  C
  C577     1.0000 0.60986  0.80198  0.19637  Biso   1.000  C
  C578     1.0000 0.63928  0.82496  0.25166  Biso   1.000  C
  H644     1.0000 0.67065  0.91757  0.21917  Biso   1.000  H
  C579     1.0000 0.63922  0.82496  0.25166  Biso   1.000  C
  C580     1.0000 0.19210  0.39013  0.19637  Biso   1.000  C
  C581     1.0000 0.18577  0.36075  0.25166  Biso   1.000  C
  H645     1.0000 0.24693  0.32933  0.21917  Biso   1.000  H
  C582     1.0000 0.19213  0.39020  0.19637  Biso   1.000  C
  C583     1.0000 0.18572  0.36075  0.25166  Biso   1.000  C
  H646     1.0000 0.24696  0.32940  0.21917  Biso   1.000  H
  H647     1.0000 0.30712  0.10585  0.00797  Biso   1.000  H
  C584     1.0000 0.37530  0.20962  0.03835  Biso   1.000  C
  C585     1.0000 0.42571  0.11023  0.01706  Biso   1.000  C
  C586     1.0000 0.37528  0.20969  0.03835  Biso   1.000  C
  C587     1.0000 0.42574  0.11029  0.01706  Biso   1.000  C
  H648     1.0000 0.81115  0.59058  0.05777  Biso   1.000  H
  C588     1.0000 0.84547  0.56804  0.01327  Biso   1.000  C
  C589     1.0000 0.77214  0.65405  0.02622  Biso   1.000  C
  C590     1.0000 0.84542  0.56804  0.01327  Biso   1.000  C
  N92      1.0000 0.64027  0.84436  0.16597  Biso   1.000  N
  H649     1.0000 0.61174  0.74646  0.19646  Biso   1.000  H
  C591     1.0000 0.52027  0.78173  0.20257  Biso   1.000  C
  N93      1.0000 0.64021  0.84436  0.16597  Biso   1.000  N
  C592     1.0000 0.52025  0.78180  0.20257  Biso   1.000  C
  C593     1.0000 0.54656  0.80309  0.25816  Biso   1.000  C
  H650     1.0000 0.67867  0.86846  0.26696  Biso   1.000  H
  H651     1.0000 0.64356  0.77154  0.25417  Biso   1.000  H
  H652     1.0000 0.67862  0.86846  0.26696  Biso   1.000  H
  H653     1.0000 0.64351  0.77154  0.25417  Biso   1.000  H
  N94      1.0000 0.20412  0.35977  0.16597  Biso   1.000  N
  H654     1.0000 0.13476  0.38824  0.19646  Biso   1.000  H
  C594     1.0000 0.26156  0.47974  0.20257  Biso   1.000  C
  H655     1.0000 0.13465  0.38824  0.19646  Biso   1.000  H
  C595     1.0000 0.26144  0.47974  0.20257  Biso   1.000  C
  C596     1.0000 0.25658  0.45348  0.25816  Biso   1.000  C
  H656     1.0000 0.18984  0.32137  0.26696  Biso   1.000  H
  H657     1.0000 0.12797  0.35644  0.25417  Biso   1.000  H
  C597     1.0000 0.25646  0.45348  0.25816  Biso   1.000  C
  N95      1.0000 0.29760  0.22027  0.04358  Biso   1.000  N
  H658     1.0000 0.40943  0.22053  0.05777  Biso   1.000  H
  C598     1.0000 0.43195  0.27735  0.01327  Biso   1.000  C
  H659     1.0000 0.40946  0.22060  0.05777  Biso   1.000  H
  C599     1.0000 0.43190  0.27735  0.01327  Biso   1.000  C
  C600     1.0000 0.47811  0.17397  0.99307  Biso   1.000  C
  H660     1.0000 0.46268  0.12015  0.03548  Biso   1.000  H
  H661     1.0000 0.40590  0.05047  0.00958  Biso   1.000  H
  H662     1.0000 0.87499  0.60468  0.99518  Biso   1.000  H
  H663     1.0000 0.87493  0.60468  0.99518  Biso   1.000  H
  H664     1.0000 0.88255  0.54538  0.02138  Biso   1.000  H
  C601     1.0000 0.75502  0.49052  0.00367  Biso   1.000  C
  C602     1.0000 0.75505  0.49059  0.00367  Biso   1.000  C
  N96      1.0000 0.75645  0.70264  0.05093  Biso   1.000  N
  C603     1.0000 0.68456  0.57425  0.01706  Biso   1.000  C
  H665     1.0000 0.79877  0.69285  0.00797  Biso   1.000  H
  C604     1.0000 0.68450  0.57425  0.01706  Biso   1.000  C
  H666     1.0000 0.79872  0.69285  0.00797  Biso   1.000  H
  C605     1.0000 0.65335  0.80583  0.14496  Biso   1.000  C
  C606     1.0000 0.65333  0.80589  0.14496  Biso   1.000  C
  H667     1.0000 0.48176  0.74046  0.18657  Biso   1.000  H
  H668     1.0000 0.51772  0.83613  0.20016  Biso   1.000  H
  C607     1.0000 0.48315  0.74346  0.23327  Biso   1.000  C
  H669     1.0000 0.48170  0.74046  0.18657  Biso   1.000  H
  H670     1.0000 0.51775  0.83620  0.20016  Biso   1.000  H
  H671     1.0000 0.54414  0.85775  0.25927  Biso   1.000  H
  H672     1.0000 0.52818  0.77357  0.27837  Biso   1.000  H
  H673     1.0000 0.52812  0.77357  0.27837  Biso   1.000  H
  C608     1.0000 0.15248  0.34664  0.14496  Biso   1.000  C
  H674     1.0000 0.25871  0.51827  0.18657  Biso   1.000  H
  H675     1.0000 0.31848  0.48228  0.20016  Biso   1.000  H
  C609     1.0000 0.26037  0.51683  0.23327  Biso   1.000  C
  H676     1.0000 0.31843  0.48228  0.20016  Biso   1.000  H
  C610     1.0000 0.26034  0.51690  0.23327  Biso   1.000  C
  H677     1.0000 0.31363  0.45583  0.25927  Biso   1.000  H
  H678     1.0000 0.24545  0.47183  0.27837  Biso   1.000  H
  H679     1.0000 0.31366  0.45590  0.25927  Biso   1.000  H
  H680     1.0000 0.24537  0.47190  0.27837  Biso   1.000  H
  C611     1.0000 0.29306  0.25214  0.06847  Biso   1.000  C
  C612     1.0000 0.29300  0.25214  0.06847  Biso   1.000  C
  H681     1.0000 0.39537  0.27023  0.99518  Biso   1.000  H
  H682     1.0000 0.39534  0.27029  0.99518  Biso   1.000  H
  H683     1.0000 0.45463  0.33717  0.02138  Biso   1.000  H
  C613     1.0000 0.50945  0.26448  0.00367  Biso   1.000  C
  H684     1.0000 0.45457  0.33717  0.02138  Biso   1.000  H
  H685     1.0000 0.44225  0.16254  0.97437  Biso   1.000  H
  H686     1.0000 0.52878  0.16717  0.98767  Biso   1.000  H
  H687     1.0000 0.44219  0.16254  0.97437  Biso   1.000  H
  H688     1.0000 0.76305  0.45715  0.98696  Biso   1.000  H
  C614     1.0000 0.69587  0.52187  0.99307  Biso   1.000  C
  C615     1.0000 0.69581  0.52187  0.99307  Biso   1.000  C
  H689     1.0000 0.72823  0.45075  0.02138  Biso   1.000  H
  C616     1.0000 0.76256  0.77415  0.04335  Biso   1.000  C
  C617     1.0000 0.76251  0.77415  0.04335  Biso   1.000  C
  H690     1.0000 0.65748  0.53728  0.03548  Biso   1.000  H
  H691     1.0000 0.64457  0.59404  0.00958  Biso   1.000  H
  H692     1.0000 0.65742  0.53728  0.03548  Biso   1.000  H
  H693     1.0000 0.64451  0.59404  0.00958  Biso   1.000  H
  C618     1.0000 0.68237  0.83966  0.11486  Biso   1.000  C
  H694     1.0000 0.64314  0.74875  0.14907  Biso   1.000  H
  C619     1.0000 0.68231  0.83966  0.11486  Biso   1.000  C
  H695     1.0000 0.47533  0.68416  0.23497  Biso   1.000  H
  H696     1.0000 0.42548  0.73908  0.23596  Biso   1.000  H
  H697     1.0000 0.42542  0.73908  0.23596  Biso   1.000  H
  C620     1.0000 0.15732  0.31764  0.11486  Biso   1.000  C
  H698     1.0000 0.10565  0.35683  0.14907  Biso   1.000  H
  H699     1.0000 0.10557  0.35689  0.14907  Biso   1.000  H
  H700     1.0000 0.20880  0.52467  0.23497  Biso   1.000  H
  H701     1.0000 0.31367  0.57456  0.23596  Biso   1.000  H
  H702     1.0000 0.31355  0.57456  0.23596  Biso   1.000  H
  H703     1.0000 0.33842  0.26618  0.08287  Biso   1.000  H
  C621     1.0000 0.22316  0.27003  0.07736  Biso   1.000  C
  C622     1.0000 0.22319  0.27010  0.07736  Biso   1.000  C
  H704     1.0000 0.54285  0.30582  0.98696  Biso   1.000  H
  H705     1.0000 0.54277  0.30589  0.98696  Biso   1.000  H
  H706     1.0000 0.54921  0.27748  0.02138  Biso   1.000  H
  H707     1.0000 0.72035  0.55773  0.97437  Biso   1.000  H
  H708     1.0000 0.63837  0.47113  0.98767  Biso   1.000  H
  H709     1.0000 0.72033  0.55779  0.97437  Biso   1.000  H
  H710     1.0000 0.63835  0.47119  0.98767  Biso   1.000  H
  C623     1.0000 0.73839  0.82398  0.06546  Biso   1.000  C
  H711     1.0000 0.78267  0.79695  0.02338  Biso   1.000  H
  C624     1.0000 0.73833  0.82398  0.06546  Biso   1.000  C
  H712     1.0000 0.78261  0.79695  0.02338  Biso   1.000  H
  C625     1.0000 0.70665  0.79264  0.09408  Biso   1.000  C
  C626     1.0000 0.70659  0.79264  0.09408  Biso   1.000  C
  C627     1.0000 0.69833  0.92214  0.10537  Biso   1.000  C
  C628     1.0000 0.22381  0.30164  0.10537  Biso   1.000  C
  C629     1.0000 0.22375  0.30164  0.10537  Biso   1.000  C
  C630     1.0000 0.08607  0.29335  0.09408  Biso   1.000  C
  C631     1.0000 0.08596  0.29335  0.09408  Biso   1.000  C
  C632     1.0000 0.15542  0.25038  0.05676  Biso   1.000  C
  C633     1.0000 0.74967  0.90503  0.05676  Biso   1.000  C
  C634     1.0000 0.74965  0.90510  0.05676  Biso   1.000  C
  H713     1.0000 0.70065  0.73856  0.10037  Biso   1.000  H
  H714     1.0000 0.70060  0.73856  0.10037  Biso   1.000  H
  C635     1.0000 0.72996  0.95316  0.07736  Biso   1.000  C
  C636     1.0000 0.72990  0.95316  0.07736  Biso   1.000  C
  H715     1.0000 0.68658  0.95688  0.11906  Biso   1.000  H
  H716     1.0000 0.68652  0.95688  0.11906  Biso   1.000  H
  H717     1.0000 0.27033  0.31346  0.11906  Biso   1.000  H
  C637     1.0000 0.08568  0.26167  0.06546  Biso   1.000  C
  C638     1.0000 0.08562  0.26167  0.06546  Biso   1.000  C
  H718     1.0000 0.03795  0.29936  0.10037  Biso   1.000  H
  H719     1.0000 0.15664  0.22928  0.03676  Biso   1.000  H
  H720     1.0000 0.77074  0.92737  0.03676  Biso   1.000  H
  C639     1.0000 0.74780  0.04087  0.06847  Biso   1.000  C
  C640     1.0000 0.01157  0.23745  0.04335  Biso   1.000  C
  N97      1.0000 0.77979  0.07738  0.04358  Biso   1.000  N
  H721     1.0000 0.73387  0.07228  0.08287  Biso   1.000  H
  N98      1.0000 0.77974  0.07738  0.04358  Biso   1.000  N
  N99      1.0000 0.94626  0.24358  0.05093  Biso   1.000  N
  H722     1.0000 0.01435  0.21733  0.02338  Biso   1.000  H
  H723     1.0000 0.01433  0.21740  0.02338  Biso   1.000  H
  C641     1.0000 0.79035  0.16567  0.03835  Biso   1.000  C
  C642     1.0000 0.88189  0.22784  0.02622  Biso   1.000  C
  H724     1.0000 0.77937  0.18886  0.05777  Biso   1.000  H
  C643     1.0000 0.72264  0.15457  0.01327  Biso   1.000  C
  H725     1.0000 0.89411  0.20126  0.00797  Biso   1.000  H
  C644     1.0000 0.88971  0.31542  0.01706  Biso   1.000  C
  C645     1.0000 0.88974  0.31549  0.01706  Biso   1.000  C
  H726     1.0000 0.72971  0.12505  0.99518  Biso   1.000  H
  H727     1.0000 0.72965  0.12505  0.99518  Biso   1.000  H
  H728     1.0000 0.66280  0.11748  0.02138  Biso   1.000  H
  C646     1.0000 0.73554  0.24496  0.00367  Biso   1.000  C
  C647     1.0000 0.82603  0.30412  0.99307  Biso   1.000  C
  C648     1.0000 0.82607  0.30419  0.99307  Biso   1.000  C
  H729     1.0000 0.87985  0.34252  0.03548  Biso   1.000  H
  H730     1.0000 0.94949  0.35546  0.00958  Biso   1.000  H
  H731     1.0000 0.87977  0.34259  0.03548  Biso   1.000  H
  H732     1.0000 0.69414  0.23692  0.98696  Biso   1.000  H
  H733     1.0000 0.69417  0.23699  0.98696  Biso   1.000  H
  H734     1.0000 0.72257  0.27173  0.02138  Biso   1.000  H
  H735     1.0000 0.72255  0.27180  0.02138  Biso   1.000  H
  H736     1.0000 0.83737  0.27963  0.97437  Biso   1.000  H
  H737     1.0000 0.83286  0.36166  0.98767  Biso   1.000  H
  H738     1.0000 0.83741  0.27970  0.97437  Biso   1.000  H
  C649     1.0000 0.19697  0.74346  0.25816  Biso   1.000  C
  C650     1.0000 0.17507  0.81425  0.25166  Biso   1.000  C
  C651     1.0000 0.17501  0.81425  0.25166  Biso   1.000  C
  C652     1.0000 0.25655  0.73967  0.23327  Biso   1.000  C
  C653     1.0000 0.25649  0.73967  0.23327  Biso   1.000  C
  H739     1.0000 0.22644  0.75456  0.27837  Biso   1.000  H
  H740     1.0000 0.14230  0.68638  0.25927  Biso   1.000  H
  H741     1.0000 0.14224  0.68638  0.25927  Biso   1.000  H
  C654     1.0000 0.13994  0.80824  0.22067  Biso   1.000  C
  H742     1.0000 0.13156  0.81014  0.26696  Biso   1.000  H
  H743     1.0000 0.22848  0.87198  0.25417  Biso   1.000  H
  C655     1.0000 0.19691  0.74346  0.25816  Biso   1.000  C
  H744     1.0000 0.13150  0.81014  0.26696  Biso   1.000  H
  H745     1.0000 0.22842  0.87198  0.25417  Biso   1.000  H
  C656     1.0000 0.21826  0.73843  0.20257  Biso   1.000  C
  C657     1.0000 0.21824  0.73850  0.20257  Biso   1.000  C
  H746     1.0000 0.31582  0.79113  0.23497  Biso   1.000  H
  H747     1.0000 0.26096  0.68638  0.23596  Biso   1.000  H
  N100     1.0000 0.12526  0.88204  0.21777  Biso   1.000  N
  C658     1.0000 0.19806  0.80785  0.19637  Biso   1.000  C
  H748     1.0000 0.08249  0.75306  0.21917  Biso   1.000  H
  N101     1.0000 0.12520  0.88204  0.21777  Biso   1.000  N
  C659     1.0000 0.19800  0.80785  0.19637  Biso   1.000  C
  H749     1.0000 0.08243  0.75306  0.21917  Biso   1.000  H
  H750     1.0000 0.25954  0.74124  0.18657  Biso   1.000  H
  H751     1.0000 0.16386  0.68155  0.20016  Biso   1.000  H
  H752     1.0000 0.16380  0.68155  0.20016  Biso   1.000  H
  H753     1.0000 0.25948  0.74124  0.18657  Biso   1.000  H
  C660     1.0000 0.04863  0.86735  0.22087  Biso   1.000  C
  N102     1.0000 0.15562  0.79584  0.16597  Biso   1.000  N
  H754     1.0000 0.25357  0.86526  0.19646  Biso   1.000  H
  H755     1.0000 0.25351  0.86526  0.19646  Biso   1.000  H
  C661     1.0000 0.02298  0.93618  0.22106  Biso   1.000  C
  H756     1.0000 0.00364  0.80838  0.22338  Biso   1.000  H
  C662     1.0000 0.02292  0.93618  0.22106  Biso   1.000  C
  H757     1.0000 0.00359  0.80838  0.22338  Biso   1.000  H
  C663     1.0000 0.19415  0.84743  0.14496  Biso   1.000  C
  C664     1.0000 0.19412  0.84749  0.14496  Biso   1.000  C
  C665     1.0000 0.93525  0.91163  0.22177  Biso   1.000  C
  C666     1.0000 0.93523  0.91169  0.22177  Biso   1.000  C
  C667     1.0000 0.08833  0.02356  0.22177  Biso   1.000  C
  C668     1.0000 0.16037  0.84266  0.11486  Biso   1.000  C
  H758     1.0000 0.25128  0.89439  0.14907  Biso   1.000  H
  C669     1.0000 0.16032  0.84266  0.11486  Biso   1.000  C
  H759     1.0000 0.25122  0.89439  0.14907  Biso   1.000  H
  C670     1.0000 0.91328  0.97706  0.22106  Biso   1.000  C
  H760     1.0000 0.89135  0.85187  0.22257  Biso   1.000  H
  C671     1.0000 0.91323  0.97706  0.22106  Biso   1.000  C
  C672     1.0000 0.06384  0.08678  0.22106  Biso   1.000  C
  H761     1.0000 0.14807  0.03943  0.22257  Biso   1.000  H
  H762     1.0000 0.14811  0.03950  0.22257  Biso   1.000  H
  C673     1.0000 0.20734  0.91398  0.09408  Biso   1.000  C
  C674     1.0000 0.07787  0.77618  0.10537  Biso   1.000  C
  C675     1.0000 0.07781  0.77618  0.10537  Biso   1.000  C
  C676     1.0000 0.20729  0.91398  0.09408  Biso   1.000  C
  C677     1.0000 0.81875  0.95133  0.22087  Biso   1.000  C
  C678     1.0000 0.81872  0.95140  0.22087  Biso   1.000  C
  C679     1.0000 0.97648  0.06477  0.22177  Biso   1.000  C
  C680     1.0000 0.97637  0.06477  0.22177  Biso   1.000  C
  C681     1.0000 0.13263  0.18128  0.22087  Biso   1.000  C
  C682     1.0000 0.17604  0.91437  0.06546  Biso   1.000  C
  H763     1.0000 0.26146  0.96204  0.10037  Biso   1.000  H
  H764     1.0000 0.26141  0.96204  0.10037  Biso   1.000  H
  C683     1.0000 0.04689  0.77677  0.07736  Biso   1.000  C
  H765     1.0000 0.04320  0.72968  0.11906  Biso   1.000  H
  C684     1.0000 0.04683  0.77677  0.07736  Biso   1.000  C
  H766     1.0000 0.04314  0.72968  0.11906  Biso   1.000  H
  N103     1.0000 0.75686  0.87473  0.21777  Biso   1.000  N
  H767     1.0000 0.80477  0.99633  0.22338  Biso   1.000  H
  N104     1.0000 0.75684  0.87479  0.21777  Biso   1.000  N
  H768     1.0000 0.80474  0.99640  0.22338  Biso   1.000  H
  H769     1.0000 0.80471  0.99633  0.22338  Biso   1.000  H
  H770     1.0000 0.96058  0.10866  0.22257  Biso   1.000  H
  H771     1.0000 0.96053  0.10866  0.22257  Biso   1.000  H
  N105     1.0000 0.11792  0.24313  0.21777  Biso   1.000  N
  H772     1.0000 0.19166  0.19526  0.22338  Biso   1.000  H
  N106     1.0000 0.11795  0.24319  0.21777  Biso   1.000  N
  C685     1.0000 0.09498  0.84456  0.05676  Biso   1.000  C
  C686     1.0000 0.22587  0.98836  0.04335  Biso   1.000  C
  C687     1.0000 0.09492  0.84456  0.05676  Biso   1.000  C
  C688     1.0000 0.22581  0.98836  0.04335  Biso   1.000  C
  C689     1.0000 0.95915  0.70695  0.06847  Biso   1.000  C
  C690     1.0000 0.95910  0.70695  0.06847  Biso   1.000  C
  C691     1.0000 0.66835  0.86003  0.22067  Biso   1.000  C
  C692     1.0000 0.66833  0.86010  0.22067  Biso   1.000  C
  C693     1.0000 0.19172  0.33168  0.22067  Biso   1.000  C
  H773     1.0000 0.07267  0.84338  0.03676  Biso   1.000  H
  H774     1.0000 0.07261  0.84338  0.03676  Biso   1.000  H
  N107     1.0000 0.29730  0.05374  0.05093  Biso   1.000  N
  H775     1.0000 0.20310  0.98568  0.02338  Biso   1.000  H
  H776     1.0000 0.20304  0.98568  0.02338  Biso   1.000  H
  N108     1.0000 0.92265  0.70238  0.04358  Biso   1.000  N
  H777     1.0000 0.92775  0.66156  0.08287  Biso   1.000  H
  C694     1.0000 0.60986  0.80198  0.19637  Biso   1.000  C
  C695     1.0000 0.63928  0.82496  0.25166  Biso   1.000  C
  H778     1.0000 0.67065  0.91757  0.21917  Biso   1.000  H
  C696     1.0000 0.63922  0.82496  0.25166  Biso   1.000  C
  C697     1.0000 0.19210  0.39013  0.19637  Biso   1.000  C
  C698     1.0000 0.18577  0.36075  0.25166  Biso   1.000  C
  H779     1.0000 0.24693  0.32933  0.21917  Biso   1.000  H
  C699     1.0000 0.19213  0.39020  0.19637  Biso   1.000  C
  C700     1.0000 0.18572  0.36075  0.25166  Biso   1.000  C
  H780     1.0000 0.24696  0.32940  0.21917  Biso   1.000  H
  C701     1.0000 0.34592  0.11806  0.02622  Biso   1.000  C
  C702     1.0000 0.83436  0.62467  0.03835  Biso   1.000  C
  C703     1.0000 0.83431  0.62467  0.03835  Biso   1.000  C
  N109     1.0000 0.64027  0.84436  0.16597  Biso   1.000  N
  H781     1.0000 0.61174  0.74646  0.19646  Biso   1.000  H
  C704     1.0000 0.52027  0.78173  0.20257  Biso   1.000  C
  N110     1.0000 0.64021  0.84436  0.16597  Biso   1.000  N
  C705     1.0000 0.52025  0.78180  0.20257  Biso   1.000  C
  C706     1.0000 0.54656  0.80309  0.25816  Biso   1.000  C
  H782     1.0000 0.67867  0.86846  0.26696  Biso   1.000  H
  H783     1.0000 0.64356  0.77154  0.25417  Biso   1.000  H
  H784     1.0000 0.67862  0.86846  0.26696  Biso   1.000  H
  H785     1.0000 0.64351  0.77154  0.25417  Biso   1.000  H
  N111     1.0000 0.20412  0.35977  0.16597  Biso   1.000  N
  H786     1.0000 0.13476  0.38824  0.19646  Biso   1.000  H
  C707     1.0000 0.26156  0.47974  0.20257  Biso   1.000  C
  H787     1.0000 0.13465  0.38824  0.19646  Biso   1.000  H
  C708     1.0000 0.26144  0.47974  0.20257  Biso   1.000  C
  C709     1.0000 0.25658  0.45348  0.25816  Biso   1.000  C
  H788     1.0000 0.18984  0.32137  0.26696  Biso   1.000  H
  H789     1.0000 0.12797  0.35644  0.25417  Biso   1.000  H
  C710     1.0000 0.25646  0.45348  0.25816  Biso   1.000  C
  H790     1.0000 0.30712  0.10585  0.00797  Biso   1.000  H
  C711     1.0000 0.37530  0.20962  0.03835  Biso   1.000  C
  C712     1.0000 0.42571  0.11023  0.01706  Biso   1.000  C
  C713     1.0000 0.37528  0.20969  0.03835  Biso   1.000  C
  C714     1.0000 0.42574  0.11029  0.01706  Biso   1.000  C
  H791     1.0000 0.81115  0.59058  0.05777  Biso   1.000  H
  C715     1.0000 0.84547  0.56804  0.01327  Biso   1.000  C
  C716     1.0000 0.77214  0.65405  0.02622  Biso   1.000  C
  C717     1.0000 0.84542  0.56804  0.01327  Biso   1.000  C
  C718     1.0000 0.65335  0.80583  0.14496  Biso   1.000  C
  C719     1.0000 0.65333  0.80589  0.14496  Biso   1.000  C
  H792     1.0000 0.48176  0.74046  0.18657  Biso   1.000  H
  H793     1.0000 0.51772  0.83613  0.20016  Biso   1.000  H
  C720     1.0000 0.48315  0.74346  0.23327  Biso   1.000  C
  H794     1.0000 0.48170  0.74046  0.18657  Biso   1.000  H
  H795     1.0000 0.51775  0.83620  0.20016  Biso   1.000  H
  H796     1.0000 0.54414  0.85775  0.25927  Biso   1.000  H
  H797     1.0000 0.52818  0.77357  0.27837  Biso   1.000  H
  H798     1.0000 0.52812  0.77357  0.27837  Biso   1.000  H
  C721     1.0000 0.15248  0.34664  0.14496  Biso   1.000  C
  H799     1.0000 0.25871  0.51827  0.18657  Biso   1.000  H
  H800     1.0000 0.31848  0.48228  0.20016  Biso   1.000  H
  C722     1.0000 0.26037  0.51683  0.23327  Biso   1.000  C
  H801     1.0000 0.31843  0.48228  0.20016  Biso   1.000  H
  C723     1.0000 0.26034  0.51690  0.23327  Biso   1.000  C
  H802     1.0000 0.31363  0.45583  0.25927  Biso   1.000  H
  H803     1.0000 0.24545  0.47183  0.27837  Biso   1.000  H
  H804     1.0000 0.31366  0.45590  0.25927  Biso   1.000  H
  H805     1.0000 0.24537  0.47190  0.27837  Biso   1.000  H
  N112     1.0000 0.29760  0.22027  0.04358  Biso   1.000  N
  H806     1.0000 0.40943  0.22053  0.05777  Biso   1.000  H
  C724     1.0000 0.43195  0.27735  0.01327  Biso   1.000  C
  H807     1.0000 0.40946  0.22060  0.05777  Biso   1.000  H
  C725     1.0000 0.43190  0.27735  0.01327  Biso   1.000  C
  C726     1.0000 0.47811  0.17397  0.99307  Biso   1.000  C
  H808     1.0000 0.46268  0.12015  0.03548  Biso   1.000  H
  H809     1.0000 0.40590  0.05047  0.00958  Biso   1.000  H
  H810     1.0000 0.87499  0.60468  0.99518  Biso   1.000  H
  H811     1.0000 0.87493  0.60468  0.99518  Biso   1.000  H
  H812     1.0000 0.88255  0.54538  0.02138  Biso   1.000  H
  C727     1.0000 0.75502  0.49052  0.00367  Biso   1.000  C
  C728     1.0000 0.75505  0.49059  0.00367  Biso   1.000  C
  N113     1.0000 0.75645  0.70264  0.05093  Biso   1.000  N
  C729     1.0000 0.68456  0.57425  0.01706  Biso   1.000  C
  H813     1.0000 0.79877  0.69285  0.00797  Biso   1.000  H
  C730     1.0000 0.68450  0.57425  0.01706  Biso   1.000  C
  H814     1.0000 0.79872  0.69285  0.00797  Biso   1.000  H
  C731     1.0000 0.68237  0.83966  0.11486  Biso   1.000  C
  H815     1.0000 0.64314  0.74875  0.14907  Biso   1.000  H
  C732     1.0000 0.68231  0.83966  0.11486  Biso   1.000  C
  H816     1.0000 0.47533  0.68416  0.23497  Biso   1.000  H
  H817     1.0000 0.42548  0.73908  0.23596  Biso   1.000  H
  H818     1.0000 0.42542  0.73908  0.23596  Biso   1.000  H
  C733     1.0000 0.15732  0.31764  0.11486  Biso   1.000  C
  H819     1.0000 0.10565  0.35683  0.14907  Biso   1.000  H
  H820     1.0000 0.10557  0.35689  0.14907  Biso   1.000  H
  H821     1.0000 0.20880  0.52467  0.23497  Biso   1.000  H
  H822     1.0000 0.31367  0.57456  0.23596  Biso   1.000  H
  H823     1.0000 0.31355  0.57456  0.23596  Biso   1.000  H
  C734     1.0000 0.29306  0.25214  0.06847  Biso   1.000  C
  C735     1.0000 0.29300  0.25214  0.06847  Biso   1.000  C
  H824     1.0000 0.39537  0.27023  0.99518  Biso   1.000  H
  H825     1.0000 0.39534  0.27029  0.99518  Biso   1.000  H
  H826     1.0000 0.45463  0.33717  0.02138  Biso   1.000  H
  C736     1.0000 0.50945  0.26448  0.00367  Biso   1.000  C
  H827     1.0000 0.45457  0.33717  0.02138  Biso   1.000  H
  H828     1.0000 0.44225  0.16254  0.97437  Biso   1.000  H
  H829     1.0000 0.52878  0.16717  0.98767  Biso   1.000  H
  H830     1.0000 0.44219  0.16254  0.97437  Biso   1.000  H
  H831     1.0000 0.76305  0.45715  0.98696  Biso   1.000  H
  C737     1.0000 0.69587  0.52187  0.99307  Biso   1.000  C
  C738     1.0000 0.69581  0.52187  0.99307  Biso   1.000  C
  H832     1.0000 0.72823  0.45075  0.02138  Biso   1.000  H
  C739     1.0000 0.76256  0.77415  0.04335  Biso   1.000  C
  C740     1.0000 0.76251  0.77415  0.04335  Biso   1.000  C
  H833     1.0000 0.65748  0.53728  0.03548  Biso   1.000  H
  H834     1.0000 0.64457  0.59404  0.00958  Biso   1.000  H
  H835     1.0000 0.65742  0.53728  0.03548  Biso   1.000  H
  H836     1.0000 0.64451  0.59404  0.00958  Biso   1.000  H
  C741     1.0000 0.70665  0.79264  0.09408  Biso   1.000  C
  C742     1.0000 0.69833  0.92214  0.10537  Biso   1.000  C
  C743     1.0000 0.70659  0.79264  0.09408  Biso   1.000  C
  C744     1.0000 0.08607  0.29335  0.09408  Biso   1.000  C
  C745     1.0000 0.22381  0.30164  0.10537  Biso   1.000  C
  C746     1.0000 0.08596  0.29335  0.09408  Biso   1.000  C
  C747     1.0000 0.22375  0.30164  0.10537  Biso   1.000  C
  H837     1.0000 0.33842  0.26618  0.08287  Biso   1.000  H
  C748     1.0000 0.22316  0.27003  0.07736  Biso   1.000  C
  C749     1.0000 0.22319  0.27010  0.07736  Biso   1.000  C
  H838     1.0000 0.54285  0.30582  0.98696  Biso   1.000  H
  H839     1.0000 0.54277  0.30589  0.98696  Biso   1.000  H
  H840     1.0000 0.54921  0.27748  0.02138  Biso   1.000  H
  H841     1.0000 0.72035  0.55773  0.97437  Biso   1.000  H
  H842     1.0000 0.63837  0.47113  0.98767  Biso   1.000  H
  H843     1.0000 0.72033  0.55779  0.97437  Biso   1.000  H
  H844     1.0000 0.63835  0.47119  0.98767  Biso   1.000  H
  C750     1.0000 0.73839  0.82398  0.06546  Biso   1.000  C
  H845     1.0000 0.78267  0.79695  0.02338  Biso   1.000  H
  C751     1.0000 0.73833  0.82398  0.06546  Biso   1.000  C
  H846     1.0000 0.78261  0.79695  0.02338  Biso   1.000  H
  H847     1.0000 0.70065  0.73856  0.10037  Biso   1.000  H
  H848     1.0000 0.70060  0.73856  0.10037  Biso   1.000  H
  C752     1.0000 0.72996  0.95316  0.07736  Biso   1.000  C
  H849     1.0000 0.68658  0.95688  0.11906  Biso   1.000  H
  C753     1.0000 0.72990  0.95316  0.07736  Biso   1.000  C
  H850     1.0000 0.68652  0.95688  0.11906  Biso   1.000  H
  C754     1.0000 0.08568  0.26167  0.06546  Biso   1.000  C
  H851     1.0000 0.03795  0.29936  0.10037  Biso   1.000  H
  C755     1.0000 0.08562  0.26167  0.06546  Biso   1.000  C
  H852     1.0000 0.27033  0.31346  0.11906  Biso   1.000  H
  C756     1.0000 0.15542  0.25038  0.05676  Biso   1.000  C
  C757     1.0000 0.74967  0.90503  0.05676  Biso   1.000  C
  C758     1.0000 0.74965  0.90510  0.05676  Biso   1.000  C
  C759     1.0000 0.74780  0.04087  0.06847  Biso   1.000  C
  C760     1.0000 0.01157  0.23745  0.04335  Biso   1.000  C
  H853     1.0000 0.15664  0.22928  0.03676  Biso   1.000  H
  H854     1.0000 0.77074  0.92737  0.03676  Biso   1.000  H
  N114     1.0000 0.77979  0.07738  0.04358  Biso   1.000  N
  H855     1.0000 0.73387  0.07228  0.08287  Biso   1.000  H
  N115     1.0000 0.77974  0.07738  0.04358  Biso   1.000  N
  N116     1.0000 0.94626  0.24358  0.05093  Biso   1.000  N
  H856     1.0000 0.01435  0.21733  0.02338  Biso   1.000  H
  H857     1.0000 0.01433  0.21740  0.02338  Biso   1.000  H
  C761     1.0000 0.79035  0.16567  0.03835  Biso   1.000  C
  C762     1.0000 0.88189  0.22784  0.02622  Biso   1.000  C
  H858     1.0000 0.77937  0.18886  0.05777  Biso   1.000  H
  C763     1.0000 0.72264  0.15457  0.01327  Biso   1.000  C
  H859     1.0000 0.89411  0.20126  0.00797  Biso   1.000  H
  C764     1.0000 0.88971  0.31542  0.01706  Biso   1.000  C
  C765     1.0000 0.88974  0.31549  0.01706  Biso   1.000  C
  H860     1.0000 0.72971  0.12505  0.99518  Biso   1.000  H
  H861     1.0000 0.72965  0.12505  0.99518  Biso   1.000  H
  H862     1.0000 0.66280  0.11748  0.02138  Biso   1.000  H
  C766     1.0000 0.73554  0.24496  0.00367  Biso   1.000  C
  C767     1.0000 0.82603  0.30412  0.99307  Biso   1.000  C
  C768     1.0000 0.82607  0.30419  0.99307  Biso   1.000  C
  H863     1.0000 0.87985  0.34252  0.03548  Biso   1.000  H
  H864     1.0000 0.94949  0.35546  0.00958  Biso   1.000  H
  H865     1.0000 0.87977  0.34259  0.03548  Biso   1.000  H
  H866     1.0000 0.69414  0.23692  0.98696  Biso   1.000  H
  H867     1.0000 0.69417  0.23699  0.98696  Biso   1.000  H
  H868     1.0000 0.72257  0.27173  0.02138  Biso   1.000  H
  H869     1.0000 0.72255  0.27180  0.02138  Biso   1.000  H
  H870     1.0000 0.83737  0.27963  0.97437  Biso   1.000  H
  H871     1.0000 0.83286  0.36166  0.98767  Biso   1.000  H
  H872     1.0000 0.83741  0.27970  0.97437  Biso   1.000  H
  C769     1.0000 0.82628  0.20095  0.74073  Biso   1.000  C
  C770     1.0000 0.82474  0.15680  0.77127  Biso   1.000  C
  C771     1.0000 0.82477  0.15687  0.77127  Biso   1.000  C
  C772     1.0000 0.75695  0.23014  0.74053  Biso   1.000  C
  H873     1.0000 0.81455  0.15961  0.72363  Biso   1.000  H
  H874     1.0000 0.88500  0.25254  0.73754  Biso   1.000  H
  H875     1.0000 0.81458  0.15968  0.72363  Biso   1.000  H
  H876     1.0000 0.88494  0.25254  0.73754  Biso   1.000  H
  N117     1.0000 0.89483  0.13682  0.77079  Biso   1.000  N
  C773     1.0000 0.83875  0.22080  0.79773  Biso   1.000  C
  H877     1.0000 0.76739  0.10194  0.77382  Biso   1.000  H
  C774     1.0000 0.83873  0.22087  0.79773  Biso   1.000  C
  C775     1.0000 0.82623  0.20095  0.74073  Biso   1.000  C
  H878     1.0000 0.76733  0.10194  0.77382  Biso   1.000  H
  C776     1.0000 0.77357  0.29382  0.76613  Biso   1.000  C
  C777     1.0000 0.77351  0.29382  0.76613  Biso   1.000  C
  H879     1.0000 0.75862  0.25770  0.72064  Biso   1.000  H
  H880     1.0000 0.69808  0.17835  0.74303  Biso   1.000  H
  H881     1.0000 0.75866  0.25777  0.72064  Biso   1.000  H
  H882     1.0000 0.69802  0.17835  0.74303  Biso   1.000  H
  C778     1.0000 0.87349  0.05714  0.76893  Biso   1.000  C
  C779     1.0000 0.87343  0.05714  0.76893  Biso   1.000  C
  N118     1.0000 0.83068  0.18012  0.82716  Biso   1.000  N
  H883     1.0000 0.89857  0.27325  0.79594  Biso   1.000  H
  C780     1.0000 0.77169  0.25013  0.79653  Biso   1.000  C
  H884     1.0000 0.89863  0.27325  0.79594  Biso   1.000  H
  C781     1.0000 0.77163  0.25013  0.79653  Biso   1.000  C
  N119     1.0000 0.83063  0.18012  0.82716  Biso   1.000  N
  H885     1.0000 0.72806  0.31093  0.76613  Biso   1.000  H
  H886     1.0000 0.83115  0.34711  0.76333  Biso   1.000  H
  H887     1.0000 0.83119  0.34717  0.76333  Biso   1.000  H
  C782     1.0000 0.93896  0.02815  0.76774  Biso   1.000  C
  C783     1.0000 0.93902  0.02815  0.76774  Biso   1.000  C
  H888     1.0000 0.81318  0.01424  0.76824  Biso   1.000  H
  H889     1.0000 0.81312  0.01424  0.76824  Biso   1.000  H
  C784     1.0000 0.88950  0.21924  0.84703  Biso   1.000  C
  C785     1.0000 0.88944  0.21924  0.84703  Biso   1.000  C
  H890     1.0000 0.78290  0.29166  0.81352  Biso   1.000  H
  H891     1.0000 0.71280  0.19886  0.79963  Biso   1.000  H
  H892     1.0000 0.78284  0.29166  0.81352  Biso   1.000  H
  H893     1.0000 0.71274  0.19886  0.79963  Biso   1.000  H
  C786     1.0000 0.03047  0.09104  0.76693  Biso   1.000  C
  C787     1.0000 0.03042  0.09104  0.76693  Biso   1.000  C
  C788     1.0000 0.90904  0.93946  0.76693  Biso   1.000  C
  C789     1.0000 0.90893  0.93946  0.76693  Biso   1.000  C
  C790     1.0000 0.88716  0.19161  0.87793  Biso   1.000  C
  H894     1.0000 0.93988  0.27181  0.84083  Biso   1.000  H
  C791     1.0000 0.88720  0.19168  0.87793  Biso   1.000  C
  H895     1.0000 0.93985  0.27187  0.84083  Biso   1.000  H
  C792     1.0000 0.88714  0.19168  0.87793  Biso   1.000  C
  C793     1.0000 0.08918  0.06106  0.76774  Biso   1.000  C
  C794     1.0000 0.08913  0.06106  0.76774  Biso   1.000  C
  H896     1.0000 0.05024  0.15184  0.76583  Biso   1.000  H
  C795     1.0000 0.97189  0.91086  0.76774  Biso   1.000  C
  C796     1.0000 0.97183  0.91086  0.76774  Biso   1.000  C
  H897     1.0000 0.84821  0.89845  0.76583  Biso   1.000  H
  C797     1.0000 0.95509  0.23426  0.89809  Biso   1.000  C
  C798     1.0000 0.81239  0.11266  0.88829  Biso   1.000  C
  C799     1.0000 0.95503  0.23426  0.89809  Biso   1.000  C
  C800     1.0000 0.81234  0.11266  0.88829  Biso   1.000  C
  C801     1.0000 0.18369  0.12657  0.76893  Biso   1.000  C
  C802     1.0000 0.18364  0.12657  0.76893  Biso   1.000  C
  C803     1.0000 0.06059  0.96950  0.76693  Biso   1.000  C
  C804     1.0000 0.06063  0.96957  0.76693  Biso   1.000  C
  C805     1.0000 0.94296  0.81636  0.76893  Biso   1.000  C
  C806     1.0000 0.94290  0.81636  0.76893  Biso   1.000  C
  C807     1.0000 0.95439  0.20866  0.92834  Biso   1.000  C
  C808     1.0000 0.95434  0.20866  0.92834  Biso   1.000  C
  H898     1.0000 0.00607  0.28474  0.89093  Biso   1.000  H
  H899     1.0000 0.76471  0.08176  0.87463  Biso   1.000  H
  C809     1.0000 0.80717  0.07981  0.91763  Biso   1.000  C
  H900     1.0000 0.76465  0.08176  0.87463  Biso   1.000  H
  C810     1.0000 0.80720  0.07987  0.91763  Biso   1.000  C
  C811     1.0000 0.80714  0.07987  0.91763  Biso   1.000  C
  N120     1.0000 0.24198  0.10514  0.77079  Biso   1.000  N
  N121     1.0000 0.24193  0.10514  0.77079  Biso   1.000  N
  H901     1.0000 0.20105  0.18684  0.76824  Biso   1.000  H
  H902     1.0000 0.10155  0.94971  0.76583  Biso   1.000  H
  H903     1.0000 0.10158  0.94978  0.76583  Biso   1.000  H
  N122     1.0000 0.86318  0.75804  0.77079  Biso   1.000  N
  H904     1.0000 0.98577  0.79892  0.76824  Biso   1.000  H
  N123     1.0000 0.86313  0.75804  0.77079  Biso   1.000  N
  C812     1.0000 0.02627  0.25026  0.94999  Biso   1.000  C
  C813     1.0000 0.87918  0.12813  0.93805  Biso   1.000  C
  C814     1.0000 0.87912  0.12813  0.93805  Biso   1.000  C
  C815     1.0000 0.72883  0.99915  0.92629  Biso   1.000  C
  C816     1.0000 0.72878  0.99915  0.92629  Biso   1.000  C
  C817     1.0000 0.33205  0.17522  0.77127  Biso   1.000  C
  C818     1.0000 0.84323  0.66791  0.77127  Biso   1.000  C
  C819     1.0000 0.84321  0.66798  0.77127  Biso   1.000  C
  N124     1.0000 0.09648  0.31772  0.94383  Biso   1.000  N
  N125     1.0000 0.09642  0.31772  0.94383  Biso   1.000  N
  H905     1.0000 0.01956  0.22485  0.96974  Biso   1.000  H
  H906     1.0000 0.87736  0.10684  0.95823  Biso   1.000  H
  N126     1.0000 0.72172  0.95971  0.95242  Biso   1.000  N
  H907     1.0000 0.68091  0.97401  0.91242  Biso   1.000  H
  N127     1.0000 0.72164  0.95977  0.95242  Biso   1.000  N
  H908     1.0000 0.68089  0.97407  0.91242  Biso   1.000  H
  C820     1.0000 0.37463  0.17372  0.74073  Biso   1.000  C
  C821     1.0000 0.37468  0.17372  0.74073  Biso   1.000  C
  C822     1.0000 0.38208  0.16124  0.79773  Biso   1.000  C
  H909     1.0000 0.33457  0.23263  0.77382  Biso   1.000  H
  C823     1.0000 0.38202  0.16124  0.79773  Biso   1.000  C
  H910     1.0000 0.33451  0.23263  0.77382  Biso   1.000  H
  C824     1.0000 0.77923  0.61795  0.79773  Biso   1.000  C
  C825     1.0000 0.79915  0.62533  0.74073  Biso   1.000  C
  H911     1.0000 0.89804  0.66543  0.77382  Biso   1.000  H
  C826     1.0000 0.79909  0.62533  0.74073  Biso   1.000  C
  C827     1.0000 0.16203  0.35371  0.96813  Biso   1.000  C
  C828     1.0000 0.16207  0.35377  0.96813  Biso   1.000  C
  C829     1.0000 0.63683  0.88506  0.95835  Biso   1.000  C
  C830     1.0000 0.47318  0.24301  0.74053  Biso   1.000  C
  H912     1.0000 0.34507  0.18541  0.72363  Biso   1.000  H
  H913     1.0000 0.36755  0.11501  0.73754  Biso   1.000  H
  C831     1.0000 0.47316  0.24307  0.74053  Biso   1.000  C
  H914     1.0000 0.34504  0.18547  0.72363  Biso   1.000  H
  H915     1.0000 0.36753  0.11507  0.73754  Biso   1.000  H
  C832     1.0000 0.47845  0.22831  0.79653  Biso   1.000  C
  N128     1.0000 0.34948  0.16934  0.82716  Biso   1.000  N
  H916     1.0000 0.37467  0.10142  0.79594  Biso   1.000  H
  N129     1.0000 0.34942  0.16934  0.82716  Biso   1.000  N
  H917     1.0000 0.37462  0.10142  0.79594  Biso   1.000  H
  N130     1.0000 0.81990  0.65054  0.82716  Biso   1.000  N
  H918     1.0000 0.72681  0.62533  0.79594  Biso   1.000  H
  C833     1.0000 0.74986  0.52156  0.79653  Biso   1.000  C
  N131     1.0000 0.81984  0.65054  0.82716  Biso   1.000  N
  C834     1.0000 0.76993  0.52685  0.74053  Biso   1.000  C
  H919     1.0000 0.84041  0.65492  0.72363  Biso   1.000  H
  H920     1.0000 0.74745  0.63245  0.73754  Biso   1.000  H
  C835     1.0000 0.24825  0.36324  0.95835  Biso   1.000  C
  C836     1.0000 0.16954  0.44291  0.97683  Biso   1.000  C
  H921     1.0000 0.13989  0.31406  0.98634  Biso   1.000  H
  H922     1.0000 0.13984  0.31406  0.98634  Biso   1.000  H
  C837     1.0000 0.64631  0.80832  0.96813  Biso   1.000  C
  H923     1.0000 0.60235  0.86925  0.93883  Biso   1.000  H
  C838     1.0000 0.58828  0.90491  0.98223  Biso   1.000  C
  H924     1.0000 0.60224  0.86925  0.93883  Biso   1.000  H
  C839     1.0000 0.58831  0.90498  0.98223  Biso   1.000  C
  C840     1.0000 0.52026  0.22642  0.76613  Biso   1.000  C
  H925     1.0000 0.49903  0.24131  0.72064  Biso   1.000  H
  H926     1.0000 0.48024  0.30192  0.74303  Biso   1.000  H
  H927     1.0000 0.49906  0.24138  0.72064  Biso   1.000  H
  H928     1.0000 0.50878  0.21715  0.81352  Biso   1.000  H
  H929     1.0000 0.48607  0.28722  0.79963  Biso   1.000  H
  H930     1.0000 0.50872  0.21715  0.81352  Biso   1.000  H
  H931     1.0000 0.48601  0.28722  0.79963  Biso   1.000  H
  C841     1.0000 0.32976  0.11057  0.84703  Biso   1.000  C
  C842     1.0000 0.78078  0.67026  0.84703  Biso   1.000  C
  H932     1.0000 0.70841  0.49126  0.81352  Biso   1.000  H
  H933     1.0000 0.80119  0.51392  0.79963  Biso   1.000  H
  C843     1.0000 0.70617  0.47976  0.76613  Biso   1.000  C
  H934     1.0000 0.80113  0.51392  0.79963  Biso   1.000  H
  H935     1.0000 0.70836  0.49126  0.81352  Biso   1.000  H
  H936     1.0000 0.74232  0.50092  0.72064  Biso   1.000  H
  H937     1.0000 0.82168  0.51973  0.74303  Biso   1.000  H
  N132     1.0000 0.23809  0.27834  0.95242  Biso   1.000  N
  N133     1.0000 0.23803  0.27834  0.95242  Biso   1.000  N
  H938     1.0000 0.26696  0.39772  0.93883  Biso   1.000  H
  C844     1.0000 0.31668  0.41176  0.98223  Biso   1.000  C
  C845     1.0000 0.24406  0.49163  0.00002  Biso   1.000  C
  H939     1.0000 0.18106  0.47896  0.95814  Biso   1.000  H
  H940     1.0000 0.11384  0.43253  0.98592  Biso   1.000  H
  N134     1.0000 0.68225  0.77874  0.94383  Biso   1.000  N
  C846     1.0000 0.55705  0.72662  0.97683  Biso   1.000  C
  H941     1.0000 0.68595  0.82583  0.98634  Biso   1.000  H
  H942     1.0000 0.58074  0.95363  0.97474  Biso   1.000  H
  C847     1.0000 0.49965  0.82922  0.99063  Biso   1.000  C
  H943     1.0000 0.58063  0.95363  0.97474  Biso   1.000  H
  H944     1.0000 0.62452  0.92535  0.00103  Biso   1.000  H
  H945     1.0000 0.58289  0.27194  0.76613  Biso   1.000  H
  H946     1.0000 0.51595  0.16882  0.76333  Biso   1.000  H
  H947     1.0000 0.58283  0.27194  0.76613  Biso   1.000  H
  C848     1.0000 0.30449  0.11285  0.87793  Biso   1.000  C
  H948     1.0000 0.33198  0.06015  0.84083  Biso   1.000  H
  C849     1.0000 0.30443  0.11285  0.87793  Biso   1.000  C
  H949     1.0000 0.33192  0.06015  0.84083  Biso   1.000  H
  C850     1.0000 0.80835  0.69554  0.87793  Biso   1.000  C
  H950     1.0000 0.72820  0.66804  0.84083  Biso   1.000  H
  H951     1.0000 0.72809  0.66804  0.84083  Biso   1.000  H
  H952     1.0000 0.68911  0.41713  0.76613  Biso   1.000  H
  H953     1.0000 0.65292  0.48401  0.76333  Biso   1.000  H
  H954     1.0000 0.65284  0.48407  0.76333  Biso   1.000  H
  C851     1.0000 0.27039  0.27122  0.92629  Biso   1.000  C
  C852     1.0000 0.27033  0.27122  0.92629  Biso   1.000  C
  H955     1.0000 0.37295  0.41934  0.97474  Biso   1.000  H
  C853     1.0000 0.32957  0.50032  0.99063  Biso   1.000  C
  C854     1.0000 0.32951  0.50032  0.99063  Biso   1.000  C
  H956     1.0000 0.30087  0.37552  0.00103  Biso   1.000  H
  H957     1.0000 0.30082  0.37552  0.00103  Biso   1.000  H
  H958     1.0000 0.25244  0.55080  0.00324  Biso   1.000  H
  H959     1.0000 0.22637  0.46055  0.01993  Biso   1.000  H
  H960     1.0000 0.25247  0.55087  0.00324  Biso   1.000  H
  C855     1.0000 0.74986  0.77606  0.94999  Biso   1.000  C
  C856     1.0000 0.74975  0.77606  0.94999  Biso   1.000  C
  H961     1.0000 0.52105  0.70213  0.95814  Biso   1.000  H
  H962     1.0000 0.56751  0.68137  0.98592  Biso   1.000  H
  C857     1.0000 0.50841  0.75242  0.00002  Biso   1.000  C
  H963     1.0000 0.45986  0.81322  0.97274  Biso   1.000  H
  H964     1.0000 0.47444  0.84633  0.00774  Biso   1.000  H
  H965     1.0000 0.47432  0.84633  0.00774  Biso   1.000  H
  C858     1.0000 0.27918  0.04493  0.89809  Biso   1.000  C
  C859     1.0000 0.30025  0.18763  0.88829  Biso   1.000  C
  C860     1.0000 0.27913  0.04493  0.89809  Biso   1.000  C
  C861     1.0000 0.76578  0.72081  0.89809  Biso   1.000  C
  C862     1.0000 0.88736  0.69972  0.88829  Biso   1.000  C
  C863     1.0000 0.76582  0.72088  0.89809  Biso   1.000  C
  C864     1.0000 0.27266  0.19285  0.91763  Biso   1.000  C
  H966     1.0000 0.29317  0.31916  0.91242  Biso   1.000  H
  H967     1.0000 0.35339  0.54016  0.97274  Biso   1.000  H
  H968     1.0000 0.35333  0.54016  0.97274  Biso   1.000  H
  H969     1.0000 0.37199  0.52566  0.00774  Biso   1.000  H
  H970     1.0000 0.37193  0.52566  0.00774  Biso   1.000  H
  C865     1.0000 0.79144  0.74576  0.92834  Biso   1.000  C
  C866     1.0000 0.79132  0.74576  0.92834  Biso   1.000  C
  H971     1.0000 0.77520  0.79474  0.96974  Biso   1.000  H
  H972     1.0000 0.44919  0.70161  0.00324  Biso   1.000  H
  H973     1.0000 0.53948  0.76581  0.01993  Biso   1.000  H
  H974     1.0000 0.44922  0.70168  0.00324  Biso   1.000  H
  H975     1.0000 0.53952  0.76587  0.01993  Biso   1.000  H
  C867     1.0000 0.25426  0.04565  0.92834  Biso   1.000  C
  H976     1.0000 0.27868  0.99393  0.89093  Biso   1.000  H
  H977     1.0000 0.31707  0.23530  0.87463  Biso   1.000  H
  H978     1.0000 0.31705  0.23537  0.87463  Biso   1.000  H
  H979     1.0000 0.71526  0.72133  0.89093  Biso   1.000  H
  C868     1.0000 0.92023  0.72734  0.91763  Biso   1.000  C
  C869     1.0000 0.92017  0.72734  0.91763  Biso   1.000  C
  H980     1.0000 0.91833  0.68293  0.87463  Biso   1.000  H
  H981     1.0000 0.91822  0.68293  0.87463  Biso   1.000  H
  C870     1.0000 0.24897  0.12082  0.93805  Biso   1.000  C
  C871     1.0000 0.24892  0.12082  0.93805  Biso   1.000  C
  C872     1.0000 0.87185  0.75105  0.93805  Biso   1.000  C
  C873     1.0000 0.22396  0.97375  0.94999  Biso   1.000  C
  C874     1.0000 0.00089  0.72963  0.92629  Biso   1.000  C
  C875     1.0000 0.00084  0.72963  0.92629  Biso   1.000  C
  H982     1.0000 0.22947  0.12265  0.95823  Biso   1.000  H
  H983     1.0000 0.89323  0.77051  0.95823  Biso   1.000  H
  H984     1.0000 0.89321  0.77058  0.95823  Biso   1.000  H
  H985     1.0000 0.20529  0.98041  0.96974  Biso   1.000  H
  N135     1.0000 0.22133  0.90354  0.94383  Biso   1.000  N
  H986     1.0000 0.20533  0.98047  0.96974  Biso   1.000  H
  N136     1.0000 0.04030  0.76195  0.95242  Biso   1.000  N
  H987     1.0000 0.02598  0.70683  0.91242  Biso   1.000  H
  H988     1.0000 0.02592  0.70683  0.91242  Biso   1.000  H
  C876     1.0000 0.19168  0.83791  0.96813  Biso   1.000  C
  C877     1.0000 0.19171  0.83797  0.96813  Biso   1.000  C
  C878     1.0000 0.11503  0.75170  0.95835  Biso   1.000  C
  C879     1.0000 0.11501  0.75177  0.95835  Biso   1.000  C
  C880     1.0000 0.11498  0.75170  0.95835  Biso   1.000  C
  C881     1.0000 0.27336  0.83046  0.97683  Biso   1.000  C
  H989     1.0000 0.17416  0.86011  0.98634  Biso   1.000  H
  H990     1.0000 0.17419  0.86018  0.98634  Biso   1.000  H
  H991     1.0000 0.13081  0.73302  0.93883  Biso   1.000  H
  C882     1.0000 0.09510  0.68332  0.98223  Biso   1.000  C
  H992     1.0000 0.29783  0.81890  0.95814  Biso   1.000  H
  H993     1.0000 0.31865  0.88610  0.98592  Biso   1.000  H
  H994     1.0000 0.29787  0.81897  0.95814  Biso   1.000  H
  H995     1.0000 0.31869  0.88617  0.98592  Biso   1.000  H
  C883     1.0000 0.24758  0.75595  0.00002  Biso   1.000  C
  H996     1.0000 0.04636  0.62703  0.97474  Biso   1.000  H
  C884     1.0000 0.17084  0.67046  0.99063  Biso   1.000  C
  C885     1.0000 0.17079  0.67046  0.99063  Biso   1.000  C
  H997     1.0000 0.07472  0.69913  0.00103  Biso   1.000  H
  H998     1.0000 0.07461  0.69913  0.00103  Biso   1.000  H
  H999     1.0000 0.29840  0.74752  0.00324  Biso   1.000  H
  H1000    1.0000 0.23414  0.77364  0.01993  Biso   1.000  H
  H1001    1.0000 0.29828  0.74752  0.00324  Biso   1.000  H
  H1002    1.0000 0.18675  0.64662  0.97274  Biso   1.000  H
  H1003    1.0000 0.15363  0.62801  0.00774  Biso   1.000  H
  H1004    1.0000 0.15367  0.62807  0.00774  Biso   1.000  H
  C886     1.0000 0.82628  0.20095  0.74073  Biso   1.000  C
  C887     1.0000 0.82474  0.15680  0.77127  Biso   1.000  C
  C888     1.0000 0.82477  0.15687  0.77127  Biso   1.000  C
  C889     1.0000 0.75695  0.23014  0.74053  Biso   1.000  C
  H1005    1.0000 0.81455  0.15961  0.72363  Biso   1.000  H
  H1006    1.0000 0.88500  0.25254  0.73754  Biso   1.000  H
  H1007    1.0000 0.81458  0.15968  0.72363  Biso   1.000  H
  H1008    1.0000 0.88494  0.25254  0.73754  Biso   1.000  H
  N137     1.0000 0.89483  0.13682  0.77079  Biso   1.000  N
  C890     1.0000 0.83875  0.22080  0.79773  Biso   1.000  C
  H1009    1.0000 0.76739  0.10194  0.77382  Biso   1.000  H
  C891     1.0000 0.83873  0.22087  0.79773  Biso   1.000  C
  C892     1.0000 0.82623  0.20095  0.74073  Biso   1.000  C
  H1010    1.0000 0.76733  0.10194  0.77382  Biso   1.000  H
  C893     1.0000 0.77357  0.29382  0.76613  Biso   1.000  C
  C894     1.0000 0.77351  0.29382  0.76613  Biso   1.000  C
  H1011    1.0000 0.75862  0.25770  0.72064  Biso   1.000  H
  H1012    1.0000 0.69808  0.17835  0.74303  Biso   1.000  H
  H1013    1.0000 0.75866  0.25777  0.72064  Biso   1.000  H
  H1014    1.0000 0.69802  0.17835  0.74303  Biso   1.000  H
  C895     1.0000 0.87349  0.05714  0.76893  Biso   1.000  C
  C896     1.0000 0.87343  0.05714  0.76893  Biso   1.000  C
  N138     1.0000 0.83068  0.18012  0.82716  Biso   1.000  N
  H1015    1.0000 0.89857  0.27325  0.79594  Biso   1.000  H
  C897     1.0000 0.77169  0.25013  0.79653  Biso   1.000  C
  H1016    1.0000 0.89863  0.27325  0.79594  Biso   1.000  H
  C898     1.0000 0.77163  0.25013  0.79653  Biso   1.000  C
  N139     1.0000 0.83063  0.18012  0.82716  Biso   1.000  N
  H1017    1.0000 0.72806  0.31093  0.76613  Biso   1.000  H
  H1018    1.0000 0.83115  0.34711  0.76333  Biso   1.000  H
  H1019    1.0000 0.83119  0.34717  0.76333  Biso   1.000  H
  C899     1.0000 0.93896  0.02815  0.76774  Biso   1.000  C
  C900     1.0000 0.93902  0.02815  0.76774  Biso   1.000  C
  H1020    1.0000 0.81318  0.01424  0.76824  Biso   1.000  H
  H1021    1.0000 0.81312  0.01424  0.76824  Biso   1.000  H
  C901     1.0000 0.88950  0.21924  0.84703  Biso   1.000  C
  C902     1.0000 0.88944  0.21924  0.84703  Biso   1.000  C
  H1022    1.0000 0.78290  0.29166  0.81352  Biso   1.000  H
  H1023    1.0000 0.71280  0.19886  0.79963  Biso   1.000  H
  H1024    1.0000 0.78284  0.29166  0.81352  Biso   1.000  H
  H1025    1.0000 0.71274  0.19886  0.79963  Biso   1.000  H
  C903     1.0000 0.03047  0.09104  0.76693  Biso   1.000  C
  C904     1.0000 0.03042  0.09104  0.76693  Biso   1.000  C
  C905     1.0000 0.90904  0.93946  0.76693  Biso   1.000  C
  C906     1.0000 0.90893  0.93946  0.76693  Biso   1.000  C
  C907     1.0000 0.88716  0.19161  0.87793  Biso   1.000  C
  H1026    1.0000 0.93988  0.27181  0.84083  Biso   1.000  H
  C908     1.0000 0.88720  0.19168  0.87793  Biso   1.000  C
  H1027    1.0000 0.93985  0.27187  0.84083  Biso   1.000  H
  C909     1.0000 0.88714  0.19168  0.87793  Biso   1.000  C
  C910     1.0000 0.08918  0.06106  0.76774  Biso   1.000  C
  C911     1.0000 0.08913  0.06106  0.76774  Biso   1.000  C
  H1028    1.0000 0.05024  0.15184  0.76583  Biso   1.000  H
  C912     1.0000 0.97189  0.91086  0.76774  Biso   1.000  C
  C913     1.0000 0.97183  0.91086  0.76774  Biso   1.000  C
  H1029    1.0000 0.84821  0.89845  0.76583  Biso   1.000  H
  C914     1.0000 0.95509  0.23426  0.89809  Biso   1.000  C
  C915     1.0000 0.81239  0.11266  0.88829  Biso   1.000  C
  C916     1.0000 0.95503  0.23426  0.89809  Biso   1.000  C
  C917     1.0000 0.81234  0.11266  0.88829  Biso   1.000  C
  C918     1.0000 0.18369  0.12657  0.76893  Biso   1.000  C
  C919     1.0000 0.18364  0.12657  0.76893  Biso   1.000  C
  C920     1.0000 0.06059  0.96950  0.76693  Biso   1.000  C
  C921     1.0000 0.06063  0.96957  0.76693  Biso   1.000  C
  C922     1.0000 0.94296  0.81636  0.76893  Biso   1.000  C
  C923     1.0000 0.94290  0.81636  0.76893  Biso   1.000  C
  C924     1.0000 0.95439  0.20866  0.92834  Biso   1.000  C
  C925     1.0000 0.95434  0.20866  0.92834  Biso   1.000  C
  H1030    1.0000 0.00607  0.28474  0.89093  Biso   1.000  H
  H1031    1.0000 0.76471  0.08176  0.87463  Biso   1.000  H
  C926     1.0000 0.80717  0.07981  0.91763  Biso   1.000  C
  H1032    1.0000 0.76465  0.08176  0.87463  Biso   1.000  H
  C927     1.0000 0.80720  0.07987  0.91763  Biso   1.000  C
  C928     1.0000 0.80714  0.07987  0.91763  Biso   1.000  C
  N140     1.0000 0.24198  0.10514  0.77079  Biso   1.000  N
  N141     1.0000 0.24193  0.10514  0.77079  Biso   1.000  N
  H1033    1.0000 0.20105  0.18684  0.76824  Biso   1.000  H
  H1034    1.0000 0.10155  0.94971  0.76583  Biso   1.000  H
  H1035    1.0000 0.10158  0.94978  0.76583  Biso   1.000  H
  H1036    1.0000 0.98577  0.79892  0.76824  Biso   1.000  H
  N142     1.0000 0.86318  0.75804  0.77079  Biso   1.000  N
  N143     1.0000 0.86313  0.75804  0.77079  Biso   1.000  N
  C929     1.0000 0.02627  0.25026  0.94999  Biso   1.000  C
  C930     1.0000 0.87918  0.12813  0.93805  Biso   1.000  C
  C931     1.0000 0.87912  0.12813  0.93805  Biso   1.000  C
  C932     1.0000 0.72883  0.99915  0.92629  Biso   1.000  C
  C933     1.0000 0.72878  0.99915  0.92629  Biso   1.000  C
  C934     1.0000 0.33205  0.17522  0.77127  Biso   1.000  C
  C935     1.0000 0.84323  0.66791  0.77127  Biso   1.000  C
  C936     1.0000 0.84321  0.66798  0.77127  Biso   1.000  C
  N144     1.0000 0.09648  0.31772  0.94383  Biso   1.000  N
  N145     1.0000 0.09642  0.31772  0.94383  Biso   1.000  N
  H1037    1.0000 0.01956  0.22485  0.96974  Biso   1.000  H
  H1038    1.0000 0.87736  0.10684  0.95823  Biso   1.000  H
  N146     1.0000 0.72172  0.95971  0.95242  Biso   1.000  N
  H1039    1.0000 0.68091  0.97401  0.91242  Biso   1.000  H
  N147     1.0000 0.72164  0.95977  0.95242  Biso   1.000  N
  H1040    1.0000 0.68089  0.97407  0.91242  Biso   1.000  H
  C937     1.0000 0.37463  0.17372  0.74073  Biso   1.000  C
  C938     1.0000 0.38208  0.16124  0.79773  Biso   1.000  C
  C939     1.0000 0.37468  0.17372  0.74073  Biso   1.000  C
  H1041    1.0000 0.33457  0.23263  0.77382  Biso   1.000  H
  C940     1.0000 0.38202  0.16124  0.79773  Biso   1.000  C
  H1042    1.0000 0.33451  0.23263  0.77382  Biso   1.000  H
  C941     1.0000 0.77923  0.61795  0.79773  Biso   1.000  C
  C942     1.0000 0.79915  0.62533  0.74073  Biso   1.000  C
  H1043    1.0000 0.89804  0.66543  0.77382  Biso   1.000  H
  C943     1.0000 0.79909  0.62533  0.74073  Biso   1.000  C
  C944     1.0000 0.16203  0.35371  0.96813  Biso   1.000  C
  C945     1.0000 0.16207  0.35377  0.96813  Biso   1.000  C
  C946     1.0000 0.63683  0.88506  0.95835  Biso   1.000  C
  C947     1.0000 0.47318  0.24301  0.74053  Biso   1.000  C
  H1044    1.0000 0.34507  0.18541  0.72363  Biso   1.000  H
  H1045    1.0000 0.36755  0.11501  0.73754  Biso   1.000  H
  C948     1.0000 0.47316  0.24307  0.74053  Biso   1.000  C
  H1046    1.0000 0.34504  0.18547  0.72363  Biso   1.000  H
  H1047    1.0000 0.36753  0.11507  0.73754  Biso   1.000  H
  C949     1.0000 0.47845  0.22831  0.79653  Biso   1.000  C
  N148     1.0000 0.34948  0.16934  0.82716  Biso   1.000  N
  H1048    1.0000 0.37467  0.10142  0.79594  Biso   1.000  H
  N149     1.0000 0.34942  0.16934  0.82716  Biso   1.000  N
  H1049    1.0000 0.37462  0.10142  0.79594  Biso   1.000  H
  N150     1.0000 0.81990  0.65054  0.82716  Biso   1.000  N
  H1050    1.0000 0.72681  0.62533  0.79594  Biso   1.000  H
  C950     1.0000 0.74986  0.52156  0.79653  Biso   1.000  C
  N151     1.0000 0.81984  0.65054  0.82716  Biso   1.000  N
  C951     1.0000 0.76993  0.52685  0.74053  Biso   1.000  C
  H1051    1.0000 0.84041  0.65492  0.72363  Biso   1.000  H
  H1052    1.0000 0.74745  0.63245  0.73754  Biso   1.000  H
  C952     1.0000 0.24825  0.36324  0.95835  Biso   1.000  C
  C953     1.0000 0.16954  0.44291  0.97683  Biso   1.000  C
  H1053    1.0000 0.13989  0.31406  0.98634  Biso   1.000  H
  H1054    1.0000 0.13984  0.31406  0.98634  Biso   1.000  H
  C954     1.0000 0.64631  0.80832  0.96813  Biso   1.000  C
  H1055    1.0000 0.60235  0.86925  0.93883  Biso   1.000  H
  C955     1.0000 0.58828  0.90491  0.98223  Biso   1.000  C
  H1056    1.0000 0.60224  0.86925  0.93883  Biso   1.000  H
  C956     1.0000 0.58831  0.90498  0.98223  Biso   1.000  C
  C957     1.0000 0.52026  0.22642  0.76613  Biso   1.000  C
  H1057    1.0000 0.48024  0.30192  0.74303  Biso   1.000  H
  H1058    1.0000 0.49903  0.24131  0.72064  Biso   1.000  H
  H1059    1.0000 0.49906  0.24138  0.72064  Biso   1.000  H
  H1060    1.0000 0.50878  0.21715  0.81352  Biso   1.000  H
  H1061    1.0000 0.48607  0.28722  0.79963  Biso   1.000  H
  H1062    1.0000 0.50872  0.21715  0.81352  Biso   1.000  H
  H1063    1.0000 0.48601  0.28722  0.79963  Biso   1.000  H
  C958     1.0000 0.32976  0.11057  0.84703  Biso   1.000  C
  C959     1.0000 0.78078  0.67026  0.84703  Biso   1.000  C
  H1064    1.0000 0.70841  0.49126  0.81352  Biso   1.000  H
  H1065    1.0000 0.80119  0.51392  0.79963  Biso   1.000  H
  C960     1.0000 0.70617  0.47976  0.76613  Biso   1.000  C
  H1066    1.0000 0.80113  0.51392  0.79963  Biso   1.000  H
  H1067    1.0000 0.70836  0.49126  0.81352  Biso   1.000  H
  H1068    1.0000 0.82168  0.51973  0.74303  Biso   1.000  H
  H1069    1.0000 0.74232  0.50092  0.72064  Biso   1.000  H
  N152     1.0000 0.23809  0.27834  0.95242  Biso   1.000  N
  N153     1.0000 0.23803  0.27834  0.95242  Biso   1.000  N
  H1070    1.0000 0.26696  0.39772  0.93883  Biso   1.000  H
  C961     1.0000 0.31668  0.41176  0.98223  Biso   1.000  C
  C962     1.0000 0.24406  0.49163  0.00002  Biso   1.000  C
  H1071    1.0000 0.18106  0.47896  0.95814  Biso   1.000  H
  H1072    1.0000 0.11384  0.43253  0.98592  Biso   1.000  H
  N154     1.0000 0.68225  0.77874  0.94383  Biso   1.000  N
  C963     1.0000 0.55705  0.72662  0.97683  Biso   1.000  C
  H1073    1.0000 0.68595  0.82583  0.98634  Biso   1.000  H
  H1074    1.0000 0.58074  0.95363  0.97474  Biso   1.000  H
  C964     1.0000 0.49965  0.82922  0.99063  Biso   1.000  C
  H1075    1.0000 0.58063  0.95363  0.97474  Biso   1.000  H
  H1076    1.0000 0.62452  0.92535  0.00103  Biso   1.000  H
  H1077    1.0000 0.51595  0.16882  0.76333  Biso   1.000  H
  H1078    1.0000 0.58289  0.27194  0.76613  Biso   1.000  H
  H1079    1.0000 0.58283  0.27194  0.76613  Biso   1.000  H
  C965     1.0000 0.30449  0.11285  0.87793  Biso   1.000  C
  H1080    1.0000 0.33198  0.06015  0.84083  Biso   1.000  H
  C966     1.0000 0.30443  0.11285  0.87793  Biso   1.000  C
  H1081    1.0000 0.33192  0.06015  0.84083  Biso   1.000  H
  C967     1.0000 0.80835  0.69554  0.87793  Biso   1.000  C
  H1082    1.0000 0.72820  0.66804  0.84083  Biso   1.000  H
  H1083    1.0000 0.72809  0.66804  0.84083  Biso   1.000  H
  H1084    1.0000 0.68911  0.41713  0.76613  Biso   1.000  H
  H1085    1.0000 0.65292  0.48401  0.76333  Biso   1.000  H
  H1086    1.0000 0.65284  0.48407  0.76333  Biso   1.000  H
  C968     1.0000 0.27039  0.27122  0.92629  Biso   1.000  C
  C969     1.0000 0.27033  0.27122  0.92629  Biso   1.000  C
  H1087    1.0000 0.37295  0.41934  0.97474  Biso   1.000  H
  C970     1.0000 0.32957  0.50032  0.99063  Biso   1.000  C
  C971     1.0000 0.32951  0.50032  0.99063  Biso   1.000  C
  H1088    1.0000 0.30087  0.37552  0.00103  Biso   1.000  H
  H1089    1.0000 0.30082  0.37552  0.00103  Biso   1.000  H
  H1090    1.0000 0.25244  0.55080  0.00324  Biso   1.000  H
  H1091    1.0000 0.22637  0.46055  0.01993  Biso   1.000  H
  H1092    1.0000 0.25247  0.55087  0.00324  Biso   1.000  H
  C972     1.0000 0.74986  0.77606  0.94999  Biso   1.000  C
  C973     1.0000 0.74975  0.77606  0.94999  Biso   1.000  C
  H1093    1.0000 0.56751  0.68137  0.98592  Biso   1.000  H
  H1094    1.0000 0.52105  0.70213  0.95814  Biso   1.000  H
  C974     1.0000 0.50841  0.75242  0.00002  Biso   1.000  C
  H1095    1.0000 0.45986  0.81322  0.97274  Biso   1.000  H
  H1096    1.0000 0.47444  0.84633  0.00774  Biso   1.000  H
  H1097    1.0000 0.47432  0.84633  0.00774  Biso   1.000  H
  C975     1.0000 0.30025  0.18763  0.88829  Biso   1.000  C
  C976     1.0000 0.27918  0.04493  0.89809  Biso   1.000  C
  C977     1.0000 0.27913  0.04493  0.89809  Biso   1.000  C
  C978     1.0000 0.76578  0.72081  0.89809  Biso   1.000  C
  C979     1.0000 0.88736  0.69972  0.88829  Biso   1.000  C
  C980     1.0000 0.76582  0.72088  0.89809  Biso   1.000  C
  C981     1.0000 0.27266  0.19285  0.91763  Biso   1.000  C
  H1098    1.0000 0.29317  0.31916  0.91242  Biso   1.000  H
  H1099    1.0000 0.35339  0.54016  0.97274  Biso   1.000  H
  H1100    1.0000 0.35333  0.54016  0.97274  Biso   1.000  H
  H1101    1.0000 0.37199  0.52566  0.00774  Biso   1.000  H
  H1102    1.0000 0.37193  0.52566  0.00774  Biso   1.000  H
  C982     1.0000 0.79144  0.74576  0.92834  Biso   1.000  C
  C983     1.0000 0.79132  0.74576  0.92834  Biso   1.000  C
  H1103    1.0000 0.77520  0.79474  0.96974  Biso   1.000  H
  H1104    1.0000 0.44919  0.70161  0.00324  Biso   1.000  H
  H1105    1.0000 0.53948  0.76581  0.01993  Biso   1.000  H
  H1106    1.0000 0.44922  0.70168  0.00324  Biso   1.000  H
  H1107    1.0000 0.53952  0.76587  0.01993  Biso   1.000  H
  H1108    1.0000 0.31707  0.23530  0.87463  Biso   1.000  H
  H1109    1.0000 0.31705  0.23537  0.87463  Biso   1.000  H
  H1110    1.0000 0.27868  0.99393  0.89093  Biso   1.000  H
  C984     1.0000 0.25426  0.04565  0.92834  Biso   1.000  C
  H1111    1.0000 0.71526  0.72133  0.89093  Biso   1.000  H
  C985     1.0000 0.92023  0.72734  0.91763  Biso   1.000  C
  C986     1.0000 0.92017  0.72734  0.91763  Biso   1.000  C
  H1112    1.0000 0.91833  0.68293  0.87463  Biso   1.000  H
  H1113    1.0000 0.91822  0.68293  0.87463  Biso   1.000  H
  C987     1.0000 0.24897  0.12082  0.93805  Biso   1.000  C
  C988     1.0000 0.24892  0.12082  0.93805  Biso   1.000  C
  C989     1.0000 0.87185  0.75105  0.93805  Biso   1.000  C
  C990     1.0000 0.22396  0.97375  0.94999  Biso   1.000  C
  C991     1.0000 0.00089  0.72963  0.92629  Biso   1.000  C
  C992     1.0000 0.00084  0.72963  0.92629  Biso   1.000  C
  H1114    1.0000 0.22947  0.12265  0.95823  Biso   1.000  H
  H1115    1.0000 0.89323  0.77051  0.95823  Biso   1.000  H
  H1116    1.0000 0.89321  0.77058  0.95823  Biso   1.000  H
  H1117    1.0000 0.20529  0.98041  0.96974  Biso   1.000  H
  N155     1.0000 0.22133  0.90354  0.94383  Biso   1.000  N
  H1118    1.0000 0.20533  0.98047  0.96974  Biso   1.000  H
  N156     1.0000 0.04030  0.76195  0.95242  Biso   1.000  N
  H1119    1.0000 0.02598  0.70683  0.91242  Biso   1.000  H
  H1120    1.0000 0.02592  0.70683  0.91242  Biso   1.000  H
  C993     1.0000 0.19168  0.83791  0.96813  Biso   1.000  C
  C994     1.0000 0.19171  0.83797  0.96813  Biso   1.000  C
  C995     1.0000 0.11503  0.75170  0.95835  Biso   1.000  C
  C996     1.0000 0.11501  0.75177  0.95835  Biso   1.000  C
  C997     1.0000 0.11498  0.75170  0.95835  Biso   1.000  C
  C998     1.0000 0.27336  0.83046  0.97683  Biso   1.000  C
  H1121    1.0000 0.17416  0.86011  0.98634  Biso   1.000  H
  H1122    1.0000 0.17419  0.86018  0.98634  Biso   1.000  H
  H1123    1.0000 0.13081  0.73302  0.93883  Biso   1.000  H
  C999     1.0000 0.09510  0.68332  0.98223  Biso   1.000  C
  H1124    1.0000 0.29783  0.81890  0.95814  Biso   1.000  H
  C1000    1.0000 0.24758  0.75595  0.00002  Biso   1.000  C
  H1125    1.0000 0.31865  0.88610  0.98592  Biso   1.000  H
  H1126    1.0000 0.29787  0.81897  0.95814  Biso   1.000  H
  H1127    1.0000 0.31869  0.88617  0.98592  Biso   1.000  H
  H1128    1.0000 0.04636  0.62703  0.97474  Biso   1.000  H
  C1001    1.0000 0.17084  0.67046  0.99063  Biso   1.000  C
  C1002    1.0000 0.17079  0.67046  0.99063  Biso   1.000  C
  H1129    1.0000 0.07472  0.69913  0.00103  Biso   1.000  H
  H1130    1.0000 0.07461  0.69913  0.00103  Biso   1.000  H
  H1131    1.0000 0.29840  0.74752  0.00324  Biso   1.000  H
  H1132    1.0000 0.23414  0.77364  0.01993  Biso   1.000  H
  H1133    1.0000 0.29828  0.74752  0.00324  Biso   1.000  H
  H1134    1.0000 0.18675  0.64662  0.97274  Biso   1.000  H
  H1135    1.0000 0.15363  0.62801  0.00774  Biso   1.000  H
  H1136    1.0000 0.15367  0.62807  0.00774  Biso   1.000  H
  C1003    1.0000 0.82628  0.20095  0.74073  Biso   1.000  C
  C1004    1.0000 0.82474  0.15680  0.77127  Biso   1.000  C
  C1005    1.0000 0.82477  0.15687  0.77127  Biso   1.000  C
  C1006    1.0000 0.75695  0.23014  0.74053  Biso   1.000  C
  H1137    1.0000 0.81455  0.15961  0.72363  Biso   1.000  H
  H1138    1.0000 0.88500  0.25254  0.73754  Biso   1.000  H
  H1139    1.0000 0.81458  0.15968  0.72363  Biso   1.000  H
  H1140    1.0000 0.88494  0.25254  0.73754  Biso   1.000  H
  N157     1.0000 0.89483  0.13682  0.77079  Biso   1.000  N
  C1007    1.0000 0.83875  0.22080  0.79773  Biso   1.000  C
  H1141    1.0000 0.76739  0.10194  0.77382  Biso   1.000  H
  C1008    1.0000 0.83873  0.22087  0.79773  Biso   1.000  C
  C1009    1.0000 0.82623  0.20095  0.74073  Biso   1.000  C
  H1142    1.0000 0.76733  0.10194  0.77382  Biso   1.000  H
  C1010    1.0000 0.77357  0.29382  0.76613  Biso   1.000  C
  C1011    1.0000 0.77351  0.29382  0.76613  Biso   1.000  C
  H1143    1.0000 0.75862  0.25770  0.72064  Biso   1.000  H
  H1144    1.0000 0.69808  0.17835  0.74303  Biso   1.000  H
  H1145    1.0000 0.75866  0.25777  0.72064  Biso   1.000  H
  H1146    1.0000 0.69802  0.17835  0.74303  Biso   1.000  H
  C1012    1.0000 0.87349  0.05714  0.76893  Biso   1.000  C
  C1013    1.0000 0.87343  0.05714  0.76893  Biso   1.000  C
  N158     1.0000 0.83068  0.18012  0.82716  Biso   1.000  N
  H1147    1.0000 0.89857  0.27325  0.79594  Biso   1.000  H
  C1014    1.0000 0.77169  0.25013  0.79653  Biso   1.000  C
  H1148    1.0000 0.89863  0.27325  0.79594  Biso   1.000  H
  C1015    1.0000 0.77163  0.25013  0.79653  Biso   1.000  C
  N159     1.0000 0.83063  0.18012  0.82716  Biso   1.000  N
  H1149    1.0000 0.72806  0.31093  0.76613  Biso   1.000  H
  H1150    1.0000 0.83115  0.34711  0.76333  Biso   1.000  H
  H1151    1.0000 0.83119  0.34717  0.76333  Biso   1.000  H
  C1016    1.0000 0.93896  0.02815  0.76774  Biso   1.000  C
  C1017    1.0000 0.93902  0.02815  0.76774  Biso   1.000  C
  H1152    1.0000 0.81318  0.01424  0.76824  Biso   1.000  H
  H1153    1.0000 0.81312  0.01424  0.76824  Biso   1.000  H
  C1018    1.0000 0.88950  0.21924  0.84703  Biso   1.000  C
  C1019    1.0000 0.88944  0.21924  0.84703  Biso   1.000  C
  H1154    1.0000 0.78290  0.29166  0.81352  Biso   1.000  H
  H1155    1.0000 0.71280  0.19886  0.79963  Biso   1.000  H
  H1156    1.0000 0.78284  0.29166  0.81352  Biso   1.000  H
  H1157    1.0000 0.71274  0.19886  0.79963  Biso   1.000  H
  C1020    1.0000 0.03047  0.09104  0.76693  Biso   1.000  C
  C1021    1.0000 0.03042  0.09104  0.76693  Biso   1.000  C
  C1022    1.0000 0.90904  0.93946  0.76693  Biso   1.000  C
  C1023    1.0000 0.90893  0.93946  0.76693  Biso   1.000  C
  C1024    1.0000 0.88716  0.19161  0.87793  Biso   1.000  C
  H1158    1.0000 0.93988  0.27181  0.84083  Biso   1.000  H
  C1025    1.0000 0.88720  0.19168  0.87793  Biso   1.000  C
  H1159    1.0000 0.93985  0.27187  0.84083  Biso   1.000  H
  C1026    1.0000 0.88714  0.19168  0.87793  Biso   1.000  C
  C1027    1.0000 0.08918  0.06106  0.76774  Biso   1.000  C
  C1028    1.0000 0.08913  0.06106  0.76774  Biso   1.000  C
  H1160    1.0000 0.05024  0.15184  0.76583  Biso   1.000  H
  C1029    1.0000 0.97189  0.91086  0.76774  Biso   1.000  C
  C1030    1.0000 0.97183  0.91086  0.76774  Biso   1.000  C
  H1161    1.0000 0.84821  0.89845  0.76583  Biso   1.000  H
  C1031    1.0000 0.95509  0.23426  0.89809  Biso   1.000  C
  C1032    1.0000 0.81239  0.11266  0.88829  Biso   1.000  C
  C1033    1.0000 0.95503  0.23426  0.89809  Biso   1.000  C
  C1034    1.0000 0.81234  0.11266  0.88829  Biso   1.000  C
  C1035    1.0000 0.18369  0.12657  0.76893  Biso   1.000  C
  C1036    1.0000 0.18364  0.12657  0.76893  Biso   1.000  C
  C1037    1.0000 0.06059  0.96950  0.76693  Biso   1.000  C
  C1038    1.0000 0.06063  0.96957  0.76693  Biso   1.000  C
  C1039    1.0000 0.94296  0.81636  0.76893  Biso   1.000  C
  C1040    1.0000 0.94290  0.81636  0.76893  Biso   1.000  C
  C1041    1.0000 0.95439  0.20866  0.92834  Biso   1.000  C
  C1042    1.0000 0.95434  0.20866  0.92834  Biso   1.000  C
  H1162    1.0000 0.00607  0.28474  0.89093  Biso   1.000  H
  H1163    1.0000 0.76471  0.08176  0.87463  Biso   1.000  H
  C1043    1.0000 0.80717  0.07981  0.91763  Biso   1.000  C
  H1164    1.0000 0.76465  0.08176  0.87463  Biso   1.000  H
  C1044    1.0000 0.80720  0.07987  0.91763  Biso   1.000  C
  C1045    1.0000 0.80714  0.07987  0.91763  Biso   1.000  C
  N160     1.0000 0.24198  0.10514  0.77079  Biso   1.000  N
  N161     1.0000 0.24193  0.10514  0.77079  Biso   1.000  N
  H1165    1.0000 0.20105  0.18684  0.76824  Biso   1.000  H
  H1166    1.0000 0.10155  0.94971  0.76583  Biso   1.000  H
  H1167    1.0000 0.10158  0.94978  0.76583  Biso   1.000  H
  H1168    1.0000 0.98577  0.79892  0.76824  Biso   1.000  H
  N162     1.0000 0.86318  0.75804  0.77079  Biso   1.000  N
  N163     1.0000 0.86313  0.75804  0.77079  Biso   1.000  N
  C1046    1.0000 0.02627  0.25026  0.94999  Biso   1.000  C
  C1047    1.0000 0.87918  0.12813  0.93805  Biso   1.000  C
  C1048    1.0000 0.87912  0.12813  0.93805  Biso   1.000  C
  C1049    1.0000 0.72883  0.99915  0.92629  Biso   1.000  C
  C1050    1.0000 0.72878  0.99915  0.92629  Biso   1.000  C
  C1051    1.0000 0.33205  0.17522  0.77127  Biso   1.000  C
  C1052    1.0000 0.84323  0.66791  0.77127  Biso   1.000  C
  C1053    1.0000 0.84321  0.66798  0.77127  Biso   1.000  C
  N164     1.0000 0.09648  0.31772  0.94383  Biso   1.000  N
  N165     1.0000 0.09642  0.31772  0.94383  Biso   1.000  N
  H1169    1.0000 0.01956  0.22485  0.96974  Biso   1.000  H
  H1170    1.0000 0.87736  0.10684  0.95823  Biso   1.000  H
  N166     1.0000 0.72172  0.95971  0.95242  Biso   1.000  N
  H1171    1.0000 0.68091  0.97401  0.91242  Biso   1.000  H
  N167     1.0000 0.72164  0.95977  0.95242  Biso   1.000  N
  H1172    1.0000 0.68089  0.97407  0.91242  Biso   1.000  H
  C1054    1.0000 0.38208  0.16124  0.79773  Biso   1.000  C
  C1055    1.0000 0.37468  0.17372  0.74073  Biso   1.000  C
  H1173    1.0000 0.33457  0.23263  0.77382  Biso   1.000  H
  C1056    1.0000 0.38202  0.16124  0.79773  Biso   1.000  C
  C1057    1.0000 0.37463  0.17372  0.74073  Biso   1.000  C
  H1174    1.0000 0.33451  0.23263  0.77382  Biso   1.000  H
  C1058    1.0000 0.77923  0.61795  0.79773  Biso   1.000  C
  C1059    1.0000 0.79915  0.62533  0.74073  Biso   1.000  C
  H1175    1.0000 0.89804  0.66543  0.77382  Biso   1.000  H
  C1060    1.0000 0.79909  0.62533  0.74073  Biso   1.000  C
  C1061    1.0000 0.16203  0.35371  0.96813  Biso   1.000  C
  C1062    1.0000 0.16207  0.35377  0.96813  Biso   1.000  C
  C1063    1.0000 0.63683  0.88506  0.95835  Biso   1.000  C
  C1064    1.0000 0.47845  0.22831  0.79653  Biso   1.000  C
  N168     1.0000 0.34948  0.16934  0.82716  Biso   1.000  N
  H1176    1.0000 0.37467  0.10142  0.79594  Biso   1.000  H
  N169     1.0000 0.34942  0.16934  0.82716  Biso   1.000  N
  H1177    1.0000 0.37462  0.10142  0.79594  Biso   1.000  H
  C1065    1.0000 0.47318  0.24301  0.74053  Biso   1.000  C
  H1178    1.0000 0.34507  0.18541  0.72363  Biso   1.000  H
  H1179    1.0000 0.36755  0.11501  0.73754  Biso   1.000  H
  C1066    1.0000 0.47316  0.24307  0.74053  Biso   1.000  C
  H1180    1.0000 0.34504  0.18547  0.72363  Biso   1.000  H
  H1181    1.0000 0.36753  0.11507  0.73754  Biso   1.000  H
  N170     1.0000 0.81990  0.65054  0.82716  Biso   1.000  N
  H1182    1.0000 0.72681  0.62533  0.79594  Biso   1.000  H
  C1067    1.0000 0.74986  0.52156  0.79653  Biso   1.000  C
  N171     1.0000 0.81984  0.65054  0.82716  Biso   1.000  N
  C1068    1.0000 0.76993  0.52685  0.74053  Biso   1.000  C
  H1183    1.0000 0.84041  0.65492  0.72363  Biso   1.000  H
  H1184    1.0000 0.74745  0.63245  0.73754  Biso   1.000  H
  C1069    1.0000 0.24825  0.36324  0.95835  Biso   1.000  C
  C1070    1.0000 0.16954  0.44291  0.97683  Biso   1.000  C
  H1185    1.0000 0.13989  0.31406  0.98634  Biso   1.000  H
  H1186    1.0000 0.13984  0.31406  0.98634  Biso   1.000  H
  C1071    1.0000 0.64631  0.80832  0.96813  Biso   1.000  C
  H1187    1.0000 0.60235  0.86925  0.93883  Biso   1.000  H
  C1072    1.0000 0.58828  0.90491  0.98223  Biso   1.000  C
  H1188    1.0000 0.60224  0.86925  0.93883  Biso   1.000  H
  C1073    1.0000 0.58831  0.90498  0.98223  Biso   1.000  C
  C1074    1.0000 0.52026  0.22642  0.76613  Biso   1.000  C
  H1189    1.0000 0.50878  0.21715  0.81352  Biso   1.000  H
  H1190    1.0000 0.48607  0.28722  0.79963  Biso   1.000  H
  H1191    1.0000 0.50872  0.21715  0.81352  Biso   1.000  H
  H1192    1.0000 0.48601  0.28722  0.79963  Biso   1.000  H
  C1075    1.0000 0.32976  0.11057  0.84703  Biso   1.000  C
  H1193    1.0000 0.48024  0.30192  0.74303  Biso   1.000  H
  H1194    1.0000 0.49903  0.24131  0.72064  Biso   1.000  H
  H1195    1.0000 0.49906  0.24138  0.72064  Biso   1.000  H
  C1076    1.0000 0.78078  0.67026  0.84703  Biso   1.000  C
  H1196    1.0000 0.70841  0.49126  0.81352  Biso   1.000  H
  H1197    1.0000 0.80119  0.51392  0.79963  Biso   1.000  H
  C1077    1.0000 0.70617  0.47976  0.76613  Biso   1.000  C
  H1198    1.0000 0.80113  0.51392  0.79963  Biso   1.000  H
  H1199    1.0000 0.70836  0.49126  0.81352  Biso   1.000  H
  H1200    1.0000 0.82168  0.51973  0.74303  Biso   1.000  H
  H1201    1.0000 0.74232  0.50092  0.72064  Biso   1.000  H
  N172     1.0000 0.23809  0.27834  0.95242  Biso   1.000  N
  N173     1.0000 0.23803  0.27834  0.95242  Biso   1.000  N
  H1202    1.0000 0.26696  0.39772  0.93883  Biso   1.000  H
  C1078    1.0000 0.31668  0.41176  0.98223  Biso   1.000  C
  C1079    1.0000 0.24406  0.49163  0.00002  Biso   1.000  C
  H1203    1.0000 0.18106  0.47896  0.95814  Biso   1.000  H
  H1204    1.0000 0.11384  0.43253  0.98592  Biso   1.000  H
  N174     1.0000 0.68225  0.77874  0.94383  Biso   1.000  N
  C1080    1.0000 0.55705  0.72662  0.97683  Biso   1.000  C
  H1205    1.0000 0.68595  0.82583  0.98634  Biso   1.000  H
  H1206    1.0000 0.58074  0.95363  0.97474  Biso   1.000  H
  C1081    1.0000 0.49965  0.82922  0.99063  Biso   1.000  C
  H1207    1.0000 0.58063  0.95363  0.97474  Biso   1.000  H
  H1208    1.0000 0.62452  0.92535  0.00103  Biso   1.000  H
  H1209    1.0000 0.51595  0.16882  0.76333  Biso   1.000  H
  H1210    1.0000 0.58289  0.27194  0.76613  Biso   1.000  H
  H1211    1.0000 0.58283  0.27194  0.76613  Biso   1.000  H
  C1082    1.0000 0.30449  0.11285  0.87793  Biso   1.000  C
  H1212    1.0000 0.33198  0.06015  0.84083  Biso   1.000  H
  C1083    1.0000 0.30443  0.11285  0.87793  Biso   1.000  C
  H1213    1.0000 0.33192  0.06015  0.84083  Biso   1.000  H
  C1084    1.0000 0.80835  0.69554  0.87793  Biso   1.000  C
  H1214    1.0000 0.72820  0.66804  0.84083  Biso   1.000  H
  H1215    1.0000 0.72809  0.66804  0.84083  Biso   1.000  H
  H1216    1.0000 0.68911  0.41713  0.76613  Biso   1.000  H
  H1217    1.0000 0.65292  0.48401  0.76333  Biso   1.000  H
  H1218    1.0000 0.65284  0.48407  0.76333  Biso   1.000  H
  C1085    1.0000 0.27039  0.27122  0.92629  Biso   1.000  C
  C1086    1.0000 0.27033  0.27122  0.92629  Biso   1.000  C
  H1219    1.0000 0.37295  0.41934  0.97474  Biso   1.000  H
  C1087    1.0000 0.32957  0.50032  0.99063  Biso   1.000  C
  C1088    1.0000 0.32951  0.50032  0.99063  Biso   1.000  C
  H1220    1.0000 0.30087  0.37552  0.00103  Biso   1.000  H
  H1221    1.0000 0.30082  0.37552  0.00103  Biso   1.000  H
  H1222    1.0000 0.25244  0.55080  0.00324  Biso   1.000  H
  H1223    1.0000 0.22637  0.46055  0.01993  Biso   1.000  H
  H1224    1.0000 0.25247  0.55087  0.00324  Biso   1.000  H
  C1089    1.0000 0.74986  0.77606  0.94999  Biso   1.000  C
  C1090    1.0000 0.74975  0.77606  0.94999  Biso   1.000  C
  H1225    1.0000 0.56751  0.68137  0.98592  Biso   1.000  H
  H1226    1.0000 0.52105  0.70213  0.95814  Biso   1.000  H
  C1091    1.0000 0.50841  0.75242  0.00002  Biso   1.000  C
  H1227    1.0000 0.45986  0.81322  0.97274  Biso   1.000  H
  H1228    1.0000 0.47444  0.84633  0.00774  Biso   1.000  H
  H1229    1.0000 0.47432  0.84633  0.00774  Biso   1.000  H
  C1092    1.0000 0.30025  0.18763  0.88829  Biso   1.000  C
  C1093    1.0000 0.27918  0.04493  0.89809  Biso   1.000  C
  C1094    1.0000 0.27913  0.04493  0.89809  Biso   1.000  C
  C1095    1.0000 0.76578  0.72081  0.89809  Biso   1.000  C
  C1096    1.0000 0.88736  0.69972  0.88829  Biso   1.000  C
  C1097    1.0000 0.76582  0.72088  0.89809  Biso   1.000  C
  C1098    1.0000 0.27266  0.19285  0.91763  Biso   1.000  C
  H1230    1.0000 0.29317  0.31916  0.91242  Biso   1.000  H
  H1231    1.0000 0.35339  0.54016  0.97274  Biso   1.000  H
  H1232    1.0000 0.35333  0.54016  0.97274  Biso   1.000  H
  H1233    1.0000 0.37199  0.52566  0.00774  Biso   1.000  H
  H1234    1.0000 0.37193  0.52566  0.00774  Biso   1.000  H
  C1099    1.0000 0.79144  0.74576  0.92834  Biso   1.000  C
  C1100    1.0000 0.79132  0.74576  0.92834  Biso   1.000  C
  H1235    1.0000 0.77520  0.79474  0.96974  Biso   1.000  H
  H1236    1.0000 0.44919  0.70161  0.00324  Biso   1.000  H
  H1237    1.0000 0.53948  0.76581  0.01993  Biso   1.000  H
  H1238    1.0000 0.44922  0.70168  0.00324  Biso   1.000  H
  H1239    1.0000 0.53952  0.76587  0.01993  Biso   1.000  H
  H1240    1.0000 0.31707  0.23530  0.87463  Biso   1.000  H
  H1241    1.0000 0.31705  0.23537  0.87463  Biso   1.000  H
  H1242    1.0000 0.27868  0.99393  0.89093  Biso   1.000  H
  C1101    1.0000 0.25426  0.04565  0.92834  Biso   1.000  C
  H1243    1.0000 0.71526  0.72133  0.89093  Biso   1.000  H
  C1102    1.0000 0.92023  0.72734  0.91763  Biso   1.000  C
  C1103    1.0000 0.92017  0.72734  0.91763  Biso   1.000  C
  H1244    1.0000 0.91833  0.68293  0.87463  Biso   1.000  H
  H1245    1.0000 0.91822  0.68293  0.87463  Biso   1.000  H
  C1104    1.0000 0.24897  0.12082  0.93805  Biso   1.000  C
  C1105    1.0000 0.24892  0.12082  0.93805  Biso   1.000  C
  C1106    1.0000 0.87185  0.75105  0.93805  Biso   1.000  C
  C1107    1.0000 0.22396  0.97375  0.94999  Biso   1.000  C
  C1108    1.0000 0.00089  0.72963  0.92629  Biso   1.000  C
  C1109    1.0000 0.00084  0.72963  0.92629  Biso   1.000  C
  H1246    1.0000 0.22947  0.12265  0.95823  Biso   1.000  H
  H1247    1.0000 0.89323  0.77051  0.95823  Biso   1.000  H
  H1248    1.0000 0.89321  0.77058  0.95823  Biso   1.000  H
  H1249    1.0000 0.20529  0.98041  0.96974  Biso   1.000  H
  N175     1.0000 0.22133  0.90354  0.94383  Biso   1.000  N
  H1250    1.0000 0.20533  0.98047  0.96974  Biso   1.000  H
  N176     1.0000 0.04030  0.76195  0.95242  Biso   1.000  N
  H1251    1.0000 0.02598  0.70683  0.91242  Biso   1.000  H
  H1252    1.0000 0.02592  0.70683  0.91242  Biso   1.000  H
  C1110    1.0000 0.19168  0.83791  0.96813  Biso   1.000  C
  C1111    1.0000 0.19171  0.83797  0.96813  Biso   1.000  C
  C1112    1.0000 0.11503  0.75170  0.95835  Biso   1.000  C
  C1113    1.0000 0.11501  0.75177  0.95835  Biso   1.000  C
  C1114    1.0000 0.11498  0.75170  0.95835  Biso   1.000  C
  C1115    1.0000 0.27336  0.83046  0.97683  Biso   1.000  C
  H1253    1.0000 0.17416  0.86011  0.98634  Biso   1.000  H
  H1254    1.0000 0.17419  0.86018  0.98634  Biso   1.000  H
  H1255    1.0000 0.13081  0.73302  0.93883  Biso   1.000  H
  C1116    1.0000 0.09510  0.68332  0.98223  Biso   1.000  C
  H1256    1.0000 0.29783  0.81890  0.95814  Biso   1.000  H
  C1117    1.0000 0.24758  0.75595  0.00002  Biso   1.000  C
  H1257    1.0000 0.31865  0.88610  0.98592  Biso   1.000  H
  H1258    1.0000 0.29787  0.81897  0.95814  Biso   1.000  H
  H1259    1.0000 0.31869  0.88617  0.98592  Biso   1.000  H
  H1260    1.0000 0.04636  0.62703  0.97474  Biso   1.000  H
  C1118    1.0000 0.17084  0.67046  0.99063  Biso   1.000  C
  C1119    1.0000 0.17079  0.67046  0.99063  Biso   1.000  C
  H1261    1.0000 0.07472  0.69913  0.00103  Biso   1.000  H
  H1262    1.0000 0.07461  0.69913  0.00103  Biso   1.000  H
  H1263    1.0000 0.29840  0.74752  0.00324  Biso   1.000  H
  H1264    1.0000 0.23414  0.77364  0.01993  Biso   1.000  H
  H1265    1.0000 0.29828  0.74752  0.00324  Biso   1.000  H
  H1266    1.0000 0.18675  0.64662  0.97274  Biso   1.000  H
  H1267    1.0000 0.15363  0.62801  0.00774  Biso   1.000  H
  H1268    1.0000 0.15367  0.62807  0.00774  Biso   1.000  H
  C1120    1.0000 0.82628  0.20095  0.74073  Biso   1.000  C
  C1121    1.0000 0.82474  0.15680  0.77127  Biso   1.000  C
  C1122    1.0000 0.82477  0.15687  0.77127  Biso   1.000  C
  C1123    1.0000 0.75695  0.23014  0.74053  Biso   1.000  C
  H1269    1.0000 0.81455  0.15961  0.72363  Biso   1.000  H
  H1270    1.0000 0.88500  0.25254  0.73754  Biso   1.000  H
  H1271    1.0000 0.81458  0.15968  0.72363  Biso   1.000  H
  H1272    1.0000 0.88494  0.25254  0.73754  Biso   1.000  H
  N177     1.0000 0.89483  0.13682  0.77079  Biso   1.000  N
  C1124    1.0000 0.83875  0.22080  0.79773  Biso   1.000  C
  H1273    1.0000 0.76739  0.10194  0.77382  Biso   1.000  H
  C1125    1.0000 0.83873  0.22087  0.79773  Biso   1.000  C
  C1126    1.0000 0.82623  0.20095  0.74073  Biso   1.000  C
  H1274    1.0000 0.76733  0.10194  0.77382  Biso   1.000  H
  C1127    1.0000 0.77357  0.29382  0.76613  Biso   1.000  C
  C1128    1.0000 0.77351  0.29382  0.76613  Biso   1.000  C
  H1275    1.0000 0.75862  0.25770  0.72064  Biso   1.000  H
  H1276    1.0000 0.69808  0.17835  0.74303  Biso   1.000  H
  H1277    1.0000 0.75866  0.25777  0.72064  Biso   1.000  H
  H1278    1.0000 0.69802  0.17835  0.74303  Biso   1.000  H
  C1129    1.0000 0.87349  0.05714  0.76893  Biso   1.000  C
  C1130    1.0000 0.87343  0.05714  0.76893  Biso   1.000  C
  N178     1.0000 0.83068  0.18012  0.82716  Biso   1.000  N
  H1279    1.0000 0.89857  0.27325  0.79594  Biso   1.000  H
  C1131    1.0000 0.77169  0.25013  0.79653  Biso   1.000  C
  H1280    1.0000 0.89863  0.27325  0.79594  Biso   1.000  H
  C1132    1.0000 0.77163  0.25013  0.79653  Biso   1.000  C
  N179     1.0000 0.83063  0.18012  0.82716  Biso   1.000  N
  H1281    1.0000 0.72806  0.31093  0.76613  Biso   1.000  H
  H1282    1.0000 0.83115  0.34711  0.76333  Biso   1.000  H
  H1283    1.0000 0.83119  0.34717  0.76333  Biso   1.000  H
  C1133    1.0000 0.93896  0.02815  0.76774  Biso   1.000  C
  C1134    1.0000 0.93902  0.02815  0.76774  Biso   1.000  C
  H1284    1.0000 0.81318  0.01424  0.76824  Biso   1.000  H
  H1285    1.0000 0.81312  0.01424  0.76824  Biso   1.000  H
  C1135    1.0000 0.88950  0.21924  0.84703  Biso   1.000  C
  C1136    1.0000 0.88944  0.21924  0.84703  Biso   1.000  C
  H1286    1.0000 0.78290  0.29166  0.81352  Biso   1.000  H
  H1287    1.0000 0.71280  0.19886  0.79963  Biso   1.000  H
  H1288    1.0000 0.78284  0.29166  0.81352  Biso   1.000  H
  H1289    1.0000 0.71274  0.19886  0.79963  Biso   1.000  H
  C1137    1.0000 0.03047  0.09104  0.76693  Biso   1.000  C
  C1138    1.0000 0.03042  0.09104  0.76693  Biso   1.000  C
  C1139    1.0000 0.90904  0.93946  0.76693  Biso   1.000  C
  C1140    1.0000 0.90893  0.93946  0.76693  Biso   1.000  C
  C1141    1.0000 0.88716  0.19161  0.87793  Biso   1.000  C
  H1290    1.0000 0.93988  0.27181  0.84083  Biso   1.000  H
  C1142    1.0000 0.88720  0.19168  0.87793  Biso   1.000  C
  H1291    1.0000 0.93985  0.27187  0.84083  Biso   1.000  H
  C1143    1.0000 0.88714  0.19168  0.87793  Biso   1.000  C
  C1144    1.0000 0.08918  0.06106  0.76774  Biso   1.000  C
  C1145    1.0000 0.08913  0.06106  0.76774  Biso   1.000  C
  H1292    1.0000 0.05024  0.15184  0.76583  Biso   1.000  H
  C1146    1.0000 0.97189  0.91086  0.76774  Biso   1.000  C
  C1147    1.0000 0.97183  0.91086  0.76774  Biso   1.000  C
  H1293    1.0000 0.84821  0.89845  0.76583  Biso   1.000  H
  C1148    1.0000 0.95509  0.23426  0.89809  Biso   1.000  C
  C1149    1.0000 0.81239  0.11266  0.88829  Biso   1.000  C
  C1150    1.0000 0.95503  0.23426  0.89809  Biso   1.000  C
  C1151    1.0000 0.81234  0.11266  0.88829  Biso   1.000  C
  C1152    1.0000 0.18369  0.12657  0.76893  Biso   1.000  C
  C1153    1.0000 0.18364  0.12657  0.76893  Biso   1.000  C
  C1154    1.0000 0.06059  0.96950  0.76693  Biso   1.000  C
  C1155    1.0000 0.06063  0.96957  0.76693  Biso   1.000  C
  C1156    1.0000 0.94296  0.81636  0.76893  Biso   1.000  C
  C1157    1.0000 0.94290  0.81636  0.76893  Biso   1.000  C
  C1158    1.0000 0.95439  0.20866  0.92834  Biso   1.000  C
  C1159    1.0000 0.95434  0.20866  0.92834  Biso   1.000  C
  H1294    1.0000 0.00607  0.28474  0.89093  Biso   1.000  H
  H1295    1.0000 0.76471  0.08176  0.87463  Biso   1.000  H
  C1160    1.0000 0.80717  0.07981  0.91763  Biso   1.000  C
  H1296    1.0000 0.76465  0.08176  0.87463  Biso   1.000  H
  C1161    1.0000 0.80720  0.07987  0.91763  Biso   1.000  C
  C1162    1.0000 0.80714  0.07987  0.91763  Biso   1.000  C
  N180     1.0000 0.24198  0.10514  0.77079  Biso   1.000  N
  N181     1.0000 0.24193  0.10514  0.77079  Biso   1.000  N
  H1297    1.0000 0.20105  0.18684  0.76824  Biso   1.000  H
  H1298    1.0000 0.10155  0.94971  0.76583  Biso   1.000  H
  H1299    1.0000 0.10158  0.94978  0.76583  Biso   1.000  H
  H1300    1.0000 0.98577  0.79892  0.76824  Biso   1.000  H
  N182     1.0000 0.86318  0.75804  0.77079  Biso   1.000  N
  N183     1.0000 0.86313  0.75804  0.77079  Biso   1.000  N
  C1163    1.0000 0.02627  0.25026  0.94999  Biso   1.000  C
  C1164    1.0000 0.87918  0.12813  0.93805  Biso   1.000  C
  C1165    1.0000 0.87912  0.12813  0.93805  Biso   1.000  C
  C1166    1.0000 0.72883  0.99915  0.92629  Biso   1.000  C
  C1167    1.0000 0.72878  0.99915  0.92629  Biso   1.000  C
  C1168    1.0000 0.33205  0.17522  0.77127  Biso   1.000  C
  C1169    1.0000 0.84323  0.66791  0.77127  Biso   1.000  C
  C1170    1.0000 0.84321  0.66798  0.77127  Biso   1.000  C
  N184     1.0000 0.09648  0.31772  0.94383  Biso   1.000  N
  N185     1.0000 0.09642  0.31772  0.94383  Biso   1.000  N
  H1301    1.0000 0.01956  0.22485  0.96974  Biso   1.000  H
  H1302    1.0000 0.87736  0.10684  0.95823  Biso   1.000  H
  N186     1.0000 0.72172  0.95971  0.95242  Biso   1.000  N
  H1303    1.0000 0.68091  0.97401  0.91242  Biso   1.000  H
  N187     1.0000 0.72164  0.95977  0.95242  Biso   1.000  N
  H1304    1.0000 0.68089  0.97407  0.91242  Biso   1.000  H
  C1171    1.0000 0.38208  0.16124  0.79773  Biso   1.000  C
  C1172    1.0000 0.37468  0.17372  0.74073  Biso   1.000  C
  H1305    1.0000 0.33457  0.23263  0.77382  Biso   1.000  H
  C1173    1.0000 0.38202  0.16124  0.79773  Biso   1.000  C
  C1174    1.0000 0.37463  0.17372  0.74073  Biso   1.000  C
  H1306    1.0000 0.33451  0.23263  0.77382  Biso   1.000  H
  C1175    1.0000 0.77923  0.61795  0.79773  Biso   1.000  C
  C1176    1.0000 0.79915  0.62533  0.74073  Biso   1.000  C
  H1307    1.0000 0.89804  0.66543  0.77382  Biso   1.000  H
  C1177    1.0000 0.79909  0.62533  0.74073  Biso   1.000  C
  C1178    1.0000 0.16203  0.35371  0.96813  Biso   1.000  C
  C1179    1.0000 0.16207  0.35377  0.96813  Biso   1.000  C
  C1180    1.0000 0.63683  0.88506  0.95835  Biso   1.000  C
  C1181    1.0000 0.47845  0.22831  0.79653  Biso   1.000  C
  N188     1.0000 0.34948  0.16934  0.82716  Biso   1.000  N
  H1308    1.0000 0.37467  0.10142  0.79594  Biso   1.000  H
  N189     1.0000 0.34942  0.16934  0.82716  Biso   1.000  N
  H1309    1.0000 0.37462  0.10142  0.79594  Biso   1.000  H
  C1182    1.0000 0.47318  0.24301  0.74053  Biso   1.000  C
  H1310    1.0000 0.34507  0.18541  0.72363  Biso   1.000  H
  H1311    1.0000 0.36755  0.11501  0.73754  Biso   1.000  H
  C1183    1.0000 0.47316  0.24307  0.74053  Biso   1.000  C
  H1312    1.0000 0.34504  0.18547  0.72363  Biso   1.000  H
  H1313    1.0000 0.36753  0.11507  0.73754  Biso   1.000  H
  N190     1.0000 0.81990  0.65054  0.82716  Biso   1.000  N
  H1314    1.0000 0.72681  0.62533  0.79594  Biso   1.000  H
  C1184    1.0000 0.74986  0.52156  0.79653  Biso   1.000  C
  N191     1.0000 0.81984  0.65054  0.82716  Biso   1.000  N
  C1185    1.0000 0.76993  0.52685  0.74053  Biso   1.000  C
  H1315    1.0000 0.84041  0.65492  0.72363  Biso   1.000  H
  H1316    1.0000 0.74745  0.63245  0.73754  Biso   1.000  H
  C1186    1.0000 0.24825  0.36324  0.95835  Biso   1.000  C
  C1187    1.0000 0.16954  0.44291  0.97683  Biso   1.000  C
  H1317    1.0000 0.13989  0.31406  0.98634  Biso   1.000  H
  H1318    1.0000 0.13984  0.31406  0.98634  Biso   1.000  H
  C1188    1.0000 0.64631  0.80832  0.96813  Biso   1.000  C
  H1319    1.0000 0.60235  0.86925  0.93883  Biso   1.000  H
  C1189    1.0000 0.58828  0.90491  0.98223  Biso   1.000  C
  H1320    1.0000 0.60224  0.86925  0.93883  Biso   1.000  H
  C1190    1.0000 0.58831  0.90498  0.98223  Biso   1.000  C
  C1191    1.0000 0.52026  0.22642  0.76613  Biso   1.000  C
  H1321    1.0000 0.50878  0.21715  0.81352  Biso   1.000  H
  H1322    1.0000 0.48607  0.28722  0.79963  Biso   1.000  H
  H1323    1.0000 0.50872  0.21715  0.81352  Biso   1.000  H
  H1324    1.0000 0.48601  0.28722  0.79963  Biso   1.000  H
  C1192    1.0000 0.32976  0.11057  0.84703  Biso   1.000  C
  H1325    1.0000 0.48024  0.30192  0.74303  Biso   1.000  H
  H1326    1.0000 0.49903  0.24131  0.72064  Biso   1.000  H
  H1327    1.0000 0.49906  0.24138  0.72064  Biso   1.000  H
  C1193    1.0000 0.78078  0.67026  0.84703  Biso   1.000  C
  H1328    1.0000 0.70841  0.49126  0.81352  Biso   1.000  H
  H1329    1.0000 0.80119  0.51392  0.79963  Biso   1.000  H
  C1194    1.0000 0.70617  0.47976  0.76613  Biso   1.000  C
  H1330    1.0000 0.80113  0.51392  0.79963  Biso   1.000  H
  H1331    1.0000 0.70836  0.49126  0.81352  Biso   1.000  H
  H1332    1.0000 0.82168  0.51973  0.74303  Biso   1.000  H
  H1333    1.0000 0.74232  0.50092  0.72064  Biso   1.000  H
  N192     1.0000 0.23809  0.27834  0.95242  Biso   1.000  N
  N193     1.0000 0.23803  0.27834  0.95242  Biso   1.000  N
  H1334    1.0000 0.26696  0.39772  0.93883  Biso   1.000  H
  C1195    1.0000 0.31668  0.41176  0.98223  Biso   1.000  C
  C1196    1.0000 0.24406  0.49163  0.00002  Biso   1.000  C
  H1335    1.0000 0.18106  0.47896  0.95814  Biso   1.000  H
  H1336    1.0000 0.11384  0.43253  0.98592  Biso   1.000  H
  N194     1.0000 0.68225  0.77874  0.94383  Biso   1.000  N
  C1197    1.0000 0.55705  0.72662  0.97683  Biso   1.000  C
  H1337    1.0000 0.68595  0.82583  0.98634  Biso   1.000  H
  H1338    1.0000 0.58074  0.95363  0.97474  Biso   1.000  H
  C1198    1.0000 0.49965  0.82922  0.99063  Biso   1.000  C
  H1339    1.0000 0.58063  0.95363  0.97474  Biso   1.000  H
  H1340    1.0000 0.62452  0.92535  0.00103  Biso   1.000  H
  H1341    1.0000 0.51595  0.16882  0.76333  Biso   1.000  H
  H1342    1.0000 0.58289  0.27194  0.76613  Biso   1.000  H
  H1343    1.0000 0.58283  0.27194  0.76613  Biso   1.000  H
  C1199    1.0000 0.30449  0.11285  0.87793  Biso   1.000  C
  H1344    1.0000 0.33198  0.06015  0.84083  Biso   1.000  H
  C1200    1.0000 0.30443  0.11285  0.87793  Biso   1.000  C
  H1345    1.0000 0.33192  0.06015  0.84083  Biso   1.000  H
  C1201    1.0000 0.80835  0.69554  0.87793  Biso   1.000  C
  H1346    1.0000 0.72820  0.66804  0.84083  Biso   1.000  H
  H1347    1.0000 0.72809  0.66804  0.84083  Biso   1.000  H
  H1348    1.0000 0.68911  0.41713  0.76613  Biso   1.000  H
  H1349    1.0000 0.65292  0.48401  0.76333  Biso   1.000  H
  H1350    1.0000 0.65284  0.48407  0.76333  Biso   1.000  H
  C1202    1.0000 0.27039  0.27122  0.92629  Biso   1.000  C
  C1203    1.0000 0.27033  0.27122  0.92629  Biso   1.000  C
  H1351    1.0000 0.37295  0.41934  0.97474  Biso   1.000  H
  C1204    1.0000 0.32957  0.50032  0.99063  Biso   1.000  C
  C1205    1.0000 0.32951  0.50032  0.99063  Biso   1.000  C
  H1352    1.0000 0.30087  0.37552  0.00103  Biso   1.000  H
  H1353    1.0000 0.30082  0.37552  0.00103  Biso   1.000  H
  H1354    1.0000 0.25244  0.55080  0.00324  Biso   1.000  H
  H1355    1.0000 0.22637  0.46055  0.01993  Biso   1.000  H
  H1356    1.0000 0.25247  0.55087  0.00324  Biso   1.000  H
  C1206    1.0000 0.74986  0.77606  0.94999  Biso   1.000  C
  C1207    1.0000 0.74975  0.77606  0.94999  Biso   1.000  C
  H1357    1.0000 0.56751  0.68137  0.98592  Biso   1.000  H
  H1358    1.0000 0.52105  0.70213  0.95814  Biso   1.000  H
  C1208    1.0000 0.50841  0.75242  0.00002  Biso   1.000  C
  H1359    1.0000 0.45986  0.81322  0.97274  Biso   1.000  H
  H1360    1.0000 0.47444  0.84633  0.00774  Biso   1.000  H
  H1361    1.0000 0.47432  0.84633  0.00774  Biso   1.000  H
  C1209    1.0000 0.30025  0.18763  0.88829  Biso   1.000  C
  C1210    1.0000 0.27918  0.04493  0.89809  Biso   1.000  C
  C1211    1.0000 0.27913  0.04493  0.89809  Biso   1.000  C
  C1212    1.0000 0.76578  0.72081  0.89809  Biso   1.000  C
  C1213    1.0000 0.88736  0.69972  0.88829  Biso   1.000  C
  C1214    1.0000 0.76582  0.72088  0.89809  Biso   1.000  C
  C1215    1.0000 0.27266  0.19285  0.91763  Biso   1.000  C
  H1362    1.0000 0.29317  0.31916  0.91242  Biso   1.000  H
  H1363    1.0000 0.35339  0.54016  0.97274  Biso   1.000  H
  H1364    1.0000 0.35333  0.54016  0.97274  Biso   1.000  H
  H1365    1.0000 0.37199  0.52566  0.00774  Biso   1.000  H
  H1366    1.0000 0.37193  0.52566  0.00774  Biso   1.000  H
  C1216    1.0000 0.79144  0.74576  0.92834  Biso   1.000  C
  C1217    1.0000 0.79132  0.74576  0.92834  Biso   1.000  C
  H1367    1.0000 0.77520  0.79474  0.96974  Biso   1.000  H
  H1368    1.0000 0.44919  0.70161  0.00324  Biso   1.000  H
  H1369    1.0000 0.53948  0.76581  0.01993  Biso   1.000  H
  H1370    1.0000 0.44922  0.70168  0.00324  Biso   1.000  H
  H1371    1.0000 0.53952  0.76587  0.01993  Biso   1.000  H
  H1372    1.0000 0.31707  0.23530  0.87463  Biso   1.000  H
  H1373    1.0000 0.31705  0.23537  0.87463  Biso   1.000  H
  H1374    1.0000 0.27868  0.99393  0.89093  Biso   1.000  H
  C1218    1.0000 0.25426  0.04565  0.92834  Biso   1.000  C
  H1375    1.0000 0.71526  0.72133  0.89093  Biso   1.000  H
  C1219    1.0000 0.92023  0.72734  0.91763  Biso   1.000  C
  C1220    1.0000 0.92017  0.72734  0.91763  Biso   1.000  C
  H1376    1.0000 0.91833  0.68293  0.87463  Biso   1.000  H
  H1377    1.0000 0.91822  0.68293  0.87463  Biso   1.000  H
  C1221    1.0000 0.24897  0.12082  0.93805  Biso   1.000  C
  C1222    1.0000 0.24892  0.12082  0.93805  Biso   1.000  C
  C1223    1.0000 0.87185  0.75105  0.93805  Biso   1.000  C
  C1224    1.0000 0.22396  0.97375  0.94999  Biso   1.000  C
  C1225    1.0000 0.00089  0.72963  0.92629  Biso   1.000  C
  C1226    1.0000 0.00084  0.72963  0.92629  Biso   1.000  C
  H1378    1.0000 0.22947  0.12265  0.95823  Biso   1.000  H
  H1379    1.0000 0.89323  0.77051  0.95823  Biso   1.000  H
  H1380    1.0000 0.89321  0.77058  0.95823  Biso   1.000  H
  H1381    1.0000 0.20529  0.98041  0.96974  Biso   1.000  H
  N195     1.0000 0.22133  0.90354  0.94383  Biso   1.000  N
  H1382    1.0000 0.20533  0.98047  0.96974  Biso   1.000  H
  N196     1.0000 0.04030  0.76195  0.95242  Biso   1.000  N
  H1383    1.0000 0.02598  0.70683  0.91242  Biso   1.000  H
  H1384    1.0000 0.02592  0.70683  0.91242  Biso   1.000  H
  C1227    1.0000 0.19168  0.83791  0.96813  Biso   1.000  C
  C1228    1.0000 0.19171  0.83797  0.96813  Biso   1.000  C
  C1229    1.0000 0.11503  0.75170  0.95835  Biso   1.000  C
  C1230    1.0000 0.11501  0.75177  0.95835  Biso   1.000  C
  C1231    1.0000 0.11498  0.75170  0.95835  Biso   1.000  C
  C1232    1.0000 0.27336  0.83046  0.97683  Biso   1.000  C
  H1385    1.0000 0.17416  0.86011  0.98634  Biso   1.000  H
  H1386    1.0000 0.17419  0.86018  0.98634  Biso   1.000  H
  H1387    1.0000 0.13081  0.73302  0.93883  Biso   1.000  H
  C1233    1.0000 0.09510  0.68332  0.98223  Biso   1.000  C
  H1388    1.0000 0.29783  0.81890  0.95814  Biso   1.000  H
  C1234    1.0000 0.24758  0.75595  0.00002  Biso   1.000  C
  H1389    1.0000 0.31865  0.88610  0.98592  Biso   1.000  H
  H1390    1.0000 0.29787  0.81897  0.95814  Biso   1.000  H
  H1391    1.0000 0.31869  0.88617  0.98592  Biso   1.000  H
  H1392    1.0000 0.04636  0.62703  0.97474  Biso   1.000  H
  C1235    1.0000 0.17084  0.67046  0.99063  Biso   1.000  C
  C1236    1.0000 0.17079  0.67046  0.99063  Biso   1.000  C
  H1393    1.0000 0.07472  0.69913  0.00103  Biso   1.000  H
  H1394    1.0000 0.07461  0.69913  0.00103  Biso   1.000  H
  H1395    1.0000 0.29840  0.74752  0.00324  Biso   1.000  H
  H1396    1.0000 0.23414  0.77364  0.01993  Biso   1.000  H
  H1397    1.0000 0.29828  0.74752  0.00324  Biso   1.000  H
  H1398    1.0000 0.18675  0.64662  0.97274  Biso   1.000  H
  H1399    1.0000 0.15363  0.62801  0.00774  Biso   1.000  H
  H1400    1.0000 0.15367  0.62807  0.00774  Biso   1.000  H
