data_image0
_cell_length_a       21.399
_cell_length_b       21.399
_cell_length_c       21.316
_cell_angle_alpha    90
_cell_angle_beta     90
_cell_angle_gamma    120

_symmetry_space_group_name_H-M    "P 1"
_symmetry_int_tables_number       1

loop_
  _symmetry_equiv_pos_as_xyz
  'x, y, z'

loop_
  _atom_site_label
  _atom_site_occupancy
  _atom_site_fract_x
  _atom_site_fract_y
  _atom_site_fract_z
  _atom_site_thermal_displace_type
  _atom_site_B_iso_or_equiv
  _atom_site_type_symbol
  C1       1.0000 0.89397  0.53480  0.46472  Biso   1.000  C
  C2       1.0000 0.91371  0.56540  0.40022  Biso   1.000  C
  C3       1.0000 0.85789  0.55639  0.50619  Biso   1.000  C
  C4       1.0000 0.91131  0.48322  0.48311  Biso   1.000  C
  N1       1.0000 0.89569  0.60889  0.37803  Biso   1.000  N
  H1       1.0000 0.94120  0.55169  0.37470  Biso   1.000  H
  C5       1.0000 0.83850  0.52471  0.56601  Biso   1.000  C
  H2       1.0000 0.84649  0.59227  0.49409  Biso   1.000  H
  C6       1.0000 0.89267  0.45079  0.54199  Biso   1.000  C
  H3       1.0000 0.93661  0.46951  0.45473  Biso   1.000  H
  C7       1.0000 0.91687  0.63247  0.31329  Biso   1.000  C
  C8       1.0000 0.79930  0.54538  0.61081  Biso   1.000  C
  C9       1.0000 0.85481  0.47161  0.58332  Biso   1.000  C
  C10      1.0000 0.91188  0.39639  0.55911  Biso   1.000  C
  C11      1.0000 0.85139  0.60301  0.27120  Biso   1.000  C
  H4       1.0000 0.94969  0.61558  0.29832  Biso   1.000  H
  H5       1.0000 0.94321  0.68589  0.31160  Biso   1.000  H
  N2       1.0000 0.79238  0.60069  0.60260  Biso   1.000  N
  H6       1.0000 0.77827  0.51640  0.64703  Biso   1.000  H
  H7       1.0000 0.84027  0.44928  0.62319  Biso   1.000  H
  N3       1.0000 0.90198  0.36931  0.61320  Biso   1.000  N
  H8       1.0000 0.93301  0.38091  0.52801  Biso   1.000  H
  N4       1.0000 0.81580  0.52379  0.26942  Biso   1.000  N
  H9       1.0000 0.81718  0.61769  0.28730  Biso   1.000  H
  H10      1.0000 0.86610  0.62270  0.22833  Biso   1.000  H
  C12      1.0000 0.75338  0.61569  0.65111  Biso   1.000  C
  C13      1.0000 0.92559  0.31578  0.62362  Biso   1.000  C
  C14      1.0000 0.74801  0.48840  0.27510  Biso   1.000  C
  C15      1.0000 0.68422  0.60981  0.62362  Biso   1.000  C
  H11      1.0000 0.78457  0.66490  0.66800  Biso   1.000  H
  H12      1.0000 0.74088  0.58088  0.68601  Biso   1.000  H
  C16      1.0000 0.86231  0.24660  0.65111  Biso   1.000  C
  H13      1.0000 0.96690  0.33569  0.65312  Biso   1.000  H
  H14      1.0000 0.94126  0.30488  0.58351  Biso   1.000  H
  C17      1.0000 0.70628  0.40859  0.27393  Biso   1.000  C
  H15      1.0000 0.72276  0.51408  0.28040  Biso   1.000  H
  N5       1.0000 0.63071  0.53270  0.61320  Biso   1.000  N
  H16      1.0000 0.66430  0.63118  0.65312  Biso   1.000  H
  H17      1.0000 0.69509  0.63641  0.58351  Biso   1.000  H
  N6       1.0000 0.80827  0.20759  0.60260  Biso   1.000  N
  H18      1.0000 0.88031  0.21541  0.66800  Biso   1.000  H
  H19      1.0000 0.84001  0.25912  0.68601  Biso   1.000  H
  C18      1.0000 0.63180  0.37308  0.27421  Biso   1.000  C
  C19      1.0000 0.74126  0.36817  0.27421  Biso   1.000  C
  C20      1.0000 0.60360  0.51548  0.55911  Biso   1.000  C
  C21      1.0000 0.74607  0.20068  0.61081  Biso   1.000  C
  C22      1.0000 0.59139  0.29770  0.27393  Biso   1.000  C
  H20      1.0000 0.60768  0.40028  0.27472  Biso   1.000  H
  C23      1.0000 0.70230  0.29371  0.27393  Biso   1.000  C
  H21      1.0000 0.79258  0.39229  0.27472  Biso   1.000  H
  C24      1.0000 0.54918  0.44188  0.54199  Biso   1.000  C
  H22      1.0000 0.61909  0.55207  0.52801  Biso   1.000  H
  C25      1.0000 0.68620  0.16150  0.56601  Biso   1.000  C
  H23      1.0000 0.73809  0.22172  0.64703  Biso   1.000  H
  C26      1.0000 0.51160  0.25960  0.27510  Biso   1.000  C
  C27      1.0000 0.62689  0.25869  0.27421  Biso   1.000  C
  C28      1.0000 0.74037  0.25200  0.27510  Biso   1.000  C
  C29      1.0000 0.51676  0.42807  0.48311  Biso   1.000  C
  C30      1.0000 0.52838  0.38317  0.58332  Biso   1.000  C
  C31      1.0000 0.61679  0.14521  0.58332  Biso   1.000  C
  C32      1.0000 0.69850  0.14208  0.50619  Biso   1.000  C
  N7       1.0000 0.47619  0.29198  0.26942  Biso   1.000  N
  H24      1.0000 0.48592  0.20872  0.28040  Biso   1.000  H
  H25      1.0000 0.59969  0.20737  0.27472  Biso   1.000  H
  N8       1.0000 0.70798  0.18422  0.26942  Biso   1.000  N
  H26      1.0000 0.79129  0.27720  0.28040  Biso   1.000  H
  C33      1.0000 0.46518  0.35921  0.46472  Biso   1.000  C
  H27      1.0000 0.53047  0.46708  0.45473  Biso   1.000  H
  C34      1.0000 0.47527  0.31378  0.56601  Biso   1.000  C
  H28      1.0000 0.55070  0.39100  0.62319  Biso   1.000  H
  C35      1.0000 0.55810  0.10727  0.54199  Biso   1.000  C
  H29      1.0000 0.60900  0.15972  0.62319  Biso   1.000  H
  C36      1.0000 0.64077  0.10598  0.46472  Biso   1.000  C
  H30      1.0000 0.74581  0.15352  0.49409  Biso   1.000  H
  C37      1.0000 0.39701  0.24838  0.27120  Biso   1.000  C
  C38      1.0000 0.75158  0.14861  0.27120  Biso   1.000  C
  C39      1.0000 0.43459  0.34831  0.40022  Biso   1.000  C
  C40      1.0000 0.44360  0.30148  0.50619  Biso   1.000  C
  C41      1.0000 0.45457  0.25388  0.61081  Biso   1.000  C
  C42      1.0000 0.48450  0.08812  0.55911  Biso   1.000  C
  C43      1.0000 0.57190  0.08871  0.48311  Biso   1.000  C
  C44      1.0000 0.65167  0.08628  0.40022  Biso   1.000  C
  C45      1.0000 0.36748  0.28437  0.31329  Biso   1.000  C
  H31      1.0000 0.38228  0.19949  0.28730  Biso   1.000  H
  H32      1.0000 0.37733  0.24342  0.22833  Biso   1.000  H
  C46      1.0000 0.71560  0.08310  0.31329  Biso   1.000  C
  H33      1.0000 0.80051  0.18282  0.28730  Biso   1.000  H
  H34      1.0000 0.75660  0.13388  0.22833  Biso   1.000  H
  N9       1.0000 0.39108  0.28680  0.37803  Biso   1.000  N
  H35      1.0000 0.44831  0.38949  0.37470  Biso   1.000  H
  H36      1.0000 0.40768  0.25421  0.49409  Biso   1.000  H
  N10      1.0000 0.39929  0.19172  0.60260  Biso   1.000  N
  H37      1.0000 0.48357  0.26187  0.64703  Biso   1.000  H
  N11      1.0000 0.46729  0.09799  0.61320  Biso   1.000  N
  H38      1.0000 0.44792  0.06702  0.52801  Biso   1.000  H
  H39      1.0000 0.53289  0.06340  0.45473  Biso   1.000  H
  N12      1.0000 0.71321  0.10431  0.37803  Biso   1.000  N
  H40      1.0000 0.61051  0.05882  0.37470  Biso   1.000  H
  H41      1.0000 0.38438  0.33407  0.29832  Biso   1.000  H
  H42      1.0000 0.31407  0.25728  0.31160  Biso   1.000  H
  H43      1.0000 0.66588  0.05029  0.29832  Biso   1.000  H
  H44      1.0000 0.74270  0.05682  0.31160  Biso   1.000  H
  C47      1.0000 0.38429  0.13771  0.65111  Biso   1.000  C
  C48      1.0000 0.39021  0.07441  0.62362  Biso   1.000  C
  H45      1.0000 0.33509  0.11968  0.66800  Biso   1.000  H
  H46      1.0000 0.41908  0.15999  0.68601  Biso   1.000  H
  H47      1.0000 0.36880  0.03308  0.65312  Biso   1.000  H
  H48      1.0000 0.36362  0.05871  0.58351  Biso   1.000  H
  C49      1.0000 0.02303  0.73591  0.48663  Biso   1.000  C
  C50      1.0000 0.04710  0.78863  0.43216  Biso   1.000  C
  C51      1.0000 0.04706  0.78863  0.43216  Biso   1.000  C
  H49      1.0000 0.96962  0.70731  0.48785  Biso   1.000  H
  H50      1.0000 0.96967  0.70731  0.48785  Biso   1.000  H
  N13      1.0000 0.05020  0.77482  0.54574  Biso   1.000  N
  H51      1.0000 0.04147  0.70213  0.48077  Biso   1.000  H
  N14      1.0000 0.05015  0.77482  0.54574  Biso   1.000  N
  N15      1.0000 0.01160  0.83202  0.43423  Biso   1.000  N
  N16      1.0000 0.01155  0.83202  0.43423  Biso   1.000  N
  C52      1.0000 0.02308  0.73591  0.48663  Biso   1.000  C
  H52      1.0000 0.09999  0.82085  0.43395  Biso   1.000  H
  H53      1.0000 0.03520  0.76165  0.39215  Biso   1.000  H
  H54      1.0000 0.03518  0.76160  0.39215  Biso   1.000  H
  H55      1.0000 0.09994  0.82085  0.43395  Biso   1.000  H
  H56      1.0000 0.03513  0.76160  0.39215  Biso   1.000  H
  C53      1.0000 0.00400  0.76252  0.58773  Biso   1.000  C
  C54      1.0000 0.00395  0.76252  0.58773  Biso   1.000  C
  C55      1.0000 0.05232  0.89925  0.44305  Biso   1.000  C
  C56      1.0000 0.05224  0.89920  0.44305  Biso   1.000  C
  C57      1.0000 0.05227  0.89925  0.44305  Biso   1.000  C
  H57      1.0000 0.95467  0.72965  0.57877  Biso   1.000  H
  H58      1.0000 0.95464  0.72960  0.57877  Biso   1.000  H
  C58      1.0000 0.02259  0.79662  0.65026  Biso   1.000  C
  C59      1.0000 0.02254  0.79662  0.65026  Biso   1.000  C
  C60      1.0000 0.02519  0.95051  0.44474  Biso   1.000  C
  C61      1.0000 0.02514  0.95051  0.44474  Biso   1.000  C
  H59      1.0000 0.10248  0.91733  0.44886  Biso   1.000  H
  H60      1.0000 0.10243  0.91733  0.44886  Biso   1.000  H
  C62      1.0000 0.96764  0.77644  0.69427  Biso   1.000  C
  C63      1.0000 0.96769  0.77644  0.69427  Biso   1.000  C
  C64      1.0000 0.09338  0.84885  0.66654  Biso   1.000  C
  C65      1.0000 0.09336  0.84880  0.66654  Biso   1.000  C
  C66      1.0000 0.94996  0.92623  0.44455  Biso   1.000  C
  C67      1.0000 0.07376  0.02374  0.44455  Biso   1.000  C
  C68      1.0000 0.98152  0.80682  0.75436  Biso   1.000  C
  C69      1.0000 0.98157  0.80682  0.75436  Biso   1.000  C
  H61      1.0000 0.91977  0.74126  0.68324  Biso   1.000  H
  H62      1.0000 0.91974  0.74120  0.68324  Biso   1.000  H
  H63      1.0000 0.13136  0.86321  0.63694  Biso   1.000  H
  C70      1.0000 0.10789  0.87956  0.72617  Biso   1.000  C
  C71      1.0000 0.10787  0.87950  0.72617  Biso   1.000  C
  C72      1.0000 0.10782  0.87950  0.72617  Biso   1.000  C
  C73      1.0000 0.92534  0.97485  0.44474  Biso   1.000  C
  C74      1.0000 0.92536  0.97480  0.44474  Biso   1.000  C
  C75      1.0000 0.92539  0.97485  0.44474  Biso   1.000  C
  H64      1.0000 0.91626  0.87594  0.44422  Biso   1.000  H
  C76      1.0000 0.04949  0.07462  0.44474  Biso   1.000  C
  H65      1.0000 0.12401  0.04030  0.44422  Biso   1.000  H
  H66      1.0000 0.12411  0.04030  0.44422  Biso   1.000  H
  C77      1.0000 0.92295  0.78593  0.80034  Biso   1.000  C
  C78      1.0000 0.92299  0.78593  0.80034  Biso   1.000  C
  C79      1.0000 0.05230  0.85846  0.76994  Biso   1.000  C
  C80      1.0000 0.05227  0.85840  0.76994  Biso   1.000  C
  C81      1.0000 0.05222  0.85840  0.76994  Biso   1.000  C
  C82      1.0000 0.18308  0.93573  0.74287  Biso   1.000  C
  C83      1.0000 0.18304  0.93573  0.74287  Biso   1.000  C
  C84      1.0000 0.84696  0.94771  0.44305  Biso   1.000  C
  C85      1.0000 0.97624  0.05002  0.44455  Biso   1.000  C
  C86      1.0000 0.97620  0.05002  0.44455  Biso   1.000  C
  C87      1.0000 0.10079  0.15303  0.44305  Biso   1.000  C
  N17      1.0000 0.85835  0.74001  0.78673  Biso   1.000  N
  H67      1.0000 0.93397  0.80714  0.84096  Biso   1.000  H
  H68      1.0000 0.06278  0.87923  0.81066  Biso   1.000  H
  N18      1.0000 0.20016  0.95931  0.79907  Biso   1.000  N
  H69      1.0000 0.21897  0.95451  0.71116  Biso   1.000  H
  H70      1.0000 0.21892  0.95451  0.71116  Biso   1.000  H
  N19      1.0000 0.82045  0.98845  0.43423  Biso   1.000  N
  N20      1.0000 0.82047  0.98839  0.43423  Biso   1.000  N
  N21      1.0000 0.82050  0.98845  0.43423  Biso   1.000  N
  N22      1.0000 0.82043  0.98839  0.43423  Biso   1.000  N
  H71      1.0000 0.81485  0.89752  0.44886  Biso   1.000  H
  H72      1.0000 0.95969  0.08374  0.44422  Biso   1.000  H
  H73      1.0000 0.95965  0.08374  0.44422  Biso   1.000  H
  N23      1.0000 0.16797  0.17952  0.43423  Biso   1.000  N
  H74      1.0000 0.08268  0.18513  0.44886  Biso   1.000  H
  H75      1.0000 0.08273  0.18513  0.44886  Biso   1.000  H
  C88      1.0000 0.80393  0.72091  0.83576  Biso   1.000  C
  C89      1.0000 0.80398  0.72091  0.83576  Biso   1.000  C
  C90      1.0000 0.27478  0.01510  0.80963  Biso   1.000  C
  C91      1.0000 0.27469  0.01510  0.80963  Biso   1.000  C
  C92      1.0000 0.74153  0.95294  0.43216  Biso   1.000  C
  C93      1.0000 0.74158  0.95294  0.43216  Biso   1.000  C
  C94      1.0000 0.21134  0.25841  0.43216  Biso   1.000  C
  C95      1.0000 0.74034  0.72523  0.80963  Biso   1.000  C
  C96      1.0000 0.74039  0.72523  0.80963  Biso   1.000  C
  H76      1.0000 0.82513  0.75442  0.87165  Biso   1.000  H
  H77      1.0000 0.78764  0.67132  0.85086  Biso   1.000  H
  H78      1.0000 0.82518  0.75442  0.87165  Biso   1.000  H
  H79      1.0000 0.78769  0.67132  0.85086  Biso   1.000  H
  C97      1.0000 0.27908  0.08304  0.83576  Biso   1.000  C
  C98      1.0000 0.27913  0.08304  0.83576  Biso   1.000  C
  H80      1.0000 0.29758  0.99714  0.83946  Biso   1.000  H
  H81      1.0000 0.30167  0.02644  0.76956  Biso   1.000  H
  C99      1.0000 0.71288  0.97695  0.48663  Biso   1.000  C
  H82      1.0000 0.72081  0.90001  0.43395  Biso   1.000  H
  H83      1.0000 0.72644  0.96481  0.39215  Biso   1.000  H
  C100     1.0000 0.71285  0.97690  0.48663  Biso   1.000  C
  H84      1.0000 0.72086  0.90001  0.43395  Biso   1.000  H
  H85      1.0000 0.72648  0.96481  0.39215  Biso   1.000  H
  C101     1.0000 0.26406  0.28712  0.48663  Biso   1.000  C
  H86      1.0000 0.17912  0.27913  0.43395  Biso   1.000  H
  H87      1.0000 0.23833  0.27352  0.39215  Biso   1.000  H
  C102     1.0000 0.26401  0.28712  0.48663  Biso   1.000  C
  H88      1.0000 0.17917  0.27913  0.43395  Biso   1.000  H
  N24      1.0000 0.75915  0.79986  0.79907  Biso   1.000  N
  N25      1.0000 0.75917  0.79980  0.79907  Biso   1.000  N
  N26      1.0000 0.75920  0.79986  0.79907  Biso   1.000  N
  N27      1.0000 0.75912  0.79980  0.79907  Biso   1.000  N
  H89      1.0000 0.72476  0.69836  0.76956  Biso   1.000  H
  H90      1.0000 0.69956  0.70246  0.83946  Biso   1.000  H
  H91      1.0000 0.72478  0.69830  0.76956  Biso   1.000  H
  H92      1.0000 0.69958  0.70240  0.83946  Biso   1.000  H
  H93      1.0000 0.72480  0.69836  0.76956  Biso   1.000  H
  H94      1.0000 0.69961  0.70246  0.83946  Biso   1.000  H
  H95      1.0000 0.72473  0.69830  0.76956  Biso   1.000  H
  H96      1.0000 0.69954  0.70240  0.83946  Biso   1.000  H
  N28      1.0000 0.25995  0.11833  0.78673  Biso   1.000  N
  H97      1.0000 0.24554  0.07074  0.87165  Biso   1.000  H
  H98      1.0000 0.32867  0.11633  0.85086  Biso   1.000  H
  N29      1.0000 0.72464  0.94981  0.54574  Biso   1.000  N
  H99      1.0000 0.66064  0.95855  0.48077  Biso   1.000  H
  N30      1.0000 0.72468  0.94981  0.54574  Biso   1.000  N
  H100     1.0000 0.66066  0.95850  0.48077  Biso   1.000  H
  H101     1.0000 0.66069  0.95855  0.48077  Biso   1.000  H
  H102     1.0000 0.73765  0.03032  0.48785  Biso   1.000  H
  N31      1.0000 0.22516  0.27530  0.54574  Biso   1.000  N
  H103     1.0000 0.29266  0.26235  0.48785  Biso   1.000  H
  H104     1.0000 0.29786  0.33930  0.48077  Biso   1.000  H
  H105     1.0000 0.29263  0.26230  0.48785  Biso   1.000  H
  H106     1.0000 0.29790  0.33930  0.48077  Biso   1.000  H
  C103     1.0000 0.75263  0.81691  0.74287  Biso   1.000  C
  C104     1.0000 0.75268  0.81691  0.74287  Biso   1.000  C
  C105     1.0000 0.21409  0.13700  0.80034  Biso   1.000  C
  C106     1.0000 0.21400  0.13700  0.80034  Biso   1.000  C
  C107     1.0000 0.75853  0.99600  0.58773  Biso   1.000  C
  C108     1.0000 0.75857  0.99600  0.58773  Biso   1.000  C
  C109     1.0000 0.23742  0.24142  0.58773  Biso   1.000  C
  C110     1.0000 0.23747  0.24142  0.58773  Biso   1.000  C
  C111     1.0000 0.77164  0.89213  0.72617  Biso   1.000  C
  C112     1.0000 0.77169  0.89213  0.72617  Biso   1.000  C
  H107     1.0000 0.73553  0.78102  0.71116  Biso   1.000  H
  H108     1.0000 0.73557  0.78102  0.71116  Biso   1.000  H
  C113     1.0000 0.19314  0.17472  0.75436  Biso   1.000  C
  H109     1.0000 0.19287  0.12680  0.84096  Biso   1.000  H
  C114     1.0000 0.77406  0.97744  0.65026  Biso   1.000  C
  H110     1.0000 0.77496  0.04532  0.57877  Biso   1.000  H
  C115     1.0000 0.20332  0.22593  0.65026  Biso   1.000  C
  H111     1.0000 0.27039  0.22501  0.57877  Biso   1.000  H
  H112     1.0000 0.27029  0.22501  0.57877  Biso   1.000  H
  C116     1.0000 0.20337  0.22593  0.65026  Biso   1.000  C
  C117     1.0000 0.75544  0.90664  0.66654  Biso   1.000  C
  C118     1.0000 0.75549  0.90664  0.66654  Biso   1.000  C
  C119     1.0000 0.80611  0.94771  0.76994  Biso   1.000  C
  C120     1.0000 0.80616  0.94771  0.76994  Biso   1.000  C
  C121     1.0000 0.22359  0.19123  0.69427  Biso   1.000  C
  C122     1.0000 0.14156  0.19382  0.76994  Biso   1.000  C
  C123     1.0000 0.80874  0.03232  0.69427  Biso   1.000  C
  C124     1.0000 0.15118  0.24454  0.66654  Biso   1.000  C
  C125     1.0000 0.15115  0.24449  0.66654  Biso   1.000  C
  C126     1.0000 0.15120  0.24449  0.66654  Biso   1.000  C
  H113     1.0000 0.73187  0.86866  0.63694  Biso   1.000  H
  H114     1.0000 0.73184  0.86860  0.63694  Biso   1.000  H
  H115     1.0000 0.73191  0.86866  0.63694  Biso   1.000  H
  C127     1.0000 0.82527  0.01845  0.75436  Biso   1.000  C
  C128     1.0000 0.82524  0.01840  0.75436  Biso   1.000  C
  H116     1.0000 0.81644  0.93724  0.81066  Biso   1.000  H
  H117     1.0000 0.81649  0.93724  0.81066  Biso   1.000  H
  H118     1.0000 0.25875  0.17855  0.68324  Biso   1.000  H
  H119     1.0000 0.25872  0.17850  0.68324  Biso   1.000  H
  C129     1.0000 0.12048  0.22830  0.72617  Biso   1.000  C
  C130     1.0000 0.12044  0.22830  0.72617  Biso   1.000  C
  H120     1.0000 0.12075  0.18352  0.81066  Biso   1.000  H
  H121     1.0000 0.12071  0.18352  0.81066  Biso   1.000  H
  H122     1.0000 0.82149  0.08024  0.68324  Biso   1.000  H
  H123     1.0000 0.13680  0.26813  0.63694  Biso   1.000  H
  H124     1.0000 0.13675  0.26813  0.63694  Biso   1.000  H
  C131     1.0000 0.86293  0.07705  0.80034  Biso   1.000  C
  C132     1.0000 0.86291  0.07700  0.80034  Biso   1.000  C
  C133     1.0000 0.06426  0.24735  0.74287  Biso   1.000  C
  C134     1.0000 0.06423  0.24730  0.74287  Biso   1.000  C
  N32      1.0000 0.88168  0.14164  0.78673  Biso   1.000  N
  H125     1.0000 0.87318  0.06604  0.84096  Biso   1.000  H
  N33      1.0000 0.04062  0.24082  0.79907  Biso   1.000  N
  N34      1.0000 0.04066  0.24082  0.79907  Biso   1.000  N
  H126     1.0000 0.04549  0.26440  0.71116  Biso   1.000  H
  H127     1.0000 0.04540  0.26440  0.71116  Biso   1.000  H
  C135     1.0000 0.91696  0.19603  0.83576  Biso   1.000  C
  C136     1.0000 0.91691  0.19603  0.83576  Biso   1.000  C
  C137     1.0000 0.98486  0.25960  0.80963  Biso   1.000  C
  H128     1.0000 0.92930  0.17483  0.87165  Biso   1.000  H
  H129     1.0000 0.88370  0.21233  0.85086  Biso   1.000  H
  H130     1.0000 0.92921  0.17483  0.87165  Biso   1.000  H
  H131     1.0000 0.88365  0.21233  0.85086  Biso   1.000  H
  H132     1.0000 0.97357  0.27525  0.76956  Biso   1.000  H
  H133     1.0000 0.97355  0.27519  0.76956  Biso   1.000  H
  H134     1.0000 0.00286  0.30045  0.83946  Biso   1.000  H
  H135     1.0000 0.00283  0.30039  0.83946  Biso   1.000  H
  C138     1.0000 0.02303  0.73591  0.48663  Biso   1.000  C
  C139     1.0000 0.04710  0.78863  0.43216  Biso   1.000  C
  C140     1.0000 0.04706  0.78863  0.43216  Biso   1.000  C
  H136     1.0000 0.96967  0.70731  0.48785  Biso   1.000  H
  H137     1.0000 0.96962  0.70731  0.48785  Biso   1.000  H
  N35      1.0000 0.05020  0.77482  0.54574  Biso   1.000  N
  H138     1.0000 0.04147  0.70213  0.48077  Biso   1.000  H
  N36      1.0000 0.05015  0.77482  0.54574  Biso   1.000  N
  N37      1.0000 0.01160  0.83202  0.43423  Biso   1.000  N
  N38      1.0000 0.01155  0.83202  0.43423  Biso   1.000  N
  C141     1.0000 0.02308  0.73591  0.48663  Biso   1.000  C
  H139     1.0000 0.09999  0.82085  0.43395  Biso   1.000  H
  H140     1.0000 0.03520  0.76165  0.39215  Biso   1.000  H
  H141     1.0000 0.03518  0.76160  0.39215  Biso   1.000  H
  H142     1.0000 0.09994  0.82085  0.43395  Biso   1.000  H
  H143     1.0000 0.03513  0.76160  0.39215  Biso   1.000  H
  C142     1.0000 0.00400  0.76252  0.58773  Biso   1.000  C
  C143     1.0000 0.00395  0.76252  0.58773  Biso   1.000  C
  C144     1.0000 0.05232  0.89925  0.44305  Biso   1.000  C
  C145     1.0000 0.05224  0.89920  0.44305  Biso   1.000  C
  C146     1.0000 0.05227  0.89925  0.44305  Biso   1.000  C
  H144     1.0000 0.95467  0.72965  0.57877  Biso   1.000  H
  H145     1.0000 0.95464  0.72960  0.57877  Biso   1.000  H
  C147     1.0000 0.02259  0.79662  0.65026  Biso   1.000  C
  C148     1.0000 0.02254  0.79662  0.65026  Biso   1.000  C
  C149     1.0000 0.02519  0.95051  0.44474  Biso   1.000  C
  C150     1.0000 0.02514  0.95051  0.44474  Biso   1.000  C
  H146     1.0000 0.10248  0.91733  0.44886  Biso   1.000  H
  H147     1.0000 0.10243  0.91733  0.44886  Biso   1.000  H
  C151     1.0000 0.96769  0.77644  0.69427  Biso   1.000  C
  C152     1.0000 0.96764  0.77644  0.69427  Biso   1.000  C
  C153     1.0000 0.09338  0.84885  0.66654  Biso   1.000  C
  C154     1.0000 0.09336  0.84880  0.66654  Biso   1.000  C
  C155     1.0000 0.07376  0.02374  0.44455  Biso   1.000  C
  C156     1.0000 0.94996  0.92623  0.44455  Biso   1.000  C
  C157     1.0000 0.98157  0.80682  0.75436  Biso   1.000  C
  C158     1.0000 0.98152  0.80682  0.75436  Biso   1.000  C
  H148     1.0000 0.91977  0.74126  0.68324  Biso   1.000  H
  H149     1.0000 0.91974  0.74120  0.68324  Biso   1.000  H
  H150     1.0000 0.13136  0.86321  0.63694  Biso   1.000  H
  C159     1.0000 0.10789  0.87956  0.72617  Biso   1.000  C
  C160     1.0000 0.10787  0.87950  0.72617  Biso   1.000  C
  C161     1.0000 0.10782  0.87950  0.72617  Biso   1.000  C
  C162     1.0000 0.04949  0.07462  0.44474  Biso   1.000  C
  H151     1.0000 0.12401  0.04030  0.44422  Biso   1.000  H
  H152     1.0000 0.12411  0.04030  0.44422  Biso   1.000  H
  C163     1.0000 0.92536  0.97480  0.44474  Biso   1.000  C
  C164     1.0000 0.92534  0.97485  0.44474  Biso   1.000  C
  C165     1.0000 0.92539  0.97485  0.44474  Biso   1.000  C
  H153     1.0000 0.91626  0.87594  0.44422  Biso   1.000  H
  C166     1.0000 0.92299  0.78593  0.80034  Biso   1.000  C
  C167     1.0000 0.92295  0.78593  0.80034  Biso   1.000  C
  C168     1.0000 0.05230  0.85846  0.76994  Biso   1.000  C
  C169     1.0000 0.05227  0.85840  0.76994  Biso   1.000  C
  C170     1.0000 0.05222  0.85840  0.76994  Biso   1.000  C
  C171     1.0000 0.18308  0.93573  0.74287  Biso   1.000  C
  C172     1.0000 0.18304  0.93573  0.74287  Biso   1.000  C
  C173     1.0000 0.97624  0.05002  0.44455  Biso   1.000  C
  C174     1.0000 0.97620  0.05002  0.44455  Biso   1.000  C
  C175     1.0000 0.10079  0.15303  0.44305  Biso   1.000  C
  C176     1.0000 0.84696  0.94771  0.44305  Biso   1.000  C
  N39      1.0000 0.85835  0.74001  0.78673  Biso   1.000  N
  H154     1.0000 0.93397  0.80714  0.84096  Biso   1.000  H
  H155     1.0000 0.06278  0.87923  0.81066  Biso   1.000  H
  N40      1.0000 0.20016  0.95931  0.79907  Biso   1.000  N
  H156     1.0000 0.21897  0.95451  0.71116  Biso   1.000  H
  H157     1.0000 0.21892  0.95451  0.71116  Biso   1.000  H
  H158     1.0000 0.95969  0.08374  0.44422  Biso   1.000  H
  H159     1.0000 0.95965  0.08374  0.44422  Biso   1.000  H
  N41      1.0000 0.16797  0.17952  0.43423  Biso   1.000  N
  H160     1.0000 0.08268  0.18513  0.44886  Biso   1.000  H
  H161     1.0000 0.08273  0.18513  0.44886  Biso   1.000  H
  N42      1.0000 0.82045  0.98845  0.43423  Biso   1.000  N
  N43      1.0000 0.82047  0.98839  0.43423  Biso   1.000  N
  N44      1.0000 0.82050  0.98845  0.43423  Biso   1.000  N
  N45      1.0000 0.82043  0.98839  0.43423  Biso   1.000  N
  H162     1.0000 0.81485  0.89752  0.44886  Biso   1.000  H
  C177     1.0000 0.80398  0.72091  0.83576  Biso   1.000  C
  C178     1.0000 0.80393  0.72091  0.83576  Biso   1.000  C
  C179     1.0000 0.27478  0.01510  0.80963  Biso   1.000  C
  C180     1.0000 0.27469  0.01510  0.80963  Biso   1.000  C
  C181     1.0000 0.21134  0.25841  0.43216  Biso   1.000  C
  C182     1.0000 0.74158  0.95294  0.43216  Biso   1.000  C
  C183     1.0000 0.74153  0.95294  0.43216  Biso   1.000  C
  C184     1.0000 0.74039  0.72523  0.80963  Biso   1.000  C
  C185     1.0000 0.74034  0.72523  0.80963  Biso   1.000  C
  H163     1.0000 0.82518  0.75442  0.87165  Biso   1.000  H
  H164     1.0000 0.78769  0.67132  0.85086  Biso   1.000  H
  H165     1.0000 0.78764  0.67132  0.85086  Biso   1.000  H
  H166     1.0000 0.82513  0.75442  0.87165  Biso   1.000  H
  H167     1.0000 0.30167  0.02644  0.76956  Biso   1.000  H
  C186     1.0000 0.27908  0.08304  0.83576  Biso   1.000  C
  C187     1.0000 0.27913  0.08304  0.83576  Biso   1.000  C
  H168     1.0000 0.29758  0.99714  0.83946  Biso   1.000  H
  C188     1.0000 0.26406  0.28712  0.48663  Biso   1.000  C
  H169     1.0000 0.17912  0.27913  0.43395  Biso   1.000  H
  H170     1.0000 0.23833  0.27352  0.39215  Biso   1.000  H
  C189     1.0000 0.26401  0.28712  0.48663  Biso   1.000  C
  H171     1.0000 0.17917  0.27913  0.43395  Biso   1.000  H
  C190     1.0000 0.71288  0.97695  0.48663  Biso   1.000  C
  H172     1.0000 0.72086  0.90001  0.43395  Biso   1.000  H
  H173     1.0000 0.72648  0.96481  0.39215  Biso   1.000  H
  C191     1.0000 0.71285  0.97690  0.48663  Biso   1.000  C
  H174     1.0000 0.72644  0.96481  0.39215  Biso   1.000  H
  H175     1.0000 0.72081  0.90001  0.43395  Biso   1.000  H
  N46      1.0000 0.75915  0.79986  0.79907  Biso   1.000  N
  N47      1.0000 0.75917  0.79980  0.79907  Biso   1.000  N
  N48      1.0000 0.75920  0.79986  0.79907  Biso   1.000  N
  N49      1.0000 0.75912  0.79980  0.79907  Biso   1.000  N
  H176     1.0000 0.72476  0.69836  0.76956  Biso   1.000  H
  H177     1.0000 0.69956  0.70246  0.83946  Biso   1.000  H
  H178     1.0000 0.72478  0.69830  0.76956  Biso   1.000  H
  H179     1.0000 0.69958  0.70240  0.83946  Biso   1.000  H
  H180     1.0000 0.72480  0.69836  0.76956  Biso   1.000  H
  H181     1.0000 0.69961  0.70246  0.83946  Biso   1.000  H
  H182     1.0000 0.72473  0.69830  0.76956  Biso   1.000  H
  H183     1.0000 0.69954  0.70240  0.83946  Biso   1.000  H
  H184     1.0000 0.32867  0.11633  0.85086  Biso   1.000  H
  N50      1.0000 0.25995  0.11833  0.78673  Biso   1.000  N
  H185     1.0000 0.24554  0.07074  0.87165  Biso   1.000  H
  N51      1.0000 0.22516  0.27530  0.54574  Biso   1.000  N
  H186     1.0000 0.29266  0.26235  0.48785  Biso   1.000  H
  H187     1.0000 0.29786  0.33930  0.48077  Biso   1.000  H
  H188     1.0000 0.29263  0.26230  0.48785  Biso   1.000  H
  H189     1.0000 0.29790  0.33930  0.48077  Biso   1.000  H
  H190     1.0000 0.73765  0.03032  0.48785  Biso   1.000  H
  N52      1.0000 0.72468  0.94981  0.54574  Biso   1.000  N
  N53      1.0000 0.72464  0.94981  0.54574  Biso   1.000  N
  H191     1.0000 0.66066  0.95850  0.48077  Biso   1.000  H
  H192     1.0000 0.66064  0.95855  0.48077  Biso   1.000  H
  H193     1.0000 0.66069  0.95855  0.48077  Biso   1.000  H
  C192     1.0000 0.75268  0.81691  0.74287  Biso   1.000  C
  C193     1.0000 0.75263  0.81691  0.74287  Biso   1.000  C
  C194     1.0000 0.21409  0.13700  0.80034  Biso   1.000  C
  C195     1.0000 0.21400  0.13700  0.80034  Biso   1.000  C
  C196     1.0000 0.23742  0.24142  0.58773  Biso   1.000  C
  C197     1.0000 0.23747  0.24142  0.58773  Biso   1.000  C
  C198     1.0000 0.75857  0.99600  0.58773  Biso   1.000  C
  C199     1.0000 0.75853  0.99600  0.58773  Biso   1.000  C
  C200     1.0000 0.77169  0.89213  0.72617  Biso   1.000  C
  C201     1.0000 0.77164  0.89213  0.72617  Biso   1.000  C
  H194     1.0000 0.73557  0.78102  0.71116  Biso   1.000  H
  H195     1.0000 0.73553  0.78102  0.71116  Biso   1.000  H
  C202     1.0000 0.19314  0.17472  0.75436  Biso   1.000  C
  H196     1.0000 0.19287  0.12680  0.84096  Biso   1.000  H
  C203     1.0000 0.20332  0.22593  0.65026  Biso   1.000  C
  H197     1.0000 0.27039  0.22501  0.57877  Biso   1.000  H
  H198     1.0000 0.27029  0.22501  0.57877  Biso   1.000  H
  C204     1.0000 0.20337  0.22593  0.65026  Biso   1.000  C
  H199     1.0000 0.77496  0.04532  0.57877  Biso   1.000  H
  C205     1.0000 0.77406  0.97744  0.65026  Biso   1.000  C
  C206     1.0000 0.75549  0.90664  0.66654  Biso   1.000  C
  C207     1.0000 0.75544  0.90664  0.66654  Biso   1.000  C
  C208     1.0000 0.80616  0.94771  0.76994  Biso   1.000  C
  C209     1.0000 0.80611  0.94771  0.76994  Biso   1.000  C
  C210     1.0000 0.14156  0.19382  0.76994  Biso   1.000  C
  C211     1.0000 0.22359  0.19123  0.69427  Biso   1.000  C
  C212     1.0000 0.15118  0.24454  0.66654  Biso   1.000  C
  C213     1.0000 0.15115  0.24449  0.66654  Biso   1.000  C
  C214     1.0000 0.15120  0.24449  0.66654  Biso   1.000  C
  C215     1.0000 0.80874  0.03232  0.69427  Biso   1.000  C
  H200     1.0000 0.73184  0.86860  0.63694  Biso   1.000  H
  H201     1.0000 0.73187  0.86866  0.63694  Biso   1.000  H
  H202     1.0000 0.73191  0.86866  0.63694  Biso   1.000  H
  C216     1.0000 0.82527  0.01845  0.75436  Biso   1.000  C
  C217     1.0000 0.82524  0.01840  0.75436  Biso   1.000  C
  H203     1.0000 0.81649  0.93724  0.81066  Biso   1.000  H
  H204     1.0000 0.81644  0.93724  0.81066  Biso   1.000  H
  C218     1.0000 0.12048  0.22830  0.72617  Biso   1.000  C
  C219     1.0000 0.12044  0.22830  0.72617  Biso   1.000  C
  H205     1.0000 0.12075  0.18352  0.81066  Biso   1.000  H
  H206     1.0000 0.12071  0.18352  0.81066  Biso   1.000  H
  H207     1.0000 0.25875  0.17855  0.68324  Biso   1.000  H
  H208     1.0000 0.25872  0.17850  0.68324  Biso   1.000  H
  H209     1.0000 0.13680  0.26813  0.63694  Biso   1.000  H
  H210     1.0000 0.13675  0.26813  0.63694  Biso   1.000  H
  H211     1.0000 0.82149  0.08024  0.68324  Biso   1.000  H
  C220     1.0000 0.86293  0.07705  0.80034  Biso   1.000  C
  C221     1.0000 0.86291  0.07700  0.80034  Biso   1.000  C
  C222     1.0000 0.06426  0.24735  0.74287  Biso   1.000  C
  C223     1.0000 0.06423  0.24730  0.74287  Biso   1.000  C
  N54      1.0000 0.88168  0.14164  0.78673  Biso   1.000  N
  H212     1.0000 0.87318  0.06604  0.84096  Biso   1.000  H
  N55      1.0000 0.04062  0.24082  0.79907  Biso   1.000  N
  N56      1.0000 0.04066  0.24082  0.79907  Biso   1.000  N
  H213     1.0000 0.04549  0.26440  0.71116  Biso   1.000  H
  H214     1.0000 0.04540  0.26440  0.71116  Biso   1.000  H
  C224     1.0000 0.91696  0.19603  0.83576  Biso   1.000  C
  C225     1.0000 0.91691  0.19603  0.83576  Biso   1.000  C
  C226     1.0000 0.98486  0.25960  0.80963  Biso   1.000  C
  H215     1.0000 0.92930  0.17483  0.87165  Biso   1.000  H
  H216     1.0000 0.88370  0.21233  0.85086  Biso   1.000  H
  H217     1.0000 0.92921  0.17483  0.87165  Biso   1.000  H
  H218     1.0000 0.88365  0.21233  0.85086  Biso   1.000  H
  H219     1.0000 0.97357  0.27525  0.76956  Biso   1.000  H
  H220     1.0000 0.97355  0.27519  0.76956  Biso   1.000  H
  H221     1.0000 0.00286  0.30045  0.83946  Biso   1.000  H
  H222     1.0000 0.00283  0.30039  0.83946  Biso   1.000  H
  C227     1.0000 0.02303  0.73591  0.48663  Biso   1.000  C
  C228     1.0000 0.04710  0.78863  0.43216  Biso   1.000  C
  C229     1.0000 0.04706  0.78863  0.43216  Biso   1.000  C
  H223     1.0000 0.96967  0.70731  0.48785  Biso   1.000  H
  H224     1.0000 0.96962  0.70731  0.48785  Biso   1.000  H
  N57      1.0000 0.05020  0.77482  0.54574  Biso   1.000  N
  H225     1.0000 0.04147  0.70213  0.48077  Biso   1.000  H
  N58      1.0000 0.05015  0.77482  0.54574  Biso   1.000  N
  N59      1.0000 0.01160  0.83202  0.43423  Biso   1.000  N
  N60      1.0000 0.01155  0.83202  0.43423  Biso   1.000  N
  C230     1.0000 0.02308  0.73591  0.48663  Biso   1.000  C
  H226     1.0000 0.09999  0.82085  0.43395  Biso   1.000  H
  H227     1.0000 0.03520  0.76165  0.39215  Biso   1.000  H
  H228     1.0000 0.03518  0.76160  0.39215  Biso   1.000  H
  H229     1.0000 0.09994  0.82085  0.43395  Biso   1.000  H
  H230     1.0000 0.03513  0.76160  0.39215  Biso   1.000  H
  C231     1.0000 0.00400  0.76252  0.58773  Biso   1.000  C
  C232     1.0000 0.00395  0.76252  0.58773  Biso   1.000  C
  C233     1.0000 0.05232  0.89925  0.44305  Biso   1.000  C
  C234     1.0000 0.05224  0.89920  0.44305  Biso   1.000  C
  C235     1.0000 0.05227  0.89925  0.44305  Biso   1.000  C
  H231     1.0000 0.95467  0.72965  0.57877  Biso   1.000  H
  H232     1.0000 0.95464  0.72960  0.57877  Biso   1.000  H
  C236     1.0000 0.02259  0.79662  0.65026  Biso   1.000  C
  C237     1.0000 0.02254  0.79662  0.65026  Biso   1.000  C
  C238     1.0000 0.02519  0.95051  0.44474  Biso   1.000  C
  C239     1.0000 0.02514  0.95051  0.44474  Biso   1.000  C
  H233     1.0000 0.10248  0.91733  0.44886  Biso   1.000  H
  H234     1.0000 0.10243  0.91733  0.44886  Biso   1.000  H
  C240     1.0000 0.96764  0.77644  0.69427  Biso   1.000  C
  C241     1.0000 0.96769  0.77644  0.69427  Biso   1.000  C
  C242     1.0000 0.09338  0.84885  0.66654  Biso   1.000  C
  C243     1.0000 0.09336  0.84880  0.66654  Biso   1.000  C
  C244     1.0000 0.07376  0.02374  0.44455  Biso   1.000  C
  C245     1.0000 0.94996  0.92623  0.44455  Biso   1.000  C
  C246     1.0000 0.98157  0.80682  0.75436  Biso   1.000  C
  C247     1.0000 0.98152  0.80682  0.75436  Biso   1.000  C
  H235     1.0000 0.91977  0.74126  0.68324  Biso   1.000  H
  H236     1.0000 0.91974  0.74120  0.68324  Biso   1.000  H
  H237     1.0000 0.13136  0.86321  0.63694  Biso   1.000  H
  C248     1.0000 0.10789  0.87956  0.72617  Biso   1.000  C
  C249     1.0000 0.10787  0.87950  0.72617  Biso   1.000  C
  C250     1.0000 0.10782  0.87950  0.72617  Biso   1.000  C
  C251     1.0000 0.04949  0.07462  0.44474  Biso   1.000  C
  H238     1.0000 0.12401  0.04030  0.44422  Biso   1.000  H
  H239     1.0000 0.12411  0.04030  0.44422  Biso   1.000  H
  C252     1.0000 0.92534  0.97485  0.44474  Biso   1.000  C
  C253     1.0000 0.92536  0.97480  0.44474  Biso   1.000  C
  C254     1.0000 0.92539  0.97485  0.44474  Biso   1.000  C
  H240     1.0000 0.91626  0.87594  0.44422  Biso   1.000  H
  C255     1.0000 0.92295  0.78593  0.80034  Biso   1.000  C
  C256     1.0000 0.92299  0.78593  0.80034  Biso   1.000  C
  C257     1.0000 0.05230  0.85846  0.76994  Biso   1.000  C
  C258     1.0000 0.05227  0.85840  0.76994  Biso   1.000  C
  C259     1.0000 0.05222  0.85840  0.76994  Biso   1.000  C
  C260     1.0000 0.18308  0.93573  0.74287  Biso   1.000  C
  C261     1.0000 0.18304  0.93573  0.74287  Biso   1.000  C
  C262     1.0000 0.97624  0.05002  0.44455  Biso   1.000  C
  C263     1.0000 0.97620  0.05002  0.44455  Biso   1.000  C
  C264     1.0000 0.10079  0.15303  0.44305  Biso   1.000  C
  C265     1.0000 0.84696  0.94771  0.44305  Biso   1.000  C
  N61      1.0000 0.85835  0.74001  0.78673  Biso   1.000  N
  H241     1.0000 0.93397  0.80714  0.84096  Biso   1.000  H
  H242     1.0000 0.06278  0.87923  0.81066  Biso   1.000  H
  N62      1.0000 0.20016  0.95931  0.79907  Biso   1.000  N
  H243     1.0000 0.21897  0.95451  0.71116  Biso   1.000  H
  H244     1.0000 0.21892  0.95451  0.71116  Biso   1.000  H
  H245     1.0000 0.95969  0.08374  0.44422  Biso   1.000  H
  H246     1.0000 0.95965  0.08374  0.44422  Biso   1.000  H
  N63      1.0000 0.16797  0.17952  0.43423  Biso   1.000  N
  H247     1.0000 0.08268  0.18513  0.44886  Biso   1.000  H
  H248     1.0000 0.08273  0.18513  0.44886  Biso   1.000  H
  N64      1.0000 0.82045  0.98845  0.43423  Biso   1.000  N
  N65      1.0000 0.82047  0.98839  0.43423  Biso   1.000  N
  N66      1.0000 0.82050  0.98845  0.43423  Biso   1.000  N
  N67      1.0000 0.82043  0.98839  0.43423  Biso   1.000  N
  H249     1.0000 0.81485  0.89752  0.44886  Biso   1.000  H
  C266     1.0000 0.80393  0.72091  0.83576  Biso   1.000  C
  C267     1.0000 0.80398  0.72091  0.83576  Biso   1.000  C
  C268     1.0000 0.27478  0.01510  0.80963  Biso   1.000  C
  C269     1.0000 0.27469  0.01510  0.80963  Biso   1.000  C
  C270     1.0000 0.21134  0.25841  0.43216  Biso   1.000  C
  C271     1.0000 0.74158  0.95294  0.43216  Biso   1.000  C
  C272     1.0000 0.74153  0.95294  0.43216  Biso   1.000  C
  C273     1.0000 0.74034  0.72523  0.80963  Biso   1.000  C
  C274     1.0000 0.74039  0.72523  0.80963  Biso   1.000  C
  H250     1.0000 0.82518  0.75442  0.87165  Biso   1.000  H
  H251     1.0000 0.82513  0.75442  0.87165  Biso   1.000  H
  H252     1.0000 0.78764  0.67132  0.85086  Biso   1.000  H
  H253     1.0000 0.78769  0.67132  0.85086  Biso   1.000  H
  H254     1.0000 0.30167  0.02644  0.76956  Biso   1.000  H
  C275     1.0000 0.27908  0.08304  0.83576  Biso   1.000  C
  C276     1.0000 0.27913  0.08304  0.83576  Biso   1.000  C
  H255     1.0000 0.29758  0.99714  0.83946  Biso   1.000  H
  C277     1.0000 0.26406  0.28712  0.48663  Biso   1.000  C
  H256     1.0000 0.17912  0.27913  0.43395  Biso   1.000  H
  H257     1.0000 0.23833  0.27352  0.39215  Biso   1.000  H
  C278     1.0000 0.26401  0.28712  0.48663  Biso   1.000  C
  H258     1.0000 0.17917  0.27913  0.43395  Biso   1.000  H
  H259     1.0000 0.72086  0.90001  0.43395  Biso   1.000  H
  C279     1.0000 0.71288  0.97695  0.48663  Biso   1.000  C
  H260     1.0000 0.72081  0.90001  0.43395  Biso   1.000  H
  H261     1.0000 0.72644  0.96481  0.39215  Biso   1.000  H
  C280     1.0000 0.71285  0.97690  0.48663  Biso   1.000  C
  H262     1.0000 0.72648  0.96481  0.39215  Biso   1.000  H
  N68      1.0000 0.75915  0.79986  0.79907  Biso   1.000  N
  N69      1.0000 0.75917  0.79980  0.79907  Biso   1.000  N
  N70      1.0000 0.75920  0.79986  0.79907  Biso   1.000  N
  N71      1.0000 0.75912  0.79980  0.79907  Biso   1.000  N
  H263     1.0000 0.72476  0.69836  0.76956  Biso   1.000  H
  H264     1.0000 0.69956  0.70246  0.83946  Biso   1.000  H
  H265     1.0000 0.72478  0.69830  0.76956  Biso   1.000  H
  H266     1.0000 0.69958  0.70240  0.83946  Biso   1.000  H
  H267     1.0000 0.72480  0.69836  0.76956  Biso   1.000  H
  H268     1.0000 0.69961  0.70246  0.83946  Biso   1.000  H
  H269     1.0000 0.72473  0.69830  0.76956  Biso   1.000  H
  H270     1.0000 0.69954  0.70240  0.83946  Biso   1.000  H
  H271     1.0000 0.32867  0.11633  0.85086  Biso   1.000  H
  N72      1.0000 0.25995  0.11833  0.78673  Biso   1.000  N
  H272     1.0000 0.24554  0.07074  0.87165  Biso   1.000  H
  N73      1.0000 0.22516  0.27530  0.54574  Biso   1.000  N
  H273     1.0000 0.29266  0.26235  0.48785  Biso   1.000  H
  H274     1.0000 0.29786  0.33930  0.48077  Biso   1.000  H
  H275     1.0000 0.29263  0.26230  0.48785  Biso   1.000  H
  H276     1.0000 0.29790  0.33930  0.48077  Biso   1.000  H
  H277     1.0000 0.73765  0.03032  0.48785  Biso   1.000  H
  N74      1.0000 0.72464  0.94981  0.54574  Biso   1.000  N
  H278     1.0000 0.66064  0.95855  0.48077  Biso   1.000  H
  N75      1.0000 0.72468  0.94981  0.54574  Biso   1.000  N
  H279     1.0000 0.66066  0.95850  0.48077  Biso   1.000  H
  H280     1.0000 0.66069  0.95855  0.48077  Biso   1.000  H
  C281     1.0000 0.75263  0.81691  0.74287  Biso   1.000  C
  C282     1.0000 0.75268  0.81691  0.74287  Biso   1.000  C
  C283     1.0000 0.21409  0.13700  0.80034  Biso   1.000  C
  C284     1.0000 0.21400  0.13700  0.80034  Biso   1.000  C
  C285     1.0000 0.23742  0.24142  0.58773  Biso   1.000  C
  C286     1.0000 0.23747  0.24142  0.58773  Biso   1.000  C
  C287     1.0000 0.75853  0.99600  0.58773  Biso   1.000  C
  C288     1.0000 0.75857  0.99600  0.58773  Biso   1.000  C
  C289     1.0000 0.77164  0.89213  0.72617  Biso   1.000  C
  C290     1.0000 0.77169  0.89213  0.72617  Biso   1.000  C
  H281     1.0000 0.73557  0.78102  0.71116  Biso   1.000  H
  H282     1.0000 0.73553  0.78102  0.71116  Biso   1.000  H
  C291     1.0000 0.19314  0.17472  0.75436  Biso   1.000  C
  H283     1.0000 0.19287  0.12680  0.84096  Biso   1.000  H
  C292     1.0000 0.20332  0.22593  0.65026  Biso   1.000  C
  H284     1.0000 0.27039  0.22501  0.57877  Biso   1.000  H
  H285     1.0000 0.27029  0.22501  0.57877  Biso   1.000  H
  C293     1.0000 0.20337  0.22593  0.65026  Biso   1.000  C
  H286     1.0000 0.77496  0.04532  0.57877  Biso   1.000  H
  C294     1.0000 0.77406  0.97744  0.65026  Biso   1.000  C
  C295     1.0000 0.75549  0.90664  0.66654  Biso   1.000  C
  C296     1.0000 0.75544  0.90664  0.66654  Biso   1.000  C
  C297     1.0000 0.80616  0.94771  0.76994  Biso   1.000  C
  C298     1.0000 0.80611  0.94771  0.76994  Biso   1.000  C
  C299     1.0000 0.14156  0.19382  0.76994  Biso   1.000  C
  C300     1.0000 0.22359  0.19123  0.69427  Biso   1.000  C
  C301     1.0000 0.15118  0.24454  0.66654  Biso   1.000  C
  C302     1.0000 0.15115  0.24449  0.66654  Biso   1.000  C
  C303     1.0000 0.15120  0.24449  0.66654  Biso   1.000  C
  C304     1.0000 0.80874  0.03232  0.69427  Biso   1.000  C
  H287     1.0000 0.73187  0.86866  0.63694  Biso   1.000  H
  H288     1.0000 0.73184  0.86860  0.63694  Biso   1.000  H
  H289     1.0000 0.73191  0.86866  0.63694  Biso   1.000  H
  C305     1.0000 0.82527  0.01845  0.75436  Biso   1.000  C
  C306     1.0000 0.82524  0.01840  0.75436  Biso   1.000  C
  H290     1.0000 0.81649  0.93724  0.81066  Biso   1.000  H
  H291     1.0000 0.81644  0.93724  0.81066  Biso   1.000  H
  C307     1.0000 0.12048  0.22830  0.72617  Biso   1.000  C
  C308     1.0000 0.12044  0.22830  0.72617  Biso   1.000  C
  H292     1.0000 0.12075  0.18352  0.81066  Biso   1.000  H
  H293     1.0000 0.12071  0.18352  0.81066  Biso   1.000  H
  H294     1.0000 0.25875  0.17855  0.68324  Biso   1.000  H
  H295     1.0000 0.25872  0.17850  0.68324  Biso   1.000  H
  H296     1.0000 0.13680  0.26813  0.63694  Biso   1.000  H
  H297     1.0000 0.13675  0.26813  0.63694  Biso   1.000  H
  H298     1.0000 0.82149  0.08024  0.68324  Biso   1.000  H
  C309     1.0000 0.86293  0.07705  0.80034  Biso   1.000  C
  C310     1.0000 0.86291  0.07700  0.80034  Biso   1.000  C
  C311     1.0000 0.06426  0.24735  0.74287  Biso   1.000  C
  C312     1.0000 0.06423  0.24730  0.74287  Biso   1.000  C
  N76      1.0000 0.88168  0.14164  0.78673  Biso   1.000  N
  H299     1.0000 0.87318  0.06604  0.84096  Biso   1.000  H
  N77      1.0000 0.04062  0.24082  0.79907  Biso   1.000  N
  N78      1.0000 0.04066  0.24082  0.79907  Biso   1.000  N
  H300     1.0000 0.04549  0.26440  0.71116  Biso   1.000  H
  H301     1.0000 0.04540  0.26440  0.71116  Biso   1.000  H
  C313     1.0000 0.91696  0.19603  0.83576  Biso   1.000  C
  C314     1.0000 0.91691  0.19603  0.83576  Biso   1.000  C
  C315     1.0000 0.98486  0.25960  0.80963  Biso   1.000  C
  H302     1.0000 0.92930  0.17483  0.87165  Biso   1.000  H
  H303     1.0000 0.88370  0.21233  0.85086  Biso   1.000  H
  H304     1.0000 0.92921  0.17483  0.87165  Biso   1.000  H
  H305     1.0000 0.88365  0.21233  0.85086  Biso   1.000  H
  H306     1.0000 0.97357  0.27525  0.76956  Biso   1.000  H
  H307     1.0000 0.97355  0.27519  0.76956  Biso   1.000  H
  H308     1.0000 0.00286  0.30045  0.83946  Biso   1.000  H
  H309     1.0000 0.00283  0.30039  0.83946  Biso   1.000  H
  C316     1.0000 0.02303  0.73591  0.48663  Biso   1.000  C
  C317     1.0000 0.04710  0.78863  0.43216  Biso   1.000  C
  C318     1.0000 0.04706  0.78863  0.43216  Biso   1.000  C
  H310     1.0000 0.96962  0.70731  0.48785  Biso   1.000  H
  H311     1.0000 0.96967  0.70731  0.48785  Biso   1.000  H
  N79      1.0000 0.05020  0.77482  0.54574  Biso   1.000  N
  H312     1.0000 0.04147  0.70213  0.48077  Biso   1.000  H
  N80      1.0000 0.05015  0.77482  0.54574  Biso   1.000  N
  N81      1.0000 0.01160  0.83202  0.43423  Biso   1.000  N
  N82      1.0000 0.01155  0.83202  0.43423  Biso   1.000  N
  C319     1.0000 0.02308  0.73591  0.48663  Biso   1.000  C
  H313     1.0000 0.09999  0.82085  0.43395  Biso   1.000  H
  H314     1.0000 0.03520  0.76165  0.39215  Biso   1.000  H
  H315     1.0000 0.03518  0.76160  0.39215  Biso   1.000  H
  H316     1.0000 0.09994  0.82085  0.43395  Biso   1.000  H
  H317     1.0000 0.03513  0.76160  0.39215  Biso   1.000  H
  C320     1.0000 0.00400  0.76252  0.58773  Biso   1.000  C
  C321     1.0000 0.00395  0.76252  0.58773  Biso   1.000  C
  C322     1.0000 0.05232  0.89925  0.44305  Biso   1.000  C
  C323     1.0000 0.05224  0.89920  0.44305  Biso   1.000  C
  C324     1.0000 0.05227  0.89925  0.44305  Biso   1.000  C
  H318     1.0000 0.95467  0.72965  0.57877  Biso   1.000  H
  H319     1.0000 0.95464  0.72960  0.57877  Biso   1.000  H
  C325     1.0000 0.02259  0.79662  0.65026  Biso   1.000  C
  C326     1.0000 0.02254  0.79662  0.65026  Biso   1.000  C
  C327     1.0000 0.02519  0.95051  0.44474  Biso   1.000  C
  C328     1.0000 0.02514  0.95051  0.44474  Biso   1.000  C
  H320     1.0000 0.10248  0.91733  0.44886  Biso   1.000  H
  H321     1.0000 0.10243  0.91733  0.44886  Biso   1.000  H
  C329     1.0000 0.96764  0.77644  0.69427  Biso   1.000  C
  C330     1.0000 0.96769  0.77644  0.69427  Biso   1.000  C
  C331     1.0000 0.09338  0.84885  0.66654  Biso   1.000  C
  C332     1.0000 0.09336  0.84880  0.66654  Biso   1.000  C
  C333     1.0000 0.07376  0.02374  0.44455  Biso   1.000  C
  C334     1.0000 0.94996  0.92623  0.44455  Biso   1.000  C
  C335     1.0000 0.98152  0.80682  0.75436  Biso   1.000  C
  H322     1.0000 0.91977  0.74126  0.68324  Biso   1.000  H
  C336     1.0000 0.98157  0.80682  0.75436  Biso   1.000  C
  H323     1.0000 0.91974  0.74120  0.68324  Biso   1.000  H
  H324     1.0000 0.13136  0.86321  0.63694  Biso   1.000  H
  C337     1.0000 0.10789  0.87956  0.72617  Biso   1.000  C
  C338     1.0000 0.10787  0.87950  0.72617  Biso   1.000  C
  C339     1.0000 0.10782  0.87950  0.72617  Biso   1.000  C
  C340     1.0000 0.04949  0.07462  0.44474  Biso   1.000  C
  H325     1.0000 0.12401  0.04030  0.44422  Biso   1.000  H
  H326     1.0000 0.12411  0.04030  0.44422  Biso   1.000  H
  C341     1.0000 0.92534  0.97485  0.44474  Biso   1.000  C
  C342     1.0000 0.92536  0.97480  0.44474  Biso   1.000  C
  C343     1.0000 0.92539  0.97485  0.44474  Biso   1.000  C
  H327     1.0000 0.91626  0.87594  0.44422  Biso   1.000  H
  C344     1.0000 0.92295  0.78593  0.80034  Biso   1.000  C
  C345     1.0000 0.92299  0.78593  0.80034  Biso   1.000  C
  C346     1.0000 0.05230  0.85846  0.76994  Biso   1.000  C
  C347     1.0000 0.05227  0.85840  0.76994  Biso   1.000  C
  C348     1.0000 0.05222  0.85840  0.76994  Biso   1.000  C
  C349     1.0000 0.18308  0.93573  0.74287  Biso   1.000  C
  C350     1.0000 0.18304  0.93573  0.74287  Biso   1.000  C
  C351     1.0000 0.97624  0.05002  0.44455  Biso   1.000  C
  C352     1.0000 0.97620  0.05002  0.44455  Biso   1.000  C
  C353     1.0000 0.10079  0.15303  0.44305  Biso   1.000  C
  C354     1.0000 0.84696  0.94771  0.44305  Biso   1.000  C
  N83      1.0000 0.85835  0.74001  0.78673  Biso   1.000  N
  H328     1.0000 0.93397  0.80714  0.84096  Biso   1.000  H
  H329     1.0000 0.06278  0.87923  0.81066  Biso   1.000  H
  N84      1.0000 0.20016  0.95931  0.79907  Biso   1.000  N
  H330     1.0000 0.21897  0.95451  0.71116  Biso   1.000  H
  H331     1.0000 0.21892  0.95451  0.71116  Biso   1.000  H
  H332     1.0000 0.95969  0.08374  0.44422  Biso   1.000  H
  H333     1.0000 0.95965  0.08374  0.44422  Biso   1.000  H
  N85      1.0000 0.16797  0.17952  0.43423  Biso   1.000  N
  H334     1.0000 0.08268  0.18513  0.44886  Biso   1.000  H
  H335     1.0000 0.08273  0.18513  0.44886  Biso   1.000  H
  H336     1.0000 0.81485  0.89752  0.44886  Biso   1.000  H
  N86      1.0000 0.82045  0.98845  0.43423  Biso   1.000  N
  N87      1.0000 0.82047  0.98839  0.43423  Biso   1.000  N
  N88      1.0000 0.82050  0.98845  0.43423  Biso   1.000  N
  N89      1.0000 0.82043  0.98839  0.43423  Biso   1.000  N
  C355     1.0000 0.80393  0.72091  0.83576  Biso   1.000  C
  C356     1.0000 0.80398  0.72091  0.83576  Biso   1.000  C
  C357     1.0000 0.27478  0.01510  0.80963  Biso   1.000  C
  C358     1.0000 0.27469  0.01510  0.80963  Biso   1.000  C
  C359     1.0000 0.21134  0.25841  0.43216  Biso   1.000  C
  C360     1.0000 0.74153  0.95294  0.43216  Biso   1.000  C
  C361     1.0000 0.74158  0.95294  0.43216  Biso   1.000  C
  C362     1.0000 0.74034  0.72523  0.80963  Biso   1.000  C
  C363     1.0000 0.74039  0.72523  0.80963  Biso   1.000  C
  H337     1.0000 0.82513  0.75442  0.87165  Biso   1.000  H
  H338     1.0000 0.78764  0.67132  0.85086  Biso   1.000  H
  H339     1.0000 0.82518  0.75442  0.87165  Biso   1.000  H
  H340     1.0000 0.78769  0.67132  0.85086  Biso   1.000  H
  H341     1.0000 0.30167  0.02644  0.76956  Biso   1.000  H
  C364     1.0000 0.27908  0.08304  0.83576  Biso   1.000  C
  C365     1.0000 0.27913  0.08304  0.83576  Biso   1.000  C
  H342     1.0000 0.29758  0.99714  0.83946  Biso   1.000  H
  C366     1.0000 0.26406  0.28712  0.48663  Biso   1.000  C
  H343     1.0000 0.17912  0.27913  0.43395  Biso   1.000  H
  H344     1.0000 0.23833  0.27352  0.39215  Biso   1.000  H
  C367     1.0000 0.26401  0.28712  0.48663  Biso   1.000  C
  H345     1.0000 0.17917  0.27913  0.43395  Biso   1.000  H
  C368     1.0000 0.71288  0.97695  0.48663  Biso   1.000  C
  H346     1.0000 0.72081  0.90001  0.43395  Biso   1.000  H
  H347     1.0000 0.72644  0.96481  0.39215  Biso   1.000  H
  C369     1.0000 0.71285  0.97690  0.48663  Biso   1.000  C
  H348     1.0000 0.72086  0.90001  0.43395  Biso   1.000  H
  H349     1.0000 0.72648  0.96481  0.39215  Biso   1.000  H
  N90      1.0000 0.75915  0.79986  0.79907  Biso   1.000  N
  N91      1.0000 0.75917  0.79980  0.79907  Biso   1.000  N
  N92      1.0000 0.75920  0.79986  0.79907  Biso   1.000  N
  N93      1.0000 0.75912  0.79980  0.79907  Biso   1.000  N
  H350     1.0000 0.72476  0.69836  0.76956  Biso   1.000  H
  H351     1.0000 0.69956  0.70246  0.83946  Biso   1.000  H
  H352     1.0000 0.72478  0.69830  0.76956  Biso   1.000  H
  H353     1.0000 0.69958  0.70240  0.83946  Biso   1.000  H
  H354     1.0000 0.72480  0.69836  0.76956  Biso   1.000  H
  H355     1.0000 0.69961  0.70246  0.83946  Biso   1.000  H
  H356     1.0000 0.72473  0.69830  0.76956  Biso   1.000  H
  H357     1.0000 0.69954  0.70240  0.83946  Biso   1.000  H
  H358     1.0000 0.32867  0.11633  0.85086  Biso   1.000  H
  N94      1.0000 0.25995  0.11833  0.78673  Biso   1.000  N
  H359     1.0000 0.24554  0.07074  0.87165  Biso   1.000  H
  N95      1.0000 0.22516  0.27530  0.54574  Biso   1.000  N
  H360     1.0000 0.29266  0.26235  0.48785  Biso   1.000  H
  H361     1.0000 0.29786  0.33930  0.48077  Biso   1.000  H
  H362     1.0000 0.29263  0.26230  0.48785  Biso   1.000  H
  H363     1.0000 0.29790  0.33930  0.48077  Biso   1.000  H
  H364     1.0000 0.73765  0.03032  0.48785  Biso   1.000  H
  N96      1.0000 0.72464  0.94981  0.54574  Biso   1.000  N
  H365     1.0000 0.66064  0.95855  0.48077  Biso   1.000  H
  N97      1.0000 0.72468  0.94981  0.54574  Biso   1.000  N
  H366     1.0000 0.66066  0.95850  0.48077  Biso   1.000  H
  H367     1.0000 0.66069  0.95855  0.48077  Biso   1.000  H
  C370     1.0000 0.75263  0.81691  0.74287  Biso   1.000  C
  C371     1.0000 0.75268  0.81691  0.74287  Biso   1.000  C
  C372     1.0000 0.21409  0.13700  0.80034  Biso   1.000  C
  C373     1.0000 0.21400  0.13700  0.80034  Biso   1.000  C
  C374     1.0000 0.23742  0.24142  0.58773  Biso   1.000  C
  C375     1.0000 0.23747  0.24142  0.58773  Biso   1.000  C
  C376     1.0000 0.75853  0.99600  0.58773  Biso   1.000  C
  C377     1.0000 0.75857  0.99600  0.58773  Biso   1.000  C
  C378     1.0000 0.77164  0.89213  0.72617  Biso   1.000  C
  C379     1.0000 0.77169  0.89213  0.72617  Biso   1.000  C
  H368     1.0000 0.73553  0.78102  0.71116  Biso   1.000  H
  H369     1.0000 0.73557  0.78102  0.71116  Biso   1.000  H
  C380     1.0000 0.19314  0.17472  0.75436  Biso   1.000  C
  H370     1.0000 0.19287  0.12680  0.84096  Biso   1.000  H
  C381     1.0000 0.20332  0.22593  0.65026  Biso   1.000  C
  H371     1.0000 0.27039  0.22501  0.57877  Biso   1.000  H
  H372     1.0000 0.27029  0.22501  0.57877  Biso   1.000  H
  C382     1.0000 0.20337  0.22593  0.65026  Biso   1.000  C
  H373     1.0000 0.77496  0.04532  0.57877  Biso   1.000  H
  C383     1.0000 0.77406  0.97744  0.65026  Biso   1.000  C
  C384     1.0000 0.75544  0.90664  0.66654  Biso   1.000  C
  C385     1.0000 0.75549  0.90664  0.66654  Biso   1.000  C
  C386     1.0000 0.80611  0.94771  0.76994  Biso   1.000  C
  C387     1.0000 0.80616  0.94771  0.76994  Biso   1.000  C
  C388     1.0000 0.14156  0.19382  0.76994  Biso   1.000  C
  C389     1.0000 0.22359  0.19123  0.69427  Biso   1.000  C
  C390     1.0000 0.15118  0.24454  0.66654  Biso   1.000  C
  C391     1.0000 0.15115  0.24449  0.66654  Biso   1.000  C
  C392     1.0000 0.15120  0.24449  0.66654  Biso   1.000  C
  C393     1.0000 0.80874  0.03232  0.69427  Biso   1.000  C
  H374     1.0000 0.73187  0.86866  0.63694  Biso   1.000  H
  H375     1.0000 0.73184  0.86860  0.63694  Biso   1.000  H
  H376     1.0000 0.73191  0.86866  0.63694  Biso   1.000  H
  C394     1.0000 0.82527  0.01845  0.75436  Biso   1.000  C
  C395     1.0000 0.82524  0.01840  0.75436  Biso   1.000  C
  H377     1.0000 0.81644  0.93724  0.81066  Biso   1.000  H
  H378     1.0000 0.81649  0.93724  0.81066  Biso   1.000  H
  C396     1.0000 0.12048  0.22830  0.72617  Biso   1.000  C
  C397     1.0000 0.12044  0.22830  0.72617  Biso   1.000  C
  H379     1.0000 0.12075  0.18352  0.81066  Biso   1.000  H
  H380     1.0000 0.12071  0.18352  0.81066  Biso   1.000  H
  H381     1.0000 0.25875  0.17855  0.68324  Biso   1.000  H
  H382     1.0000 0.25872  0.17850  0.68324  Biso   1.000  H
  H383     1.0000 0.13680  0.26813  0.63694  Biso   1.000  H
  H384     1.0000 0.13675  0.26813  0.63694  Biso   1.000  H
  H385     1.0000 0.82149  0.08024  0.68324  Biso   1.000  H
  C398     1.0000 0.86293  0.07705  0.80034  Biso   1.000  C
  C399     1.0000 0.86291  0.07700  0.80034  Biso   1.000  C
  C400     1.0000 0.06426  0.24735  0.74287  Biso   1.000  C
  C401     1.0000 0.06423  0.24730  0.74287  Biso   1.000  C
  N98      1.0000 0.88168  0.14164  0.78673  Biso   1.000  N
  H386     1.0000 0.87318  0.06604  0.84096  Biso   1.000  H
  N99      1.0000 0.04062  0.24082  0.79907  Biso   1.000  N
  N100     1.0000 0.04066  0.24082  0.79907  Biso   1.000  N
  H387     1.0000 0.04549  0.26440  0.71116  Biso   1.000  H
  H388     1.0000 0.04540  0.26440  0.71116  Biso   1.000  H
  C402     1.0000 0.91696  0.19603  0.83576  Biso   1.000  C
  C403     1.0000 0.91691  0.19603  0.83576  Biso   1.000  C
  C404     1.0000 0.98486  0.25960  0.80963  Biso   1.000  C
  H389     1.0000 0.92930  0.17483  0.87165  Biso   1.000  H
  H390     1.0000 0.88370  0.21233  0.85086  Biso   1.000  H
  H391     1.0000 0.92921  0.17483  0.87165  Biso   1.000  H
  H392     1.0000 0.88365  0.21233  0.85086  Biso   1.000  H
  H393     1.0000 0.97357  0.27525  0.76956  Biso   1.000  H
  H394     1.0000 0.97355  0.27519  0.76956  Biso   1.000  H
  H395     1.0000 0.00286  0.30045  0.83946  Biso   1.000  H
  H396     1.0000 0.00283  0.30039  0.83946  Biso   1.000  H
  N101     1.0000 0.83462  0.51284  0.76759  Biso   1.000  N
  C405     1.0000 0.76740  0.48635  0.77637  Biso   1.000  C
  C406     1.0000 0.87802  0.59178  0.76548  Biso   1.000  C
  C407     1.0000 0.71610  0.40794  0.77810  Biso   1.000  C
  H397     1.0000 0.74934  0.51845  0.78218  Biso   1.000  H
  C408     1.0000 0.93072  0.62044  0.81999  Biso   1.000  C
  H398     1.0000 0.84583  0.61245  0.76726  Biso   1.000  H
  H399     1.0000 0.90499  0.60684  0.72546  Biso   1.000  H
  C409     1.0000 0.64290  0.38334  0.77787  Biso   1.000  C
  C410     1.0000 0.74042  0.35706  0.77787  Biso   1.000  C
  N102     1.0000 0.89184  0.60867  0.87910  Biso   1.000  N
  H400     1.0000 0.95931  0.59567  0.82117  Biso   1.000  H
  H401     1.0000 0.96454  0.67267  0.81408  Biso   1.000  H
  C411     1.0000 0.59205  0.30817  0.77810  Biso   1.000  C
  H402     1.0000 0.62631  0.41706  0.77758  Biso   1.000  H
  C412     1.0000 0.69183  0.28389  0.77810  Biso   1.000  C
  H403     1.0000 0.79074  0.37368  0.77758  Biso   1.000  H
  C413     1.0000 0.90412  0.57473  0.92109  Biso   1.000  C
  C414     1.0000 0.51364  0.28108  0.77637  Biso   1.000  C
  C415     1.0000 0.61662  0.25955  0.77787  Biso   1.000  C
  C416     1.0000 0.71893  0.23257  0.77637  Biso   1.000  C
  C417     1.0000 0.87002  0.55925  0.98358  Biso   1.000  C
  H404     1.0000 0.93703  0.55838  0.91208  Biso   1.000  H
  N103     1.0000 0.48711  0.32177  0.76759  Biso   1.000  N
  H405     1.0000 0.48151  0.23084  0.78218  Biso   1.000  H
  H406     1.0000 0.58292  0.20926  0.77758  Biso   1.000  H
  N104     1.0000 0.67824  0.16539  0.76759  Biso   1.000  N
  H407     1.0000 0.76909  0.25065  0.78218  Biso   1.000  H
  C418     1.0000 0.81783  0.57786  0.99991  Biso   1.000  C
  C419     1.0000 0.89020  0.52455  0.02758  Biso   1.000  C
  C420     1.0000 0.40824  0.28626  0.76548  Biso   1.000  C
  C421     1.0000 0.71372  0.12195  0.76548  Biso   1.000  C
  C422     1.0000 0.78712  0.56167  0.05949  Biso   1.000  C
  H408     1.0000 0.80341  0.60144  0.97030  Biso   1.000  H
  C423     1.0000 0.85979  0.50804  0.08768  Biso   1.000  C
  H409     1.0000 0.92541  0.51187  0.01661  Biso   1.000  H
  C424     1.0000 0.37954  0.31027  0.81999  Biso   1.000  C
  H410     1.0000 0.38754  0.23338  0.76726  Biso   1.000  H
  H411     1.0000 0.39312  0.29819  0.72546  Biso   1.000  H
  C425     1.0000 0.68972  0.06929  0.81999  Biso   1.000  C
  H412     1.0000 0.76660  0.15417  0.76726  Biso   1.000  H
  H413     1.0000 0.70181  0.09497  0.72546  Biso   1.000  H
  C426     1.0000 0.73092  0.58067  0.07619  Biso   1.000  C
  C427     1.0000 0.80822  0.52714  0.10330  Biso   1.000  C
  C428     1.0000 0.88073  0.47037  0.13370  Biso   1.000  C
  N105     1.0000 0.39132  0.28318  0.87910  Biso   1.000  N
  H414     1.0000 0.40431  0.36364  0.82117  Biso   1.000  H
  H415     1.0000 0.32735  0.29187  0.81408  Biso   1.000  H
  N106     1.0000 0.71684  0.10819  0.87910  Biso   1.000  N
  H416     1.0000 0.63635  0.04069  0.82117  Biso   1.000  H
  H417     1.0000 0.70813  0.03545  0.81408  Biso   1.000  H
  N107     1.0000 0.70732  0.57414  0.13239  Biso   1.000  N
  H418     1.0000 0.71213  0.59777  0.04447  Biso   1.000  H
  H419     1.0000 0.78741  0.51683  0.14398  Biso   1.000  H
  N108     1.0000 0.92661  0.45165  0.12010  Biso   1.000  N
  H420     1.0000 0.85951  0.46018  0.17428  Biso   1.000  H
  C429     1.0000 0.42521  0.32937  0.92109  Biso   1.000  C
  C430     1.0000 0.67064  0.09589  0.92109  Biso   1.000  C
  C431     1.0000 0.65155  0.59297  0.14299  Biso   1.000  C
  C432     1.0000 0.94574  0.41636  0.16907  Biso   1.000  C
  C433     1.0000 0.44072  0.31076  0.98358  Biso   1.000  C
  H421     1.0000 0.44162  0.37864  0.91208  Biso   1.000  H
  C434     1.0000 0.68923  0.12999  0.98358  Biso   1.000  C
  H422     1.0000 0.62133  0.06297  0.91208  Biso   1.000  H
  C435     1.0000 0.58362  0.52935  0.16907  Biso   1.000  C
  H423     1.0000 0.64023  0.60857  0.10288  Biso   1.000  H
  H424     1.0000 0.66952  0.63377  0.17278  Biso   1.000  H
  C436     1.0000 0.94142  0.34848  0.14299  Biso   1.000  C
  H425     1.0000 0.91220  0.40406  0.20501  Biso   1.000  H
  H426     1.0000 0.99533  0.44965  0.18418  Biso   1.000  H
  C437     1.0000 0.42214  0.23996  0.99991  Biso   1.000  C
  C438     1.0000 0.47540  0.36564  0.02758  Biso   1.000  C
  C439     1.0000 0.76004  0.18217  0.99991  Biso   1.000  C
  C440     1.0000 0.63430  0.10976  0.02758  Biso   1.000  C
  N109     1.0000 0.54834  0.47496  0.12010  Biso   1.000  N
  H427     1.0000 0.59591  0.50815  0.20501  Biso   1.000  H
  H428     1.0000 0.55031  0.54565  0.18418  Biso   1.000  H
  N110     1.0000 0.86684  0.29268  0.13239  Biso   1.000  N
  H429     1.0000 0.96833  0.35975  0.10288  Biso   1.000  H
  H430     1.0000 0.96424  0.33045  0.17278  Biso   1.000  H
  H431     1.0000 0.39852  0.20197  0.97030  Biso   1.000  H
  C441     1.0000 0.43830  0.22545  0.05949  Biso   1.000  C
  C442     1.0000 0.49193  0.35177  0.08768  Biso   1.000  C
  H432     1.0000 0.48814  0.41355  0.01661  Biso   1.000  H
  H433     1.0000 0.79804  0.19658  0.97030  Biso   1.000  H
  C443     1.0000 0.77451  0.21287  0.05949  Biso   1.000  C
  C444     1.0000 0.64825  0.14019  0.08768  Biso   1.000  C
  H434     1.0000 0.58642  0.07457  0.01661  Biso   1.000  H
  C445     1.0000 0.52964  0.41037  0.13370  Biso   1.000  C
  C446     1.0000 0.84970  0.26905  0.07619  Biso   1.000  C
  C447     1.0000 0.47285  0.28108  0.10330  Biso   1.000  C
  C448     1.0000 0.41931  0.15028  0.07619  Biso   1.000  C
  C449     1.0000 0.71891  0.19178  0.10330  Biso   1.000  C
  C450     1.0000 0.58960  0.11925  0.13370  Biso   1.000  C
  H435     1.0000 0.53984  0.39936  0.17428  Biso   1.000  H
  H436     1.0000 0.88561  0.28788  0.04447  Biso   1.000  H
  H437     1.0000 0.48315  0.27056  0.14398  Biso   1.000  H
  N111     1.0000 0.42581  0.13317  0.13239  Biso   1.000  N
  H438     1.0000 0.40223  0.11434  0.04447  Biso   1.000  H
  H439     1.0000 0.72944  0.21255  0.14398  Biso   1.000  H
  N112     1.0000 0.52503  0.07339  0.12010  Biso   1.000  N
  H440     1.0000 0.60063  0.14046  0.17428  Biso   1.000  H
  C451     1.0000 0.40700  0.05855  0.14299  Biso   1.000  C
  C452     1.0000 0.47062  0.05428  0.16907  Biso   1.000  C
  H441     1.0000 0.39142  0.03167  0.10288  Biso   1.000  H
  H442     1.0000 0.36622  0.03578  0.17278  Biso   1.000  H
  H443     1.0000 0.49183  0.08774  0.20501  Biso   1.000  H
  H444     1.0000 0.45430  0.00464  0.18418  Biso   1.000  H
  C453     1.0000 0.60810  0.68179  0.47631  Biso   1.000  C
  N113     1.0000 0.53348  0.62600  0.46571  Biso   1.000  N
  H445     1.0000 0.63496  0.69307  0.43620  Biso   1.000  H
  H446     1.0000 0.63087  0.66377  0.50610  Biso   1.000  H
  C454     1.0000 0.61237  0.74967  0.50239  Biso   1.000  C
  C455     1.0000 0.51640  0.60241  0.40950  Biso   1.000  C
  N114     1.0000 0.59329  0.78496  0.45342  Biso   1.000  N
  H447     1.0000 0.57888  0.73737  0.53833  Biso   1.000  H
  H448     1.0000 0.66196  0.78297  0.51750  Biso   1.000  H
  C456     1.0000 0.44119  0.54619  0.39280  Biso   1.000  C
  H449     1.0000 0.55229  0.62119  0.37779  Biso   1.000  H
  C457     1.0000 0.54741  0.80369  0.46702  Biso   1.000  C
  C458     1.0000 0.42668  0.51548  0.33322  Biso   1.000  C
  C459     1.0000 0.38559  0.52509  0.43662  Biso   1.000  C
  C460     1.0000 0.52650  0.84141  0.42100  Biso   1.000  C
  H450     1.0000 0.52619  0.79349  0.50760  Biso   1.000  H
  C461     1.0000 0.35591  0.46330  0.31690  Biso   1.000  C
  H451     1.0000 0.46467  0.52989  0.30362  Biso   1.000  H
  C462     1.0000 0.31489  0.47350  0.42100  Biso   1.000  C
  H452     1.0000 0.39610  0.54592  0.47729  Biso   1.000  H
  C463     1.0000 0.47488  0.86051  0.43662  Biso   1.000  C
  C464     1.0000 0.55688  0.85786  0.36090  Biso   1.000  C
  C465     1.0000 0.33732  0.42920  0.25441  Biso   1.000  C
  C466     1.0000 0.30098  0.44307  0.36090  Biso   1.000  C
  C467     1.0000 0.25631  0.45262  0.46702  Biso   1.000  C
  C468     1.0000 0.45380  0.89499  0.39280  Biso   1.000  C
  H453     1.0000 0.45412  0.85020  0.47729  Biso   1.000  H
  C469     1.0000 0.53669  0.89261  0.31690  Biso   1.000  C
  H454     1.0000 0.59209  0.84518  0.34992  Biso   1.000  H
  N115     1.0000 0.38352  0.44150  0.21242  Biso   1.000  N
  H455     1.0000 0.28801  0.39629  0.24540  Biso   1.000  H
  H456     1.0000 0.25310  0.40789  0.34992  Biso   1.000  H
  N116     1.0000 0.19171  0.40670  0.45342  Biso   1.000  N
  H457     1.0000 0.26731  0.47377  0.50760  Biso   1.000  H
  C470     1.0000 0.48447  0.91118  0.33322  Biso   1.000  C
  C471     1.0000 0.39760  0.91398  0.40950  Biso   1.000  C
  C472     1.0000 0.57078  0.90810  0.25441  Biso   1.000  C
  C473     1.0000 0.35640  0.40260  0.15331  Biso   1.000  C
  C474     1.0000 0.13730  0.38760  0.50239  Biso   1.000  C
  H458     1.0000 0.47012  0.93481  0.30362  Biso   1.000  H
  N117     1.0000 0.37398  0.90751  0.46571  Biso   1.000  N
  H459     1.0000 0.37881  0.93109  0.37779  Biso   1.000  H
  N118     1.0000 0.55847  0.94199  0.21242  Biso   1.000  N
  H460     1.0000 0.60371  0.89170  0.24540  Biso   1.000  H
  H461     1.0000 0.30299  0.37400  0.15448  Biso   1.000  H
  H462     1.0000 0.37479  0.36882  0.14740  Biso   1.000  H
  C475     1.0000 0.38042  0.45532  0.09880  Biso   1.000  C
  H463     1.0000 0.15850  0.42111  0.53833  Biso   1.000  H
  H464     1.0000 0.12101  0.33801  0.51750  Biso   1.000  H
  C476     1.0000 0.07371  0.39192  0.47631  Biso   1.000  C
  C477     1.0000 0.31818  0.92629  0.47631  Biso   1.000  C
  C478     1.0000 0.59742  0.95381  0.15331  Biso   1.000  C
  N119     1.0000 0.34492  0.49870  0.10091  Biso   1.000  N
  H465     1.0000 0.43328  0.48748  0.10058  Biso   1.000  H
  H466     1.0000 0.36850  0.42828  0.05878  Biso   1.000  H
  N120     1.0000 0.09249  0.46649  0.46571  Biso   1.000  N
  H467     1.0000 0.05810  0.36499  0.43620  Biso   1.000  H
  H468     1.0000 0.03290  0.36909  0.50610  Biso   1.000  H
  C479     1.0000 0.25030  0.86267  0.50239  Biso   1.000  C
  H469     1.0000 0.30691  0.94188  0.43620  Biso   1.000  H
  H470     1.0000 0.33620  0.96708  0.50610  Biso   1.000  H
  C480     1.0000 0.54470  0.92510  0.09880  Biso   1.000  C
  H471     1.0000 0.62599  0.92898  0.15448  Biso   1.000  H
  H472     1.0000 0.63118  0.00599  0.14740  Biso   1.000  H
  C481     1.0000 0.38561  0.56588  0.10968  Biso   1.000  C
  C482     1.0000 0.08600  0.48359  0.40950  Biso   1.000  C
  N121     1.0000 0.21497  0.80827  0.45342  Biso   1.000  N
  H473     1.0000 0.26262  0.84151  0.53833  Biso   1.000  H
  H474     1.0000 0.21699  0.87896  0.51750  Biso   1.000  H
  N122     1.0000 0.50129  0.84621  0.10091  Biso   1.000  N
  H475     1.0000 0.51246  0.94577  0.10058  Biso   1.000  H
  H476     1.0000 0.57170  0.94021  0.05878  Biso   1.000  H
  H477     1.0000 0.43580  0.58401  0.11550  Biso   1.000  H
  C483     1.0000 0.35851  0.61720  0.11142  Biso   1.000  C
  C484     1.0000 0.10501  0.55881  0.39280  Biso   1.000  C
  H478     1.0000 0.06889  0.44771  0.37779  Biso   1.000  H
  C485     1.0000 0.19627  0.74368  0.46702  Biso   1.000  C
  C486     1.0000 0.43411  0.81971  0.10968  Biso   1.000  C
  C487     1.0000 0.28333  0.59292  0.11118  Biso   1.000  C
  C488     1.0000 0.40710  0.69037  0.11118  Biso   1.000  C
  C489     1.0000 0.08878  0.57328  0.33322  Biso   1.000  C
  C490     1.0000 0.13948  0.61439  0.43662  Biso   1.000  C
  C491     1.0000 0.15861  0.68508  0.42100  Biso   1.000  C
  H479     1.0000 0.20647  0.73268  0.50760  Biso   1.000  H
  C492     1.0000 0.38280  0.74131  0.11142  Biso   1.000  C
  H480     1.0000 0.41598  0.85177  0.11550  Biso   1.000  H
  H481     1.0000 0.24960  0.54257  0.11090  Biso   1.000  H
  C493     1.0000 0.25868  0.64148  0.11142  Biso   1.000  C
  H482     1.0000 0.45738  0.70699  0.11090  Biso   1.000  H
  C494     1.0000 0.10740  0.64407  0.31690  Biso   1.000  C
  H483     1.0000 0.06520  0.53529  0.30362  Biso   1.000  H
  H484     1.0000 0.14978  0.60387  0.47729  Biso   1.000  H
  C495     1.0000 0.14211  0.69900  0.36090  Biso   1.000  C
  C496     1.0000 0.30961  0.71670  0.11118  Biso   1.000  C
  C497     1.0000 0.18032  0.61439  0.10968  Biso   1.000  C
  C498     1.0000 0.09189  0.66269  0.25441  Biso   1.000  C
  H485     1.0000 0.15478  0.74687  0.34992  Biso   1.000  H
  H486     1.0000 0.29299  0.75037  0.11090  Biso   1.000  H
  N123     1.0000 0.15379  0.65508  0.10091  Biso   1.000  N
  H487     1.0000 0.14822  0.56421  0.11550  Biso   1.000  H
  N124     1.0000 0.05800  0.61650  0.21242  Biso   1.000  N
  H488     1.0000 0.10833  0.71201  0.24540  Biso   1.000  H
  C499     1.0000 0.07487  0.61957  0.09880  Biso   1.000  C
  C500     1.0000 0.04622  0.64359  0.15331  Biso   1.000  C
  H489     1.0000 0.05418  0.56669  0.10058  Biso   1.000  H
  H490     1.0000 0.05980  0.63150  0.05878  Biso   1.000  H
  H491     1.0000 0.07101  0.69701  0.15448  Biso   1.000  H
  H492     1.0000 0.99398  0.62519  0.14740  Biso   1.000  H
  C501     1.0000 0.01751  0.27644  0.29025  Biso   1.000  C
  N125     1.0000 0.96403  0.19938  0.27988  Biso   1.000  N
  N126     1.0000 0.96400  0.19933  0.27988  Biso   1.000  N
  H493     1.0000 0.99762  0.29786  0.31976  Biso   1.000  H
  H494     1.0000 0.02843  0.30304  0.25019  Biso   1.000  H
  C502     1.0000 0.08675  0.28238  0.31779  Biso   1.000  C
  H495     1.0000 0.02838  0.30304  0.25019  Biso   1.000  H
  C503     1.0000 0.08670  0.28238  0.31779  Biso   1.000  C
  C504     1.0000 0.93692  0.18217  0.22579  Biso   1.000  C
  C505     1.0000 0.01756  0.27644  0.29025  Biso   1.000  C
  H496     1.0000 0.11794  0.33159  0.33468  Biso   1.000  H
  H497     1.0000 0.07425  0.24757  0.35269  Biso   1.000  H
  N127     1.0000 0.12574  0.26737  0.26928  Biso   1.000  N
  H498     1.0000 0.11791  0.33153  0.33468  Biso   1.000  H
  H499     1.0000 0.07420  0.24757  0.35269  Biso   1.000  H
  C506     1.0000 0.88255  0.10857  0.20867  Biso   1.000  C
  C507     1.0000 0.88250  0.10857  0.20867  Biso   1.000  C
  H500     1.0000 0.95241  0.21876  0.19469  Biso   1.000  H
  C508     1.0000 0.13262  0.21206  0.27749  Biso   1.000  C
  C509     1.0000 0.13267  0.21206  0.27749  Biso   1.000  C
  C510     1.0000 0.85013  0.09475  0.14975  Biso   1.000  C
  C511     1.0000 0.85008  0.09475  0.14975  Biso   1.000  C
  C512     1.0000 0.86174  0.04986  0.24995  Biso   1.000  C
  C513     1.0000 0.86170  0.04986  0.24995  Biso   1.000  C
  C514     1.0000 0.17184  0.19134  0.23269  Biso   1.000  C
  H501     1.0000 0.11164  0.18309  0.31366  Biso   1.000  H
  C515     1.0000 0.17180  0.19134  0.23269  Biso   1.000  C
  H502     1.0000 0.11161  0.18303  0.31366  Biso   1.000  H
  C516     1.0000 0.79852  0.02585  0.13136  Biso   1.000  C
  C517     1.0000 0.79847  0.02585  0.13136  Biso   1.000  C
  H503     1.0000 0.86384  0.13377  0.12136  Biso   1.000  H
  H504     1.0000 0.86379  0.13377  0.12136  Biso   1.000  H
  C518     1.0000 0.80859  0.98047  0.23269  Biso   1.000  C
  C519     1.0000 0.80868  0.98047  0.23269  Biso   1.000  C
  H505     1.0000 0.88402  0.05768  0.28988  Biso   1.000  H
  H506     1.0000 0.88400  0.05763  0.28988  Biso   1.000  H
  C520     1.0000 0.18810  0.13825  0.24995  Biso   1.000  C
  C521     1.0000 0.19121  0.22307  0.17287  Biso   1.000  C
  C522     1.0000 0.18815  0.13825  0.24995  Biso   1.000  C
  C523     1.0000 0.19126  0.22307  0.17287  Biso   1.000  C
  C524     1.0000 0.76788  0.01495  0.06685  Biso   1.000  C
  C525     1.0000 0.76793  0.01495  0.06685  Biso   1.000  C
  C526     1.0000 0.77688  0.96816  0.17287  Biso   1.000  C
  C527     1.0000 0.77692  0.96816  0.17287  Biso   1.000  C
  C528     1.0000 0.78789  0.92057  0.27749  Biso   1.000  C
  C529     1.0000 0.78799  0.92057  0.27749  Biso   1.000  C
  C530     1.0000 0.22603  0.11747  0.20867  Biso   1.000  C
  H507     1.0000 0.17364  0.11596  0.28988  Biso   1.000  H
  H508     1.0000 0.17359  0.11596  0.28988  Biso   1.000  H
  C531     1.0000 0.22734  0.20149  0.13136  Biso   1.000  C
  H509     1.0000 0.17981  0.25896  0.16077  Biso   1.000  H
  C532     1.0000 0.22731  0.20143  0.13136  Biso   1.000  C
  H510     1.0000 0.17985  0.25896  0.16077  Biso   1.000  H
  H511     1.0000 0.78163  0.05617  0.04138  Biso   1.000  H
  N128     1.0000 0.72439  0.95349  0.04466  Biso   1.000  N
  N129     1.0000 0.72441  0.95343  0.04466  Biso   1.000  N
  N130     1.0000 0.72444  0.95349  0.04466  Biso   1.000  N
  N131     1.0000 0.72437  0.95343  0.04466  Biso   1.000  N
  H512     1.0000 0.74100  0.92089  0.16077  Biso   1.000  H
  H513     1.0000 0.74102  0.92084  0.16077  Biso   1.000  H
  H514     1.0000 0.74104  0.92089  0.16077  Biso   1.000  H
  H515     1.0000 0.74097  0.92084  0.16077  Biso   1.000  H
  N132     1.0000 0.73258  0.85835  0.26928  Biso   1.000  N
  H516     1.0000 0.81689  0.92856  0.31366  Biso   1.000  H
  N133     1.0000 0.73267  0.85835  0.26928  Biso   1.000  N
  H517     1.0000 0.81698  0.92856  0.31366  Biso   1.000  H
  C533     1.0000 0.24460  0.14985  0.14975  Biso   1.000  C
  C534     1.0000 0.24524  0.06308  0.22579  Biso   1.000  C
  C535     1.0000 0.24465  0.14985  0.14975  Biso   1.000  C
  C536     1.0000 0.24703  0.23208  0.06685  Biso   1.000  C
  C537     1.0000 0.24700  0.23203  0.06685  Biso   1.000  C
  C538     1.0000 0.24705  0.23203  0.06685  Biso   1.000  C
  C539     1.0000 0.70084  0.95106  0.97997  Biso   1.000  C
  C540     1.0000 0.71766  0.80439  0.31779  Biso   1.000  C
  C541     1.0000 0.71768  0.80434  0.31779  Biso   1.000  C
  C542     1.0000 0.71770  0.80439  0.31779  Biso   1.000  C
  C543     1.0000 0.71763  0.80434  0.31779  Biso   1.000  C
  H518     1.0000 0.26990  0.13614  0.12136  Biso   1.000  H
  H519     1.0000 0.26995  0.13614  0.12136  Biso   1.000  H
  N134     1.0000 0.23534  0.03599  0.27988  Biso   1.000  N
  H520     1.0000 0.26630  0.04754  0.19469  Biso   1.000  H
  N135     1.0000 0.23532  0.03594  0.27988  Biso   1.000  N
  H521     1.0000 0.26635  0.04754  0.19469  Biso   1.000  H
  N136     1.0000 0.22905  0.27558  0.04466  Biso   1.000  N
  N137     1.0000 0.22901  0.27558  0.04466  Biso   1.000  N
  H522     1.0000 0.27452  0.21838  0.04138  Biso   1.000  H
  H523     1.0000 0.27457  0.21838  0.04138  Biso   1.000  H
  H524     1.0000 0.64744  0.92397  0.97828  Biso   1.000  H
  C544     1.0000 0.73033  0.91507  0.93789  Biso   1.000  C
  C545     1.0000 0.73037  0.91507  0.93789  Biso   1.000  C
  H525     1.0000 0.71775  0.00076  0.96496  Biso   1.000  H
  H526     1.0000 0.71770  0.00076  0.96496  Biso   1.000  H
  C546     1.0000 0.72351  0.74104  0.29025  Biso   1.000  C
  H527     1.0000 0.66846  0.78637  0.33468  Biso   1.000  H
  H528     1.0000 0.75244  0.82668  0.35269  Biso   1.000  H
  C547     1.0000 0.25895  0.98246  0.29025  Biso   1.000  C
  C548     1.0000 0.25024  0.29916  0.97997  Biso   1.000  C
  C549     1.0000 0.25019  0.29916  0.97997  Biso   1.000  C
  N138     1.0000 0.80951  0.95867  0.93606  Biso   1.000  N
  H529     1.0000 0.71560  0.86618  0.95398  Biso   1.000  H
  H530     1.0000 0.71062  0.91005  0.89496  Biso   1.000  H
  H531     1.0000 0.71570  0.86618  0.95398  Biso   1.000  H
  N139     1.0000 0.80065  0.76468  0.27988  Biso   1.000  N
  H532     1.0000 0.70207  0.69976  0.31976  Biso   1.000  H
  H533     1.0000 0.69694  0.72540  0.25019  Biso   1.000  H
  H534     1.0000 0.70216  0.69976  0.31976  Biso   1.000  H
  H535     1.0000 0.69692  0.72534  0.25019  Biso   1.000  H
  C550     1.0000 0.19567  0.91329  0.31779  Biso   1.000  C
  C551     1.0000 0.19565  0.91323  0.31779  Biso   1.000  C
  H536     1.0000 0.27467  0.97156  0.25019  Biso   1.000  H
  H537     1.0000 0.27458  0.97156  0.25019  Biso   1.000  H
  H538     1.0000 0.30022  0.00237  0.31976  Biso   1.000  H
  H539     1.0000 0.30027  0.00237  0.31976  Biso   1.000  H
  C552     1.0000 0.18473  0.26964  0.93789  Biso   1.000  C
  C553     1.0000 0.18468  0.26964  0.93789  Biso   1.000  C
  H540     1.0000 0.28301  0.28227  0.96496  Biso   1.000  H
  H541     1.0000 0.27653  0.35258  0.97828  Biso   1.000  H
  H542     1.0000 0.28306  0.28227  0.96496  Biso   1.000  H
  H543     1.0000 0.27657  0.35258  0.97828  Biso   1.000  H
  C554     1.0000 0.84492  0.92629  0.94178  Biso   1.000  C
  C555     1.0000 0.84489  0.92624  0.94178  Biso   1.000  C
  C556     1.0000 0.81784  0.75475  0.22579  Biso   1.000  C
  N140     1.0000 0.14168  0.87427  0.26928  Biso   1.000  N
  N141     1.0000 0.14158  0.87427  0.26928  Biso   1.000  N
  H544     1.0000 0.21365  0.88204  0.33468  Biso   1.000  H
  H545     1.0000 0.17331  0.92575  0.35269  Biso   1.000  H
  N142     1.0000 0.14912  0.19048  0.93606  Biso   1.000  N
  N143     1.0000 0.14917  0.19048  0.93606  Biso   1.000  N
  H546     1.0000 0.15055  0.28437  0.95398  Biso   1.000  H
  H547     1.0000 0.19944  0.28934  0.89496  Biso   1.000  H
  H548     1.0000 0.15050  0.28437  0.95398  Biso   1.000  H
  H549     1.0000 0.19939  0.28934  0.89496  Biso   1.000  H
  C557     1.0000 0.92471  0.96439  0.94056  Biso   1.000  C
  H550     1.0000 0.81917  0.87535  0.94708  Biso   1.000  H
  C558     1.0000 0.92469  0.96433  0.94056  Biso   1.000  C
  H551     1.0000 0.81921  0.87535  0.94708  Biso   1.000  H
  C559     1.0000 0.89142  0.77396  0.20867  Biso   1.000  C
  H552     1.0000 0.78121  0.73365  0.19469  Biso   1.000  H
  C560     1.0000 0.07944  0.86737  0.27749  Biso   1.000  C
  C561     1.0000 0.07939  0.86737  0.27749  Biso   1.000  C
  C562     1.0000 0.08133  0.15508  0.94178  Biso   1.000  C
  C563     1.0000 0.08130  0.15503  0.94178  Biso   1.000  C
  C564     1.0000 0.08135  0.15503  0.94178  Biso   1.000  C
  C565     1.0000 0.96021  0.92537  0.94084  Biso   1.000  C
  C566     1.0000 0.96512  0.03977  0.94084  Biso   1.000  C
  C567     1.0000 0.90520  0.75534  0.14975  Biso   1.000  C
  C568     1.0000 0.95015  0.81189  0.24995  Biso   1.000  C
  C569     1.0000 0.95013  0.81184  0.24995  Biso   1.000  C
  C570     1.0000 0.95020  0.81189  0.24995  Biso   1.000  C
  C571     1.0000 0.01952  0.82819  0.23269  Biso   1.000  C
  C572     1.0000 0.01949  0.82814  0.23269  Biso   1.000  C
  H553     1.0000 0.07143  0.88836  0.31366  Biso   1.000  H
  C573     1.0000 0.03965  0.07527  0.94056  Biso   1.000  C
  C574     1.0000 0.03960  0.07527  0.94056  Biso   1.000  C
  H554     1.0000 0.05613  0.18077  0.94708  Biso   1.000  H
  H555     1.0000 0.93296  0.87406  0.94136  Biso   1.000  H
  H556     1.0000 0.93306  0.87406  0.94136  Biso   1.000  H
  C575     1.0000 0.03571  0.96039  0.94056  Biso   1.000  C
  C576     1.0000 0.03559  0.96034  0.94056  Biso   1.000  C
  C577     1.0000 0.03562  0.96039  0.94056  Biso   1.000  C
  H557     1.0000 0.94105  0.06696  0.94136  Biso   1.000  H
  H558     1.0000 0.94100  0.06696  0.94136  Biso   1.000  H
  C578     1.0000 0.97409  0.77266  0.13136  Biso   1.000  C
  H559     1.0000 0.86621  0.73009  0.12136  Biso   1.000  H
  H560     1.0000 0.86619  0.73004  0.12136  Biso   1.000  H
  C579     1.0000 0.97419  0.77266  0.13136  Biso   1.000  C
  H561     1.0000 0.94234  0.82636  0.28988  Biso   1.000  H
  C580     1.0000 0.03186  0.80876  0.17287  Biso   1.000  C
  C581     1.0000 0.07463  0.03486  0.94084  Biso   1.000  C
  C582     1.0000 0.07379  0.91868  0.94178  Biso   1.000  C
  C583     1.0000 0.07369  0.91868  0.94178  Biso   1.000  C
  C584     1.0000 0.98499  0.75297  0.06685  Biso   1.000  C
  C585     1.0000 0.98509  0.75297  0.06685  Biso   1.000  C
  H562     1.0000 0.07915  0.82015  0.16077  Biso   1.000  H
  H563     1.0000 0.12594  0.05898  0.94136  Biso   1.000  H
  N144     1.0000 0.04137  0.85085  0.93606  Biso   1.000  N
  H564     1.0000 0.12470  0.94388  0.94708  Biso   1.000  H
  H565     1.0000 0.12461  0.94388  0.94708  Biso   1.000  H
  N145     1.0000 0.04127  0.85085  0.93606  Biso   1.000  N
  N146     1.0000 0.04658  0.77099  0.04466  Biso   1.000  N
  N147     1.0000 0.04655  0.77094  0.04466  Biso   1.000  N
  H566     1.0000 0.94380  0.72545  0.04138  Biso   1.000  H
  C586     1.0000 0.08499  0.81529  0.93789  Biso   1.000  C
  C587     1.0000 0.08496  0.81524  0.93789  Biso   1.000  C
  C588     1.0000 0.08487  0.81524  0.93789  Biso   1.000  C
  C589     1.0000 0.04892  0.74979  0.97997  Biso   1.000  C
  H567     1.0000 0.13380  0.84945  0.95398  Biso   1.000  H
  H568     1.0000 0.08992  0.80056  0.89496  Biso   1.000  H
  H569     1.0000 0.99920  0.71698  0.96496  Biso   1.000  H
  H570     1.0000 0.99929  0.71698  0.96496  Biso   1.000  H
  H571     1.0000 0.07604  0.72345  0.97828  Biso   1.000  H
  C590     1.0000 0.01751  0.27644  0.29025  Biso   1.000  C
  N148     1.0000 0.96403  0.19938  0.27988  Biso   1.000  N
  N149     1.0000 0.96400  0.19933  0.27988  Biso   1.000  N
  H572     1.0000 0.99762  0.29786  0.31976  Biso   1.000  H
  H573     1.0000 0.02843  0.30304  0.25019  Biso   1.000  H
  C591     1.0000 0.08675  0.28238  0.31779  Biso   1.000  C
  H574     1.0000 0.02838  0.30304  0.25019  Biso   1.000  H
  C592     1.0000 0.08670  0.28238  0.31779  Biso   1.000  C
  C593     1.0000 0.93692  0.18217  0.22579  Biso   1.000  C
  C594     1.0000 0.01756  0.27644  0.29025  Biso   1.000  C
  H575     1.0000 0.11794  0.33159  0.33468  Biso   1.000  H
  H576     1.0000 0.07425  0.24757  0.35269  Biso   1.000  H
  N150     1.0000 0.12574  0.26737  0.26928  Biso   1.000  N
  H577     1.0000 0.11791  0.33153  0.33468  Biso   1.000  H
  H578     1.0000 0.07420  0.24757  0.35269  Biso   1.000  H
  C595     1.0000 0.88250  0.10857  0.20867  Biso   1.000  C
  C596     1.0000 0.88255  0.10857  0.20867  Biso   1.000  C
  H579     1.0000 0.95241  0.21876  0.19469  Biso   1.000  H
  C597     1.0000 0.13262  0.21206  0.27749  Biso   1.000  C
  C598     1.0000 0.13267  0.21206  0.27749  Biso   1.000  C
  C599     1.0000 0.85013  0.09475  0.14975  Biso   1.000  C
  C600     1.0000 0.85008  0.09475  0.14975  Biso   1.000  C
  C601     1.0000 0.86170  0.04986  0.24995  Biso   1.000  C
  C602     1.0000 0.86174  0.04986  0.24995  Biso   1.000  C
  C603     1.0000 0.17184  0.19134  0.23269  Biso   1.000  C
  H580     1.0000 0.11164  0.18309  0.31366  Biso   1.000  H
  C604     1.0000 0.17180  0.19134  0.23269  Biso   1.000  C
  H581     1.0000 0.11161  0.18303  0.31366  Biso   1.000  H
  C605     1.0000 0.79852  0.02585  0.13136  Biso   1.000  C
  C606     1.0000 0.79847  0.02585  0.13136  Biso   1.000  C
  H582     1.0000 0.86384  0.13377  0.12136  Biso   1.000  H
  H583     1.0000 0.86379  0.13377  0.12136  Biso   1.000  H
  C607     1.0000 0.80859  0.98047  0.23269  Biso   1.000  C
  C608     1.0000 0.80868  0.98047  0.23269  Biso   1.000  C
  H584     1.0000 0.88402  0.05768  0.28988  Biso   1.000  H
  H585     1.0000 0.88400  0.05763  0.28988  Biso   1.000  H
  C609     1.0000 0.18810  0.13825  0.24995  Biso   1.000  C
  C610     1.0000 0.19121  0.22307  0.17287  Biso   1.000  C
  C611     1.0000 0.18815  0.13825  0.24995  Biso   1.000  C
  C612     1.0000 0.19126  0.22307  0.17287  Biso   1.000  C
  C613     1.0000 0.76793  0.01495  0.06685  Biso   1.000  C
  C614     1.0000 0.77688  0.96816  0.17287  Biso   1.000  C
  C615     1.0000 0.77692  0.96816  0.17287  Biso   1.000  C
  C616     1.0000 0.76788  0.01495  0.06685  Biso   1.000  C
  C617     1.0000 0.78789  0.92057  0.27749  Biso   1.000  C
  C618     1.0000 0.78799  0.92057  0.27749  Biso   1.000  C
  C619     1.0000 0.22603  0.11747  0.20867  Biso   1.000  C
  H586     1.0000 0.17364  0.11596  0.28988  Biso   1.000  H
  H587     1.0000 0.17359  0.11596  0.28988  Biso   1.000  H
  C620     1.0000 0.22734  0.20149  0.13136  Biso   1.000  C
  H588     1.0000 0.17981  0.25896  0.16077  Biso   1.000  H
  C621     1.0000 0.22731  0.20143  0.13136  Biso   1.000  C
  H589     1.0000 0.17985  0.25896  0.16077  Biso   1.000  H
  H590     1.0000 0.78163  0.05617  0.04138  Biso   1.000  H
  N151     1.0000 0.72439  0.95349  0.04466  Biso   1.000  N
  N152     1.0000 0.72441  0.95343  0.04466  Biso   1.000  N
  N153     1.0000 0.72444  0.95349  0.04466  Biso   1.000  N
  N154     1.0000 0.72437  0.95343  0.04466  Biso   1.000  N
  H591     1.0000 0.74100  0.92089  0.16077  Biso   1.000  H
  H592     1.0000 0.74102  0.92084  0.16077  Biso   1.000  H
  H593     1.0000 0.74104  0.92089  0.16077  Biso   1.000  H
  H594     1.0000 0.74097  0.92084  0.16077  Biso   1.000  H
  N155     1.0000 0.73258  0.85835  0.26928  Biso   1.000  N
  H595     1.0000 0.81689  0.92856  0.31366  Biso   1.000  H
  N156     1.0000 0.73267  0.85835  0.26928  Biso   1.000  N
  H596     1.0000 0.81698  0.92856  0.31366  Biso   1.000  H
  C622     1.0000 0.24460  0.14985  0.14975  Biso   1.000  C
  C623     1.0000 0.24524  0.06308  0.22579  Biso   1.000  C
  C624     1.0000 0.24465  0.14985  0.14975  Biso   1.000  C
  C625     1.0000 0.24703  0.23208  0.06685  Biso   1.000  C
  C626     1.0000 0.24700  0.23203  0.06685  Biso   1.000  C
  C627     1.0000 0.24705  0.23203  0.06685  Biso   1.000  C
  C628     1.0000 0.70084  0.95106  0.97997  Biso   1.000  C
  C629     1.0000 0.71766  0.80439  0.31779  Biso   1.000  C
  C630     1.0000 0.71768  0.80434  0.31779  Biso   1.000  C
  C631     1.0000 0.71770  0.80439  0.31779  Biso   1.000  C
  C632     1.0000 0.71763  0.80434  0.31779  Biso   1.000  C
  H597     1.0000 0.26990  0.13614  0.12136  Biso   1.000  H
  H598     1.0000 0.26995  0.13614  0.12136  Biso   1.000  H
  N157     1.0000 0.23534  0.03599  0.27988  Biso   1.000  N
  H599     1.0000 0.26630  0.04754  0.19469  Biso   1.000  H
  N158     1.0000 0.23532  0.03594  0.27988  Biso   1.000  N
  H600     1.0000 0.26635  0.04754  0.19469  Biso   1.000  H
  N159     1.0000 0.22905  0.27558  0.04466  Biso   1.000  N
  N160     1.0000 0.22901  0.27558  0.04466  Biso   1.000  N
  H601     1.0000 0.27452  0.21838  0.04138  Biso   1.000  H
  H602     1.0000 0.27457  0.21838  0.04138  Biso   1.000  H
  H603     1.0000 0.64744  0.92397  0.97828  Biso   1.000  H
  C633     1.0000 0.73033  0.91507  0.93789  Biso   1.000  C
  C634     1.0000 0.73037  0.91507  0.93789  Biso   1.000  C
  H604     1.0000 0.71775  0.00076  0.96496  Biso   1.000  H
  H605     1.0000 0.71770  0.00076  0.96496  Biso   1.000  H
  C635     1.0000 0.72351  0.74104  0.29025  Biso   1.000  C
  H606     1.0000 0.75244  0.82668  0.35269  Biso   1.000  H
  H607     1.0000 0.66846  0.78637  0.33468  Biso   1.000  H
  C636     1.0000 0.25895  0.98246  0.29025  Biso   1.000  C
  C637     1.0000 0.25024  0.29916  0.97997  Biso   1.000  C
  C638     1.0000 0.25019  0.29916  0.97997  Biso   1.000  C
  H608     1.0000 0.71062  0.91005  0.89496  Biso   1.000  H
  N161     1.0000 0.80951  0.95867  0.93606  Biso   1.000  N
  H609     1.0000 0.71560  0.86618  0.95398  Biso   1.000  H
  H610     1.0000 0.71570  0.86618  0.95398  Biso   1.000  H
  H611     1.0000 0.69694  0.72540  0.25019  Biso   1.000  H
  N162     1.0000 0.80065  0.76468  0.27988  Biso   1.000  N
  H612     1.0000 0.70207  0.69976  0.31976  Biso   1.000  H
  H613     1.0000 0.70216  0.69976  0.31976  Biso   1.000  H
  H614     1.0000 0.69692  0.72534  0.25019  Biso   1.000  H
  C639     1.0000 0.19567  0.91329  0.31779  Biso   1.000  C
  C640     1.0000 0.19565  0.91323  0.31779  Biso   1.000  C
  H615     1.0000 0.27467  0.97156  0.25019  Biso   1.000  H
  H616     1.0000 0.27458  0.97156  0.25019  Biso   1.000  H
  H617     1.0000 0.30022  0.00237  0.31976  Biso   1.000  H
  H618     1.0000 0.30027  0.00237  0.31976  Biso   1.000  H
  C641     1.0000 0.18473  0.26964  0.93789  Biso   1.000  C
  C642     1.0000 0.18468  0.26964  0.93789  Biso   1.000  C
  H619     1.0000 0.28301  0.28227  0.96496  Biso   1.000  H
  H620     1.0000 0.27653  0.35258  0.97828  Biso   1.000  H
  H621     1.0000 0.28306  0.28227  0.96496  Biso   1.000  H
  H622     1.0000 0.27657  0.35258  0.97828  Biso   1.000  H
  C643     1.0000 0.84492  0.92629  0.94178  Biso   1.000  C
  C644     1.0000 0.84489  0.92624  0.94178  Biso   1.000  C
  C645     1.0000 0.81784  0.75475  0.22579  Biso   1.000  C
  N163     1.0000 0.14168  0.87427  0.26928  Biso   1.000  N
  N164     1.0000 0.14158  0.87427  0.26928  Biso   1.000  N
  H623     1.0000 0.21365  0.88204  0.33468  Biso   1.000  H
  H624     1.0000 0.17331  0.92575  0.35269  Biso   1.000  H
  N165     1.0000 0.14912  0.19048  0.93606  Biso   1.000  N
  N166     1.0000 0.14917  0.19048  0.93606  Biso   1.000  N
  H625     1.0000 0.15055  0.28437  0.95398  Biso   1.000  H
  H626     1.0000 0.19944  0.28934  0.89496  Biso   1.000  H
  H627     1.0000 0.15050  0.28437  0.95398  Biso   1.000  H
  H628     1.0000 0.19939  0.28934  0.89496  Biso   1.000  H
  C646     1.0000 0.92471  0.96439  0.94056  Biso   1.000  C
  H629     1.0000 0.81917  0.87535  0.94708  Biso   1.000  H
  C647     1.0000 0.92469  0.96433  0.94056  Biso   1.000  C
  H630     1.0000 0.81921  0.87535  0.94708  Biso   1.000  H
  C648     1.0000 0.89142  0.77396  0.20867  Biso   1.000  C
  H631     1.0000 0.78121  0.73365  0.19469  Biso   1.000  H
  C649     1.0000 0.07944  0.86737  0.27749  Biso   1.000  C
  C650     1.0000 0.07939  0.86737  0.27749  Biso   1.000  C
  C651     1.0000 0.08133  0.15508  0.94178  Biso   1.000  C
  C652     1.0000 0.08130  0.15503  0.94178  Biso   1.000  C
  C653     1.0000 0.08135  0.15503  0.94178  Biso   1.000  C
  C654     1.0000 0.96021  0.92537  0.94084  Biso   1.000  C
  C655     1.0000 0.96512  0.03977  0.94084  Biso   1.000  C
  C656     1.0000 0.90520  0.75534  0.14975  Biso   1.000  C
  C657     1.0000 0.95015  0.81189  0.24995  Biso   1.000  C
  C658     1.0000 0.95013  0.81184  0.24995  Biso   1.000  C
  C659     1.0000 0.95020  0.81189  0.24995  Biso   1.000  C
  H632     1.0000 0.07143  0.88836  0.31366  Biso   1.000  H
  C660     1.0000 0.01952  0.82819  0.23269  Biso   1.000  C
  C661     1.0000 0.01949  0.82814  0.23269  Biso   1.000  C
  C662     1.0000 0.03965  0.07527  0.94056  Biso   1.000  C
  C663     1.0000 0.03960  0.07527  0.94056  Biso   1.000  C
  H633     1.0000 0.05613  0.18077  0.94708  Biso   1.000  H
  H634     1.0000 0.93296  0.87406  0.94136  Biso   1.000  H
  H635     1.0000 0.93306  0.87406  0.94136  Biso   1.000  H
  C664     1.0000 0.03571  0.96039  0.94056  Biso   1.000  C
  C665     1.0000 0.03559  0.96034  0.94056  Biso   1.000  C
  C666     1.0000 0.03562  0.96039  0.94056  Biso   1.000  C
  H636     1.0000 0.94105  0.06696  0.94136  Biso   1.000  H
  H637     1.0000 0.94100  0.06696  0.94136  Biso   1.000  H
  C667     1.0000 0.97409  0.77266  0.13136  Biso   1.000  C
  H638     1.0000 0.86621  0.73009  0.12136  Biso   1.000  H
  H639     1.0000 0.86619  0.73004  0.12136  Biso   1.000  H
  C668     1.0000 0.97419  0.77266  0.13136  Biso   1.000  C
  H640     1.0000 0.94234  0.82636  0.28988  Biso   1.000  H
  C669     1.0000 0.03186  0.80876  0.17287  Biso   1.000  C
  C670     1.0000 0.07463  0.03486  0.94084  Biso   1.000  C
  C671     1.0000 0.07379  0.91868  0.94178  Biso   1.000  C
  C672     1.0000 0.07369  0.91868  0.94178  Biso   1.000  C
  C673     1.0000 0.98499  0.75297  0.06685  Biso   1.000  C
  C674     1.0000 0.98509  0.75297  0.06685  Biso   1.000  C
  H641     1.0000 0.07915  0.82015  0.16077  Biso   1.000  H
  H642     1.0000 0.12594  0.05898  0.94136  Biso   1.000  H
  N167     1.0000 0.04137  0.85085  0.93606  Biso   1.000  N
  H643     1.0000 0.12470  0.94388  0.94708  Biso   1.000  H
  H644     1.0000 0.12461  0.94388  0.94708  Biso   1.000  H
  N168     1.0000 0.04127  0.85085  0.93606  Biso   1.000  N
  H645     1.0000 0.94380  0.72545  0.04138  Biso   1.000  H
  N169     1.0000 0.04658  0.77099  0.04466  Biso   1.000  N
  N170     1.0000 0.04655  0.77094  0.04466  Biso   1.000  N
  C675     1.0000 0.08499  0.81529  0.93789  Biso   1.000  C
  C676     1.0000 0.08496  0.81524  0.93789  Biso   1.000  C
  C677     1.0000 0.08487  0.81524  0.93789  Biso   1.000  C
  C678     1.0000 0.04892  0.74979  0.97997  Biso   1.000  C
  H646     1.0000 0.13380  0.84945  0.95398  Biso   1.000  H
  H647     1.0000 0.08992  0.80056  0.89496  Biso   1.000  H
  H648     1.0000 0.07604  0.72345  0.97828  Biso   1.000  H
  H649     1.0000 0.99920  0.71698  0.96496  Biso   1.000  H
  H650     1.0000 0.99929  0.71698  0.96496  Biso   1.000  H
  C679     1.0000 0.01751  0.27644  0.29025  Biso   1.000  C
  N171     1.0000 0.96403  0.19938  0.27988  Biso   1.000  N
  N172     1.0000 0.96400  0.19933  0.27988  Biso   1.000  N
  H651     1.0000 0.99762  0.29786  0.31976  Biso   1.000  H
  H652     1.0000 0.02843  0.30304  0.25019  Biso   1.000  H
  C680     1.0000 0.08675  0.28238  0.31779  Biso   1.000  C
  H653     1.0000 0.02838  0.30304  0.25019  Biso   1.000  H
  C681     1.0000 0.08670  0.28238  0.31779  Biso   1.000  C
  C682     1.0000 0.93692  0.18217  0.22579  Biso   1.000  C
  C683     1.0000 0.01756  0.27644  0.29025  Biso   1.000  C
  H654     1.0000 0.11794  0.33159  0.33468  Biso   1.000  H
  H655     1.0000 0.07425  0.24757  0.35269  Biso   1.000  H
  N173     1.0000 0.12574  0.26737  0.26928  Biso   1.000  N
  H656     1.0000 0.11791  0.33153  0.33468  Biso   1.000  H
  H657     1.0000 0.07420  0.24757  0.35269  Biso   1.000  H
  C684     1.0000 0.88250  0.10857  0.20867  Biso   1.000  C
  C685     1.0000 0.88255  0.10857  0.20867  Biso   1.000  C
  H658     1.0000 0.95241  0.21876  0.19469  Biso   1.000  H
  C686     1.0000 0.13262  0.21206  0.27749  Biso   1.000  C
  C687     1.0000 0.13267  0.21206  0.27749  Biso   1.000  C
  C688     1.0000 0.85013  0.09475  0.14975  Biso   1.000  C
  C689     1.0000 0.85008  0.09475  0.14975  Biso   1.000  C
  C690     1.0000 0.86170  0.04986  0.24995  Biso   1.000  C
  C691     1.0000 0.86174  0.04986  0.24995  Biso   1.000  C
  C692     1.0000 0.17184  0.19134  0.23269  Biso   1.000  C
  H659     1.0000 0.11164  0.18309  0.31366  Biso   1.000  H
  C693     1.0000 0.17180  0.19134  0.23269  Biso   1.000  C
  H660     1.0000 0.11161  0.18303  0.31366  Biso   1.000  H
  C694     1.0000 0.79852  0.02585  0.13136  Biso   1.000  C
  C695     1.0000 0.79847  0.02585  0.13136  Biso   1.000  C
  H661     1.0000 0.86384  0.13377  0.12136  Biso   1.000  H
  H662     1.0000 0.86379  0.13377  0.12136  Biso   1.000  H
  C696     1.0000 0.80859  0.98047  0.23269  Biso   1.000  C
  C697     1.0000 0.80868  0.98047  0.23269  Biso   1.000  C
  H663     1.0000 0.88402  0.05768  0.28988  Biso   1.000  H
  H664     1.0000 0.88400  0.05763  0.28988  Biso   1.000  H
  C698     1.0000 0.18810  0.13825  0.24995  Biso   1.000  C
  C699     1.0000 0.19121  0.22307  0.17287  Biso   1.000  C
  C700     1.0000 0.18815  0.13825  0.24995  Biso   1.000  C
  C701     1.0000 0.19126  0.22307  0.17287  Biso   1.000  C
  C702     1.0000 0.76793  0.01495  0.06685  Biso   1.000  C
  C703     1.0000 0.77688  0.96816  0.17287  Biso   1.000  C
  C704     1.0000 0.77692  0.96816  0.17287  Biso   1.000  C
  C705     1.0000 0.76788  0.01495  0.06685  Biso   1.000  C
  C706     1.0000 0.78789  0.92057  0.27749  Biso   1.000  C
  C707     1.0000 0.78799  0.92057  0.27749  Biso   1.000  C
  C708     1.0000 0.22603  0.11747  0.20867  Biso   1.000  C
  H665     1.0000 0.17364  0.11596  0.28988  Biso   1.000  H
  H666     1.0000 0.17359  0.11596  0.28988  Biso   1.000  H
  C709     1.0000 0.22734  0.20149  0.13136  Biso   1.000  C
  H667     1.0000 0.17981  0.25896  0.16077  Biso   1.000  H
  C710     1.0000 0.22731  0.20143  0.13136  Biso   1.000  C
  H668     1.0000 0.17985  0.25896  0.16077  Biso   1.000  H
  H669     1.0000 0.78163  0.05617  0.04138  Biso   1.000  H
  N174     1.0000 0.72439  0.95349  0.04466  Biso   1.000  N
  N175     1.0000 0.72441  0.95343  0.04466  Biso   1.000  N
  N176     1.0000 0.72444  0.95349  0.04466  Biso   1.000  N
  N177     1.0000 0.72437  0.95343  0.04466  Biso   1.000  N
  H670     1.0000 0.74100  0.92089  0.16077  Biso   1.000  H
  H671     1.0000 0.74102  0.92084  0.16077  Biso   1.000  H
  H672     1.0000 0.74104  0.92089  0.16077  Biso   1.000  H
  H673     1.0000 0.74097  0.92084  0.16077  Biso   1.000  H
  N178     1.0000 0.73258  0.85835  0.26928  Biso   1.000  N
  H674     1.0000 0.81689  0.92856  0.31366  Biso   1.000  H
  N179     1.0000 0.73267  0.85835  0.26928  Biso   1.000  N
  H675     1.0000 0.81698  0.92856  0.31366  Biso   1.000  H
  C711     1.0000 0.24460  0.14985  0.14975  Biso   1.000  C
  C712     1.0000 0.24524  0.06308  0.22579  Biso   1.000  C
  C713     1.0000 0.24465  0.14985  0.14975  Biso   1.000  C
  C714     1.0000 0.24703  0.23208  0.06685  Biso   1.000  C
  C715     1.0000 0.24700  0.23203  0.06685  Biso   1.000  C
  C716     1.0000 0.24705  0.23203  0.06685  Biso   1.000  C
  C717     1.0000 0.70084  0.95106  0.97997  Biso   1.000  C
  C718     1.0000 0.71766  0.80439  0.31779  Biso   1.000  C
  C719     1.0000 0.71768  0.80434  0.31779  Biso   1.000  C
  C720     1.0000 0.71770  0.80439  0.31779  Biso   1.000  C
  C721     1.0000 0.71763  0.80434  0.31779  Biso   1.000  C
  H676     1.0000 0.26990  0.13614  0.12136  Biso   1.000  H
  H677     1.0000 0.26995  0.13614  0.12136  Biso   1.000  H
  N180     1.0000 0.23534  0.03599  0.27988  Biso   1.000  N
  H678     1.0000 0.26630  0.04754  0.19469  Biso   1.000  H
  N181     1.0000 0.23532  0.03594  0.27988  Biso   1.000  N
  H679     1.0000 0.26635  0.04754  0.19469  Biso   1.000  H
  N182     1.0000 0.22905  0.27558  0.04466  Biso   1.000  N
  N183     1.0000 0.22901  0.27558  0.04466  Biso   1.000  N
  H680     1.0000 0.27452  0.21838  0.04138  Biso   1.000  H
  H681     1.0000 0.27457  0.21838  0.04138  Biso   1.000  H
  H682     1.0000 0.64744  0.92397  0.97828  Biso   1.000  H
  C722     1.0000 0.73033  0.91507  0.93789  Biso   1.000  C
  C723     1.0000 0.73037  0.91507  0.93789  Biso   1.000  C
  H683     1.0000 0.71775  0.00076  0.96496  Biso   1.000  H
  H684     1.0000 0.71770  0.00076  0.96496  Biso   1.000  H
  C724     1.0000 0.72351  0.74104  0.29025  Biso   1.000  C
  H685     1.0000 0.75244  0.82668  0.35269  Biso   1.000  H
  H686     1.0000 0.66846  0.78637  0.33468  Biso   1.000  H
  C725     1.0000 0.25895  0.98246  0.29025  Biso   1.000  C
  C726     1.0000 0.25024  0.29916  0.97997  Biso   1.000  C
  C727     1.0000 0.25019  0.29916  0.97997  Biso   1.000  C
  H687     1.0000 0.71062  0.91005  0.89496  Biso   1.000  H
  N184     1.0000 0.80951  0.95867  0.93606  Biso   1.000  N
  H688     1.0000 0.71560  0.86618  0.95398  Biso   1.000  H
  H689     1.0000 0.71570  0.86618  0.95398  Biso   1.000  H
  H690     1.0000 0.69694  0.72540  0.25019  Biso   1.000  H
  N185     1.0000 0.80065  0.76468  0.27988  Biso   1.000  N
  H691     1.0000 0.70207  0.69976  0.31976  Biso   1.000  H
  H692     1.0000 0.70216  0.69976  0.31976  Biso   1.000  H
  H693     1.0000 0.69692  0.72534  0.25019  Biso   1.000  H
  C728     1.0000 0.19567  0.91329  0.31779  Biso   1.000  C
  C729     1.0000 0.19565  0.91323  0.31779  Biso   1.000  C
  H694     1.0000 0.27467  0.97156  0.25019  Biso   1.000  H
  H695     1.0000 0.27458  0.97156  0.25019  Biso   1.000  H
  H696     1.0000 0.30022  0.00237  0.31976  Biso   1.000  H
  H697     1.0000 0.30027  0.00237  0.31976  Biso   1.000  H
  C730     1.0000 0.18473  0.26964  0.93789  Biso   1.000  C
  C731     1.0000 0.18468  0.26964  0.93789  Biso   1.000  C
  H698     1.0000 0.28301  0.28227  0.96496  Biso   1.000  H
  H699     1.0000 0.27653  0.35258  0.97828  Biso   1.000  H
  H700     1.0000 0.28306  0.28227  0.96496  Biso   1.000  H
  H701     1.0000 0.27657  0.35258  0.97828  Biso   1.000  H
  C732     1.0000 0.84492  0.92629  0.94178  Biso   1.000  C
  C733     1.0000 0.84489  0.92624  0.94178  Biso   1.000  C
  C734     1.0000 0.81784  0.75475  0.22579  Biso   1.000  C
  N186     1.0000 0.14168  0.87427  0.26928  Biso   1.000  N
  N187     1.0000 0.14158  0.87427  0.26928  Biso   1.000  N
  H702     1.0000 0.21365  0.88204  0.33468  Biso   1.000  H
  H703     1.0000 0.17331  0.92575  0.35269  Biso   1.000  H
  N188     1.0000 0.14912  0.19048  0.93606  Biso   1.000  N
  N189     1.0000 0.14917  0.19048  0.93606  Biso   1.000  N
  H704     1.0000 0.15055  0.28437  0.95398  Biso   1.000  H
  H705     1.0000 0.19944  0.28934  0.89496  Biso   1.000  H
  H706     1.0000 0.15050  0.28437  0.95398  Biso   1.000  H
  H707     1.0000 0.19939  0.28934  0.89496  Biso   1.000  H
  C735     1.0000 0.92471  0.96439  0.94056  Biso   1.000  C
  H708     1.0000 0.81917  0.87535  0.94708  Biso   1.000  H
  C736     1.0000 0.92469  0.96433  0.94056  Biso   1.000  C
  H709     1.0000 0.81921  0.87535  0.94708  Biso   1.000  H
  C737     1.0000 0.89142  0.77396  0.20867  Biso   1.000  C
  H710     1.0000 0.78121  0.73365  0.19469  Biso   1.000  H
  C738     1.0000 0.07944  0.86737  0.27749  Biso   1.000  C
  C739     1.0000 0.07939  0.86737  0.27749  Biso   1.000  C
  C740     1.0000 0.08133  0.15508  0.94178  Biso   1.000  C
  C741     1.0000 0.08130  0.15503  0.94178  Biso   1.000  C
  C742     1.0000 0.08135  0.15503  0.94178  Biso   1.000  C
  C743     1.0000 0.96021  0.92537  0.94084  Biso   1.000  C
  C744     1.0000 0.96512  0.03977  0.94084  Biso   1.000  C
  C745     1.0000 0.90520  0.75534  0.14975  Biso   1.000  C
  C746     1.0000 0.95015  0.81189  0.24995  Biso   1.000  C
  C747     1.0000 0.95013  0.81184  0.24995  Biso   1.000  C
  C748     1.0000 0.95020  0.81189  0.24995  Biso   1.000  C
  H711     1.0000 0.07143  0.88836  0.31366  Biso   1.000  H
  C749     1.0000 0.01952  0.82819  0.23269  Biso   1.000  C
  C750     1.0000 0.01949  0.82814  0.23269  Biso   1.000  C
  C751     1.0000 0.03965  0.07527  0.94056  Biso   1.000  C
  C752     1.0000 0.03960  0.07527  0.94056  Biso   1.000  C
  H712     1.0000 0.05613  0.18077  0.94708  Biso   1.000  H
  H713     1.0000 0.93296  0.87406  0.94136  Biso   1.000  H
  H714     1.0000 0.93306  0.87406  0.94136  Biso   1.000  H
  C753     1.0000 0.03571  0.96039  0.94056  Biso   1.000  C
  C754     1.0000 0.03559  0.96034  0.94056  Biso   1.000  C
  C755     1.0000 0.03562  0.96039  0.94056  Biso   1.000  C
  H715     1.0000 0.94105  0.06696  0.94136  Biso   1.000  H
  H716     1.0000 0.94100  0.06696  0.94136  Biso   1.000  H
  C756     1.0000 0.97409  0.77266  0.13136  Biso   1.000  C
  H717     1.0000 0.86621  0.73009  0.12136  Biso   1.000  H
  H718     1.0000 0.86619  0.73004  0.12136  Biso   1.000  H
  C757     1.0000 0.97419  0.77266  0.13136  Biso   1.000  C
  H719     1.0000 0.94234  0.82636  0.28988  Biso   1.000  H
  C758     1.0000 0.03186  0.80876  0.17287  Biso   1.000  C
  C759     1.0000 0.07463  0.03486  0.94084  Biso   1.000  C
  C760     1.0000 0.07379  0.91868  0.94178  Biso   1.000  C
  C761     1.0000 0.07369  0.91868  0.94178  Biso   1.000  C
  C762     1.0000 0.98499  0.75297  0.06685  Biso   1.000  C
  C763     1.0000 0.98509  0.75297  0.06685  Biso   1.000  C
  H720     1.0000 0.07915  0.82015  0.16077  Biso   1.000  H
  H721     1.0000 0.12594  0.05898  0.94136  Biso   1.000  H
  N190     1.0000 0.04137  0.85085  0.93606  Biso   1.000  N
  H722     1.0000 0.12470  0.94388  0.94708  Biso   1.000  H
  H723     1.0000 0.12461  0.94388  0.94708  Biso   1.000  H
  N191     1.0000 0.04127  0.85085  0.93606  Biso   1.000  N
  H724     1.0000 0.94380  0.72545  0.04138  Biso   1.000  H
  N192     1.0000 0.04658  0.77099  0.04466  Biso   1.000  N
  N193     1.0000 0.04655  0.77094  0.04466  Biso   1.000  N
  C764     1.0000 0.08499  0.81529  0.93789  Biso   1.000  C
  C765     1.0000 0.08496  0.81524  0.93789  Biso   1.000  C
  C766     1.0000 0.08487  0.81524  0.93789  Biso   1.000  C
  C767     1.0000 0.04892  0.74979  0.97997  Biso   1.000  C
  H725     1.0000 0.13380  0.84945  0.95398  Biso   1.000  H
  H726     1.0000 0.08992  0.80056  0.89496  Biso   1.000  H
  H727     1.0000 0.07604  0.72345  0.97828  Biso   1.000  H
  H728     1.0000 0.99920  0.71698  0.96496  Biso   1.000  H
  H729     1.0000 0.99929  0.71698  0.96496  Biso   1.000  H
  C768     1.0000 0.01751  0.27644  0.29025  Biso   1.000  C
  N194     1.0000 0.96403  0.19938  0.27988  Biso   1.000  N
  N195     1.0000 0.96400  0.19933  0.27988  Biso   1.000  N
  H730     1.0000 0.99762  0.29786  0.31976  Biso   1.000  H
  H731     1.0000 0.02843  0.30304  0.25019  Biso   1.000  H
  C769     1.0000 0.08675  0.28238  0.31779  Biso   1.000  C
  H732     1.0000 0.02838  0.30304  0.25019  Biso   1.000  H
  C770     1.0000 0.08670  0.28238  0.31779  Biso   1.000  C
  C771     1.0000 0.93692  0.18217  0.22579  Biso   1.000  C
  C772     1.0000 0.01756  0.27644  0.29025  Biso   1.000  C
  H733     1.0000 0.11794  0.33159  0.33468  Biso   1.000  H
  H734     1.0000 0.07425  0.24757  0.35269  Biso   1.000  H
  N196     1.0000 0.12574  0.26737  0.26928  Biso   1.000  N
  H735     1.0000 0.11791  0.33153  0.33468  Biso   1.000  H
  H736     1.0000 0.07420  0.24757  0.35269  Biso   1.000  H
  H737     1.0000 0.95241  0.21876  0.19469  Biso   1.000  H
  C773     1.0000 0.88255  0.10857  0.20867  Biso   1.000  C
  C774     1.0000 0.88250  0.10857  0.20867  Biso   1.000  C
  C775     1.0000 0.13262  0.21206  0.27749  Biso   1.000  C
  C776     1.0000 0.13267  0.21206  0.27749  Biso   1.000  C
  C777     1.0000 0.85013  0.09475  0.14975  Biso   1.000  C
  C778     1.0000 0.86174  0.04986  0.24995  Biso   1.000  C
  C779     1.0000 0.86170  0.04986  0.24995  Biso   1.000  C
  C780     1.0000 0.85008  0.09475  0.14975  Biso   1.000  C
  C781     1.0000 0.17184  0.19134  0.23269  Biso   1.000  C
  H738     1.0000 0.11164  0.18309  0.31366  Biso   1.000  H
  C782     1.0000 0.17180  0.19134  0.23269  Biso   1.000  C
  H739     1.0000 0.11161  0.18303  0.31366  Biso   1.000  H
  C783     1.0000 0.79852  0.02585  0.13136  Biso   1.000  C
  H740     1.0000 0.86384  0.13377  0.12136  Biso   1.000  H
  C784     1.0000 0.79847  0.02585  0.13136  Biso   1.000  C
  H741     1.0000 0.86379  0.13377  0.12136  Biso   1.000  H
  C785     1.0000 0.80859  0.98047  0.23269  Biso   1.000  C
  C786     1.0000 0.80868  0.98047  0.23269  Biso   1.000  C
  H742     1.0000 0.88402  0.05768  0.28988  Biso   1.000  H
  H743     1.0000 0.88400  0.05763  0.28988  Biso   1.000  H
  C787     1.0000 0.18810  0.13825  0.24995  Biso   1.000  C
  C788     1.0000 0.19121  0.22307  0.17287  Biso   1.000  C
  C789     1.0000 0.18815  0.13825  0.24995  Biso   1.000  C
  C790     1.0000 0.19126  0.22307  0.17287  Biso   1.000  C
  C791     1.0000 0.77688  0.96816  0.17287  Biso   1.000  C
  C792     1.0000 0.77692  0.96816  0.17287  Biso   1.000  C
  C793     1.0000 0.76793  0.01495  0.06685  Biso   1.000  C
  C794     1.0000 0.76788  0.01495  0.06685  Biso   1.000  C
  C795     1.0000 0.78789  0.92057  0.27749  Biso   1.000  C
  C796     1.0000 0.78799  0.92057  0.27749  Biso   1.000  C
  C797     1.0000 0.22603  0.11747  0.20867  Biso   1.000  C
  H744     1.0000 0.17364  0.11596  0.28988  Biso   1.000  H
  H745     1.0000 0.17359  0.11596  0.28988  Biso   1.000  H
  C798     1.0000 0.22734  0.20149  0.13136  Biso   1.000  C
  H746     1.0000 0.17981  0.25896  0.16077  Biso   1.000  H
  C799     1.0000 0.22731  0.20143  0.13136  Biso   1.000  C
  H747     1.0000 0.17985  0.25896  0.16077  Biso   1.000  H
  H748     1.0000 0.74100  0.92089  0.16077  Biso   1.000  H
  H749     1.0000 0.74102  0.92084  0.16077  Biso   1.000  H
  H750     1.0000 0.74104  0.92089  0.16077  Biso   1.000  H
  H751     1.0000 0.74097  0.92084  0.16077  Biso   1.000  H
  H752     1.0000 0.78163  0.05617  0.04138  Biso   1.000  H
  N197     1.0000 0.72439  0.95349  0.04466  Biso   1.000  N
  N198     1.0000 0.72441  0.95343  0.04466  Biso   1.000  N
  N199     1.0000 0.72444  0.95349  0.04466  Biso   1.000  N
  N200     1.0000 0.72437  0.95343  0.04466  Biso   1.000  N
  N201     1.0000 0.73258  0.85835  0.26928  Biso   1.000  N
  H753     1.0000 0.81689  0.92856  0.31366  Biso   1.000  H
  N202     1.0000 0.73267  0.85835  0.26928  Biso   1.000  N
  H754     1.0000 0.81698  0.92856  0.31366  Biso   1.000  H
  C800     1.0000 0.24460  0.14985  0.14975  Biso   1.000  C
  C801     1.0000 0.24524  0.06308  0.22579  Biso   1.000  C
  C802     1.0000 0.24465  0.14985  0.14975  Biso   1.000  C
  C803     1.0000 0.24703  0.23208  0.06685  Biso   1.000  C
  C804     1.0000 0.24700  0.23203  0.06685  Biso   1.000  C
  C805     1.0000 0.24705  0.23203  0.06685  Biso   1.000  C
  C806     1.0000 0.70084  0.95106  0.97997  Biso   1.000  C
  C807     1.0000 0.71766  0.80439  0.31779  Biso   1.000  C
  C808     1.0000 0.71768  0.80434  0.31779  Biso   1.000  C
  C809     1.0000 0.71770  0.80439  0.31779  Biso   1.000  C
  C810     1.0000 0.71763  0.80434  0.31779  Biso   1.000  C
  H755     1.0000 0.26990  0.13614  0.12136  Biso   1.000  H
  H756     1.0000 0.26995  0.13614  0.12136  Biso   1.000  H
  N203     1.0000 0.23534  0.03599  0.27988  Biso   1.000  N
  H757     1.0000 0.26630  0.04754  0.19469  Biso   1.000  H
  N204     1.0000 0.23532  0.03594  0.27988  Biso   1.000  N
  H758     1.0000 0.26635  0.04754  0.19469  Biso   1.000  H
  N205     1.0000 0.22905  0.27558  0.04466  Biso   1.000  N
  H759     1.0000 0.27452  0.21838  0.04138  Biso   1.000  H
  N206     1.0000 0.22901  0.27558  0.04466  Biso   1.000  N
  H760     1.0000 0.27457  0.21838  0.04138  Biso   1.000  H
  H761     1.0000 0.64744  0.92397  0.97828  Biso   1.000  H
  C811     1.0000 0.73033  0.91507  0.93789  Biso   1.000  C
  C812     1.0000 0.73037  0.91507  0.93789  Biso   1.000  C
  H762     1.0000 0.71775  0.00076  0.96496  Biso   1.000  H
  H763     1.0000 0.71770  0.00076  0.96496  Biso   1.000  H
  C813     1.0000 0.72351  0.74104  0.29025  Biso   1.000  C
  H764     1.0000 0.75244  0.82668  0.35269  Biso   1.000  H
  H765     1.0000 0.66846  0.78637  0.33468  Biso   1.000  H
  C814     1.0000 0.25895  0.98246  0.29025  Biso   1.000  C
  C815     1.0000 0.25024  0.29916  0.97997  Biso   1.000  C
  C816     1.0000 0.25019  0.29916  0.97997  Biso   1.000  C
  H766     1.0000 0.71062  0.91005  0.89496  Biso   1.000  H
  N207     1.0000 0.80951  0.95867  0.93606  Biso   1.000  N
  H767     1.0000 0.71560  0.86618  0.95398  Biso   1.000  H
  H768     1.0000 0.71570  0.86618  0.95398  Biso   1.000  H
  H769     1.0000 0.69694  0.72540  0.25019  Biso   1.000  H
  N208     1.0000 0.80065  0.76468  0.27988  Biso   1.000  N
  H770     1.0000 0.70207  0.69976  0.31976  Biso   1.000  H
  H771     1.0000 0.70216  0.69976  0.31976  Biso   1.000  H
  H772     1.0000 0.69692  0.72534  0.25019  Biso   1.000  H
  H773     1.0000 0.27467  0.97156  0.25019  Biso   1.000  H
  C817     1.0000 0.19567  0.91329  0.31779  Biso   1.000  C
  C818     1.0000 0.19565  0.91323  0.31779  Biso   1.000  C
  H774     1.0000 0.27458  0.97156  0.25019  Biso   1.000  H
  H775     1.0000 0.30022  0.00237  0.31976  Biso   1.000  H
  H776     1.0000 0.30027  0.00237  0.31976  Biso   1.000  H
  H777     1.0000 0.28301  0.28227  0.96496  Biso   1.000  H
  H778     1.0000 0.27653  0.35258  0.97828  Biso   1.000  H
  C819     1.0000 0.18473  0.26964  0.93789  Biso   1.000  C
  C820     1.0000 0.18468  0.26964  0.93789  Biso   1.000  C
  H779     1.0000 0.28306  0.28227  0.96496  Biso   1.000  H
  H780     1.0000 0.27657  0.35258  0.97828  Biso   1.000  H
  C821     1.0000 0.84492  0.92629  0.94178  Biso   1.000  C
  C822     1.0000 0.84489  0.92624  0.94178  Biso   1.000  C
  C823     1.0000 0.81784  0.75475  0.22579  Biso   1.000  C
  N209     1.0000 0.14168  0.87427  0.26928  Biso   1.000  N
  H781     1.0000 0.21365  0.88204  0.33468  Biso   1.000  H
  H782     1.0000 0.17331  0.92575  0.35269  Biso   1.000  H
  N210     1.0000 0.14158  0.87427  0.26928  Biso   1.000  N
  N211     1.0000 0.14912  0.19048  0.93606  Biso   1.000  N
  H783     1.0000 0.15055  0.28437  0.95398  Biso   1.000  H
  H784     1.0000 0.19944  0.28934  0.89496  Biso   1.000  H
  H785     1.0000 0.15050  0.28437  0.95398  Biso   1.000  H
  H786     1.0000 0.19939  0.28934  0.89496  Biso   1.000  H
  N212     1.0000 0.14917  0.19048  0.93606  Biso   1.000  N
  C824     1.0000 0.92471  0.96439  0.94056  Biso   1.000  C
  H787     1.0000 0.81917  0.87535  0.94708  Biso   1.000  H
  C825     1.0000 0.92469  0.96433  0.94056  Biso   1.000  C
  H788     1.0000 0.81921  0.87535  0.94708  Biso   1.000  H
  C826     1.0000 0.89142  0.77396  0.20867  Biso   1.000  C
  H789     1.0000 0.78121  0.73365  0.19469  Biso   1.000  H
  C827     1.0000 0.07944  0.86737  0.27749  Biso   1.000  C
  C828     1.0000 0.07939  0.86737  0.27749  Biso   1.000  C
  C829     1.0000 0.08133  0.15508  0.94178  Biso   1.000  C
  C830     1.0000 0.08130  0.15503  0.94178  Biso   1.000  C
  C831     1.0000 0.08135  0.15503  0.94178  Biso   1.000  C
  C832     1.0000 0.96021  0.92537  0.94084  Biso   1.000  C
  C833     1.0000 0.96512  0.03977  0.94084  Biso   1.000  C
  C834     1.0000 0.90520  0.75534  0.14975  Biso   1.000  C
  C835     1.0000 0.95015  0.81189  0.24995  Biso   1.000  C
  C836     1.0000 0.95013  0.81184  0.24995  Biso   1.000  C
  C837     1.0000 0.95020  0.81189  0.24995  Biso   1.000  C
  H790     1.0000 0.07143  0.88836  0.31366  Biso   1.000  H
  C838     1.0000 0.01952  0.82819  0.23269  Biso   1.000  C
  C839     1.0000 0.01949  0.82814  0.23269  Biso   1.000  C
  C840     1.0000 0.03965  0.07527  0.94056  Biso   1.000  C
  C841     1.0000 0.03960  0.07527  0.94056  Biso   1.000  C
  H791     1.0000 0.05613  0.18077  0.94708  Biso   1.000  H
  H792     1.0000 0.93296  0.87406  0.94136  Biso   1.000  H
  H793     1.0000 0.93306  0.87406  0.94136  Biso   1.000  H
  C842     1.0000 0.03571  0.96039  0.94056  Biso   1.000  C
  C843     1.0000 0.03559  0.96034  0.94056  Biso   1.000  C
  C844     1.0000 0.03562  0.96039  0.94056  Biso   1.000  C
  H794     1.0000 0.94105  0.06696  0.94136  Biso   1.000  H
  H795     1.0000 0.94100  0.06696  0.94136  Biso   1.000  H
  C845     1.0000 0.97409  0.77266  0.13136  Biso   1.000  C
  H796     1.0000 0.86621  0.73009  0.12136  Biso   1.000  H
  H797     1.0000 0.86619  0.73004  0.12136  Biso   1.000  H
  C846     1.0000 0.97419  0.77266  0.13136  Biso   1.000  C
  H798     1.0000 0.94234  0.82636  0.28988  Biso   1.000  H
  C847     1.0000 0.03186  0.80876  0.17287  Biso   1.000  C
  C848     1.0000 0.07463  0.03486  0.94084  Biso   1.000  C
  C849     1.0000 0.07379  0.91868  0.94178  Biso   1.000  C
  C850     1.0000 0.07369  0.91868  0.94178  Biso   1.000  C
  C851     1.0000 0.98499  0.75297  0.06685  Biso   1.000  C
  C852     1.0000 0.98509  0.75297  0.06685  Biso   1.000  C
  H799     1.0000 0.07915  0.82015  0.16077  Biso   1.000  H
  H800     1.0000 0.12594  0.05898  0.94136  Biso   1.000  H
  N213     1.0000 0.04137  0.85085  0.93606  Biso   1.000  N
  H801     1.0000 0.12470  0.94388  0.94708  Biso   1.000  H
  H802     1.0000 0.12461  0.94388  0.94708  Biso   1.000  H
  N214     1.0000 0.04127  0.85085  0.93606  Biso   1.000  N
  H803     1.0000 0.94380  0.72545  0.04138  Biso   1.000  H
  N215     1.0000 0.04658  0.77099  0.04466  Biso   1.000  N
  N216     1.0000 0.04655  0.77094  0.04466  Biso   1.000  N
  C853     1.0000 0.08499  0.81529  0.93789  Biso   1.000  C
  C854     1.0000 0.08496  0.81524  0.93789  Biso   1.000  C
  C855     1.0000 0.08487  0.81524  0.93789  Biso   1.000  C
  C856     1.0000 0.04892  0.74979  0.97997  Biso   1.000  C
  H804     1.0000 0.13380  0.84945  0.95398  Biso   1.000  H
  H805     1.0000 0.08992  0.80056  0.89496  Biso   1.000  H
  H806     1.0000 0.07604  0.72345  0.97828  Biso   1.000  H
  H807     1.0000 0.99920  0.71698  0.96496  Biso   1.000  H
  H808     1.0000 0.99929  0.71698  0.96496  Biso   1.000  H
  C857     1.0000 0.41826  0.48192  0.60452  Biso   1.000  C
  N217     1.0000 0.37466  0.51754  0.60274  Biso   1.000  N
  C858     1.0000 0.38223  0.41641  0.64665  Biso   1.000  C
  H809     1.0000 0.46714  0.51613  0.62066  Biso   1.000  H
  H810     1.0000 0.42326  0.46724  0.56164  Biso   1.000  H
  C859     1.0000 0.40705  0.58531  0.60846  Biso   1.000  C
  N218     1.0000 0.37985  0.43762  0.71134  Biso   1.000  N
  H811     1.0000 0.33256  0.38361  0.63164  Biso   1.000  H
  H812     1.0000 0.40938  0.39013  0.64496  Biso   1.000  H
  C860     1.0000 0.36898  0.62702  0.60724  Biso   1.000  C
  H813     1.0000 0.45797  0.61051  0.61376  Biso   1.000  H
  C861     1.0000 0.31838  0.41965  0.73353  Biso   1.000  C
  C862     1.0000 0.29357  0.59200  0.60752  Biso   1.000  C
  C863     1.0000 0.40797  0.70154  0.60752  Biso   1.000  C
  C864     1.0000 0.30748  0.43935  0.79804  Biso   1.000  C
  H814     1.0000 0.27714  0.39213  0.70806  Biso   1.000  H
  C865     1.0000 0.25807  0.63101  0.60724  Biso   1.000  C
  H815     1.0000 0.26635  0.54074  0.60804  Biso   1.000  H
  H816     1.0000 0.45926  0.72561  0.60804  Biso   1.000  H
  C866     1.0000 0.37296  0.74190  0.60724  Biso   1.000  C
  C867     1.0000 0.23858  0.42202  0.81643  Biso   1.000  C
  C868     1.0000 0.36516  0.47545  0.83956  Biso   1.000  C
  C869     1.0000 0.29843  0.70640  0.60752  Biso   1.000  C
  C870     1.0000 0.17828  0.59292  0.60846  Biso   1.000  C
  C871     1.0000 0.41464  0.82171  0.60846  Biso   1.000  C
  H817     1.0000 0.19957  0.39672  0.78805  Biso   1.000  H
  C872     1.0000 0.22476  0.44064  0.87535  Biso   1.000  C
  C873     1.0000 0.35283  0.49482  0.89937  Biso   1.000  C
  H818     1.0000 0.41244  0.48683  0.82745  Biso   1.000  H
  H819     1.0000 0.27439  0.73365  0.60804  Biso   1.000  H
  N219     1.0000 0.14290  0.62535  0.60274  Biso   1.000  N
  H820     1.0000 0.15255  0.54203  0.61376  Biso   1.000  H
  N220     1.0000 0.48244  0.85711  0.60274  Biso   1.000  N
  H821     1.0000 0.38944  0.84740  0.61376  Biso   1.000  H
  C874     1.0000 0.28347  0.47852  0.91664  Biso   1.000  C
  C875     1.0000 0.15118  0.42143  0.89243  Biso   1.000  C
  C876     1.0000 0.41278  0.53405  0.94417  Biso   1.000  C
  C877     1.0000 0.06367  0.58175  0.60452  Biso   1.000  C
  C878     1.0000 0.51807  0.93632  0.60452  Biso   1.000  C
  H822     1.0000 0.27568  0.49304  0.95656  Biso   1.000  H
  N221     1.0000 0.13397  0.43131  0.94657  Biso   1.000  N
  H823     1.0000 0.11455  0.40033  0.86137  Biso   1.000  H
  N222     1.0000 0.47495  0.54090  0.93596  Biso   1.000  N
  H824     1.0000 0.40477  0.55504  0.98034  Biso   1.000  H
  C879     1.0000 0.03418  0.61774  0.64665  Biso   1.000  C
  H825     1.0000 0.04896  0.53281  0.62066  Biso   1.000  H
  H826     1.0000 0.04396  0.57673  0.56164  Biso   1.000  H
  C880     1.0000 0.58358  0.96584  0.64665  Biso   1.000  C
  H827     1.0000 0.48386  0.95100  0.62066  Biso   1.000  H
  H828     1.0000 0.53278  0.95602  0.56164  Biso   1.000  H
  C881     1.0000 0.05685  0.40773  0.95693  Biso   1.000  C
  C882     1.0000 0.52894  0.57991  0.98447  Biso   1.000  C
  N223     1.0000 0.05776  0.62011  0.71134  Biso   1.000  N
  H829     1.0000 0.05109  0.66744  0.63164  Biso   1.000  H
  H830     1.0000 0.98078  0.59065  0.64496  Biso   1.000  H
  N224     1.0000 0.56237  0.94220  0.71134  Biso   1.000  N
  H831     1.0000 0.61632  0.94890  0.63164  Biso   1.000  H
  H832     1.0000 0.60979  0.01921  0.64496  Biso   1.000  H
  H833     1.0000 0.03546  0.36645  0.98644  Biso   1.000  H
  H834     1.0000 0.03026  0.39202  0.91687  Biso   1.000  H
  C883     1.0000 0.05097  0.47102  0.98447  Biso   1.000  C
  C884     1.0000 0.59225  0.64914  0.95693  Biso   1.000  C
  H835     1.0000 0.54694  0.54872  0.00136  Biso   1.000  H
  H836     1.0000 0.50665  0.59243  0.01938  Biso   1.000  H
  C885     1.0000 0.10127  0.68163  0.73353  Biso   1.000  C
  C886     1.0000 0.58034  0.89871  0.73353  Biso   1.000  C
  N225     1.0000 0.06597  0.52504  0.93596  Biso   1.000  N
  H837     1.0000 0.00180  0.45305  0.00136  Biso   1.000  H
  H838     1.0000 0.08576  0.49331  0.01938  Biso   1.000  H
  N226     1.0000 0.56866  0.70262  0.94657  Biso   1.000  N
  H839     1.0000 0.63353  0.66900  0.98644  Biso   1.000  H
  H840     1.0000 0.60797  0.63824  0.91687  Biso   1.000  H
  C887     1.0000 0.13186  0.69253  0.79804  Biso   1.000  C
  H841     1.0000 0.11494  0.72280  0.70806  Biso   1.000  H
  C888     1.0000 0.56065  0.86812  0.79804  Biso   1.000  C
  H842     1.0000 0.60784  0.88501  0.70806  Biso   1.000  H
  C889     1.0000 0.12128  0.58725  0.94417  Biso   1.000  C
  C890     1.0000 0.57856  0.72971  0.89243  Biso   1.000  C
  C891     1.0000 0.18347  0.76144  0.81643  Biso   1.000  C
  C892     1.0000 0.11026  0.63485  0.83956  Biso   1.000  C
  C893     1.0000 0.57795  0.81653  0.81643  Biso   1.000  C
  C894     1.0000 0.52453  0.88970  0.83956  Biso   1.000  C
  C895     1.0000 0.14198  0.64715  0.89937  Biso   1.000  C
  H843     1.0000 0.15028  0.59524  0.98034  Biso   1.000  H
  C896     1.0000 0.55935  0.78410  0.87535  Biso   1.000  C
  H844     1.0000 0.59965  0.71422  0.86137  Biso   1.000  H
  H845     1.0000 0.19715  0.80040  0.78805  Biso   1.000  H
  C897     1.0000 0.21586  0.77520  0.87535  Biso   1.000  C
  H846     1.0000 0.07436  0.58752  0.82745  Biso   1.000  H
  H847     1.0000 0.60324  0.80282  0.78805  Biso   1.000  H
  C898     1.0000 0.50518  0.85803  0.89937  Biso   1.000  C
  H848     1.0000 0.51315  0.92564  0.82745  Biso   1.000  H
  C899     1.0000 0.19509  0.71654  0.91664  Biso   1.000  C
  C900     1.0000 0.52144  0.80493  0.91664  Biso   1.000  C
  C901     1.0000 0.27023  0.84880  0.89243  Biso   1.000  C
  C902     1.0000 0.46596  0.87875  0.94417  Biso   1.000  C
  H849     1.0000 0.21734  0.72431  0.95656  Biso   1.000  H
  H850     1.0000 0.50698  0.78264  0.95656  Biso   1.000  H
  N227     1.0000 0.29735  0.86601  0.94657  Biso   1.000  N
  H851     1.0000 0.28575  0.88544  0.86137  Biso   1.000  H
  N228     1.0000 0.45906  0.93400  0.93596  Biso   1.000  N
  H852     1.0000 0.44495  0.84972  0.98034  Biso   1.000  H
  C903     1.0000 0.35085  0.94312  0.95693  Biso   1.000  C
  C904     1.0000 0.42006  0.94900  0.98447  Biso   1.000  C
  H853     1.0000 0.33096  0.96454  0.98644  Biso   1.000  H
  H854     1.0000 0.36177  0.96972  0.91687  Biso   1.000  H
  H855     1.0000 0.45125  0.99822  0.00136  Biso   1.000  H
  H856     1.0000 0.40756  0.91420  0.01938  Biso   1.000  H
