data_image0
_cell_length_a       23.759
_cell_length_b       23.759
_cell_length_c       56.732
_cell_angle_alpha    90
_cell_angle_beta     90
_cell_angle_gamma    90

_symmetry_space_group_name_H-M    "P 1"
_symmetry_int_tables_number       1

loop_
  _symmetry_equiv_pos_as_xyz
  'x, y, z'

loop_
  _atom_site_label
  _atom_site_occupancy
  _atom_site_fract_x
  _atom_site_fract_y
  _atom_site_fract_z
  _atom_site_thermal_displace_type
  _atom_site_B_iso_or_equiv
  _atom_site_type_symbol
  O1       1.0000 0.24690  0.35860  0.48130  Biso   1.000  O
  C1       1.0000 0.30090  0.37741  0.47321  Biso   1.000  C
  H1       1.0000 0.23002  0.38002  0.49189  Biso   1.000  H
  C2       1.0000 0.31319  0.35119  0.44890  Biso   1.000  C
  H2       1.0000 0.33040  0.36609  0.48459  Biso   1.000  H
  H3       1.0000 0.30119  0.41900  0.47190  Biso   1.000  H
  C3       1.0000 0.26819  0.36273  0.42990  Biso   1.000  C
  O2       1.0000 0.31651  0.29012  0.45237  Biso   1.000  O
  H4       1.0000 0.35052  0.36521  0.44310  Biso   1.000  H
  C4       1.0000 0.28970  0.33613  0.40681  Biso   1.000  C
  O3       1.0000 0.26470  0.42249  0.42569  Biso   1.000  O
  H5       1.0000 0.23090  0.34690  0.43460  Biso   1.000  H
  C5       1.0000 0.33600  0.26100  0.43191  Biso   1.000  C
  C6       1.0000 0.29791  0.27282  0.41090  Biso   1.000  C
  O4       1.0000 0.24749  0.34379  0.38818  Biso   1.000  O
  H6       1.0000 0.32611  0.35380  0.40200  Biso   1.000  H
  C7       1.0000 0.21529  0.44821  0.43180  Biso   1.000  C
  O5       1.0000 0.39050  0.27960  0.42567  Biso   1.000  O
  H7       1.0000 0.33680  0.21962  0.43510  Biso   1.000  H
  O6       1.0000 0.32261  0.24908  0.39006  Biso   1.000  O
  H8       1.0000 0.26041  0.25489  0.41359  Biso   1.000  H
  H9       1.0000 0.23250  0.37569  0.38960  Biso   1.000  H
  O7       1.0000 0.22101  0.48091  0.45280  Biso   1.000  O
  C8       1.0000 0.19630  0.48369  0.41150  Biso   1.000  C
  H10      1.0000 0.18641  0.41841  0.43469  Biso   1.000  H
  C9       1.0000 0.43659  0.24012  0.43009  Biso   1.000  C
  H11      1.0000 0.30410  0.22450  0.38500  Biso   1.000  H
  C10      1.0000 0.26230  0.52641  0.44860  Biso   1.000  C
  O8       1.0000 0.19109  0.44859  0.38976  Biso   1.000  O
  C11      1.0000 0.23360  0.53171  0.40720  Biso   1.000  C
  H12      1.0000 0.15809  0.49880  0.41530  Biso   1.000  H
  H13      1.0000 0.42089  0.20279  0.43510  Biso   1.000  H
  C12      1.0000 0.46833  0.23360  0.40720  Biso   1.000  C
  C13      1.0000 0.47359  0.26230  0.44860  Biso   1.000  C
  C14      1.0000 0.24012  0.56341  0.43009  Biso   1.000  C
  H14      1.0000 0.29921  0.51012  0.44359  Biso   1.000  H
  C15      1.0000 0.26790  0.55419  0.47340  Biso   1.000  C
  H15      1.0000 0.18839  0.46980  0.37790  Biso   1.000  H
  O9       1.0000 0.21061  0.56783  0.38867  Biso   1.000  O
  H16      1.0000 0.27131  0.51740  0.40210  Biso   1.000  H
  O10      1.0000 0.43222  0.21061  0.38867  Biso   1.000  O
  H17      1.0000 0.48260  0.27131  0.40210  Biso   1.000  H
  C16      1.0000 0.51631  0.19630  0.41150  Biso   1.000  C
  O11      1.0000 0.51913  0.22101  0.45280  Biso   1.000  O
  H18      1.0000 0.48992  0.29921  0.44359  Biso   1.000  H
  C17      1.0000 0.44581  0.26790  0.47340  Biso   1.000  C
  O12      1.0000 0.27960  0.60950  0.42567  Biso   1.000  O
  H19      1.0000 0.20279  0.57911  0.43510  Biso   1.000  H
  O13      1.0000 0.21832  0.57793  0.48050  Biso   1.000  O
  H20      1.0000 0.27960  0.52540  0.48500  Biso   1.000  H
  H21      1.0000 0.29749  0.58353  0.47291  Biso   1.000  H
  H22      1.0000 0.18831  0.59131  0.39470  Biso   1.000  H
  H23      1.0000 0.40869  0.18831  0.39470  Biso   1.000  H
  O14      1.0000 0.55141  0.19109  0.38976  Biso   1.000  O
  H24      1.0000 0.50120  0.15809  0.41530  Biso   1.000  H
  C18      1.0000 0.55179  0.21529  0.43180  Biso   1.000  C
  O15      1.0000 0.42211  0.21832  0.48050  Biso   1.000  O
  H25      1.0000 0.47460  0.27960  0.48500  Biso   1.000  H
  H26      1.0000 0.41652  0.29749  0.47291  Biso   1.000  H
  C19      1.0000 0.26100  0.66400  0.43191  Biso   1.000  C
  H27      1.0000 0.19268  0.55621  0.48489  Biso   1.000  H
  H28      1.0000 0.53020  0.18839  0.37790  Biso   1.000  H
  H29      1.0000 0.58159  0.18641  0.43469  Biso   1.000  H
  O16      1.0000 0.57751  0.26470  0.42569  Biso   1.000  O
  H30      1.0000 0.44379  0.19268  0.48489  Biso   1.000  H
  O17      1.0000 0.29012  0.68353  0.45237  Biso   1.000  O
  C20      1.0000 0.27282  0.70209  0.41090  Biso   1.000  C
  H31      1.0000 0.21962  0.66320  0.43510  Biso   1.000  H
  C21      1.0000 0.63732  0.26819  0.42990  Biso   1.000  C
  C22      1.0000 0.35119  0.68681  0.44890  Biso   1.000  C
  O18      1.0000 0.24908  0.67743  0.39006  Biso   1.000  O
  C23      1.0000 0.33613  0.71030  0.40681  Biso   1.000  C
  H32      1.0000 0.25489  0.73959  0.41359  Biso   1.000  H
  H33      1.0000 0.65310  0.23090  0.43460  Biso   1.000  H
  C24      1.0000 0.66392  0.28970  0.40681  Biso   1.000  C
  C25      1.0000 0.64881  0.31319  0.44890  Biso   1.000  C
  C26      1.0000 0.36273  0.73181  0.42990  Biso   1.000  C
  H34      1.0000 0.36521  0.64952  0.44310  Biso   1.000  H
  C27      1.0000 0.37741  0.69910  0.47321  Biso   1.000  C
  H35      1.0000 0.22450  0.69590  0.38500  Biso   1.000  H
  O19      1.0000 0.34379  0.75251  0.38818  Biso   1.000  O
  H36      1.0000 0.35380  0.67389  0.40200  Biso   1.000  H
  O20      1.0000 0.65621  0.24749  0.38818  Biso   1.000  O
  H37      1.0000 0.64620  0.32611  0.40200  Biso   1.000  H
  C28      1.0000 0.72722  0.29791  0.41090  Biso   1.000  C
  O21      1.0000 0.70992  0.31651  0.45237  Biso   1.000  O
  H38      1.0000 0.63479  0.35052  0.44310  Biso   1.000  H
  C29      1.0000 0.62263  0.30090  0.47321  Biso   1.000  C
  O22      1.0000 0.42249  0.73530  0.42569  Biso   1.000  O
  H39      1.0000 0.34690  0.76910  0.43460  Biso   1.000  H
  O23      1.0000 0.35860  0.75310  0.48130  Biso   1.000  O
  H40      1.0000 0.36609  0.66960  0.48459  Biso   1.000  H
  H41      1.0000 0.41900  0.69881  0.47190  Biso   1.000  H
  H42      1.0000 0.37569  0.76750  0.38960  Biso   1.000  H
  H43      1.0000 0.62431  0.23250  0.38960  Biso   1.000  H
  O24      1.0000 0.75092  0.32261  0.39006  Biso   1.000  O
  H44      1.0000 0.74511  0.26041  0.41359  Biso   1.000  H
  C30      1.0000 0.73900  0.33600  0.43191  Biso   1.000  C
  O25      1.0000 0.64140  0.24690  0.48130  Biso   1.000  O
  H45      1.0000 0.63391  0.33040  0.48459  Biso   1.000  H
  H46      1.0000 0.58100  0.30119  0.47190  Biso   1.000  H
  C31      1.0000 0.44821  0.78471  0.43180  Biso   1.000  C
  H47      1.0000 0.38002  0.77002  0.49189  Biso   1.000  H
  H48      1.0000 0.77550  0.30410  0.38500  Biso   1.000  H
  O26      1.0000 0.72040  0.39050  0.42567  Biso   1.000  O
  H49      1.0000 0.78042  0.33680  0.43510  Biso   1.000  H
  H50      1.0000 0.62002  0.23002  0.49189  Biso   1.000  H
  O27      1.0000 0.48091  0.77903  0.45280  Biso   1.000  O
  C32      1.0000 0.48369  0.80370  0.41150  Biso   1.000  C
  H51      1.0000 0.41841  0.81363  0.43469  Biso   1.000  H
  C33      1.0000 0.75992  0.43659  0.43009  Biso   1.000  C
  C34      1.0000 0.52641  0.73770  0.44860  Biso   1.000  C
  O28      1.0000 0.44859  0.80891  0.38976  Biso   1.000  O
  C35      1.0000 0.53171  0.76640  0.40720  Biso   1.000  C
  H52      1.0000 0.49880  0.84191  0.41530  Biso   1.000  H
  H53      1.0000 0.79721  0.42089  0.43510  Biso   1.000  H
  C36      1.0000 0.76640  0.46833  0.40720  Biso   1.000  C
  C37      1.0000 0.73770  0.47359  0.44860  Biso   1.000  C
  C38      1.0000 0.56341  0.75992  0.43009  Biso   1.000  C
  H54      1.0000 0.51012  0.70083  0.44359  Biso   1.000  H
  C39      1.0000 0.55419  0.73210  0.47340  Biso   1.000  C
  H55      1.0000 0.46980  0.81161  0.37790  Biso   1.000  H
  O29      1.0000 0.56783  0.78943  0.38867  Biso   1.000  O
  H56      1.0000 0.51740  0.72869  0.40210  Biso   1.000  H
  O30      1.0000 0.78943  0.43222  0.38867  Biso   1.000  O
  H57      1.0000 0.72869  0.48260  0.40210  Biso   1.000  H
  C40      1.0000 0.80370  0.51631  0.41150  Biso   1.000  C
  O31      1.0000 0.77903  0.51913  0.45280  Biso   1.000  O
  H58      1.0000 0.70083  0.48992  0.44359  Biso   1.000  H
  C41      1.0000 0.73210  0.44581  0.47340  Biso   1.000  C
  O32      1.0000 0.60950  0.72040  0.42567  Biso   1.000  O
  H59      1.0000 0.57911  0.79721  0.43510  Biso   1.000  H
  O33      1.0000 0.57793  0.78172  0.48050  Biso   1.000  O
  H60      1.0000 0.52540  0.72040  0.48500  Biso   1.000  H
  H61      1.0000 0.58353  0.70251  0.47291  Biso   1.000  H
  H62      1.0000 0.59131  0.81173  0.39470  Biso   1.000  H
  H63      1.0000 0.81173  0.40869  0.39470  Biso   1.000  H
  O34      1.0000 0.80891  0.55141  0.38976  Biso   1.000  O
  H64      1.0000 0.84191  0.50120  0.41530  Biso   1.000  H
  C42      1.0000 0.78471  0.55179  0.43180  Biso   1.000  C
  O35      1.0000 0.78172  0.42211  0.48050  Biso   1.000  O
  H65      1.0000 0.72040  0.47460  0.48500  Biso   1.000  H
  H66      1.0000 0.70251  0.41652  0.47291  Biso   1.000  H
  C43      1.0000 0.66400  0.73900  0.43191  Biso   1.000  C
  H67      1.0000 0.55621  0.80732  0.48489  Biso   1.000  H
  H68      1.0000 0.81161  0.53020  0.37790  Biso   1.000  H
  H69      1.0000 0.81363  0.58159  0.43469  Biso   1.000  H
  O36      1.0000 0.73530  0.57751  0.42569  Biso   1.000  O
  H70      1.0000 0.80732  0.44379  0.48489  Biso   1.000  H
  O37      1.0000 0.68353  0.70992  0.45237  Biso   1.000  O
  C44      1.0000 0.70209  0.72722  0.41090  Biso   1.000  C
  H71      1.0000 0.66320  0.78042  0.43510  Biso   1.000  H
  C45      1.0000 0.73181  0.63732  0.42990  Biso   1.000  C
  C46      1.0000 0.68681  0.64881  0.44890  Biso   1.000  C
  C47      1.0000 0.71030  0.66392  0.40681  Biso   1.000  C
  O38      1.0000 0.67743  0.75092  0.39006  Biso   1.000  O
  H72      1.0000 0.73959  0.74511  0.41359  Biso   1.000  H
  H73      1.0000 0.76910  0.65310  0.43460  Biso   1.000  H
  H74      1.0000 0.64952  0.63479  0.44310  Biso   1.000  H
  C48      1.0000 0.69910  0.62263  0.47321  Biso   1.000  C
  O39      1.0000 0.75251  0.65621  0.38818  Biso   1.000  O
  H75      1.0000 0.67389  0.64620  0.40200  Biso   1.000  H
  H76      1.0000 0.69590  0.77550  0.38500  Biso   1.000  H
  O40      1.0000 0.75310  0.64140  0.48130  Biso   1.000  O
  H77      1.0000 0.66960  0.63391  0.48459  Biso   1.000  H
  H78      1.0000 0.69881  0.58100  0.47190  Biso   1.000  H
  H79      1.0000 0.76750  0.62431  0.38960  Biso   1.000  H
  H80      1.0000 0.77002  0.62002  0.49189  Biso   1.000  H
  O41      1.0000 0.35860  0.24690  0.51870  Biso   1.000  O
  H81      1.0000 0.38002  0.23002  0.50811  Biso   1.000  H
  C49      1.0000 0.37741  0.30090  0.52679  Biso   1.000  C
  C50      1.0000 0.35119  0.31319  0.55110  Biso   1.000  C
  H82      1.0000 0.36609  0.33040  0.51541  Biso   1.000  H
  H83      1.0000 0.41900  0.30119  0.52810  Biso   1.000  H
  O42      1.0000 0.29012  0.31651  0.54763  Biso   1.000  O
  C51      1.0000 0.36273  0.26819  0.57010  Biso   1.000  C
  H84      1.0000 0.36521  0.35052  0.55690  Biso   1.000  H
  C52      1.0000 0.26100  0.33600  0.56809  Biso   1.000  C
  O43      1.0000 0.42249  0.26470  0.57431  Biso   1.000  O
  H85      1.0000 0.34690  0.23090  0.56540  Biso   1.000  H
  C53      1.0000 0.33613  0.28970  0.59319  Biso   1.000  C
  O44      1.0000 0.27960  0.39050  0.57433  Biso   1.000  O
  C54      1.0000 0.27282  0.29791  0.58910  Biso   1.000  C
  H86      1.0000 0.21962  0.33680  0.56490  Biso   1.000  H
  C55      1.0000 0.44821  0.21529  0.56820  Biso   1.000  C
  O45      1.0000 0.34379  0.24749  0.61182  Biso   1.000  O
  H87      1.0000 0.35380  0.32611  0.59800  Biso   1.000  H
  C56      1.0000 0.24012  0.43659  0.56991  Biso   1.000  C
  O46      1.0000 0.24908  0.32261  0.60994  Biso   1.000  O
  H88      1.0000 0.25489  0.26041  0.58641  Biso   1.000  H
  O47      1.0000 0.48091  0.22101  0.54720  Biso   1.000  O
  C57      1.0000 0.48369  0.19630  0.58850  Biso   1.000  C
  H89      1.0000 0.41841  0.18641  0.56531  Biso   1.000  H
  H90      1.0000 0.37569  0.23250  0.61040  Biso   1.000  H
  H91      1.0000 0.20279  0.42089  0.56490  Biso   1.000  H
  C58      1.0000 0.23360  0.46833  0.59280  Biso   1.000  C
  C59      1.0000 0.26230  0.47359  0.55140  Biso   1.000  C
  H92      1.0000 0.22450  0.30410  0.61500  Biso   1.000  H
  C60      1.0000 0.52641  0.26230  0.55140  Biso   1.000  C
  O48      1.0000 0.44859  0.19109  0.61024  Biso   1.000  O
  C61      1.0000 0.53171  0.23360  0.59280  Biso   1.000  C
  H93      1.0000 0.49880  0.15809  0.58470  Biso   1.000  H
  O49      1.0000 0.21061  0.43222  0.61133  Biso   1.000  O
  H94      1.0000 0.27131  0.48260  0.59790  Biso   1.000  H
  C62      1.0000 0.19630  0.51631  0.58850  Biso   1.000  C
  O50      1.0000 0.22101  0.51913  0.54720  Biso   1.000  O
  H95      1.0000 0.29921  0.48992  0.55641  Biso   1.000  H
  C63      1.0000 0.26790  0.44581  0.52660  Biso   1.000  C
  C64      1.0000 0.56341  0.24012  0.56991  Biso   1.000  C
  H96      1.0000 0.51012  0.29921  0.55641  Biso   1.000  H
  C65      1.0000 0.55419  0.26790  0.52660  Biso   1.000  C
  H97      1.0000 0.46980  0.18839  0.62210  Biso   1.000  H
  O51      1.0000 0.56783  0.21061  0.61133  Biso   1.000  O
  H98      1.0000 0.51740  0.27131  0.59790  Biso   1.000  H
  H99      1.0000 0.18831  0.40869  0.60530  Biso   1.000  H
  O52      1.0000 0.19109  0.55141  0.61024  Biso   1.000  O
  H100     1.0000 0.15809  0.50120  0.58470  Biso   1.000  H
  C66      1.0000 0.21529  0.55179  0.56820  Biso   1.000  C
  O53      1.0000 0.21832  0.42211  0.51950  Biso   1.000  O
  H101     1.0000 0.27960  0.47460  0.51500  Biso   1.000  H
  H102     1.0000 0.29749  0.41652  0.52709  Biso   1.000  H
  O54      1.0000 0.60950  0.27960  0.57433  Biso   1.000  O
  H103     1.0000 0.57911  0.20279  0.56490  Biso   1.000  H
  O55      1.0000 0.57793  0.21832  0.51950  Biso   1.000  O
  H104     1.0000 0.52540  0.27960  0.51500  Biso   1.000  H
  H105     1.0000 0.58353  0.29749  0.52709  Biso   1.000  H
  H106     1.0000 0.59131  0.18831  0.60530  Biso   1.000  H
  H107     1.0000 0.18839  0.53020  0.62210  Biso   1.000  H
  O56      1.0000 0.26470  0.57751  0.57431  Biso   1.000  O
  H108     1.0000 0.18641  0.58159  0.56531  Biso   1.000  H
  H109     1.0000 0.19268  0.44379  0.51511  Biso   1.000  H
  C67      1.0000 0.66400  0.26100  0.56809  Biso   1.000  C
  H110     1.0000 0.55621  0.19268  0.51511  Biso   1.000  H
  C68      1.0000 0.26819  0.63732  0.57010  Biso   1.000  C
  O57      1.0000 0.68353  0.29012  0.54763  Biso   1.000  O
  C69      1.0000 0.70209  0.27282  0.58910  Biso   1.000  C
  H111     1.0000 0.66320  0.21962  0.56490  Biso   1.000  H
  H112     1.0000 0.23090  0.65310  0.56540  Biso   1.000  H
  C70      1.0000 0.28970  0.66392  0.59319  Biso   1.000  C
  C71      1.0000 0.31319  0.64881  0.55110  Biso   1.000  C
  C72      1.0000 0.68681  0.35119  0.55110  Biso   1.000  C
  O58      1.0000 0.67743  0.24908  0.60994  Biso   1.000  O
  C73      1.0000 0.71030  0.33613  0.59319  Biso   1.000  C
  H113     1.0000 0.73959  0.25489  0.58641  Biso   1.000  H
  O59      1.0000 0.24749  0.65621  0.61182  Biso   1.000  O
  H114     1.0000 0.32611  0.64620  0.59800  Biso   1.000  H
  C74      1.0000 0.29791  0.72722  0.58910  Biso   1.000  C
  O60      1.0000 0.31651  0.70992  0.54763  Biso   1.000  O
  H115     1.0000 0.35052  0.63479  0.55690  Biso   1.000  H
  C75      1.0000 0.30090  0.62263  0.52679  Biso   1.000  C
  C76      1.0000 0.73181  0.36273  0.57010  Biso   1.000  C
  H116     1.0000 0.64952  0.36521  0.55690  Biso   1.000  H
  C77      1.0000 0.69910  0.37741  0.52679  Biso   1.000  C
  H117     1.0000 0.69590  0.22450  0.61500  Biso   1.000  H
  O61      1.0000 0.75251  0.34379  0.61182  Biso   1.000  O
  H118     1.0000 0.67389  0.35380  0.59800  Biso   1.000  H
  H119     1.0000 0.23250  0.62431  0.61040  Biso   1.000  H
  O62      1.0000 0.32261  0.75092  0.60994  Biso   1.000  O
  H120     1.0000 0.26041  0.74511  0.58641  Biso   1.000  H
  C78      1.0000 0.33600  0.73900  0.56809  Biso   1.000  C
  O63      1.0000 0.24690  0.64140  0.51870  Biso   1.000  O
  H121     1.0000 0.33040  0.63391  0.51541  Biso   1.000  H
  H122     1.0000 0.30119  0.58100  0.52810  Biso   1.000  H
  O64      1.0000 0.73530  0.42249  0.57431  Biso   1.000  O
  H123     1.0000 0.76910  0.34690  0.56540  Biso   1.000  H
  O65      1.0000 0.75310  0.35860  0.51870  Biso   1.000  O
  H124     1.0000 0.66960  0.36609  0.51541  Biso   1.000  H
  H125     1.0000 0.69881  0.41900  0.52810  Biso   1.000  H
  H126     1.0000 0.76750  0.37569  0.61040  Biso   1.000  H
  H127     1.0000 0.30410  0.77550  0.61500  Biso   1.000  H
  O66      1.0000 0.39050  0.72040  0.57433  Biso   1.000  O
  H128     1.0000 0.33680  0.78042  0.56490  Biso   1.000  H
  H129     1.0000 0.23002  0.62002  0.50811  Biso   1.000  H
  C79      1.0000 0.78471  0.44821  0.56820  Biso   1.000  C
  H130     1.0000 0.77002  0.38002  0.50811  Biso   1.000  H
  C80      1.0000 0.43659  0.75992  0.56991  Biso   1.000  C
  O67      1.0000 0.77903  0.48091  0.54720  Biso   1.000  O
  C81      1.0000 0.80370  0.48369  0.58850  Biso   1.000  C
  H131     1.0000 0.81363  0.41841  0.56531  Biso   1.000  H
  H132     1.0000 0.42089  0.79721  0.56490  Biso   1.000  H
  C82      1.0000 0.46833  0.76640  0.59280  Biso   1.000  C
  C83      1.0000 0.47359  0.73770  0.55140  Biso   1.000  C
  C84      1.0000 0.73770  0.52641  0.55140  Biso   1.000  C
  O68      1.0000 0.80891  0.44859  0.61024  Biso   1.000  O
  C85      1.0000 0.76640  0.53171  0.59280  Biso   1.000  C
  H133     1.0000 0.84191  0.49880  0.58470  Biso   1.000  H
  O69      1.0000 0.43222  0.78943  0.61133  Biso   1.000  O
  H134     1.0000 0.48260  0.72869  0.59790  Biso   1.000  H
  C86      1.0000 0.51631  0.80370  0.58850  Biso   1.000  C
  O70      1.0000 0.51913  0.77903  0.54720  Biso   1.000  O
  H135     1.0000 0.48992  0.70083  0.55641  Biso   1.000  H
  C87      1.0000 0.44581  0.73210  0.52660  Biso   1.000  C
  C88      1.0000 0.75992  0.56341  0.56991  Biso   1.000  C
  H136     1.0000 0.70083  0.51012  0.55641  Biso   1.000  H
  C89      1.0000 0.73210  0.55419  0.52660  Biso   1.000  C
  H137     1.0000 0.81161  0.46980  0.62210  Biso   1.000  H
  O71      1.0000 0.78943  0.56783  0.61133  Biso   1.000  O
  H138     1.0000 0.72869  0.51740  0.59790  Biso   1.000  H
  H139     1.0000 0.40869  0.81173  0.60530  Biso   1.000  H
  O72      1.0000 0.55141  0.80891  0.61024  Biso   1.000  O
  H140     1.0000 0.50120  0.84191  0.58470  Biso   1.000  H
  C90      1.0000 0.55179  0.78471  0.56820  Biso   1.000  C
  O73      1.0000 0.42211  0.78172  0.51950  Biso   1.000  O
  H141     1.0000 0.47460  0.72040  0.51500  Biso   1.000  H
  H142     1.0000 0.41652  0.70251  0.52709  Biso   1.000  H
  O74      1.0000 0.72040  0.60950  0.57433  Biso   1.000  O
  H143     1.0000 0.79721  0.57911  0.56490  Biso   1.000  H
  O75      1.0000 0.78172  0.57793  0.51950  Biso   1.000  O
  H144     1.0000 0.72040  0.52540  0.51500  Biso   1.000  H
  H145     1.0000 0.70251  0.58353  0.52709  Biso   1.000  H
  H146     1.0000 0.81173  0.59131  0.60530  Biso   1.000  H
  H147     1.0000 0.53020  0.81161  0.62210  Biso   1.000  H
  H148     1.0000 0.58159  0.81363  0.56531  Biso   1.000  H
  O76      1.0000 0.57751  0.73530  0.57431  Biso   1.000  O
  H149     1.0000 0.44379  0.80732  0.51511  Biso   1.000  H
  C91      1.0000 0.73900  0.66400  0.56809  Biso   1.000  C
  H150     1.0000 0.80732  0.55621  0.51511  Biso   1.000  H
  C92      1.0000 0.63732  0.73181  0.57010  Biso   1.000  C
  O77      1.0000 0.70992  0.68353  0.54763  Biso   1.000  O
  C93      1.0000 0.72722  0.70209  0.58910  Biso   1.000  C
  H151     1.0000 0.78042  0.66320  0.56490  Biso   1.000  H
  H152     1.0000 0.65310  0.76910  0.56540  Biso   1.000  H
  C94      1.0000 0.66392  0.71030  0.59319  Biso   1.000  C
  C95      1.0000 0.64881  0.68681  0.55110  Biso   1.000  C
  O78      1.0000 0.75092  0.67743  0.60994  Biso   1.000  O
  H153     1.0000 0.74511  0.73959  0.58641  Biso   1.000  H
  O79      1.0000 0.65621  0.75251  0.61182  Biso   1.000  O
  H154     1.0000 0.64620  0.67389  0.59800  Biso   1.000  H
  H155     1.0000 0.63479  0.64952  0.55690  Biso   1.000  H
  C96      1.0000 0.62263  0.69910  0.52679  Biso   1.000  C
  H156     1.0000 0.77550  0.69590  0.61500  Biso   1.000  H
  H157     1.0000 0.62431  0.76750  0.61040  Biso   1.000  H
  O80      1.0000 0.64140  0.75310  0.51870  Biso   1.000  O
  H158     1.0000 0.63391  0.66960  0.51541  Biso   1.000  H
  H159     1.0000 0.58100  0.69881  0.52810  Biso   1.000  H
  H160     1.0000 0.62002  0.77002  0.50811  Biso   1.000  H
  O81      1.0000 0.27888  0.30990  0.34377  Biso   1.000  O
  C97      1.0000 0.28061  0.35132  0.32601  Biso   1.000  C
  H161     1.0000 0.27282  0.32522  0.35691  Biso   1.000  H
  C98      1.0000 0.29980  0.32400  0.30330  Biso   1.000  C
  C99      1.0000 0.22122  0.37489  0.32119  Biso   1.000  C
  H162     1.0000 0.30692  0.38242  0.33061  Biso   1.000  H
  C100     1.0000 0.30351  0.37051  0.28370  Biso   1.000  C
  O82      1.0000 0.35570  0.30132  0.30716  Biso   1.000  O
  H163     1.0000 0.27312  0.29362  0.29851  Biso   1.000  H
  C101     1.0000 0.22168  0.41580  0.30091  Biso   1.000  C
  O83      1.0000 0.19748  0.40242  0.34235  Biso   1.000  O
  H164     1.0000 0.19609  0.34269  0.31689  Biso   1.000  H
  C102     1.0000 0.32203  0.34783  0.26029  Biso   1.000  C
  O84      1.0000 0.24690  0.38979  0.28004  Biso   1.000  O
  H165     1.0000 0.32842  0.40221  0.28890  Biso   1.000  H
  C103     1.0000 0.36172  0.24420  0.30069  Biso   1.000  C
  O85      1.0000 0.25359  0.46391  0.30812  Biso   1.000  O
  H166     1.0000 0.18229  0.42763  0.29720  Biso   1.000  H
  H167     1.0000 0.20451  0.38310  0.35380  Biso   1.000  H
  O86      1.0000 0.28242  0.30422  0.25337  Biso   1.000  O
  H168     1.0000 0.32249  0.37821  0.24840  Biso   1.000  H
  H169     1.0000 0.36041  0.33192  0.26149  Biso   1.000  H
  O87      1.0000 0.39682  0.24029  0.28035  Biso   1.000  O
  H170     1.0000 0.32400  0.22732  0.29740  Biso   1.000  H
  C104     1.0000 0.38891  0.21449  0.32179  Biso   1.000  C
  C105     1.0000 0.22951  0.51812  0.30309  Biso   1.000  C
  Na1      1.0000 0.18389  0.33680  0.24080  Biso   1.000  Na
  H171     1.0000 0.29622  0.28511  0.24230  Biso   1.000  H
  C106     1.0000 0.45301  0.26230  0.28390  Biso   1.000  C
  O88      1.0000 0.35469  0.21701  0.34208  Biso   1.000  O
  H172     1.0000 0.39219  0.17391  0.31749  Biso   1.000  H
  C107     1.0000 0.44699  0.23469  0.32691  Biso   1.000  C
  C108     1.0000 0.23469  0.55301  0.32691  Biso   1.000  C
  H173     1.0000 0.18911  0.51421  0.29840  Biso   1.000  H
  C109     1.0000 0.26230  0.54699  0.28390  Biso   1.000  C
  C110     1.0000 0.48192  0.22951  0.30309  Biso   1.000  C
  C111     1.0000 0.48121  0.26011  0.25999  Biso   1.000  C
  H174     1.0000 0.45002  0.30262  0.28890  Biso   1.000  H
  H175     1.0000 0.35060  0.25068  0.34621  Biso   1.000  H
  O89      1.0000 0.47712  0.20110  0.34362  Biso   1.000  O
  H176     1.0000 0.44602  0.27489  0.33219  Biso   1.000  H
  O90      1.0000 0.20110  0.52292  0.34362  Biso   1.000  O
  C112     1.0000 0.21449  0.61109  0.32179  Biso   1.000  C
  H177     1.0000 0.27489  0.55402  0.33219  Biso   1.000  H
  O91      1.0000 0.24029  0.60322  0.28035  Biso   1.000  O
  C113     1.0000 0.26011  0.51879  0.25999  Biso   1.000  C
  H178     1.0000 0.30262  0.55002  0.28890  Biso   1.000  H
  H179     1.0000 0.48579  0.18911  0.29840  Biso   1.000  H
  O92      1.0000 0.53609  0.25359  0.30812  Biso   1.000  O
  O93      1.0000 0.48491  0.20241  0.25240  Biso   1.000  O
  H180     1.0000 0.45911  0.28221  0.24840  Biso   1.000  H
  H181     1.0000 0.51942  0.27670  0.26100  Biso   1.000  H
  H182     1.0000 0.46109  0.20321  0.35680  Biso   1.000  H
  H183     1.0000 0.20321  0.53891  0.35680  Biso   1.000  H
  O94      1.0000 0.21701  0.64531  0.34208  Biso   1.000  O
  C114     1.0000 0.24420  0.63833  0.30069  Biso   1.000  C
  H184     1.0000 0.17391  0.60781  0.31749  Biso   1.000  H
  O95      1.0000 0.20241  0.51509  0.25240  Biso   1.000  O
  H185     1.0000 0.28221  0.54089  0.24840  Biso   1.000  H
  H186     1.0000 0.27670  0.48062  0.26100  Biso   1.000  H
  C115     1.0000 0.58420  0.22168  0.30091  Biso   1.000  C
  H187     1.0000 0.50911  0.19959  0.24170  Biso   1.000  H
  H188     1.0000 0.25068  0.64940  0.34621  Biso   1.000  H
  O96      1.0000 0.30132  0.64430  0.30716  Biso   1.000  O
  H189     1.0000 0.22732  0.67600  0.29740  Biso   1.000  H
  H190     1.0000 0.19959  0.49089  0.24170  Biso   1.000  H
  O97      1.0000 0.61021  0.24690  0.28004  Biso   1.000  O
  H191     1.0000 0.57241  0.18229  0.29720  Biso   1.000  H
  C116     1.0000 0.62511  0.22122  0.32119  Biso   1.000  C
  C117     1.0000 0.32400  0.70020  0.30330  Biso   1.000  C
  C118     1.0000 0.62953  0.30351  0.28370  Biso   1.000  C
  O98      1.0000 0.59763  0.19748  0.34235  Biso   1.000  O
  H192     1.0000 0.65731  0.19609  0.31689  Biso   1.000  H
  C119     1.0000 0.64872  0.28061  0.32601  Biso   1.000  C
  C120     1.0000 0.35132  0.71943  0.32601  Biso   1.000  C
  H193     1.0000 0.29362  0.72692  0.29851  Biso   1.000  H
  C121     1.0000 0.37051  0.69649  0.28370  Biso   1.000  C
  C122     1.0000 0.67600  0.29980  0.30330  Biso   1.000  C
  H194     1.0000 0.59779  0.32842  0.28890  Biso   1.000  H
  C123     1.0000 0.65222  0.32203  0.26029  Biso   1.000  C
  H195     1.0000 0.61690  0.20451  0.35380  Biso   1.000  H
  O99      1.0000 0.69010  0.27888  0.34377  Biso   1.000  O
  H196     1.0000 0.61762  0.30692  0.33061  Biso   1.000  H
  O100     1.0000 0.30990  0.72112  0.34377  Biso   1.000  O
  C124     1.0000 0.37489  0.77882  0.32119  Biso   1.000  C
  H197     1.0000 0.38242  0.69313  0.33061  Biso   1.000  H
  O101     1.0000 0.38979  0.75310  0.28004  Biso   1.000  O
  H198     1.0000 0.40221  0.67162  0.28890  Biso   1.000  H
  C125     1.0000 0.34783  0.67802  0.26029  Biso   1.000  C
  O102     1.0000 0.69872  0.35570  0.30716  Biso   1.000  O
  H199     1.0000 0.70643  0.27312  0.29851  Biso   1.000  H
  O103     1.0000 0.69582  0.28242  0.25337  Biso   1.000  O
  H200     1.0000 0.62183  0.32249  0.24840  Biso   1.000  H
  H201     1.0000 0.66813  0.36041  0.26149  Biso   1.000  H
  H202     1.0000 0.67482  0.27282  0.35691  Biso   1.000  H
  H203     1.0000 0.32522  0.72722  0.35691  Biso   1.000  H
  O104     1.0000 0.40242  0.80252  0.34235  Biso   1.000  O
  C126     1.0000 0.41580  0.77832  0.30091  Biso   1.000  C
  H204     1.0000 0.34269  0.80391  0.31689  Biso   1.000  H
  O105     1.0000 0.30422  0.71762  0.25337  Biso   1.000  O
  H205     1.0000 0.37821  0.67751  0.24840  Biso   1.000  H
  H206     1.0000 0.33192  0.63963  0.26149  Biso   1.000  H
  C127     1.0000 0.75580  0.36172  0.30069  Biso   1.000  C
  Na2      1.0000 0.66320  0.18389  0.24080  Biso   1.000  Na
  H207     1.0000 0.71493  0.29622  0.24230  Biso   1.000  H
  H208     1.0000 0.38310  0.79553  0.35380  Biso   1.000  H
  O106     1.0000 0.46391  0.74641  0.30812  Biso   1.000  O
  H209     1.0000 0.42763  0.81771  0.29720  Biso   1.000  H
  Na3      1.0000 0.33680  0.81611  0.24080  Biso   1.000  Na
  H210     1.0000 0.28511  0.70382  0.24230  Biso   1.000  H
  O107     1.0000 0.75971  0.39682  0.28035  Biso   1.000  O
  H211     1.0000 0.77272  0.32400  0.29740  Biso   1.000  H
  C128     1.0000 0.78551  0.38891  0.32179  Biso   1.000  C
  C129     1.0000 0.51812  0.77053  0.30309  Biso   1.000  C
  C130     1.0000 0.73770  0.45301  0.28390  Biso   1.000  C
  O108     1.0000 0.78303  0.35469  0.34208  Biso   1.000  O
  H212     1.0000 0.82613  0.39219  0.31749  Biso   1.000  H
  C131     1.0000 0.76531  0.44699  0.32691  Biso   1.000  C
  C132     1.0000 0.55301  0.76531  0.32691  Biso   1.000  C
  H213     1.0000 0.51421  0.81089  0.29840  Biso   1.000  H
  C133     1.0000 0.54699  0.73770  0.28390  Biso   1.000  C
  C134     1.0000 0.77053  0.48192  0.30309  Biso   1.000  C
  C135     1.0000 0.73993  0.48121  0.25999  Biso   1.000  C
  H214     1.0000 0.69742  0.45002  0.28890  Biso   1.000  H
  H215     1.0000 0.74932  0.35060  0.34621  Biso   1.000  H
  O109     1.0000 0.79890  0.47712  0.34362  Biso   1.000  O
  H216     1.0000 0.72511  0.44602  0.33219  Biso   1.000  H
  O110     1.0000 0.52292  0.79890  0.34362  Biso   1.000  O
  C136     1.0000 0.61109  0.78551  0.32179  Biso   1.000  C
  H217     1.0000 0.55402  0.72511  0.33219  Biso   1.000  H
  O111     1.0000 0.60322  0.75971  0.28035  Biso   1.000  O
  C137     1.0000 0.51879  0.73993  0.25999  Biso   1.000  C
  H218     1.0000 0.55002  0.69742  0.28890  Biso   1.000  H
  H219     1.0000 0.81089  0.48579  0.29840  Biso   1.000  H
  O112     1.0000 0.74641  0.53609  0.30812  Biso   1.000  O
  O113     1.0000 0.79759  0.48491  0.25240  Biso   1.000  O
  H220     1.0000 0.71779  0.45911  0.24840  Biso   1.000  H
  H221     1.0000 0.72330  0.51942  0.26100  Biso   1.000  H
  H222     1.0000 0.79679  0.46109  0.35680  Biso   1.000  H
  H223     1.0000 0.53891  0.79679  0.35680  Biso   1.000  H
  O114     1.0000 0.64531  0.78303  0.34208  Biso   1.000  O
  C138     1.0000 0.63833  0.75580  0.30069  Biso   1.000  C
  H224     1.0000 0.60781  0.82613  0.31749  Biso   1.000  H
  O115     1.0000 0.51509  0.79759  0.25240  Biso   1.000  O
  H225     1.0000 0.54089  0.71779  0.24840  Biso   1.000  H
  H226     1.0000 0.48062  0.72330  0.26100  Biso   1.000  H
  C139     1.0000 0.77832  0.58420  0.30091  Biso   1.000  C
  H227     1.0000 0.80041  0.50911  0.24170  Biso   1.000  H
  H228     1.0000 0.64940  0.74932  0.34621  Biso   1.000  H
  O116     1.0000 0.64430  0.69872  0.30716  Biso   1.000  O
  H229     1.0000 0.67600  0.77272  0.29740  Biso   1.000  H
  H230     1.0000 0.49089  0.80041  0.24170  Biso   1.000  H
  O117     1.0000 0.75310  0.61021  0.28004  Biso   1.000  O
  H231     1.0000 0.81771  0.57241  0.29720  Biso   1.000  H
  C140     1.0000 0.77882  0.62511  0.32119  Biso   1.000  C
  C141     1.0000 0.70020  0.67600  0.30330  Biso   1.000  C
  C142     1.0000 0.69649  0.62953  0.28370  Biso   1.000  C
  C143     1.0000 0.71943  0.64872  0.32601  Biso   1.000  C
  O118     1.0000 0.80252  0.59763  0.34235  Biso   1.000  O
  H232     1.0000 0.80391  0.65731  0.31689  Biso   1.000  H
  H233     1.0000 0.72692  0.70643  0.29851  Biso   1.000  H
  H234     1.0000 0.67162  0.59779  0.28890  Biso   1.000  H
  C144     1.0000 0.67802  0.65222  0.26029  Biso   1.000  C
  O119     1.0000 0.72112  0.69010  0.34377  Biso   1.000  O
  H235     1.0000 0.69313  0.61762  0.33061  Biso   1.000  H
  H236     1.0000 0.79553  0.61690  0.35380  Biso   1.000  H
  O120     1.0000 0.71762  0.69582  0.25337  Biso   1.000  O
  H237     1.0000 0.67751  0.62183  0.24840  Biso   1.000  H
  H238     1.0000 0.63963  0.66813  0.26149  Biso   1.000  H
  H239     1.0000 0.72722  0.67482  0.35691  Biso   1.000  H
  Na4      1.0000 0.81611  0.66320  0.24080  Biso   1.000  Na
  H240     1.0000 0.70382  0.71493  0.24230  Biso   1.000  H
  O121     1.0000 0.30990  0.27888  0.65623  Biso   1.000  O
  H241     1.0000 0.32522  0.27282  0.64309  Biso   1.000  H
  C145     1.0000 0.35132  0.28061  0.67399  Biso   1.000  C
  C146     1.0000 0.37489  0.22122  0.67881  Biso   1.000  C
  H242     1.0000 0.38242  0.30692  0.66939  Biso   1.000  H
  C147     1.0000 0.32400  0.29980  0.69670  Biso   1.000  C
  O122     1.0000 0.40242  0.19748  0.65765  Biso   1.000  O
  C148     1.0000 0.41580  0.22168  0.69909  Biso   1.000  C
  H243     1.0000 0.34269  0.19609  0.68311  Biso   1.000  H
  O123     1.0000 0.30132  0.35570  0.69284  Biso   1.000  O
  H244     1.0000 0.29362  0.27312  0.70149  Biso   1.000  H
  C149     1.0000 0.37051  0.30351  0.71630  Biso   1.000  C
  H245     1.0000 0.38310  0.20451  0.64620  Biso   1.000  H
  O124     1.0000 0.46391  0.25359  0.69188  Biso   1.000  O
  O125     1.0000 0.38979  0.24690  0.71996  Biso   1.000  O
  H246     1.0000 0.42763  0.18229  0.70280  Biso   1.000  H
  C150     1.0000 0.24420  0.36172  0.69931  Biso   1.000  C
  H247     1.0000 0.40221  0.32842  0.71110  Biso   1.000  H
  C151     1.0000 0.34783  0.32203  0.73971  Biso   1.000  C
  C152     1.0000 0.51812  0.22951  0.69691  Biso   1.000  C
  O126     1.0000 0.24029  0.39682  0.71965  Biso   1.000  O
  H248     1.0000 0.22732  0.32400  0.70260  Biso   1.000  H
  C153     1.0000 0.21449  0.38891  0.67821  Biso   1.000  C
  O127     1.0000 0.30422  0.28242  0.74663  Biso   1.000  O
  H249     1.0000 0.37821  0.32249  0.75160  Biso   1.000  H
  H250     1.0000 0.33192  0.36041  0.73851  Biso   1.000  H
  C154     1.0000 0.55301  0.23469  0.67309  Biso   1.000  C
  H251     1.0000 0.51421  0.18911  0.70160  Biso   1.000  H
  C155     1.0000 0.54699  0.26230  0.71610  Biso   1.000  C
  C156     1.0000 0.26230  0.45301  0.71610  Biso   1.000  C
  O128     1.0000 0.21701  0.35469  0.65792  Biso   1.000  O
  H252     1.0000 0.17391  0.39219  0.68251  Biso   1.000  H
  C157     1.0000 0.23469  0.44699  0.67309  Biso   1.000  C
  Na5      1.0000 0.33680  0.18389  0.75920  Biso   1.000  Na
  H253     1.0000 0.28511  0.29622  0.75770  Biso   1.000  H
  O129     1.0000 0.52292  0.20110  0.65638  Biso   1.000  O
  C158     1.0000 0.61109  0.21449  0.67821  Biso   1.000  C
  H254     1.0000 0.55402  0.27489  0.66781  Biso   1.000  H
  O130     1.0000 0.60322  0.24029  0.71965  Biso   1.000  O
  C159     1.0000 0.51879  0.26011  0.74001  Biso   1.000  C
  H255     1.0000 0.55002  0.30262  0.71110  Biso   1.000  H
  C160     1.0000 0.22951  0.48192  0.69691  Biso   1.000  C
  C161     1.0000 0.26011  0.48121  0.74001  Biso   1.000  C
  H256     1.0000 0.30262  0.45002  0.71110  Biso   1.000  H
  H257     1.0000 0.25068  0.35060  0.65379  Biso   1.000  H
  O131     1.0000 0.20110  0.47712  0.65638  Biso   1.000  O
  H258     1.0000 0.27489  0.44602  0.66781  Biso   1.000  H
  H259     1.0000 0.53891  0.20321  0.64320  Biso   1.000  H
  O132     1.0000 0.64531  0.21701  0.65792  Biso   1.000  O
  C162     1.0000 0.63833  0.24420  0.69931  Biso   1.000  C
  H260     1.0000 0.60781  0.17391  0.68251  Biso   1.000  H
  O133     1.0000 0.51509  0.20241  0.74760  Biso   1.000  O
  H261     1.0000 0.54089  0.28221  0.75160  Biso   1.000  H
  H262     1.0000 0.48062  0.27670  0.73900  Biso   1.000  H
  O134     1.0000 0.25359  0.53609  0.69188  Biso   1.000  O
  H263     1.0000 0.18911  0.48579  0.70160  Biso   1.000  H
  O135     1.0000 0.20241  0.48491  0.74760  Biso   1.000  O
  H264     1.0000 0.28221  0.45911  0.75160  Biso   1.000  H
  H265     1.0000 0.27670  0.51942  0.73900  Biso   1.000  H
  H266     1.0000 0.20321  0.46109  0.64320  Biso   1.000  H
  H267     1.0000 0.64940  0.25068  0.65379  Biso   1.000  H
  O136     1.0000 0.64430  0.30132  0.69284  Biso   1.000  O
  H268     1.0000 0.67600  0.22732  0.70260  Biso   1.000  H
  H269     1.0000 0.49089  0.19959  0.75830  Biso   1.000  H
  C163     1.0000 0.22168  0.58420  0.69909  Biso   1.000  C
  H270     1.0000 0.19959  0.50911  0.75830  Biso   1.000  H
  C164     1.0000 0.70020  0.32400  0.69670  Biso   1.000  C
  O137     1.0000 0.24690  0.61021  0.71996  Biso   1.000  O
  H271     1.0000 0.18229  0.57241  0.70280  Biso   1.000  H
  C165     1.0000 0.22122  0.62511  0.67881  Biso   1.000  C
  C166     1.0000 0.71943  0.35132  0.67399  Biso   1.000  C
  H272     1.0000 0.72692  0.29362  0.70149  Biso   1.000  H
  C167     1.0000 0.69649  0.37051  0.71630  Biso   1.000  C
  C168     1.0000 0.30351  0.62953  0.71630  Biso   1.000  C
  O138     1.0000 0.19748  0.59763  0.65765  Biso   1.000  O
  H273     1.0000 0.19609  0.65731  0.68311  Biso   1.000  H
  C169     1.0000 0.28061  0.64872  0.67399  Biso   1.000  C
  O139     1.0000 0.72112  0.30990  0.65623  Biso   1.000  O
  C170     1.0000 0.77882  0.37489  0.67881  Biso   1.000  C
  H274     1.0000 0.69313  0.38242  0.66939  Biso   1.000  H
  O140     1.0000 0.75310  0.38979  0.71996  Biso   1.000  O
  H275     1.0000 0.67162  0.40221  0.71110  Biso   1.000  H
  C171     1.0000 0.67802  0.34783  0.73971  Biso   1.000  C
  C172     1.0000 0.29980  0.67600  0.69670  Biso   1.000  C
  H276     1.0000 0.32842  0.59779  0.71110  Biso   1.000  H
  C173     1.0000 0.32203  0.65222  0.73971  Biso   1.000  C
  H277     1.0000 0.20451  0.61690  0.64620  Biso   1.000  H
  O141     1.0000 0.27888  0.69010  0.65623  Biso   1.000  O
  H278     1.0000 0.30692  0.61762  0.66939  Biso   1.000  H
  H279     1.0000 0.72722  0.32522  0.64309  Biso   1.000  H
  O142     1.0000 0.80252  0.40242  0.65765  Biso   1.000  O
  C174     1.0000 0.77832  0.41580  0.69909  Biso   1.000  C
  H280     1.0000 0.80391  0.34269  0.68311  Biso   1.000  H
  O143     1.0000 0.71762  0.30422  0.74663  Biso   1.000  O
  H281     1.0000 0.67751  0.37821  0.75160  Biso   1.000  H
  H282     1.0000 0.63963  0.33192  0.73851  Biso   1.000  H
  O144     1.0000 0.35570  0.69872  0.69284  Biso   1.000  O
  H283     1.0000 0.27312  0.70643  0.70149  Biso   1.000  H
  O145     1.0000 0.28242  0.69582  0.74663  Biso   1.000  O
  H284     1.0000 0.32249  0.62183  0.75160  Biso   1.000  H
  H285     1.0000 0.36041  0.66813  0.73851  Biso   1.000  H
  H286     1.0000 0.27282  0.67482  0.64309  Biso   1.000  H
  H287     1.0000 0.79553  0.38310  0.64620  Biso   1.000  H
  O146     1.0000 0.74641  0.46391  0.69188  Biso   1.000  O
  H288     1.0000 0.81771  0.42763  0.70280  Biso   1.000  H
  Na6      1.0000 0.81611  0.33680  0.75920  Biso   1.000  Na
  H289     1.0000 0.70382  0.28511  0.75770  Biso   1.000  H
  C175     1.0000 0.36172  0.75580  0.69931  Biso   1.000  C
  Na7      1.0000 0.18389  0.66320  0.75920  Biso   1.000  Na
  H290     1.0000 0.29622  0.71493  0.75770  Biso   1.000  H
  C176     1.0000 0.77053  0.51812  0.69691  Biso   1.000  C
  O147     1.0000 0.39682  0.75971  0.71965  Biso   1.000  O
  H291     1.0000 0.32400  0.77272  0.70260  Biso   1.000  H
  C177     1.0000 0.38891  0.78551  0.67821  Biso   1.000  C
  C178     1.0000 0.76531  0.55301  0.67309  Biso   1.000  C
  H292     1.0000 0.81089  0.51421  0.70160  Biso   1.000  H
  C179     1.0000 0.73770  0.54699  0.71610  Biso   1.000  C
  C180     1.0000 0.45301  0.73770  0.71610  Biso   1.000  C
  O148     1.0000 0.35469  0.78303  0.65792  Biso   1.000  O
  H293     1.0000 0.39219  0.82613  0.68251  Biso   1.000  H
  C181     1.0000 0.44699  0.76531  0.67309  Biso   1.000  C
  O149     1.0000 0.79890  0.52292  0.65638  Biso   1.000  O
  C182     1.0000 0.78551  0.61109  0.67821  Biso   1.000  C
  H294     1.0000 0.72511  0.55402  0.66781  Biso   1.000  H
  O150     1.0000 0.75971  0.60322  0.71965  Biso   1.000  O
  C183     1.0000 0.73993  0.51879  0.74001  Biso   1.000  C
  H295     1.0000 0.69742  0.55002  0.71110  Biso   1.000  H
  C184     1.0000 0.48192  0.77053  0.69691  Biso   1.000  C
  C185     1.0000 0.48121  0.73993  0.74001  Biso   1.000  C
  H296     1.0000 0.45002  0.69742  0.71110  Biso   1.000  H
  H297     1.0000 0.35060  0.74932  0.65379  Biso   1.000  H
  O151     1.0000 0.47712  0.79890  0.65638  Biso   1.000  O
  H298     1.0000 0.44602  0.72511  0.66781  Biso   1.000  H
  H299     1.0000 0.79679  0.53891  0.64320  Biso   1.000  H
  O152     1.0000 0.78303  0.64531  0.65792  Biso   1.000  O
  C186     1.0000 0.75580  0.63833  0.69931  Biso   1.000  C
  H300     1.0000 0.82613  0.60781  0.68251  Biso   1.000  H
  O153     1.0000 0.79759  0.51509  0.74760  Biso   1.000  O
  H301     1.0000 0.71779  0.54089  0.75160  Biso   1.000  H
  H302     1.0000 0.72330  0.48062  0.73900  Biso   1.000  H
  H303     1.0000 0.48579  0.81089  0.70160  Biso   1.000  H
  O154     1.0000 0.53609  0.74641  0.69188  Biso   1.000  O
  O155     1.0000 0.48491  0.79759  0.74760  Biso   1.000  O
  H304     1.0000 0.45911  0.71779  0.75160  Biso   1.000  H
  H305     1.0000 0.51942  0.72330  0.73900  Biso   1.000  H
  H306     1.0000 0.46109  0.79679  0.64320  Biso   1.000  H
  H307     1.0000 0.74932  0.64940  0.65379  Biso   1.000  H
  O156     1.0000 0.69872  0.64430  0.69284  Biso   1.000  O
  H308     1.0000 0.77272  0.67600  0.70260  Biso   1.000  H
  H309     1.0000 0.80041  0.49089  0.75830  Biso   1.000  H
  C187     1.0000 0.58420  0.77832  0.69909  Biso   1.000  C
  H310     1.0000 0.50911  0.80041  0.75830  Biso   1.000  H
  C188     1.0000 0.67600  0.70020  0.69670  Biso   1.000  C
  O157     1.0000 0.61021  0.75310  0.71996  Biso   1.000  O
  H311     1.0000 0.57241  0.81771  0.70280  Biso   1.000  H
  C189     1.0000 0.62511  0.77882  0.67881  Biso   1.000  C
  C190     1.0000 0.64872  0.71943  0.67399  Biso   1.000  C
  H312     1.0000 0.70643  0.72692  0.70149  Biso   1.000  H
  C191     1.0000 0.62953  0.69649  0.71630  Biso   1.000  C
  O158     1.0000 0.59763  0.80252  0.65765  Biso   1.000  O
  H313     1.0000 0.65731  0.80391  0.68311  Biso   1.000  H
  O159     1.0000 0.69010  0.72112  0.65623  Biso   1.000  O
  H314     1.0000 0.61762  0.69313  0.66939  Biso   1.000  H
  H315     1.0000 0.59779  0.67162  0.71110  Biso   1.000  H
  C192     1.0000 0.65222  0.67802  0.73971  Biso   1.000  C
  H316     1.0000 0.61690  0.79553  0.64620  Biso   1.000  H
  H317     1.0000 0.67482  0.72722  0.64309  Biso   1.000  H
  O160     1.0000 0.69582  0.71762  0.74663  Biso   1.000  O
  H318     1.0000 0.62183  0.67751  0.75160  Biso   1.000  H
  H319     1.0000 0.66813  0.63963  0.73851  Biso   1.000  H
  Na8      1.0000 0.66320  0.81611  0.75920  Biso   1.000  Na
  H320     1.0000 0.71493  0.70382  0.75770  Biso   1.000  H
  O161     1.0000 0.06212  0.69300  0.37894  Biso   1.000  O
  C193     1.0000 0.09432  0.70841  0.35800  Biso   1.000  C
  H321     1.0000 0.07332  0.65891  0.38100  Biso   1.000  H
  C194     1.0000 0.05371  0.71329  0.33679  Biso   1.000  C
  C195     1.0000 0.05371  0.71333  0.33679  Biso   1.000  C
  C196     1.0000 0.12458  0.76278  0.36230  Biso   1.000  C
  C197     1.0000 0.12458  0.76283  0.36230  Biso   1.000  C
  C198     1.0000 0.12463  0.76278  0.36230  Biso   1.000  C
  C199     1.0000 0.12463  0.76283  0.36230  Biso   1.000  C
  O162     1.0000 0.06208  0.69300  0.37894  Biso   1.000  O
  H322     1.0000 0.12252  0.67819  0.35470  Biso   1.000  H
  H323     1.0000 0.12252  0.67823  0.35470  Biso   1.000  H
  O163     1.0000 0.08308  0.73219  0.31665  Biso   1.000  O
  O164     1.0000 0.08308  0.73223  0.31665  Biso   1.000  O
  O165     1.0000 0.08313  0.73219  0.31665  Biso   1.000  O
  O166     1.0000 0.08313  0.73223  0.31665  Biso   1.000  O
  O167     1.0000 0.01048  0.75121  0.34360  Biso   1.000  O
  H324     1.0000 0.03679  0.67558  0.33350  Biso   1.000  H
  H325     1.0000 0.03679  0.67562  0.33350  Biso   1.000  H
  O168     1.0000 0.01052  0.75121  0.34360  Biso   1.000  O
  H326     1.0000 0.03683  0.67558  0.33350  Biso   1.000  H
  H327     1.0000 0.03683  0.67562  0.33350  Biso   1.000  H
  C200     1.0000 0.15480  0.77958  0.33900  Biso   1.000  C
  C201     1.0000 0.15480  0.77962  0.33900  Biso   1.000  C
  O169     1.0000 0.16608  0.75601  0.38095  Biso   1.000  O
  H328     1.0000 0.09702  0.79258  0.36679  Biso   1.000  H
  H329     1.0000 0.09702  0.79263  0.36679  Biso   1.000  H
  O170     1.0000 0.16613  0.75601  0.38095  Biso   1.000  O
  C202     1.0000 0.10910  0.78720  0.31970  Biso   1.000  C
  C203     1.0000 0.10914  0.78720  0.31970  Biso   1.000  C
  C204     1.0000 0.95379  0.73568  0.33880  Biso   1.000  C
  C205     1.0000 0.95379  0.73572  0.33880  Biso   1.000  C
  C206     1.0000 0.95383  0.73568  0.33880  Biso   1.000  C
  C207     1.0000 0.95383  0.73572  0.33880  Biso   1.000  C
  O171     1.0000 0.18069  0.83358  0.34409  Biso   1.000  O
  H330     1.0000 0.18351  0.75100  0.33431  Biso   1.000  H
  O172     1.0000 0.18069  0.83362  0.34409  Biso   1.000  O
  O173     1.0000 0.18073  0.83358  0.34409  Biso   1.000  O
  O174     1.0000 0.18073  0.83362  0.34409  Biso   1.000  O
  H331     1.0000 0.19079  0.78160  0.37760  Biso   1.000  H
  H332     1.0000 0.19083  0.78160  0.37760  Biso   1.000  H
  C208     1.0000 0.13321  0.80050  0.29601  Biso   1.000  C
  H333     1.0000 0.08060  0.81599  0.32451  Biso   1.000  H
  H334     1.0000 0.08060  0.81603  0.32451  Biso   1.000  H
  C209     1.0000 0.92209  0.74191  0.36219  Biso   1.000  C
  H335     1.0000 0.95269  0.69540  0.33380  Biso   1.000  H
  C210     1.0000 0.92702  0.77070  0.32051  Biso   1.000  C
  C211     1.0000 0.92213  0.74191  0.36219  Biso   1.000  C
  H336     1.0000 0.95273  0.69540  0.33380  Biso   1.000  H
  C212     1.0000 0.23780  0.83728  0.33790  Biso   1.000  C
  C213     1.0000 0.23780  0.83732  0.33790  Biso   1.000  C
  O175     1.0000 0.17172  0.75799  0.28726  Biso   1.000  O
  O176     1.0000 0.17168  0.75799  0.28726  Biso   1.000  O
  H337     1.0000 0.10198  0.80479  0.28460  Biso   1.000  H
  H338     1.0000 0.15329  0.83690  0.29690  Biso   1.000  H
  O177     1.0000 0.17168  0.75803  0.28726  Biso   1.000  O
  H339     1.0000 0.10198  0.80483  0.28460  Biso   1.000  H
  H340     1.0000 0.10202  0.80479  0.28460  Biso   1.000  H
  H341     1.0000 0.15333  0.83690  0.29690  Biso   1.000  H
  O178     1.0000 0.17172  0.75803  0.28726  Biso   1.000  O
  H342     1.0000 0.10202  0.80483  0.28460  Biso   1.000  H
  O179     1.0000 0.94570  0.70298  0.37885  Biso   1.000  O
  C214     1.0000 0.86081  0.72789  0.35789  Biso   1.000  C
  H343     1.0000 0.92571  0.78130  0.36820  Biso   1.000  H
  O180     1.0000 0.94570  0.70302  0.37885  Biso   1.000  O
  O181     1.0000 0.86902  0.75479  0.31658  Biso   1.000  O
  H344     1.0000 0.92799  0.81089  0.32571  Biso   1.000  H
  C215     1.0000 0.95442  0.76649  0.29601  Biso   1.000  C
  O182     1.0000 0.86902  0.75483  0.31658  Biso   1.000  O
  C216     1.0000 0.95442  0.76653  0.29601  Biso   1.000  C
  H345     1.0000 0.92803  0.81089  0.32571  Biso   1.000  H
  O183     1.0000 0.24521  0.86902  0.31658  Biso   1.000  O
  H346     1.0000 0.25148  0.79818  0.33491  Biso   1.000  H
  C217     1.0000 0.27211  0.86081  0.35789  Biso   1.000  C
  H347     1.0000 0.25148  0.79822  0.33491  Biso   1.000  H
  H348     1.0000 0.25153  0.79818  0.33491  Biso   1.000  H
  H349     1.0000 0.25153  0.79822  0.33491  Biso   1.000  H
  H350     1.0000 0.15569  0.72638  0.28730  Biso   1.000  H
  H351     1.0000 0.15569  0.72642  0.28730  Biso   1.000  H
  H352     1.0000 0.15573  0.72638  0.28730  Biso   1.000  H
  H353     1.0000 0.15573  0.72642  0.28730  Biso   1.000  H
  H354     1.0000 0.93800  0.66968  0.37929  Biso   1.000  H
  H355     1.0000 0.93800  0.66973  0.37929  Biso   1.000  H
  O184     1.0000 0.82878  0.73850  0.37913  Biso   1.000  O
  C218     1.0000 0.83728  0.76220  0.33790  Biso   1.000  C
  H356     1.0000 0.85761  0.68711  0.35389  Biso   1.000  H
  O185     1.0000 0.82882  0.73850  0.37913  Biso   1.000  O
  C219     1.0000 0.83732  0.76220  0.33790  Biso   1.000  C
  O186     1.0000 0.94911  0.70319  0.28790  Biso   1.000  O
  H357     1.0000 0.99449  0.77781  0.29680  Biso   1.000  H
  H358     1.0000 0.93489  0.79162  0.28471  Biso   1.000  H
  O187     1.0000 0.94911  0.70323  0.28790  Biso   1.000  O
  H359     1.0000 0.99453  0.77781  0.29680  Biso   1.000  H
  H360     1.0000 0.93493  0.79162  0.28471  Biso   1.000  H
  C220     1.0000 0.22930  0.92702  0.32051  Biso   1.000  C
  O188     1.0000 0.26150  0.82878  0.37913  Biso   1.000  O
  H361     1.0000 0.31289  0.85761  0.35389  Biso   1.000  H
  C221     1.0000 0.25809  0.92209  0.36219  Biso   1.000  C
  O189     1.0000 0.26150  0.82882  0.37913  Biso   1.000  O
  C222     1.0000 0.25809  0.92213  0.36219  Biso   1.000  C
  H362     1.0000 0.31293  0.85761  0.35389  Biso   1.000  H
  C223     1.0000 0.25813  0.92209  0.36219  Biso   1.000  C
  C224     1.0000 0.25813  0.92213  0.36219  Biso   1.000  C
  H363     1.0000 0.80471  0.71510  0.38130  Biso   1.000  H
  O190     1.0000 0.83358  0.81931  0.34409  Biso   1.000  O
  H364     1.0000 0.79818  0.74852  0.33491  Biso   1.000  H
  O191     1.0000 0.83362  0.81931  0.34409  Biso   1.000  O
  H365     1.0000 0.79822  0.74852  0.33491  Biso   1.000  H
  H366     1.0000 0.95139  0.68202  0.29971  Biso   1.000  H
  H367     1.0000 0.95143  0.68202  0.29971  Biso   1.000  H
  C225     1.0000 0.26432  0.95379  0.33880  Biso   1.000  C
  H368     1.0000 0.18911  0.92799  0.32571  Biso   1.000  H
  C226     1.0000 0.23351  0.95442  0.29601  Biso   1.000  C
  C227     1.0000 0.26432  0.95383  0.33880  Biso   1.000  C
  H369     1.0000 0.18911  0.92803  0.32571  Biso   1.000  H
  H370     1.0000 0.28490  0.80471  0.38130  Biso   1.000  H
  O192     1.0000 0.29702  0.94570  0.37885  Biso   1.000  O
  H371     1.0000 0.21870  0.92571  0.36820  Biso   1.000  H
  H372     1.0000 0.21874  0.92571  0.36820  Biso   1.000  H
  C228     1.0000 0.77958  0.84520  0.33900  Biso   1.000  C
  C229     1.0000 0.77962  0.84520  0.33900  Biso   1.000  C
  H373     1.0000 0.30460  0.95269  0.33380  Biso   1.000  H
  H374     1.0000 0.30460  0.95273  0.33380  Biso   1.000  H
  H375     1.0000 0.30464  0.95269  0.33380  Biso   1.000  H
  H376     1.0000 0.30464  0.95273  0.33380  Biso   1.000  H
  O193     1.0000 0.24879  0.01048  0.34360  Biso   1.000  O
  O194     1.0000 0.24879  0.01052  0.34360  Biso   1.000  O
  O195     1.0000 0.24883  0.01048  0.34360  Biso   1.000  O
  O196     1.0000 0.24883  0.01052  0.34360  Biso   1.000  O
  O197     1.0000 0.29681  0.94911  0.28790  Biso   1.000  O
  H377     1.0000 0.22219  0.99449  0.29680  Biso   1.000  H
  H378     1.0000 0.20838  0.93489  0.28471  Biso   1.000  H
  H379     1.0000 0.22219  0.99453  0.29680  Biso   1.000  H
  H380     1.0000 0.20838  0.93493  0.28471  Biso   1.000  H
  H381     1.0000 0.22223  0.99449  0.29680  Biso   1.000  H
  H382     1.0000 0.20843  0.93489  0.28471  Biso   1.000  H
  H383     1.0000 0.22223  0.99453  0.29680  Biso   1.000  H
  H384     1.0000 0.20843  0.93493  0.28471  Biso   1.000  H
  H385     1.0000 0.33032  0.93800  0.37929  Biso   1.000  H
  C230     1.0000 0.76278  0.87542  0.36230  Biso   1.000  C
  H386     1.0000 0.75100  0.81649  0.33431  Biso   1.000  H
  C231     1.0000 0.78720  0.89090  0.31970  Biso   1.000  C
  H387     1.0000 0.75100  0.81653  0.33431  Biso   1.000  H
  C232     1.0000 0.76283  0.87542  0.36230  Biso   1.000  C
  C233     1.0000 0.28671  0.05371  0.33679  Biso   1.000  C
  H388     1.0000 0.31798  0.95139  0.29971  Biso   1.000  H
  H389     1.0000 0.31798  0.95143  0.29971  Biso   1.000  H
  H390     1.0000 0.31803  0.95139  0.29971  Biso   1.000  H
  H391     1.0000 0.31803  0.95143  0.29971  Biso   1.000  H
  O198     1.0000 0.75601  0.83392  0.38095  Biso   1.000  O
  C234     1.0000 0.70841  0.90568  0.35800  Biso   1.000  C
  H392     1.0000 0.79258  0.90298  0.36679  Biso   1.000  H
  C235     1.0000 0.70841  0.90572  0.35800  Biso   1.000  C
  H393     1.0000 0.79258  0.90303  0.36679  Biso   1.000  H
  H394     1.0000 0.79263  0.90298  0.36679  Biso   1.000  H
  H395     1.0000 0.79263  0.90303  0.36679  Biso   1.000  H
  O199     1.0000 0.73219  0.91692  0.31665  Biso   1.000  O
  H396     1.0000 0.81599  0.91940  0.32451  Biso   1.000  H
  C236     1.0000 0.80050  0.86679  0.29601  Biso   1.000  C
  C237     1.0000 0.80050  0.86683  0.29601  Biso   1.000  C
  O200     1.0000 0.73223  0.91692  0.31665  Biso   1.000  O
  H397     1.0000 0.81603  0.91940  0.32451  Biso   1.000  H
  O201     1.0000 0.26781  0.08308  0.31665  Biso   1.000  O
  H398     1.0000 0.32442  0.03679  0.33350  Biso   1.000  H
  C238     1.0000 0.29159  0.09432  0.35800  Biso   1.000  C
  O202     1.0000 0.26781  0.08313  0.31665  Biso   1.000  O
  H399     1.0000 0.32442  0.03683  0.33350  Biso   1.000  H
  C239     1.0000 0.29164  0.09432  0.35800  Biso   1.000  C
  H400     1.0000 0.78160  0.80921  0.37760  Biso   1.000  H
  O203     1.0000 0.69300  0.93792  0.37894  Biso   1.000  O
  C240     1.0000 0.71329  0.94629  0.33679  Biso   1.000  C
  H401     1.0000 0.67819  0.87748  0.35470  Biso   1.000  H
  C241     1.0000 0.71329  0.94634  0.33679  Biso   1.000  C
  H402     1.0000 0.67819  0.87752  0.35470  Biso   1.000  H
  C242     1.0000 0.71333  0.94629  0.33679  Biso   1.000  C
  H403     1.0000 0.67823  0.87748  0.35470  Biso   1.000  H
  C243     1.0000 0.71333  0.94634  0.33679  Biso   1.000  C
  H404     1.0000 0.67823  0.87752  0.35470  Biso   1.000  H
  O204     1.0000 0.75799  0.82832  0.28726  Biso   1.000  O
  H405     1.0000 0.80479  0.89802  0.28460  Biso   1.000  H
  H406     1.0000 0.83690  0.84671  0.29690  Biso   1.000  H
  O205     1.0000 0.75803  0.82832  0.28726  Biso   1.000  O
  H407     1.0000 0.80483  0.89802  0.28460  Biso   1.000  H
  C244     1.0000 0.21280  0.10910  0.31970  Biso   1.000  C
  C245     1.0000 0.21280  0.10914  0.31970  Biso   1.000  C
  O206     1.0000 0.30700  0.06208  0.37894  Biso   1.000  O
  H408     1.0000 0.32181  0.12252  0.35470  Biso   1.000  H
  C246     1.0000 0.23722  0.12458  0.36230  Biso   1.000  C
  O207     1.0000 0.30700  0.06212  0.37894  Biso   1.000  O
  C247     1.0000 0.23722  0.12463  0.36230  Biso   1.000  C
  O208     1.0000 0.30704  0.06208  0.37894  Biso   1.000  O
  O209     1.0000 0.30704  0.06212  0.37894  Biso   1.000  O
  H409     1.0000 0.65891  0.92668  0.38100  Biso   1.000  H
  H410     1.0000 0.65891  0.92672  0.38100  Biso   1.000  H
  O210     1.0000 0.75121  0.98952  0.34360  Biso   1.000  O
  H411     1.0000 0.67558  0.96321  0.33350  Biso   1.000  H
  H412     1.0000 0.67562  0.96321  0.33350  Biso   1.000  H
  H413     1.0000 0.72638  0.84431  0.28730  Biso   1.000  H
  H414     1.0000 0.72642  0.84431  0.28730  Biso   1.000  H
  C248     1.0000 0.22042  0.15480  0.33900  Biso   1.000  C
  H415     1.0000 0.18401  0.08060  0.32451  Biso   1.000  H
  C249     1.0000 0.19950  0.13321  0.29601  Biso   1.000  C
  H416     1.0000 0.34109  0.07332  0.38100  Biso   1.000  H
  H417     1.0000 0.34113  0.07332  0.38100  Biso   1.000  H
  O211     1.0000 0.24399  0.16608  0.38095  Biso   1.000  O
  H418     1.0000 0.20742  0.09702  0.36679  Biso   1.000  H
  O212     1.0000 0.24399  0.16613  0.38095  Biso   1.000  O
  O213     1.0000 0.24403  0.16608  0.38095  Biso   1.000  O
  O214     1.0000 0.24403  0.16613  0.38095  Biso   1.000  O
  C250     1.0000 0.73568  0.04621  0.33880  Biso   1.000  C
  C251     1.0000 0.73572  0.04621  0.33880  Biso   1.000  C
  O215     1.0000 0.16642  0.18069  0.34409  Biso   1.000  O
  H419     1.0000 0.24900  0.18351  0.33431  Biso   1.000  H
  O216     1.0000 0.16642  0.18073  0.34409  Biso   1.000  O
  O217     1.0000 0.24201  0.17168  0.28726  Biso   1.000  O
  H420     1.0000 0.19521  0.10198  0.28460  Biso   1.000  H
  H421     1.0000 0.16310  0.15329  0.29690  Biso   1.000  H
  O218     1.0000 0.24201  0.17172  0.28726  Biso   1.000  O
  H422     1.0000 0.19521  0.10202  0.28460  Biso   1.000  H
  H423     1.0000 0.16310  0.15333  0.29690  Biso   1.000  H
  H424     1.0000 0.16314  0.15329  0.29690  Biso   1.000  H
  H425     1.0000 0.16314  0.15333  0.29690  Biso   1.000  H
  H426     1.0000 0.21840  0.19079  0.37760  Biso   1.000  H
  H427     1.0000 0.21840  0.19083  0.37760  Biso   1.000  H
  C252     1.0000 0.74191  0.07791  0.36219  Biso   1.000  C
  H428     1.0000 0.69540  0.04731  0.33380  Biso   1.000  H
  C253     1.0000 0.77070  0.07298  0.32051  Biso   1.000  C
  C254     1.0000 0.77070  0.07302  0.32051  Biso   1.000  C
  C255     1.0000 0.16272  0.23780  0.33790  Biso   1.000  C
  H429     1.0000 0.27362  0.15569  0.28730  Biso   1.000  H
  H430     1.0000 0.27362  0.15573  0.28730  Biso   1.000  H
  O219     1.0000 0.70298  0.05430  0.37885  Biso   1.000  O
  C256     1.0000 0.72789  0.13919  0.35789  Biso   1.000  C
  H431     1.0000 0.78130  0.07429  0.36820  Biso   1.000  H
  O220     1.0000 0.70298  0.05434  0.37885  Biso   1.000  O
  C257     1.0000 0.72789  0.13923  0.35789  Biso   1.000  C
  H432     1.0000 0.78130  0.07433  0.36820  Biso   1.000  H
  O221     1.0000 0.70302  0.05430  0.37885  Biso   1.000  O
  O222     1.0000 0.70302  0.05434  0.37885  Biso   1.000  O
  O223     1.0000 0.75479  0.13098  0.31658  Biso   1.000  O
  H433     1.0000 0.81089  0.07201  0.32571  Biso   1.000  H
  C258     1.0000 0.76649  0.04558  0.29601  Biso   1.000  C
  O224     1.0000 0.75479  0.13102  0.31658  Biso   1.000  O
  C259     1.0000 0.76649  0.04562  0.29601  Biso   1.000  C
  O225     1.0000 0.75483  0.13098  0.31658  Biso   1.000  O
  C260     1.0000 0.76653  0.04558  0.29601  Biso   1.000  C
  O226     1.0000 0.75483  0.13102  0.31658  Biso   1.000  O
  C261     1.0000 0.76653  0.04562  0.29601  Biso   1.000  C
  O227     1.0000 0.13098  0.24521  0.31658  Biso   1.000  O
  H434     1.0000 0.20182  0.25148  0.33491  Biso   1.000  H
  C262     1.0000 0.13919  0.27211  0.35789  Biso   1.000  C
  H435     1.0000 0.20182  0.25153  0.33491  Biso   1.000  H
  O228     1.0000 0.13102  0.24521  0.31658  Biso   1.000  O
  C263     1.0000 0.13923  0.27211  0.35789  Biso   1.000  C
  H436     1.0000 0.66968  0.06200  0.37929  Biso   1.000  H
  H437     1.0000 0.66973  0.06200  0.37929  Biso   1.000  H
  O229     1.0000 0.73850  0.17122  0.37913  Biso   1.000  O
  C264     1.0000 0.76220  0.16272  0.33790  Biso   1.000  C
  H438     1.0000 0.68711  0.14239  0.35389  Biso   1.000  H
  H439     1.0000 0.68711  0.14243  0.35389  Biso   1.000  H
  O230     1.0000 0.70319  0.05089  0.28790  Biso   1.000  O
  H440     1.0000 0.77781  0.00551  0.29680  Biso   1.000  H
  H441     1.0000 0.79162  0.06511  0.28471  Biso   1.000  H
  O231     1.0000 0.70319  0.05093  0.28790  Biso   1.000  O
  O232     1.0000 0.70323  0.05089  0.28790  Biso   1.000  O
  O233     1.0000 0.70323  0.05093  0.28790  Biso   1.000  O
  C265     1.0000 0.07298  0.22930  0.32051  Biso   1.000  C
  C266     1.0000 0.07302  0.22930  0.32051  Biso   1.000  C
  O234     1.0000 0.17122  0.26150  0.37913  Biso   1.000  O
  H442     1.0000 0.14239  0.31289  0.35389  Biso   1.000  H
  C267     1.0000 0.07791  0.25809  0.36219  Biso   1.000  C
  H443     1.0000 0.14239  0.31293  0.35389  Biso   1.000  H
  C268     1.0000 0.07791  0.25813  0.36219  Biso   1.000  C
  H444     1.0000 0.14243  0.31289  0.35389  Biso   1.000  H
  H445     1.0000 0.14243  0.31293  0.35389  Biso   1.000  H
  H446     1.0000 0.71510  0.19529  0.38130  Biso   1.000  H
  H447     1.0000 0.71510  0.19534  0.38130  Biso   1.000  H
  O235     1.0000 0.81931  0.16642  0.34409  Biso   1.000  O
  H448     1.0000 0.74852  0.20182  0.33491  Biso   1.000  H
  H449     1.0000 0.68202  0.04861  0.29971  Biso   1.000  H
  C269     1.0000 0.04621  0.26432  0.33880  Biso   1.000  C
  H450     1.0000 0.07201  0.18911  0.32571  Biso   1.000  H
  C270     1.0000 0.04558  0.23351  0.29601  Biso   1.000  C
  C271     1.0000 0.04562  0.23351  0.29601  Biso   1.000  C
  H451     1.0000 0.19529  0.28490  0.38130  Biso   1.000  H
  H452     1.0000 0.19534  0.28490  0.38130  Biso   1.000  H
  O236     1.0000 0.05430  0.29702  0.37885  Biso   1.000  O
  H453     1.0000 0.07429  0.21870  0.36820  Biso   1.000  H
  H454     1.0000 0.07429  0.21874  0.36820  Biso   1.000  H
  O237     1.0000 0.05434  0.29702  0.37885  Biso   1.000  O
  H455     1.0000 0.07433  0.21870  0.36820  Biso   1.000  H
  H456     1.0000 0.07433  0.21874  0.36820  Biso   1.000  H
  C272     1.0000 0.84520  0.22042  0.33900  Biso   1.000  C
  O238     1.0000 0.98952  0.24879  0.34360  Biso   1.000  O
  O239     1.0000 0.98952  0.24883  0.34360  Biso   1.000  O
  H457     1.0000 0.04731  0.30460  0.33380  Biso   1.000  H
  H458     1.0000 0.04731  0.30464  0.33380  Biso   1.000  H
  O240     1.0000 0.05089  0.29681  0.28790  Biso   1.000  O
  H459     1.0000 0.00551  0.22219  0.29680  Biso   1.000  H
  H460     1.0000 0.06511  0.20838  0.28471  Biso   1.000  H
  H461     1.0000 0.00551  0.22223  0.29680  Biso   1.000  H
  H462     1.0000 0.06511  0.20843  0.28471  Biso   1.000  H
  O241     1.0000 0.05093  0.29681  0.28790  Biso   1.000  O
  H463     1.0000 0.06200  0.33032  0.37929  Biso   1.000  H
  C273     1.0000 0.87542  0.23722  0.36230  Biso   1.000  C
  H464     1.0000 0.81649  0.24900  0.33431  Biso   1.000  H
  C274     1.0000 0.89090  0.21280  0.31970  Biso   1.000  C
  H465     1.0000 0.81653  0.24900  0.33431  Biso   1.000  H
  C275     1.0000 0.94629  0.28671  0.33679  Biso   1.000  C
  C276     1.0000 0.94634  0.28671  0.33679  Biso   1.000  C
  H466     1.0000 0.04861  0.31798  0.29971  Biso   1.000  H
  H467     1.0000 0.04861  0.31803  0.29971  Biso   1.000  H
  C277     1.0000 0.90568  0.29159  0.35800  Biso   1.000  C
  C278     1.0000 0.90568  0.29164  0.35800  Biso   1.000  C
  C279     1.0000 0.90572  0.29159  0.35800  Biso   1.000  C
  C280     1.0000 0.90572  0.29164  0.35800  Biso   1.000  C
  O242     1.0000 0.83392  0.24399  0.38095  Biso   1.000  O
  H468     1.0000 0.90298  0.20742  0.36679  Biso   1.000  H
  O243     1.0000 0.83392  0.24403  0.38095  Biso   1.000  O
  H469     1.0000 0.90303  0.20742  0.36679  Biso   1.000  H
  O244     1.0000 0.91692  0.26781  0.31665  Biso   1.000  O
  H470     1.0000 0.91940  0.18401  0.32451  Biso   1.000  H
  C281     1.0000 0.86679  0.19950  0.29601  Biso   1.000  C
  C282     1.0000 0.86683  0.19950  0.29601  Biso   1.000  C
  H471     1.0000 0.96321  0.32442  0.33350  Biso   1.000  H
  O245     1.0000 0.93792  0.30700  0.37894  Biso   1.000  O
  H472     1.0000 0.87748  0.32181  0.35470  Biso   1.000  H
  O246     1.0000 0.93792  0.30704  0.37894  Biso   1.000  O
  H473     1.0000 0.87752  0.32181  0.35470  Biso   1.000  H
  H474     1.0000 0.80921  0.21840  0.37760  Biso   1.000  H
  O247     1.0000 0.82832  0.24201  0.28726  Biso   1.000  O
  H475     1.0000 0.89802  0.19521  0.28460  Biso   1.000  H
  H476     1.0000 0.84671  0.16310  0.29690  Biso   1.000  H
  H477     1.0000 0.84671  0.16314  0.29690  Biso   1.000  H
  H478     1.0000 0.92668  0.34109  0.38100  Biso   1.000  H
  H479     1.0000 0.92668  0.34113  0.38100  Biso   1.000  H
  H480     1.0000 0.92672  0.34109  0.38100  Biso   1.000  H
  H481     1.0000 0.92672  0.34113  0.38100  Biso   1.000  H
  H482     1.0000 0.84431  0.27362  0.28730  Biso   1.000  H
  O248     1.0000 0.06212  0.69300  0.37894  Biso   1.000  O
  C283     1.0000 0.09432  0.70841  0.35800  Biso   1.000  C
  H483     1.0000 0.07332  0.65891  0.38100  Biso   1.000  H
  C284     1.0000 0.05371  0.71329  0.33679  Biso   1.000  C
  C285     1.0000 0.05371  0.71333  0.33679  Biso   1.000  C
  O249     1.0000 0.06208  0.69300  0.37894  Biso   1.000  O
  H484     1.0000 0.12252  0.67819  0.35470  Biso   1.000  H
  H485     1.0000 0.12252  0.67823  0.35470  Biso   1.000  H
  C286     1.0000 0.12458  0.76278  0.36230  Biso   1.000  C
  C287     1.0000 0.12458  0.76283  0.36230  Biso   1.000  C
  C288     1.0000 0.12463  0.76278  0.36230  Biso   1.000  C
  C289     1.0000 0.12463  0.76283  0.36230  Biso   1.000  C
  O250     1.0000 0.01048  0.75121  0.34360  Biso   1.000  O
  O251     1.0000 0.01052  0.75121  0.34360  Biso   1.000  O
  O252     1.0000 0.08308  0.73219  0.31665  Biso   1.000  O
  H486     1.0000 0.03679  0.67558  0.33350  Biso   1.000  H
  O253     1.0000 0.08308  0.73223  0.31665  Biso   1.000  O
  H487     1.0000 0.03679  0.67562  0.33350  Biso   1.000  H
  O254     1.0000 0.08313  0.73219  0.31665  Biso   1.000  O
  H488     1.0000 0.03683  0.67558  0.33350  Biso   1.000  H
  O255     1.0000 0.08313  0.73223  0.31665  Biso   1.000  O
  H489     1.0000 0.03683  0.67562  0.33350  Biso   1.000  H
  O256     1.0000 0.16608  0.75601  0.38095  Biso   1.000  O
  H490     1.0000 0.09702  0.79258  0.36679  Biso   1.000  H
  C290     1.0000 0.15480  0.77958  0.33900  Biso   1.000  C
  O257     1.0000 0.16613  0.75601  0.38095  Biso   1.000  O
  H491     1.0000 0.09702  0.79263  0.36679  Biso   1.000  H
  C291     1.0000 0.15480  0.77962  0.33900  Biso   1.000  C
  C292     1.0000 0.95379  0.73568  0.33880  Biso   1.000  C
  C293     1.0000 0.95379  0.73572  0.33880  Biso   1.000  C
  C294     1.0000 0.95383  0.73568  0.33880  Biso   1.000  C
  C295     1.0000 0.95383  0.73572  0.33880  Biso   1.000  C
  C296     1.0000 0.10910  0.78720  0.31970  Biso   1.000  C
  C297     1.0000 0.10914  0.78720  0.31970  Biso   1.000  C
  H492     1.0000 0.19079  0.78160  0.37760  Biso   1.000  H
  H493     1.0000 0.19083  0.78160  0.37760  Biso   1.000  H
  H494     1.0000 0.18351  0.75100  0.33431  Biso   1.000  H
  O258     1.0000 0.18069  0.83358  0.34409  Biso   1.000  O
  O259     1.0000 0.18069  0.83362  0.34409  Biso   1.000  O
  O260     1.0000 0.18073  0.83358  0.34409  Biso   1.000  O
  O261     1.0000 0.18073  0.83362  0.34409  Biso   1.000  O
  C298     1.0000 0.92209  0.74191  0.36219  Biso   1.000  C
  H495     1.0000 0.95269  0.69540  0.33380  Biso   1.000  H
  C299     1.0000 0.92702  0.77070  0.32051  Biso   1.000  C
  C300     1.0000 0.92213  0.74191  0.36219  Biso   1.000  C
  H496     1.0000 0.95273  0.69540  0.33380  Biso   1.000  H
  C301     1.0000 0.13321  0.80050  0.29601  Biso   1.000  C
  H497     1.0000 0.08060  0.81599  0.32451  Biso   1.000  H
  H498     1.0000 0.08060  0.81603  0.32451  Biso   1.000  H
  C302     1.0000 0.23780  0.83728  0.33790  Biso   1.000  C
  C303     1.0000 0.23780  0.83732  0.33790  Biso   1.000  C
  O262     1.0000 0.94570  0.70298  0.37885  Biso   1.000  O
  C304     1.0000 0.86081  0.72789  0.35789  Biso   1.000  C
  H499     1.0000 0.92571  0.78130  0.36820  Biso   1.000  H
  O263     1.0000 0.94570  0.70302  0.37885  Biso   1.000  O
  O264     1.0000 0.86902  0.75479  0.31658  Biso   1.000  O
  H500     1.0000 0.92799  0.81089  0.32571  Biso   1.000  H
  C305     1.0000 0.95442  0.76649  0.29601  Biso   1.000  C
  O265     1.0000 0.86902  0.75483  0.31658  Biso   1.000  O
  C306     1.0000 0.95442  0.76653  0.29601  Biso   1.000  C
  H501     1.0000 0.92803  0.81089  0.32571  Biso   1.000  H
  H502     1.0000 0.15329  0.83690  0.29690  Biso   1.000  H
  H503     1.0000 0.15333  0.83690  0.29690  Biso   1.000  H
  O266     1.0000 0.17168  0.75799  0.28726  Biso   1.000  O
  H504     1.0000 0.10198  0.80479  0.28460  Biso   1.000  H
  O267     1.0000 0.17168  0.75803  0.28726  Biso   1.000  O
  H505     1.0000 0.10198  0.80483  0.28460  Biso   1.000  H
  O268     1.0000 0.17172  0.75799  0.28726  Biso   1.000  O
  H506     1.0000 0.10202  0.80479  0.28460  Biso   1.000  H
  O269     1.0000 0.17172  0.75803  0.28726  Biso   1.000  O
  H507     1.0000 0.10202  0.80483  0.28460  Biso   1.000  H
  O270     1.0000 0.24521  0.86902  0.31658  Biso   1.000  O
  C307     1.0000 0.27211  0.86081  0.35789  Biso   1.000  C
  H508     1.0000 0.25148  0.79818  0.33491  Biso   1.000  H
  H509     1.0000 0.25148  0.79822  0.33491  Biso   1.000  H
  H510     1.0000 0.25153  0.79818  0.33491  Biso   1.000  H
  H511     1.0000 0.25153  0.79822  0.33491  Biso   1.000  H
  H512     1.0000 0.93800  0.66968  0.37929  Biso   1.000  H
  H513     1.0000 0.93800  0.66973  0.37929  Biso   1.000  H
  O271     1.0000 0.82878  0.73850  0.37913  Biso   1.000  O
  C308     1.0000 0.83728  0.76220  0.33790  Biso   1.000  C
  H514     1.0000 0.85761  0.68711  0.35389  Biso   1.000  H
  O272     1.0000 0.82882  0.73850  0.37913  Biso   1.000  O
  C309     1.0000 0.83732  0.76220  0.33790  Biso   1.000  C
  O273     1.0000 0.94911  0.70319  0.28790  Biso   1.000  O
  H515     1.0000 0.99449  0.77781  0.29680  Biso   1.000  H
  H516     1.0000 0.93489  0.79162  0.28471  Biso   1.000  H
  O274     1.0000 0.94911  0.70323  0.28790  Biso   1.000  O
  H517     1.0000 0.99453  0.77781  0.29680  Biso   1.000  H
  H518     1.0000 0.93493  0.79162  0.28471  Biso   1.000  H
  H519     1.0000 0.15569  0.72638  0.28730  Biso   1.000  H
  H520     1.0000 0.15569  0.72642  0.28730  Biso   1.000  H
  H521     1.0000 0.15573  0.72638  0.28730  Biso   1.000  H
  H522     1.0000 0.15573  0.72642  0.28730  Biso   1.000  H
  C310     1.0000 0.22930  0.92702  0.32051  Biso   1.000  C
  H523     1.0000 0.31289  0.85761  0.35389  Biso   1.000  H
  O275     1.0000 0.26150  0.82878  0.37913  Biso   1.000  O
  O276     1.0000 0.26150  0.82882  0.37913  Biso   1.000  O
  H524     1.0000 0.31293  0.85761  0.35389  Biso   1.000  H
  C311     1.0000 0.25809  0.92209  0.36219  Biso   1.000  C
  C312     1.0000 0.25809  0.92213  0.36219  Biso   1.000  C
  C313     1.0000 0.25813  0.92209  0.36219  Biso   1.000  C
  C314     1.0000 0.25813  0.92213  0.36219  Biso   1.000  C
  H525     1.0000 0.80471  0.71510  0.38130  Biso   1.000  H
  O277     1.0000 0.83358  0.81931  0.34409  Biso   1.000  O
  H526     1.0000 0.79818  0.74852  0.33491  Biso   1.000  H
  O278     1.0000 0.83362  0.81931  0.34409  Biso   1.000  O
  H527     1.0000 0.79822  0.74852  0.33491  Biso   1.000  H
  H528     1.0000 0.95139  0.68202  0.29971  Biso   1.000  H
  H529     1.0000 0.95143  0.68202  0.29971  Biso   1.000  H
  C315     1.0000 0.23351  0.95442  0.29601  Biso   1.000  C
  C316     1.0000 0.26432  0.95379  0.33880  Biso   1.000  C
  H530     1.0000 0.18911  0.92799  0.32571  Biso   1.000  H
  C317     1.0000 0.26432  0.95383  0.33880  Biso   1.000  C
  H531     1.0000 0.18911  0.92803  0.32571  Biso   1.000  H
  H532     1.0000 0.28490  0.80471  0.38130  Biso   1.000  H
  O279     1.0000 0.29702  0.94570  0.37885  Biso   1.000  O
  H533     1.0000 0.21870  0.92571  0.36820  Biso   1.000  H
  H534     1.0000 0.21874  0.92571  0.36820  Biso   1.000  H
  C318     1.0000 0.77958  0.84520  0.33900  Biso   1.000  C
  C319     1.0000 0.77962  0.84520  0.33900  Biso   1.000  C
  O280     1.0000 0.29681  0.94911  0.28790  Biso   1.000  O
  H535     1.0000 0.22219  0.99449  0.29680  Biso   1.000  H
  H536     1.0000 0.20838  0.93489  0.28471  Biso   1.000  H
  H537     1.0000 0.22219  0.99453  0.29680  Biso   1.000  H
  H538     1.0000 0.20838  0.93493  0.28471  Biso   1.000  H
  H539     1.0000 0.22223  0.99449  0.29680  Biso   1.000  H
  H540     1.0000 0.20843  0.93489  0.28471  Biso   1.000  H
  H541     1.0000 0.22223  0.99453  0.29680  Biso   1.000  H
  H542     1.0000 0.20843  0.93493  0.28471  Biso   1.000  H
  H543     1.0000 0.30460  0.95269  0.33380  Biso   1.000  H
  H544     1.0000 0.30460  0.95273  0.33380  Biso   1.000  H
  H545     1.0000 0.30464  0.95269  0.33380  Biso   1.000  H
  H546     1.0000 0.30464  0.95273  0.33380  Biso   1.000  H
  O281     1.0000 0.24879  0.01048  0.34360  Biso   1.000  O
  O282     1.0000 0.24879  0.01052  0.34360  Biso   1.000  O
  O283     1.0000 0.24883  0.01048  0.34360  Biso   1.000  O
  O284     1.0000 0.24883  0.01052  0.34360  Biso   1.000  O
  H547     1.0000 0.33032  0.93800  0.37929  Biso   1.000  H
  C320     1.0000 0.76278  0.87542  0.36230  Biso   1.000  C
  H548     1.0000 0.75100  0.81649  0.33431  Biso   1.000  H
  C321     1.0000 0.78720  0.89090  0.31970  Biso   1.000  C
  H549     1.0000 0.75100  0.81653  0.33431  Biso   1.000  H
  C322     1.0000 0.76283  0.87542  0.36230  Biso   1.000  C
  H550     1.0000 0.31798  0.95139  0.29971  Biso   1.000  H
  H551     1.0000 0.31798  0.95143  0.29971  Biso   1.000  H
  H552     1.0000 0.31803  0.95139  0.29971  Biso   1.000  H
  H553     1.0000 0.31803  0.95143  0.29971  Biso   1.000  H
  C323     1.0000 0.28671  0.05371  0.33679  Biso   1.000  C
  O285     1.0000 0.75601  0.83392  0.38095  Biso   1.000  O
  C324     1.0000 0.70841  0.90568  0.35800  Biso   1.000  C
  H554     1.0000 0.79258  0.90298  0.36679  Biso   1.000  H
  C325     1.0000 0.70841  0.90572  0.35800  Biso   1.000  C
  H555     1.0000 0.79258  0.90303  0.36679  Biso   1.000  H
  H556     1.0000 0.79263  0.90298  0.36679  Biso   1.000  H
  H557     1.0000 0.79263  0.90303  0.36679  Biso   1.000  H
  O286     1.0000 0.73219  0.91692  0.31665  Biso   1.000  O
  H558     1.0000 0.81599  0.91940  0.32451  Biso   1.000  H
  C326     1.0000 0.80050  0.86679  0.29601  Biso   1.000  C
  C327     1.0000 0.80050  0.86683  0.29601  Biso   1.000  C
  O287     1.0000 0.73223  0.91692  0.31665  Biso   1.000  O
  H559     1.0000 0.81603  0.91940  0.32451  Biso   1.000  H
  O288     1.0000 0.26781  0.08308  0.31665  Biso   1.000  O
  H560     1.0000 0.32442  0.03679  0.33350  Biso   1.000  H
  C328     1.0000 0.29159  0.09432  0.35800  Biso   1.000  C
  O289     1.0000 0.26781  0.08313  0.31665  Biso   1.000  O
  H561     1.0000 0.32442  0.03683  0.33350  Biso   1.000  H
  C329     1.0000 0.29164  0.09432  0.35800  Biso   1.000  C
  H562     1.0000 0.78160  0.80921  0.37760  Biso   1.000  H
  O290     1.0000 0.69300  0.93792  0.37894  Biso   1.000  O
  C330     1.0000 0.71329  0.94629  0.33679  Biso   1.000  C
  H563     1.0000 0.67819  0.87748  0.35470  Biso   1.000  H
  C331     1.0000 0.71329  0.94634  0.33679  Biso   1.000  C
  H564     1.0000 0.67819  0.87752  0.35470  Biso   1.000  H
  C332     1.0000 0.71333  0.94629  0.33679  Biso   1.000  C
  H565     1.0000 0.67823  0.87748  0.35470  Biso   1.000  H
  C333     1.0000 0.71333  0.94634  0.33679  Biso   1.000  C
  H566     1.0000 0.67823  0.87752  0.35470  Biso   1.000  H
  O291     1.0000 0.75799  0.82832  0.28726  Biso   1.000  O
  H567     1.0000 0.80479  0.89802  0.28460  Biso   1.000  H
  H568     1.0000 0.83690  0.84671  0.29690  Biso   1.000  H
  O292     1.0000 0.75803  0.82832  0.28726  Biso   1.000  O
  H569     1.0000 0.80483  0.89802  0.28460  Biso   1.000  H
  C334     1.0000 0.21280  0.10910  0.31970  Biso   1.000  C
  C335     1.0000 0.21280  0.10914  0.31970  Biso   1.000  C
  O293     1.0000 0.30700  0.06208  0.37894  Biso   1.000  O
  H570     1.0000 0.32181  0.12252  0.35470  Biso   1.000  H
  C336     1.0000 0.23722  0.12458  0.36230  Biso   1.000  C
  O294     1.0000 0.30700  0.06212  0.37894  Biso   1.000  O
  C337     1.0000 0.23722  0.12463  0.36230  Biso   1.000  C
  O295     1.0000 0.30704  0.06208  0.37894  Biso   1.000  O
  O296     1.0000 0.30704  0.06212  0.37894  Biso   1.000  O
  H571     1.0000 0.65891  0.92668  0.38100  Biso   1.000  H
  H572     1.0000 0.65891  0.92672  0.38100  Biso   1.000  H
  O297     1.0000 0.75121  0.98952  0.34360  Biso   1.000  O
  H573     1.0000 0.67558  0.96321  0.33350  Biso   1.000  H
  H574     1.0000 0.67562  0.96321  0.33350  Biso   1.000  H
  H575     1.0000 0.72638  0.84431  0.28730  Biso   1.000  H
  H576     1.0000 0.72642  0.84431  0.28730  Biso   1.000  H
  C338     1.0000 0.22042  0.15480  0.33900  Biso   1.000  C
  H577     1.0000 0.18401  0.08060  0.32451  Biso   1.000  H
  C339     1.0000 0.19950  0.13321  0.29601  Biso   1.000  C
  H578     1.0000 0.34109  0.07332  0.38100  Biso   1.000  H
  H579     1.0000 0.34113  0.07332  0.38100  Biso   1.000  H
  O298     1.0000 0.24399  0.16608  0.38095  Biso   1.000  O
  H580     1.0000 0.20742  0.09702  0.36679  Biso   1.000  H
  O299     1.0000 0.24399  0.16613  0.38095  Biso   1.000  O
  O300     1.0000 0.24403  0.16608  0.38095  Biso   1.000  O
  O301     1.0000 0.24403  0.16613  0.38095  Biso   1.000  O
  C340     1.0000 0.73568  0.04621  0.33880  Biso   1.000  C
  C341     1.0000 0.73572  0.04621  0.33880  Biso   1.000  C
  O302     1.0000 0.16642  0.18069  0.34409  Biso   1.000  O
  H581     1.0000 0.24900  0.18351  0.33431  Biso   1.000  H
  O303     1.0000 0.16642  0.18073  0.34409  Biso   1.000  O
  O304     1.0000 0.24201  0.17168  0.28726  Biso   1.000  O
  H582     1.0000 0.19521  0.10198  0.28460  Biso   1.000  H
  H583     1.0000 0.16310  0.15329  0.29690  Biso   1.000  H
  O305     1.0000 0.24201  0.17172  0.28726  Biso   1.000  O
  H584     1.0000 0.19521  0.10202  0.28460  Biso   1.000  H
  H585     1.0000 0.16310  0.15333  0.29690  Biso   1.000  H
  H586     1.0000 0.16314  0.15329  0.29690  Biso   1.000  H
  H587     1.0000 0.16314  0.15333  0.29690  Biso   1.000  H
  H588     1.0000 0.21840  0.19079  0.37760  Biso   1.000  H
  H589     1.0000 0.21840  0.19083  0.37760  Biso   1.000  H
  C342     1.0000 0.74191  0.07791  0.36219  Biso   1.000  C
  H590     1.0000 0.69540  0.04731  0.33380  Biso   1.000  H
  C343     1.0000 0.77070  0.07298  0.32051  Biso   1.000  C
  C344     1.0000 0.77070  0.07302  0.32051  Biso   1.000  C
  C345     1.0000 0.16272  0.23780  0.33790  Biso   1.000  C
  H591     1.0000 0.27362  0.15569  0.28730  Biso   1.000  H
  H592     1.0000 0.27362  0.15573  0.28730  Biso   1.000  H
  O306     1.0000 0.70298  0.05430  0.37885  Biso   1.000  O
  C346     1.0000 0.72789  0.13919  0.35789  Biso   1.000  C
  H593     1.0000 0.78130  0.07429  0.36820  Biso   1.000  H
  O307     1.0000 0.70298  0.05434  0.37885  Biso   1.000  O
  C347     1.0000 0.72789  0.13923  0.35789  Biso   1.000  C
  H594     1.0000 0.78130  0.07433  0.36820  Biso   1.000  H
  O308     1.0000 0.70302  0.05430  0.37885  Biso   1.000  O
  O309     1.0000 0.70302  0.05434  0.37885  Biso   1.000  O
  O310     1.0000 0.75479  0.13098  0.31658  Biso   1.000  O
  H595     1.0000 0.81089  0.07201  0.32571  Biso   1.000  H
  C348     1.0000 0.76649  0.04558  0.29601  Biso   1.000  C
  O311     1.0000 0.75479  0.13102  0.31658  Biso   1.000  O
  C349     1.0000 0.76649  0.04562  0.29601  Biso   1.000  C
  O312     1.0000 0.75483  0.13098  0.31658  Biso   1.000  O
  C350     1.0000 0.76653  0.04558  0.29601  Biso   1.000  C
  O313     1.0000 0.75483  0.13102  0.31658  Biso   1.000  O
  C351     1.0000 0.76653  0.04562  0.29601  Biso   1.000  C
  O314     1.0000 0.13098  0.24521  0.31658  Biso   1.000  O
  H596     1.0000 0.20182  0.25148  0.33491  Biso   1.000  H
  C352     1.0000 0.13919  0.27211  0.35789  Biso   1.000  C
  H597     1.0000 0.20182  0.25153  0.33491  Biso   1.000  H
  O315     1.0000 0.13102  0.24521  0.31658  Biso   1.000  O
  C353     1.0000 0.13923  0.27211  0.35789  Biso   1.000  C
  H598     1.0000 0.66968  0.06200  0.37929  Biso   1.000  H
  H599     1.0000 0.66973  0.06200  0.37929  Biso   1.000  H
  O316     1.0000 0.73850  0.17122  0.37913  Biso   1.000  O
  C354     1.0000 0.76220  0.16272  0.33790  Biso   1.000  C
  H600     1.0000 0.68711  0.14239  0.35389  Biso   1.000  H
  H601     1.0000 0.68711  0.14243  0.35389  Biso   1.000  H
  O317     1.0000 0.70319  0.05089  0.28790  Biso   1.000  O
  H602     1.0000 0.77781  0.00551  0.29680  Biso   1.000  H
  H603     1.0000 0.79162  0.06511  0.28471  Biso   1.000  H
  O318     1.0000 0.70319  0.05093  0.28790  Biso   1.000  O
  O319     1.0000 0.70323  0.05089  0.28790  Biso   1.000  O
  O320     1.0000 0.70323  0.05093  0.28790  Biso   1.000  O
  C355     1.0000 0.07298  0.22930  0.32051  Biso   1.000  C
  C356     1.0000 0.07302  0.22930  0.32051  Biso   1.000  C
  O321     1.0000 0.17122  0.26150  0.37913  Biso   1.000  O
  H604     1.0000 0.14239  0.31289  0.35389  Biso   1.000  H
  C357     1.0000 0.07791  0.25809  0.36219  Biso   1.000  C
  H605     1.0000 0.14239  0.31293  0.35389  Biso   1.000  H
  C358     1.0000 0.07791  0.25813  0.36219  Biso   1.000  C
  H606     1.0000 0.14243  0.31289  0.35389  Biso   1.000  H
  H607     1.0000 0.14243  0.31293  0.35389  Biso   1.000  H
  H608     1.0000 0.71510  0.19529  0.38130  Biso   1.000  H
  H609     1.0000 0.71510  0.19534  0.38130  Biso   1.000  H
  O322     1.0000 0.81931  0.16642  0.34409  Biso   1.000  O
  H610     1.0000 0.74852  0.20182  0.33491  Biso   1.000  H
  H611     1.0000 0.68202  0.04861  0.29971  Biso   1.000  H
  C359     1.0000 0.04621  0.26432  0.33880  Biso   1.000  C
  H612     1.0000 0.07201  0.18911  0.32571  Biso   1.000  H
  C360     1.0000 0.04558  0.23351  0.29601  Biso   1.000  C
  C361     1.0000 0.04562  0.23351  0.29601  Biso   1.000  C
  H613     1.0000 0.19529  0.28490  0.38130  Biso   1.000  H
  H614     1.0000 0.19534  0.28490  0.38130  Biso   1.000  H
  O323     1.0000 0.05430  0.29702  0.37885  Biso   1.000  O
  H615     1.0000 0.07429  0.21870  0.36820  Biso   1.000  H
  H616     1.0000 0.07429  0.21874  0.36820  Biso   1.000  H
  O324     1.0000 0.05434  0.29702  0.37885  Biso   1.000  O
  H617     1.0000 0.07433  0.21870  0.36820  Biso   1.000  H
  H618     1.0000 0.07433  0.21874  0.36820  Biso   1.000  H
  C362     1.0000 0.84520  0.22042  0.33900  Biso   1.000  C
  O325     1.0000 0.98952  0.24879  0.34360  Biso   1.000  O
  O326     1.0000 0.98952  0.24883  0.34360  Biso   1.000  O
  H619     1.0000 0.04731  0.30460  0.33380  Biso   1.000  H
  H620     1.0000 0.04731  0.30464  0.33380  Biso   1.000  H
  O327     1.0000 0.05089  0.29681  0.28790  Biso   1.000  O
  H621     1.0000 0.00551  0.22219  0.29680  Biso   1.000  H
  H622     1.0000 0.06511  0.20838  0.28471  Biso   1.000  H
  H623     1.0000 0.00551  0.22223  0.29680  Biso   1.000  H
  H624     1.0000 0.06511  0.20843  0.28471  Biso   1.000  H
  O328     1.0000 0.05093  0.29681  0.28790  Biso   1.000  O
  H625     1.0000 0.06200  0.33032  0.37929  Biso   1.000  H
  C363     1.0000 0.87542  0.23722  0.36230  Biso   1.000  C
  H626     1.0000 0.81649  0.24900  0.33431  Biso   1.000  H
  C364     1.0000 0.89090  0.21280  0.31970  Biso   1.000  C
  H627     1.0000 0.81653  0.24900  0.33431  Biso   1.000  H
  C365     1.0000 0.94629  0.28671  0.33679  Biso   1.000  C
  C366     1.0000 0.94634  0.28671  0.33679  Biso   1.000  C
  H628     1.0000 0.04861  0.31798  0.29971  Biso   1.000  H
  H629     1.0000 0.04861  0.31803  0.29971  Biso   1.000  H
  O329     1.0000 0.83392  0.24399  0.38095  Biso   1.000  O
  C367     1.0000 0.90568  0.29159  0.35800  Biso   1.000  C
  H630     1.0000 0.90298  0.20742  0.36679  Biso   1.000  H
  O330     1.0000 0.83392  0.24403  0.38095  Biso   1.000  O
  C368     1.0000 0.90568  0.29164  0.35800  Biso   1.000  C
  C369     1.0000 0.90572  0.29159  0.35800  Biso   1.000  C
  H631     1.0000 0.90303  0.20742  0.36679  Biso   1.000  H
  C370     1.0000 0.90572  0.29164  0.35800  Biso   1.000  C
  O331     1.0000 0.91692  0.26781  0.31665  Biso   1.000  O
  H632     1.0000 0.91940  0.18401  0.32451  Biso   1.000  H
  C371     1.0000 0.86679  0.19950  0.29601  Biso   1.000  C
  C372     1.0000 0.86683  0.19950  0.29601  Biso   1.000  C
  H633     1.0000 0.96321  0.32442  0.33350  Biso   1.000  H
  H634     1.0000 0.80921  0.21840  0.37760  Biso   1.000  H
  O332     1.0000 0.93792  0.30700  0.37894  Biso   1.000  O
  H635     1.0000 0.87748  0.32181  0.35470  Biso   1.000  H
  O333     1.0000 0.93792  0.30704  0.37894  Biso   1.000  O
  H636     1.0000 0.87752  0.32181  0.35470  Biso   1.000  H
  O334     1.0000 0.82832  0.24201  0.28726  Biso   1.000  O
  H637     1.0000 0.89802  0.19521  0.28460  Biso   1.000  H
  H638     1.0000 0.84671  0.16310  0.29690  Biso   1.000  H
  H639     1.0000 0.84671  0.16314  0.29690  Biso   1.000  H
  H640     1.0000 0.92668  0.34109  0.38100  Biso   1.000  H
  H641     1.0000 0.92668  0.34113  0.38100  Biso   1.000  H
  H642     1.0000 0.92672  0.34109  0.38100  Biso   1.000  H
  H643     1.0000 0.92672  0.34113  0.38100  Biso   1.000  H
  H644     1.0000 0.84431  0.27362  0.28730  Biso   1.000  H
  O335     1.0000 0.06212  0.69300  0.37894  Biso   1.000  O
  C373     1.0000 0.09432  0.70841  0.35800  Biso   1.000  C
  H645     1.0000 0.07332  0.65891  0.38100  Biso   1.000  H
  O336     1.0000 0.06208  0.69300  0.37894  Biso   1.000  O
  C374     1.0000 0.05371  0.71329  0.33679  Biso   1.000  C
  H646     1.0000 0.12252  0.67819  0.35470  Biso   1.000  H
  C375     1.0000 0.12458  0.76278  0.36230  Biso   1.000  C
  C376     1.0000 0.05371  0.71333  0.33679  Biso   1.000  C
  H647     1.0000 0.12252  0.67823  0.35470  Biso   1.000  H
  C377     1.0000 0.12458  0.76283  0.36230  Biso   1.000  C
  C378     1.0000 0.12463  0.76278  0.36230  Biso   1.000  C
  C379     1.0000 0.12463  0.76283  0.36230  Biso   1.000  C
  O337     1.0000 0.01048  0.75121  0.34360  Biso   1.000  O
  O338     1.0000 0.08308  0.73219  0.31665  Biso   1.000  O
  H648     1.0000 0.03679  0.67558  0.33350  Biso   1.000  H
  O339     1.0000 0.08308  0.73223  0.31665  Biso   1.000  O
  H649     1.0000 0.03679  0.67562  0.33350  Biso   1.000  H
  O340     1.0000 0.01052  0.75121  0.34360  Biso   1.000  O
  O341     1.0000 0.08313  0.73219  0.31665  Biso   1.000  O
  H650     1.0000 0.03683  0.67558  0.33350  Biso   1.000  H
  O342     1.0000 0.08313  0.73223  0.31665  Biso   1.000  O
  H651     1.0000 0.03683  0.67562  0.33350  Biso   1.000  H
  O343     1.0000 0.16608  0.75601  0.38095  Biso   1.000  O
  H652     1.0000 0.09702  0.79258  0.36679  Biso   1.000  H
  C380     1.0000 0.15480  0.77958  0.33900  Biso   1.000  C
  H653     1.0000 0.09702  0.79263  0.36679  Biso   1.000  H
  C381     1.0000 0.15480  0.77962  0.33900  Biso   1.000  C
  O344     1.0000 0.16613  0.75601  0.38095  Biso   1.000  O
  C382     1.0000 0.95379  0.73568  0.33880  Biso   1.000  C
  C383     1.0000 0.95379  0.73572  0.33880  Biso   1.000  C
  C384     1.0000 0.95383  0.73568  0.33880  Biso   1.000  C
  C385     1.0000 0.95383  0.73572  0.33880  Biso   1.000  C
  C386     1.0000 0.10910  0.78720  0.31970  Biso   1.000  C
  C387     1.0000 0.10914  0.78720  0.31970  Biso   1.000  C
  H654     1.0000 0.19079  0.78160  0.37760  Biso   1.000  H
  H655     1.0000 0.19083  0.78160  0.37760  Biso   1.000  H
  H656     1.0000 0.18351  0.75100  0.33431  Biso   1.000  H
  O345     1.0000 0.18069  0.83358  0.34409  Biso   1.000  O
  O346     1.0000 0.18069  0.83362  0.34409  Biso   1.000  O
  O347     1.0000 0.18073  0.83358  0.34409  Biso   1.000  O
  O348     1.0000 0.18073  0.83362  0.34409  Biso   1.000  O
  C388     1.0000 0.92209  0.74191  0.36219  Biso   1.000  C
  H657     1.0000 0.95269  0.69540  0.33380  Biso   1.000  H
  C389     1.0000 0.92702  0.77070  0.32051  Biso   1.000  C
  C390     1.0000 0.92213  0.74191  0.36219  Biso   1.000  C
  H658     1.0000 0.95273  0.69540  0.33380  Biso   1.000  H
  C391     1.0000 0.13321  0.80050  0.29601  Biso   1.000  C
  H659     1.0000 0.08060  0.81599  0.32451  Biso   1.000  H
  H660     1.0000 0.08060  0.81603  0.32451  Biso   1.000  H
  C392     1.0000 0.23780  0.83728  0.33790  Biso   1.000  C
  C393     1.0000 0.23780  0.83732  0.33790  Biso   1.000  C
  O349     1.0000 0.94570  0.70298  0.37885  Biso   1.000  O
  C394     1.0000 0.86081  0.72789  0.35789  Biso   1.000  C
  H661     1.0000 0.92571  0.78130  0.36820  Biso   1.000  H
  O350     1.0000 0.94570  0.70302  0.37885  Biso   1.000  O
  O351     1.0000 0.86902  0.75479  0.31658  Biso   1.000  O
  H662     1.0000 0.92799  0.81089  0.32571  Biso   1.000  H
  C395     1.0000 0.95442  0.76649  0.29601  Biso   1.000  C
  O352     1.0000 0.86902  0.75483  0.31658  Biso   1.000  O
  C396     1.0000 0.95442  0.76653  0.29601  Biso   1.000  C
  H663     1.0000 0.92803  0.81089  0.32571  Biso   1.000  H
  O353     1.0000 0.17168  0.75799  0.28726  Biso   1.000  O
  H664     1.0000 0.10198  0.80479  0.28460  Biso   1.000  H
  H665     1.0000 0.15329  0.83690  0.29690  Biso   1.000  H
  O354     1.0000 0.17168  0.75803  0.28726  Biso   1.000  O
  H666     1.0000 0.10198  0.80483  0.28460  Biso   1.000  H
  O355     1.0000 0.17172  0.75799  0.28726  Biso   1.000  O
  H667     1.0000 0.10202  0.80479  0.28460  Biso   1.000  H
  H668     1.0000 0.15333  0.83690  0.29690  Biso   1.000  H
  O356     1.0000 0.17172  0.75803  0.28726  Biso   1.000  O
  H669     1.0000 0.10202  0.80483  0.28460  Biso   1.000  H
  O357     1.0000 0.24521  0.86902  0.31658  Biso   1.000  O
  C397     1.0000 0.27211  0.86081  0.35789  Biso   1.000  C
  H670     1.0000 0.25148  0.79818  0.33491  Biso   1.000  H
  H671     1.0000 0.25148  0.79822  0.33491  Biso   1.000  H
  H672     1.0000 0.25153  0.79818  0.33491  Biso   1.000  H
  H673     1.0000 0.25153  0.79822  0.33491  Biso   1.000  H
  H674     1.0000 0.93800  0.66968  0.37929  Biso   1.000  H
  H675     1.0000 0.93800  0.66973  0.37929  Biso   1.000  H
  O358     1.0000 0.82878  0.73850  0.37913  Biso   1.000  O
  C398     1.0000 0.83728  0.76220  0.33790  Biso   1.000  C
  H676     1.0000 0.85761  0.68711  0.35389  Biso   1.000  H
  O359     1.0000 0.82882  0.73850  0.37913  Biso   1.000  O
  C399     1.0000 0.83732  0.76220  0.33790  Biso   1.000  C
  O360     1.0000 0.94911  0.70319  0.28790  Biso   1.000  O
  H677     1.0000 0.99449  0.77781  0.29680  Biso   1.000  H
  H678     1.0000 0.93489  0.79162  0.28471  Biso   1.000  H
  O361     1.0000 0.94911  0.70323  0.28790  Biso   1.000  O
  H679     1.0000 0.99453  0.77781  0.29680  Biso   1.000  H
  H680     1.0000 0.93493  0.79162  0.28471  Biso   1.000  H
  H681     1.0000 0.15569  0.72638  0.28730  Biso   1.000  H
  H682     1.0000 0.15569  0.72642  0.28730  Biso   1.000  H
  H683     1.0000 0.15573  0.72638  0.28730  Biso   1.000  H
  H684     1.0000 0.15573  0.72642  0.28730  Biso   1.000  H
  C400     1.0000 0.22930  0.92702  0.32051  Biso   1.000  C
  O362     1.0000 0.26150  0.82878  0.37913  Biso   1.000  O
  H685     1.0000 0.31289  0.85761  0.35389  Biso   1.000  H
  C401     1.0000 0.25809  0.92209  0.36219  Biso   1.000  C
  O363     1.0000 0.26150  0.82882  0.37913  Biso   1.000  O
  C402     1.0000 0.25809  0.92213  0.36219  Biso   1.000  C
  H686     1.0000 0.31293  0.85761  0.35389  Biso   1.000  H
  C403     1.0000 0.25813  0.92209  0.36219  Biso   1.000  C
  C404     1.0000 0.25813  0.92213  0.36219  Biso   1.000  C
  H687     1.0000 0.80471  0.71510  0.38130  Biso   1.000  H
  O364     1.0000 0.83358  0.81931  0.34409  Biso   1.000  O
  H688     1.0000 0.79818  0.74852  0.33491  Biso   1.000  H
  O365     1.0000 0.83362  0.81931  0.34409  Biso   1.000  O
  H689     1.0000 0.79822  0.74852  0.33491  Biso   1.000  H
  H690     1.0000 0.95139  0.68202  0.29971  Biso   1.000  H
  H691     1.0000 0.95143  0.68202  0.29971  Biso   1.000  H
  C405     1.0000 0.23351  0.95442  0.29601  Biso   1.000  C
  C406     1.0000 0.26432  0.95379  0.33880  Biso   1.000  C
  H692     1.0000 0.18911  0.92799  0.32571  Biso   1.000  H
  C407     1.0000 0.26432  0.95383  0.33880  Biso   1.000  C
  H693     1.0000 0.18911  0.92803  0.32571  Biso   1.000  H
  H694     1.0000 0.28490  0.80471  0.38130  Biso   1.000  H
  O366     1.0000 0.29702  0.94570  0.37885  Biso   1.000  O
  H695     1.0000 0.21870  0.92571  0.36820  Biso   1.000  H
  H696     1.0000 0.21874  0.92571  0.36820  Biso   1.000  H
  C408     1.0000 0.77958  0.84520  0.33900  Biso   1.000  C
  C409     1.0000 0.77962  0.84520  0.33900  Biso   1.000  C
  O367     1.0000 0.29681  0.94911  0.28790  Biso   1.000  O
  H697     1.0000 0.22219  0.99449  0.29680  Biso   1.000  H
  H698     1.0000 0.20838  0.93489  0.28471  Biso   1.000  H
  H699     1.0000 0.22219  0.99453  0.29680  Biso   1.000  H
  H700     1.0000 0.20838  0.93493  0.28471  Biso   1.000  H
  H701     1.0000 0.22223  0.99449  0.29680  Biso   1.000  H
  H702     1.0000 0.20843  0.93489  0.28471  Biso   1.000  H
  H703     1.0000 0.22223  0.99453  0.29680  Biso   1.000  H
  H704     1.0000 0.20843  0.93493  0.28471  Biso   1.000  H
  H705     1.0000 0.30460  0.95269  0.33380  Biso   1.000  H
  H706     1.0000 0.30460  0.95273  0.33380  Biso   1.000  H
  H707     1.0000 0.30464  0.95269  0.33380  Biso   1.000  H
  H708     1.0000 0.30464  0.95273  0.33380  Biso   1.000  H
  O368     1.0000 0.24879  0.01048  0.34360  Biso   1.000  O
  O369     1.0000 0.24879  0.01052  0.34360  Biso   1.000  O
  O370     1.0000 0.24883  0.01048  0.34360  Biso   1.000  O
  O371     1.0000 0.24883  0.01052  0.34360  Biso   1.000  O
  H709     1.0000 0.33032  0.93800  0.37929  Biso   1.000  H
  C410     1.0000 0.76278  0.87542  0.36230  Biso   1.000  C
  H710     1.0000 0.75100  0.81649  0.33431  Biso   1.000  H
  C411     1.0000 0.78720  0.89090  0.31970  Biso   1.000  C
  H711     1.0000 0.75100  0.81653  0.33431  Biso   1.000  H
  C412     1.0000 0.76283  0.87542  0.36230  Biso   1.000  C
  H712     1.0000 0.31798  0.95139  0.29971  Biso   1.000  H
  H713     1.0000 0.31798  0.95143  0.29971  Biso   1.000  H
  H714     1.0000 0.31803  0.95139  0.29971  Biso   1.000  H
  H715     1.0000 0.31803  0.95143  0.29971  Biso   1.000  H
  C413     1.0000 0.28671  0.05371  0.33679  Biso   1.000  C
  O372     1.0000 0.75601  0.83392  0.38095  Biso   1.000  O
  C414     1.0000 0.70841  0.90568  0.35800  Biso   1.000  C
  H716     1.0000 0.79258  0.90298  0.36679  Biso   1.000  H
  C415     1.0000 0.70841  0.90572  0.35800  Biso   1.000  C
  H717     1.0000 0.79258  0.90303  0.36679  Biso   1.000  H
  H718     1.0000 0.79263  0.90298  0.36679  Biso   1.000  H
  H719     1.0000 0.79263  0.90303  0.36679  Biso   1.000  H
  O373     1.0000 0.73219  0.91692  0.31665  Biso   1.000  O
  H720     1.0000 0.81599  0.91940  0.32451  Biso   1.000  H
  C416     1.0000 0.80050  0.86679  0.29601  Biso   1.000  C
  C417     1.0000 0.80050  0.86683  0.29601  Biso   1.000  C
  O374     1.0000 0.73223  0.91692  0.31665  Biso   1.000  O
  H721     1.0000 0.81603  0.91940  0.32451  Biso   1.000  H
  O375     1.0000 0.26781  0.08308  0.31665  Biso   1.000  O
  H722     1.0000 0.32442  0.03679  0.33350  Biso   1.000  H
  C418     1.0000 0.29159  0.09432  0.35800  Biso   1.000  C
  O376     1.0000 0.26781  0.08313  0.31665  Biso   1.000  O
  H723     1.0000 0.32442  0.03683  0.33350  Biso   1.000  H
  C419     1.0000 0.29164  0.09432  0.35800  Biso   1.000  C
  H724     1.0000 0.78160  0.80921  0.37760  Biso   1.000  H
  O377     1.0000 0.69300  0.93792  0.37894  Biso   1.000  O
  C420     1.0000 0.71329  0.94629  0.33679  Biso   1.000  C
  H725     1.0000 0.67819  0.87748  0.35470  Biso   1.000  H
  C421     1.0000 0.71329  0.94634  0.33679  Biso   1.000  C
  H726     1.0000 0.67819  0.87752  0.35470  Biso   1.000  H
  C422     1.0000 0.71333  0.94629  0.33679  Biso   1.000  C
  H727     1.0000 0.67823  0.87748  0.35470  Biso   1.000  H
  C423     1.0000 0.71333  0.94634  0.33679  Biso   1.000  C
  H728     1.0000 0.67823  0.87752  0.35470  Biso   1.000  H
  O378     1.0000 0.75799  0.82832  0.28726  Biso   1.000  O
  H729     1.0000 0.80479  0.89802  0.28460  Biso   1.000  H
  H730     1.0000 0.83690  0.84671  0.29690  Biso   1.000  H
  O379     1.0000 0.75803  0.82832  0.28726  Biso   1.000  O
  H731     1.0000 0.80483  0.89802  0.28460  Biso   1.000  H
  C424     1.0000 0.21280  0.10910  0.31970  Biso   1.000  C
  C425     1.0000 0.21280  0.10914  0.31970  Biso   1.000  C
  O380     1.0000 0.30700  0.06208  0.37894  Biso   1.000  O
  H732     1.0000 0.32181  0.12252  0.35470  Biso   1.000  H
  C426     1.0000 0.23722  0.12458  0.36230  Biso   1.000  C
  O381     1.0000 0.30700  0.06212  0.37894  Biso   1.000  O
  C427     1.0000 0.23722  0.12463  0.36230  Biso   1.000  C
  O382     1.0000 0.30704  0.06208  0.37894  Biso   1.000  O
  O383     1.0000 0.30704  0.06212  0.37894  Biso   1.000  O
  H733     1.0000 0.65891  0.92668  0.38100  Biso   1.000  H
  H734     1.0000 0.65891  0.92672  0.38100  Biso   1.000  H
  O384     1.0000 0.75121  0.98952  0.34360  Biso   1.000  O
  H735     1.0000 0.67558  0.96321  0.33350  Biso   1.000  H
  H736     1.0000 0.67562  0.96321  0.33350  Biso   1.000  H
  H737     1.0000 0.72638  0.84431  0.28730  Biso   1.000  H
  H738     1.0000 0.72642  0.84431  0.28730  Biso   1.000  H
  C428     1.0000 0.22042  0.15480  0.33900  Biso   1.000  C
  H739     1.0000 0.18401  0.08060  0.32451  Biso   1.000  H
  C429     1.0000 0.19950  0.13321  0.29601  Biso   1.000  C
  H740     1.0000 0.34109  0.07332  0.38100  Biso   1.000  H
  H741     1.0000 0.34113  0.07332  0.38100  Biso   1.000  H
  O385     1.0000 0.24399  0.16608  0.38095  Biso   1.000  O
  H742     1.0000 0.20742  0.09702  0.36679  Biso   1.000  H
  O386     1.0000 0.24399  0.16613  0.38095  Biso   1.000  O
  O387     1.0000 0.24403  0.16608  0.38095  Biso   1.000  O
  O388     1.0000 0.24403  0.16613  0.38095  Biso   1.000  O
  C430     1.0000 0.73568  0.04621  0.33880  Biso   1.000  C
  C431     1.0000 0.73572  0.04621  0.33880  Biso   1.000  C
  O389     1.0000 0.16642  0.18069  0.34409  Biso   1.000  O
  H743     1.0000 0.24900  0.18351  0.33431  Biso   1.000  H
  O390     1.0000 0.16642  0.18073  0.34409  Biso   1.000  O
  O391     1.0000 0.24201  0.17168  0.28726  Biso   1.000  O
  H744     1.0000 0.19521  0.10198  0.28460  Biso   1.000  H
  H745     1.0000 0.16310  0.15329  0.29690  Biso   1.000  H
  O392     1.0000 0.24201  0.17172  0.28726  Biso   1.000  O
  H746     1.0000 0.19521  0.10202  0.28460  Biso   1.000  H
  H747     1.0000 0.16310  0.15333  0.29690  Biso   1.000  H
  H748     1.0000 0.16314  0.15329  0.29690  Biso   1.000  H
  H749     1.0000 0.16314  0.15333  0.29690  Biso   1.000  H
  H750     1.0000 0.21840  0.19079  0.37760  Biso   1.000  H
  H751     1.0000 0.21840  0.19083  0.37760  Biso   1.000  H
  C432     1.0000 0.74191  0.07791  0.36219  Biso   1.000  C
  H752     1.0000 0.69540  0.04731  0.33380  Biso   1.000  H
  C433     1.0000 0.77070  0.07298  0.32051  Biso   1.000  C
  C434     1.0000 0.77070  0.07302  0.32051  Biso   1.000  C
  C435     1.0000 0.16272  0.23780  0.33790  Biso   1.000  C
  H753     1.0000 0.27362  0.15569  0.28730  Biso   1.000  H
  H754     1.0000 0.27362  0.15573  0.28730  Biso   1.000  H
  O393     1.0000 0.70298  0.05430  0.37885  Biso   1.000  O
  C436     1.0000 0.72789  0.13919  0.35789  Biso   1.000  C
  H755     1.0000 0.78130  0.07429  0.36820  Biso   1.000  H
  O394     1.0000 0.70298  0.05434  0.37885  Biso   1.000  O
  C437     1.0000 0.72789  0.13923  0.35789  Biso   1.000  C
  H756     1.0000 0.78130  0.07433  0.36820  Biso   1.000  H
  O395     1.0000 0.70302  0.05430  0.37885  Biso   1.000  O
  O396     1.0000 0.70302  0.05434  0.37885  Biso   1.000  O
  O397     1.0000 0.75479  0.13098  0.31658  Biso   1.000  O
  H757     1.0000 0.81089  0.07201  0.32571  Biso   1.000  H
  C438     1.0000 0.76649  0.04558  0.29601  Biso   1.000  C
  O398     1.0000 0.75479  0.13102  0.31658  Biso   1.000  O
  C439     1.0000 0.76649  0.04562  0.29601  Biso   1.000  C
  O399     1.0000 0.75483  0.13098  0.31658  Biso   1.000  O
  C440     1.0000 0.76653  0.04558  0.29601  Biso   1.000  C
  O400     1.0000 0.75483  0.13102  0.31658  Biso   1.000  O
  C441     1.0000 0.76653  0.04562  0.29601  Biso   1.000  C
  O401     1.0000 0.13098  0.24521  0.31658  Biso   1.000  O
  H758     1.0000 0.20182  0.25148  0.33491  Biso   1.000  H
  C442     1.0000 0.13919  0.27211  0.35789  Biso   1.000  C
  H759     1.0000 0.20182  0.25153  0.33491  Biso   1.000  H
  O402     1.0000 0.13102  0.24521  0.31658  Biso   1.000  O
  C443     1.0000 0.13923  0.27211  0.35789  Biso   1.000  C
  H760     1.0000 0.66968  0.06200  0.37929  Biso   1.000  H
  H761     1.0000 0.66973  0.06200  0.37929  Biso   1.000  H
  O403     1.0000 0.73850  0.17122  0.37913  Biso   1.000  O
  C444     1.0000 0.76220  0.16272  0.33790  Biso   1.000  C
  H762     1.0000 0.68711  0.14239  0.35389  Biso   1.000  H
  H763     1.0000 0.68711  0.14243  0.35389  Biso   1.000  H
  O404     1.0000 0.70319  0.05089  0.28790  Biso   1.000  O
  H764     1.0000 0.77781  0.00551  0.29680  Biso   1.000  H
  H765     1.0000 0.79162  0.06511  0.28471  Biso   1.000  H
  O405     1.0000 0.70319  0.05093  0.28790  Biso   1.000  O
  O406     1.0000 0.70323  0.05089  0.28790  Biso   1.000  O
  O407     1.0000 0.70323  0.05093  0.28790  Biso   1.000  O
  C445     1.0000 0.07298  0.22930  0.32051  Biso   1.000  C
  C446     1.0000 0.07302  0.22930  0.32051  Biso   1.000  C
  O408     1.0000 0.17122  0.26150  0.37913  Biso   1.000  O
  H766     1.0000 0.14239  0.31289  0.35389  Biso   1.000  H
  C447     1.0000 0.07791  0.25809  0.36219  Biso   1.000  C
  H767     1.0000 0.14239  0.31293  0.35389  Biso   1.000  H
  C448     1.0000 0.07791  0.25813  0.36219  Biso   1.000  C
  H768     1.0000 0.14243  0.31289  0.35389  Biso   1.000  H
  H769     1.0000 0.14243  0.31293  0.35389  Biso   1.000  H
  H770     1.0000 0.71510  0.19529  0.38130  Biso   1.000  H
  H771     1.0000 0.71510  0.19534  0.38130  Biso   1.000  H
  O409     1.0000 0.81931  0.16642  0.34409  Biso   1.000  O
  H772     1.0000 0.74852  0.20182  0.33491  Biso   1.000  H
  H773     1.0000 0.68202  0.04861  0.29971  Biso   1.000  H
  C449     1.0000 0.04621  0.26432  0.33880  Biso   1.000  C
  H774     1.0000 0.07201  0.18911  0.32571  Biso   1.000  H
  C450     1.0000 0.04558  0.23351  0.29601  Biso   1.000  C
  C451     1.0000 0.04562  0.23351  0.29601  Biso   1.000  C
  H775     1.0000 0.19529  0.28490  0.38130  Biso   1.000  H
  H776     1.0000 0.19534  0.28490  0.38130  Biso   1.000  H
  O410     1.0000 0.05430  0.29702  0.37885  Biso   1.000  O
  H777     1.0000 0.07429  0.21870  0.36820  Biso   1.000  H
  H778     1.0000 0.07429  0.21874  0.36820  Biso   1.000  H
  O411     1.0000 0.05434  0.29702  0.37885  Biso   1.000  O
  H779     1.0000 0.07433  0.21870  0.36820  Biso   1.000  H
  H780     1.0000 0.07433  0.21874  0.36820  Biso   1.000  H
  C452     1.0000 0.84520  0.22042  0.33900  Biso   1.000  C
  O412     1.0000 0.98952  0.24879  0.34360  Biso   1.000  O
  O413     1.0000 0.98952  0.24883  0.34360  Biso   1.000  O
  H781     1.0000 0.04731  0.30460  0.33380  Biso   1.000  H
  H782     1.0000 0.04731  0.30464  0.33380  Biso   1.000  H
  O414     1.0000 0.05089  0.29681  0.28790  Biso   1.000  O
  H783     1.0000 0.00551  0.22219  0.29680  Biso   1.000  H
  H784     1.0000 0.06511  0.20838  0.28471  Biso   1.000  H
  H785     1.0000 0.00551  0.22223  0.29680  Biso   1.000  H
  H786     1.0000 0.06511  0.20843  0.28471  Biso   1.000  H
  O415     1.0000 0.05093  0.29681  0.28790  Biso   1.000  O
  H787     1.0000 0.06200  0.33032  0.37929  Biso   1.000  H
  C453     1.0000 0.87542  0.23722  0.36230  Biso   1.000  C
  H788     1.0000 0.81649  0.24900  0.33431  Biso   1.000  H
  C454     1.0000 0.89090  0.21280  0.31970  Biso   1.000  C
  H789     1.0000 0.81653  0.24900  0.33431  Biso   1.000  H
  C455     1.0000 0.94629  0.28671  0.33679  Biso   1.000  C
  C456     1.0000 0.94634  0.28671  0.33679  Biso   1.000  C
  H790     1.0000 0.04861  0.31798  0.29971  Biso   1.000  H
  H791     1.0000 0.04861  0.31803  0.29971  Biso   1.000  H
  O416     1.0000 0.83392  0.24399  0.38095  Biso   1.000  O
  C457     1.0000 0.90568  0.29159  0.35800  Biso   1.000  C
  H792     1.0000 0.90298  0.20742  0.36679  Biso   1.000  H
  O417     1.0000 0.83392  0.24403  0.38095  Biso   1.000  O
  C458     1.0000 0.90568  0.29164  0.35800  Biso   1.000  C
  C459     1.0000 0.90572  0.29159  0.35800  Biso   1.000  C
  H793     1.0000 0.90303  0.20742  0.36679  Biso   1.000  H
  C460     1.0000 0.90572  0.29164  0.35800  Biso   1.000  C
  O418     1.0000 0.91692  0.26781  0.31665  Biso   1.000  O
  H794     1.0000 0.91940  0.18401  0.32451  Biso   1.000  H
  C461     1.0000 0.86679  0.19950  0.29601  Biso   1.000  C
  C462     1.0000 0.86683  0.19950  0.29601  Biso   1.000  C
  H795     1.0000 0.96321  0.32442  0.33350  Biso   1.000  H
  H796     1.0000 0.80921  0.21840  0.37760  Biso   1.000  H
  O419     1.0000 0.93792  0.30700  0.37894  Biso   1.000  O
  H797     1.0000 0.87748  0.32181  0.35470  Biso   1.000  H
  O420     1.0000 0.93792  0.30704  0.37894  Biso   1.000  O
  H798     1.0000 0.87752  0.32181  0.35470  Biso   1.000  H
  O421     1.0000 0.82832  0.24201  0.28726  Biso   1.000  O
  H799     1.0000 0.89802  0.19521  0.28460  Biso   1.000  H
  H800     1.0000 0.84671  0.16310  0.29690  Biso   1.000  H
  H801     1.0000 0.84671  0.16314  0.29690  Biso   1.000  H
  H802     1.0000 0.92668  0.34109  0.38100  Biso   1.000  H
  H803     1.0000 0.92668  0.34113  0.38100  Biso   1.000  H
  H804     1.0000 0.92672  0.34109  0.38100  Biso   1.000  H
  H805     1.0000 0.92672  0.34113  0.38100  Biso   1.000  H
  H806     1.0000 0.84431  0.27362  0.28730  Biso   1.000  H
  O422     1.0000 0.06212  0.69300  0.37894  Biso   1.000  O
  C463     1.0000 0.09432  0.70841  0.35800  Biso   1.000  C
  H807     1.0000 0.07332  0.65891  0.38100  Biso   1.000  H
  O423     1.0000 0.06208  0.69300  0.37894  Biso   1.000  O
  C464     1.0000 0.05371  0.71329  0.33679  Biso   1.000  C
  H808     1.0000 0.12252  0.67819  0.35470  Biso   1.000  H
  C465     1.0000 0.12458  0.76278  0.36230  Biso   1.000  C
  C466     1.0000 0.05371  0.71333  0.33679  Biso   1.000  C
  H809     1.0000 0.12252  0.67823  0.35470  Biso   1.000  H
  C467     1.0000 0.12458  0.76283  0.36230  Biso   1.000  C
  C468     1.0000 0.12463  0.76278  0.36230  Biso   1.000  C
  C469     1.0000 0.12463  0.76283  0.36230  Biso   1.000  C
  O424     1.0000 0.01048  0.75121  0.34360  Biso   1.000  O
  O425     1.0000 0.08308  0.73219  0.31665  Biso   1.000  O
  H810     1.0000 0.03679  0.67558  0.33350  Biso   1.000  H
  O426     1.0000 0.08308  0.73223  0.31665  Biso   1.000  O
  H811     1.0000 0.03679  0.67562  0.33350  Biso   1.000  H
  O427     1.0000 0.01052  0.75121  0.34360  Biso   1.000  O
  O428     1.0000 0.08313  0.73219  0.31665  Biso   1.000  O
  H812     1.0000 0.03683  0.67558  0.33350  Biso   1.000  H
  O429     1.0000 0.08313  0.73223  0.31665  Biso   1.000  O
  H813     1.0000 0.03683  0.67562  0.33350  Biso   1.000  H
  O430     1.0000 0.16608  0.75601  0.38095  Biso   1.000  O
  H814     1.0000 0.09702  0.79258  0.36679  Biso   1.000  H
  C470     1.0000 0.15480  0.77958  0.33900  Biso   1.000  C
  H815     1.0000 0.09702  0.79263  0.36679  Biso   1.000  H
  C471     1.0000 0.15480  0.77962  0.33900  Biso   1.000  C
  O431     1.0000 0.16613  0.75601  0.38095  Biso   1.000  O
  C472     1.0000 0.95379  0.73568  0.33880  Biso   1.000  C
  C473     1.0000 0.95379  0.73572  0.33880  Biso   1.000  C
  C474     1.0000 0.95383  0.73568  0.33880  Biso   1.000  C
  C475     1.0000 0.95383  0.73572  0.33880  Biso   1.000  C
  C476     1.0000 0.10910  0.78720  0.31970  Biso   1.000  C
  C477     1.0000 0.10914  0.78720  0.31970  Biso   1.000  C
  H816     1.0000 0.19079  0.78160  0.37760  Biso   1.000  H
  H817     1.0000 0.19083  0.78160  0.37760  Biso   1.000  H
  H818     1.0000 0.18351  0.75100  0.33431  Biso   1.000  H
  O432     1.0000 0.18069  0.83358  0.34409  Biso   1.000  O
  O433     1.0000 0.18069  0.83362  0.34409  Biso   1.000  O
  O434     1.0000 0.18073  0.83358  0.34409  Biso   1.000  O
  O435     1.0000 0.18073  0.83362  0.34409  Biso   1.000  O
  C478     1.0000 0.92209  0.74191  0.36219  Biso   1.000  C
  H819     1.0000 0.95269  0.69540  0.33380  Biso   1.000  H
  C479     1.0000 0.92702  0.77070  0.32051  Biso   1.000  C
  C480     1.0000 0.92213  0.74191  0.36219  Biso   1.000  C
  H820     1.0000 0.95273  0.69540  0.33380  Biso   1.000  H
  C481     1.0000 0.13321  0.80050  0.29601  Biso   1.000  C
  H821     1.0000 0.08060  0.81599  0.32451  Biso   1.000  H
  H822     1.0000 0.08060  0.81603  0.32451  Biso   1.000  H
  C482     1.0000 0.23780  0.83728  0.33790  Biso   1.000  C
  C483     1.0000 0.23780  0.83732  0.33790  Biso   1.000  C
  O436     1.0000 0.94570  0.70298  0.37885  Biso   1.000  O
  C484     1.0000 0.86081  0.72789  0.35789  Biso   1.000  C
  H823     1.0000 0.92571  0.78130  0.36820  Biso   1.000  H
  O437     1.0000 0.94570  0.70302  0.37885  Biso   1.000  O
  O438     1.0000 0.86902  0.75479  0.31658  Biso   1.000  O
  H824     1.0000 0.92799  0.81089  0.32571  Biso   1.000  H
  C485     1.0000 0.95442  0.76649  0.29601  Biso   1.000  C
  O439     1.0000 0.86902  0.75483  0.31658  Biso   1.000  O
  C486     1.0000 0.95442  0.76653  0.29601  Biso   1.000  C
  H825     1.0000 0.92803  0.81089  0.32571  Biso   1.000  H
  O440     1.0000 0.17168  0.75799  0.28726  Biso   1.000  O
  H826     1.0000 0.10198  0.80479  0.28460  Biso   1.000  H
  H827     1.0000 0.15329  0.83690  0.29690  Biso   1.000  H
  O441     1.0000 0.17168  0.75803  0.28726  Biso   1.000  O
  H828     1.0000 0.10198  0.80483  0.28460  Biso   1.000  H
  O442     1.0000 0.17172  0.75799  0.28726  Biso   1.000  O
  H829     1.0000 0.10202  0.80479  0.28460  Biso   1.000  H
  H830     1.0000 0.15333  0.83690  0.29690  Biso   1.000  H
  O443     1.0000 0.17172  0.75803  0.28726  Biso   1.000  O
  H831     1.0000 0.10202  0.80483  0.28460  Biso   1.000  H
  O444     1.0000 0.24521  0.86902  0.31658  Biso   1.000  O
  C487     1.0000 0.27211  0.86081  0.35789  Biso   1.000  C
  H832     1.0000 0.25148  0.79818  0.33491  Biso   1.000  H
  H833     1.0000 0.25148  0.79822  0.33491  Biso   1.000  H
  H834     1.0000 0.25153  0.79818  0.33491  Biso   1.000  H
  H835     1.0000 0.25153  0.79822  0.33491  Biso   1.000  H
  H836     1.0000 0.93800  0.66968  0.37929  Biso   1.000  H
  H837     1.0000 0.93800  0.66973  0.37929  Biso   1.000  H
  O445     1.0000 0.82878  0.73850  0.37913  Biso   1.000  O
  C488     1.0000 0.83728  0.76220  0.33790  Biso   1.000  C
  H838     1.0000 0.85761  0.68711  0.35389  Biso   1.000  H
  O446     1.0000 0.82882  0.73850  0.37913  Biso   1.000  O
  C489     1.0000 0.83732  0.76220  0.33790  Biso   1.000  C
  O447     1.0000 0.94911  0.70319  0.28790  Biso   1.000  O
  H839     1.0000 0.99449  0.77781  0.29680  Biso   1.000  H
  H840     1.0000 0.93489  0.79162  0.28471  Biso   1.000  H
  O448     1.0000 0.94911  0.70323  0.28790  Biso   1.000  O
  H841     1.0000 0.99453  0.77781  0.29680  Biso   1.000  H
  H842     1.0000 0.93493  0.79162  0.28471  Biso   1.000  H
  H843     1.0000 0.15569  0.72638  0.28730  Biso   1.000  H
  H844     1.0000 0.15569  0.72642  0.28730  Biso   1.000  H
  H845     1.0000 0.15573  0.72638  0.28730  Biso   1.000  H
  H846     1.0000 0.15573  0.72642  0.28730  Biso   1.000  H
  C490     1.0000 0.22930  0.92702  0.32051  Biso   1.000  C
  O449     1.0000 0.26150  0.82878  0.37913  Biso   1.000  O
  H847     1.0000 0.31289  0.85761  0.35389  Biso   1.000  H
  C491     1.0000 0.25809  0.92209  0.36219  Biso   1.000  C
  O450     1.0000 0.26150  0.82882  0.37913  Biso   1.000  O
  C492     1.0000 0.25809  0.92213  0.36219  Biso   1.000  C
  H848     1.0000 0.31293  0.85761  0.35389  Biso   1.000  H
  C493     1.0000 0.25813  0.92209  0.36219  Biso   1.000  C
  C494     1.0000 0.25813  0.92213  0.36219  Biso   1.000  C
  H849     1.0000 0.80471  0.71510  0.38130  Biso   1.000  H
  O451     1.0000 0.83358  0.81931  0.34409  Biso   1.000  O
  H850     1.0000 0.79818  0.74852  0.33491  Biso   1.000  H
  O452     1.0000 0.83362  0.81931  0.34409  Biso   1.000  O
  H851     1.0000 0.79822  0.74852  0.33491  Biso   1.000  H
  H852     1.0000 0.95139  0.68202  0.29971  Biso   1.000  H
  H853     1.0000 0.95143  0.68202  0.29971  Biso   1.000  H
  C495     1.0000 0.23351  0.95442  0.29601  Biso   1.000  C
  C496     1.0000 0.26432  0.95379  0.33880  Biso   1.000  C
  H854     1.0000 0.18911  0.92799  0.32571  Biso   1.000  H
  C497     1.0000 0.26432  0.95383  0.33880  Biso   1.000  C
  H855     1.0000 0.18911  0.92803  0.32571  Biso   1.000  H
  H856     1.0000 0.28490  0.80471  0.38130  Biso   1.000  H
  O453     1.0000 0.29702  0.94570  0.37885  Biso   1.000  O
  H857     1.0000 0.21870  0.92571  0.36820  Biso   1.000  H
  H858     1.0000 0.21874  0.92571  0.36820  Biso   1.000  H
  C498     1.0000 0.77958  0.84520  0.33900  Biso   1.000  C
  C499     1.0000 0.77962  0.84520  0.33900  Biso   1.000  C
  O454     1.0000 0.29681  0.94911  0.28790  Biso   1.000  O
  H859     1.0000 0.22219  0.99449  0.29680  Biso   1.000  H
  H860     1.0000 0.20838  0.93489  0.28471  Biso   1.000  H
  H861     1.0000 0.22219  0.99453  0.29680  Biso   1.000  H
  H862     1.0000 0.20838  0.93493  0.28471  Biso   1.000  H
  H863     1.0000 0.22223  0.99449  0.29680  Biso   1.000  H
  H864     1.0000 0.20843  0.93489  0.28471  Biso   1.000  H
  H865     1.0000 0.22223  0.99453  0.29680  Biso   1.000  H
  H866     1.0000 0.20843  0.93493  0.28471  Biso   1.000  H
  H867     1.0000 0.30460  0.95269  0.33380  Biso   1.000  H
  H868     1.0000 0.30460  0.95273  0.33380  Biso   1.000  H
  H869     1.0000 0.30464  0.95269  0.33380  Biso   1.000  H
  H870     1.0000 0.30464  0.95273  0.33380  Biso   1.000  H
  O455     1.0000 0.24879  0.01048  0.34360  Biso   1.000  O
  O456     1.0000 0.24879  0.01052  0.34360  Biso   1.000  O
  O457     1.0000 0.24883  0.01048  0.34360  Biso   1.000  O
  O458     1.0000 0.24883  0.01052  0.34360  Biso   1.000  O
  H871     1.0000 0.33032  0.93800  0.37929  Biso   1.000  H
  C500     1.0000 0.76278  0.87542  0.36230  Biso   1.000  C
  H872     1.0000 0.75100  0.81649  0.33431  Biso   1.000  H
  C501     1.0000 0.78720  0.89090  0.31970  Biso   1.000  C
  H873     1.0000 0.75100  0.81653  0.33431  Biso   1.000  H
  C502     1.0000 0.76283  0.87542  0.36230  Biso   1.000  C
  H874     1.0000 0.31798  0.95139  0.29971  Biso   1.000  H
  H875     1.0000 0.31798  0.95143  0.29971  Biso   1.000  H
  H876     1.0000 0.31803  0.95139  0.29971  Biso   1.000  H
  H877     1.0000 0.31803  0.95143  0.29971  Biso   1.000  H
  C503     1.0000 0.28671  0.05371  0.33679  Biso   1.000  C
  O459     1.0000 0.75601  0.83392  0.38095  Biso   1.000  O
  C504     1.0000 0.70841  0.90568  0.35800  Biso   1.000  C
  H878     1.0000 0.79258  0.90298  0.36679  Biso   1.000  H
  C505     1.0000 0.70841  0.90572  0.35800  Biso   1.000  C
  H879     1.0000 0.79258  0.90303  0.36679  Biso   1.000  H
  H880     1.0000 0.79263  0.90298  0.36679  Biso   1.000  H
  H881     1.0000 0.79263  0.90303  0.36679  Biso   1.000  H
  O460     1.0000 0.73219  0.91692  0.31665  Biso   1.000  O
  H882     1.0000 0.81599  0.91940  0.32451  Biso   1.000  H
  C506     1.0000 0.80050  0.86679  0.29601  Biso   1.000  C
  C507     1.0000 0.80050  0.86683  0.29601  Biso   1.000  C
  O461     1.0000 0.73223  0.91692  0.31665  Biso   1.000  O
  H883     1.0000 0.81603  0.91940  0.32451  Biso   1.000  H
  O462     1.0000 0.26781  0.08308  0.31665  Biso   1.000  O
  H884     1.0000 0.32442  0.03679  0.33350  Biso   1.000  H
  C508     1.0000 0.29159  0.09432  0.35800  Biso   1.000  C
  O463     1.0000 0.26781  0.08313  0.31665  Biso   1.000  O
  H885     1.0000 0.32442  0.03683  0.33350  Biso   1.000  H
  C509     1.0000 0.29164  0.09432  0.35800  Biso   1.000  C
  H886     1.0000 0.78160  0.80921  0.37760  Biso   1.000  H
  O464     1.0000 0.69300  0.93792  0.37894  Biso   1.000  O
  C510     1.0000 0.71329  0.94629  0.33679  Biso   1.000  C
  H887     1.0000 0.67819  0.87748  0.35470  Biso   1.000  H
  C511     1.0000 0.71329  0.94634  0.33679  Biso   1.000  C
  H888     1.0000 0.67819  0.87752  0.35470  Biso   1.000  H
  C512     1.0000 0.71333  0.94629  0.33679  Biso   1.000  C
  H889     1.0000 0.67823  0.87748  0.35470  Biso   1.000  H
  C513     1.0000 0.71333  0.94634  0.33679  Biso   1.000  C
  H890     1.0000 0.67823  0.87752  0.35470  Biso   1.000  H
  O465     1.0000 0.75799  0.82832  0.28726  Biso   1.000  O
  H891     1.0000 0.80479  0.89802  0.28460  Biso   1.000  H
  H892     1.0000 0.83690  0.84671  0.29690  Biso   1.000  H
  O466     1.0000 0.75803  0.82832  0.28726  Biso   1.000  O
  H893     1.0000 0.80483  0.89802  0.28460  Biso   1.000  H
  C514     1.0000 0.21280  0.10910  0.31970  Biso   1.000  C
  C515     1.0000 0.21280  0.10914  0.31970  Biso   1.000  C
  O467     1.0000 0.30700  0.06208  0.37894  Biso   1.000  O
  H894     1.0000 0.32181  0.12252  0.35470  Biso   1.000  H
  C516     1.0000 0.23722  0.12458  0.36230  Biso   1.000  C
  O468     1.0000 0.30700  0.06212  0.37894  Biso   1.000  O
  C517     1.0000 0.23722  0.12463  0.36230  Biso   1.000  C
  O469     1.0000 0.30704  0.06208  0.37894  Biso   1.000  O
  O470     1.0000 0.30704  0.06212  0.37894  Biso   1.000  O
  H895     1.0000 0.65891  0.92668  0.38100  Biso   1.000  H
  H896     1.0000 0.65891  0.92672  0.38100  Biso   1.000  H
  O471     1.0000 0.75121  0.98952  0.34360  Biso   1.000  O
  H897     1.0000 0.67558  0.96321  0.33350  Biso   1.000  H
  H898     1.0000 0.67562  0.96321  0.33350  Biso   1.000  H
  H899     1.0000 0.72638  0.84431  0.28730  Biso   1.000  H
  H900     1.0000 0.72642  0.84431  0.28730  Biso   1.000  H
  C518     1.0000 0.22042  0.15480  0.33900  Biso   1.000  C
  H901     1.0000 0.18401  0.08060  0.32451  Biso   1.000  H
  C519     1.0000 0.19950  0.13321  0.29601  Biso   1.000  C
  H902     1.0000 0.34109  0.07332  0.38100  Biso   1.000  H
  H903     1.0000 0.34113  0.07332  0.38100  Biso   1.000  H
  O472     1.0000 0.24399  0.16608  0.38095  Biso   1.000  O
  H904     1.0000 0.20742  0.09702  0.36679  Biso   1.000  H
  O473     1.0000 0.24399  0.16613  0.38095  Biso   1.000  O
  O474     1.0000 0.24403  0.16608  0.38095  Biso   1.000  O
  O475     1.0000 0.24403  0.16613  0.38095  Biso   1.000  O
  C520     1.0000 0.73568  0.04621  0.33880  Biso   1.000  C
  C521     1.0000 0.73572  0.04621  0.33880  Biso   1.000  C
  O476     1.0000 0.16642  0.18069  0.34409  Biso   1.000  O
  H905     1.0000 0.24900  0.18351  0.33431  Biso   1.000  H
  O477     1.0000 0.16642  0.18073  0.34409  Biso   1.000  O
  O478     1.0000 0.24201  0.17168  0.28726  Biso   1.000  O
  H906     1.0000 0.19521  0.10198  0.28460  Biso   1.000  H
  H907     1.0000 0.16310  0.15329  0.29690  Biso   1.000  H
  O479     1.0000 0.24201  0.17172  0.28726  Biso   1.000  O
  H908     1.0000 0.19521  0.10202  0.28460  Biso   1.000  H
  H909     1.0000 0.16310  0.15333  0.29690  Biso   1.000  H
  H910     1.0000 0.16314  0.15329  0.29690  Biso   1.000  H
  H911     1.0000 0.16314  0.15333  0.29690  Biso   1.000  H
  H912     1.0000 0.21840  0.19079  0.37760  Biso   1.000  H
  H913     1.0000 0.21840  0.19083  0.37760  Biso   1.000  H
  C522     1.0000 0.74191  0.07791  0.36219  Biso   1.000  C
  H914     1.0000 0.69540  0.04731  0.33380  Biso   1.000  H
  C523     1.0000 0.77070  0.07298  0.32051  Biso   1.000  C
  C524     1.0000 0.77070  0.07302  0.32051  Biso   1.000  C
  C525     1.0000 0.16272  0.23780  0.33790  Biso   1.000  C
  H915     1.0000 0.27362  0.15569  0.28730  Biso   1.000  H
  H916     1.0000 0.27362  0.15573  0.28730  Biso   1.000  H
  O480     1.0000 0.70298  0.05430  0.37885  Biso   1.000  O
  C526     1.0000 0.72789  0.13919  0.35789  Biso   1.000  C
  H917     1.0000 0.78130  0.07429  0.36820  Biso   1.000  H
  O481     1.0000 0.70298  0.05434  0.37885  Biso   1.000  O
  C527     1.0000 0.72789  0.13923  0.35789  Biso   1.000  C
  H918     1.0000 0.78130  0.07433  0.36820  Biso   1.000  H
  O482     1.0000 0.70302  0.05430  0.37885  Biso   1.000  O
  O483     1.0000 0.70302  0.05434  0.37885  Biso   1.000  O
  O484     1.0000 0.75479  0.13098  0.31658  Biso   1.000  O
  H919     1.0000 0.81089  0.07201  0.32571  Biso   1.000  H
  C528     1.0000 0.76649  0.04558  0.29601  Biso   1.000  C
  O485     1.0000 0.75479  0.13102  0.31658  Biso   1.000  O
  C529     1.0000 0.76649  0.04562  0.29601  Biso   1.000  C
  O486     1.0000 0.75483  0.13098  0.31658  Biso   1.000  O
  C530     1.0000 0.76653  0.04558  0.29601  Biso   1.000  C
  O487     1.0000 0.75483  0.13102  0.31658  Biso   1.000  O
  C531     1.0000 0.76653  0.04562  0.29601  Biso   1.000  C
  O488     1.0000 0.13098  0.24521  0.31658  Biso   1.000  O
  H920     1.0000 0.20182  0.25148  0.33491  Biso   1.000  H
  C532     1.0000 0.13919  0.27211  0.35789  Biso   1.000  C
  H921     1.0000 0.20182  0.25153  0.33491  Biso   1.000  H
  O489     1.0000 0.13102  0.24521  0.31658  Biso   1.000  O
  C533     1.0000 0.13923  0.27211  0.35789  Biso   1.000  C
  H922     1.0000 0.66968  0.06200  0.37929  Biso   1.000  H
  H923     1.0000 0.66973  0.06200  0.37929  Biso   1.000  H
  O490     1.0000 0.73850  0.17122  0.37913  Biso   1.000  O
  C534     1.0000 0.76220  0.16272  0.33790  Biso   1.000  C
  H924     1.0000 0.68711  0.14239  0.35389  Biso   1.000  H
  H925     1.0000 0.68711  0.14243  0.35389  Biso   1.000  H
  O491     1.0000 0.70319  0.05089  0.28790  Biso   1.000  O
  H926     1.0000 0.77781  0.00551  0.29680  Biso   1.000  H
  H927     1.0000 0.79162  0.06511  0.28471  Biso   1.000  H
  O492     1.0000 0.70319  0.05093  0.28790  Biso   1.000  O
  O493     1.0000 0.70323  0.05089  0.28790  Biso   1.000  O
  O494     1.0000 0.70323  0.05093  0.28790  Biso   1.000  O
  C535     1.0000 0.07298  0.22930  0.32051  Biso   1.000  C
  C536     1.0000 0.07302  0.22930  0.32051  Biso   1.000  C
  O495     1.0000 0.17122  0.26150  0.37913  Biso   1.000  O
  H928     1.0000 0.14239  0.31289  0.35389  Biso   1.000  H
  C537     1.0000 0.07791  0.25809  0.36219  Biso   1.000  C
  H929     1.0000 0.14239  0.31293  0.35389  Biso   1.000  H
  C538     1.0000 0.07791  0.25813  0.36219  Biso   1.000  C
  H930     1.0000 0.14243  0.31289  0.35389  Biso   1.000  H
  H931     1.0000 0.14243  0.31293  0.35389  Biso   1.000  H
  H932     1.0000 0.71510  0.19529  0.38130  Biso   1.000  H
  H933     1.0000 0.71510  0.19534  0.38130  Biso   1.000  H
  O496     1.0000 0.81931  0.16642  0.34409  Biso   1.000  O
  H934     1.0000 0.74852  0.20182  0.33491  Biso   1.000  H
  H935     1.0000 0.68202  0.04861  0.29971  Biso   1.000  H
  C539     1.0000 0.04621  0.26432  0.33880  Biso   1.000  C
  H936     1.0000 0.07201  0.18911  0.32571  Biso   1.000  H
  C540     1.0000 0.04558  0.23351  0.29601  Biso   1.000  C
  C541     1.0000 0.04562  0.23351  0.29601  Biso   1.000  C
  H937     1.0000 0.19529  0.28490  0.38130  Biso   1.000  H
  H938     1.0000 0.19534  0.28490  0.38130  Biso   1.000  H
  O497     1.0000 0.05430  0.29702  0.37885  Biso   1.000  O
  H939     1.0000 0.07429  0.21870  0.36820  Biso   1.000  H
  H940     1.0000 0.07429  0.21874  0.36820  Biso   1.000  H
  O498     1.0000 0.05434  0.29702  0.37885  Biso   1.000  O
  H941     1.0000 0.07433  0.21870  0.36820  Biso   1.000  H
  H942     1.0000 0.07433  0.21874  0.36820  Biso   1.000  H
  C542     1.0000 0.84520  0.22042  0.33900  Biso   1.000  C
  O499     1.0000 0.98952  0.24879  0.34360  Biso   1.000  O
  O500     1.0000 0.98952  0.24883  0.34360  Biso   1.000  O
  H943     1.0000 0.04731  0.30460  0.33380  Biso   1.000  H
  H944     1.0000 0.04731  0.30464  0.33380  Biso   1.000  H
  O501     1.0000 0.05089  0.29681  0.28790  Biso   1.000  O
  H945     1.0000 0.00551  0.22219  0.29680  Biso   1.000  H
  H946     1.0000 0.06511  0.20838  0.28471  Biso   1.000  H
  H947     1.0000 0.00551  0.22223  0.29680  Biso   1.000  H
  H948     1.0000 0.06511  0.20843  0.28471  Biso   1.000  H
  O502     1.0000 0.05093  0.29681  0.28790  Biso   1.000  O
  H949     1.0000 0.06200  0.33032  0.37929  Biso   1.000  H
  C543     1.0000 0.87542  0.23722  0.36230  Biso   1.000  C
  H950     1.0000 0.81649  0.24900  0.33431  Biso   1.000  H
  C544     1.0000 0.89090  0.21280  0.31970  Biso   1.000  C
  H951     1.0000 0.81653  0.24900  0.33431  Biso   1.000  H
  C545     1.0000 0.94629  0.28671  0.33679  Biso   1.000  C
  C546     1.0000 0.94634  0.28671  0.33679  Biso   1.000  C
  H952     1.0000 0.04861  0.31798  0.29971  Biso   1.000  H
  H953     1.0000 0.04861  0.31803  0.29971  Biso   1.000  H
  O503     1.0000 0.83392  0.24399  0.38095  Biso   1.000  O
  C547     1.0000 0.90568  0.29159  0.35800  Biso   1.000  C
  H954     1.0000 0.90298  0.20742  0.36679  Biso   1.000  H
  O504     1.0000 0.83392  0.24403  0.38095  Biso   1.000  O
  C548     1.0000 0.90568  0.29164  0.35800  Biso   1.000  C
  C549     1.0000 0.90572  0.29159  0.35800  Biso   1.000  C
  H955     1.0000 0.90303  0.20742  0.36679  Biso   1.000  H
  C550     1.0000 0.90572  0.29164  0.35800  Biso   1.000  C
  O505     1.0000 0.91692  0.26781  0.31665  Biso   1.000  O
  H956     1.0000 0.91940  0.18401  0.32451  Biso   1.000  H
  C551     1.0000 0.86679  0.19950  0.29601  Biso   1.000  C
  C552     1.0000 0.86683  0.19950  0.29601  Biso   1.000  C
  H957     1.0000 0.96321  0.32442  0.33350  Biso   1.000  H
  H958     1.0000 0.80921  0.21840  0.37760  Biso   1.000  H
  O506     1.0000 0.93792  0.30700  0.37894  Biso   1.000  O
  H959     1.0000 0.87748  0.32181  0.35470  Biso   1.000  H
  O507     1.0000 0.93792  0.30704  0.37894  Biso   1.000  O
  H960     1.0000 0.87752  0.32181  0.35470  Biso   1.000  H
  O508     1.0000 0.82832  0.24201  0.28726  Biso   1.000  O
  H961     1.0000 0.89802  0.19521  0.28460  Biso   1.000  H
  H962     1.0000 0.84671  0.16310  0.29690  Biso   1.000  H
  H963     1.0000 0.84671  0.16314  0.29690  Biso   1.000  H
  H964     1.0000 0.92668  0.34109  0.38100  Biso   1.000  H
  H965     1.0000 0.92668  0.34113  0.38100  Biso   1.000  H
  H966     1.0000 0.92672  0.34109  0.38100  Biso   1.000  H
  H967     1.0000 0.92672  0.34113  0.38100  Biso   1.000  H
  H968     1.0000 0.84431  0.27362  0.28730  Biso   1.000  H
  O509     1.0000 0.69300  0.06212  0.62106  Biso   1.000  O
  H969     1.0000 0.65891  0.07332  0.61900  Biso   1.000  H
  C553     1.0000 0.70841  0.09432  0.64200  Biso   1.000  C
  O510     1.0000 0.69300  0.06208  0.62106  Biso   1.000  O
  C554     1.0000 0.71329  0.05371  0.66321  Biso   1.000  C
  H970     1.0000 0.67819  0.12252  0.64530  Biso   1.000  H
  C555     1.0000 0.76278  0.12458  0.63770  Biso   1.000  C
  C556     1.0000 0.76278  0.12463  0.63770  Biso   1.000  C
  C557     1.0000 0.71333  0.05371  0.66321  Biso   1.000  C
  H971     1.0000 0.67823  0.12252  0.64530  Biso   1.000  H
  C558     1.0000 0.76283  0.12458  0.63770  Biso   1.000  C
  C559     1.0000 0.76283  0.12463  0.63770  Biso   1.000  C
  O511     1.0000 0.75121  0.01048  0.65640  Biso   1.000  O
  O512     1.0000 0.73219  0.08308  0.68335  Biso   1.000  O
  H972     1.0000 0.67558  0.03679  0.66650  Biso   1.000  H
  O513     1.0000 0.75121  0.01052  0.65640  Biso   1.000  O
  O514     1.0000 0.73219  0.08313  0.68335  Biso   1.000  O
  H973     1.0000 0.67558  0.03683  0.66650  Biso   1.000  H
  O515     1.0000 0.73223  0.08308  0.68335  Biso   1.000  O
  H974     1.0000 0.67562  0.03679  0.66650  Biso   1.000  H
  O516     1.0000 0.73223  0.08313  0.68335  Biso   1.000  O
  H975     1.0000 0.67562  0.03683  0.66650  Biso   1.000  H
  O517     1.0000 0.75601  0.16608  0.61905  Biso   1.000  O
  H976     1.0000 0.79258  0.09702  0.63321  Biso   1.000  H
  C560     1.0000 0.77958  0.15480  0.66100  Biso   1.000  C
  O518     1.0000 0.75601  0.16613  0.61905  Biso   1.000  O
  H977     1.0000 0.79263  0.09702  0.63321  Biso   1.000  H
  C561     1.0000 0.77962  0.15480  0.66100  Biso   1.000  C
  C562     1.0000 0.73568  0.95379  0.66120  Biso   1.000  C
  C563     1.0000 0.73568  0.95383  0.66120  Biso   1.000  C
  C564     1.0000 0.73572  0.95379  0.66120  Biso   1.000  C
  C565     1.0000 0.73572  0.95383  0.66120  Biso   1.000  C
  C566     1.0000 0.78720  0.10910  0.68030  Biso   1.000  C
  C567     1.0000 0.78720  0.10914  0.68030  Biso   1.000  C
  H978     1.0000 0.78160  0.19079  0.62240  Biso   1.000  H
  H979     1.0000 0.78160  0.19083  0.62240  Biso   1.000  H
  O519     1.0000 0.83358  0.18069  0.65591  Biso   1.000  O
  H980     1.0000 0.75100  0.18351  0.66569  Biso   1.000  H
  O520     1.0000 0.83358  0.18073  0.65591  Biso   1.000  O
  O521     1.0000 0.83362  0.18069  0.65591  Biso   1.000  O
  O522     1.0000 0.83362  0.18073  0.65591  Biso   1.000  O
  C568     1.0000 0.74191  0.92209  0.63781  Biso   1.000  C
  H981     1.0000 0.69540  0.95269  0.66620  Biso   1.000  H
  C569     1.0000 0.77070  0.92702  0.67949  Biso   1.000  C
  C570     1.0000 0.74191  0.92213  0.63781  Biso   1.000  C
  H982     1.0000 0.69540  0.95273  0.66620  Biso   1.000  H
  H983     1.0000 0.81599  0.08060  0.67549  Biso   1.000  H
  C571     1.0000 0.80050  0.13321  0.70399  Biso   1.000  C
  H984     1.0000 0.81603  0.08060  0.67549  Biso   1.000  H
  C572     1.0000 0.83728  0.23780  0.66210  Biso   1.000  C
  C573     1.0000 0.83732  0.23780  0.66210  Biso   1.000  C
  O523     1.0000 0.70298  0.94570  0.62115  Biso   1.000  O
  C574     1.0000 0.72789  0.86081  0.64211  Biso   1.000  C
  H985     1.0000 0.78130  0.92571  0.63180  Biso   1.000  H
  O524     1.0000 0.70302  0.94570  0.62115  Biso   1.000  O
  O525     1.0000 0.75479  0.86902  0.68342  Biso   1.000  O
  H986     1.0000 0.81089  0.92799  0.67429  Biso   1.000  H
  C575     1.0000 0.76649  0.95442  0.70399  Biso   1.000  C
  H987     1.0000 0.81089  0.92803  0.67429  Biso   1.000  H
  O526     1.0000 0.75483  0.86902  0.68342  Biso   1.000  O
  C576     1.0000 0.76653  0.95442  0.70399  Biso   1.000  C
  O527     1.0000 0.75799  0.17168  0.71274  Biso   1.000  O
  H988     1.0000 0.80479  0.10198  0.71540  Biso   1.000  H
  H989     1.0000 0.83690  0.15329  0.70310  Biso   1.000  H
  O528     1.0000 0.75799  0.17172  0.71274  Biso   1.000  O
  H990     1.0000 0.80479  0.10202  0.71540  Biso   1.000  H
  H991     1.0000 0.83690  0.15333  0.70310  Biso   1.000  H
  O529     1.0000 0.75803  0.17168  0.71274  Biso   1.000  O
  H992     1.0000 0.80483  0.10198  0.71540  Biso   1.000  H
  O530     1.0000 0.75803  0.17172  0.71274  Biso   1.000  O
  H993     1.0000 0.80483  0.10202  0.71540  Biso   1.000  H
  O531     1.0000 0.86902  0.24521  0.68342  Biso   1.000  O
  H994     1.0000 0.79818  0.25148  0.66509  Biso   1.000  H
  C577     1.0000 0.86081  0.27211  0.64211  Biso   1.000  C
  H995     1.0000 0.79818  0.25153  0.66509  Biso   1.000  H
  H996     1.0000 0.79822  0.25148  0.66509  Biso   1.000  H
  H997     1.0000 0.79822  0.25153  0.66509  Biso   1.000  H
  H998     1.0000 0.66968  0.93800  0.62071  Biso   1.000  H
  H999     1.0000 0.66973  0.93800  0.62071  Biso   1.000  H
  O532     1.0000 0.73850  0.82878  0.62087  Biso   1.000  O
  C578     1.0000 0.76220  0.83728  0.66210  Biso   1.000  C
  H1000    1.0000 0.68711  0.85761  0.64611  Biso   1.000  H
  O533     1.0000 0.73850  0.82882  0.62087  Biso   1.000  O
  C579     1.0000 0.76220  0.83732  0.66210  Biso   1.000  C
  O534     1.0000 0.70319  0.94911  0.71210  Biso   1.000  O
  H1001    1.0000 0.77781  0.99449  0.70320  Biso   1.000  H
  H1002    1.0000 0.79162  0.93489  0.71529  Biso   1.000  H
  H1003    1.0000 0.77781  0.99453  0.70320  Biso   1.000  H
  H1004    1.0000 0.79162  0.93493  0.71529  Biso   1.000  H
  O535     1.0000 0.70323  0.94911  0.71210  Biso   1.000  O
  H1005    1.0000 0.72638  0.15569  0.71270  Biso   1.000  H
  H1006    1.0000 0.72638  0.15573  0.71270  Biso   1.000  H
  H1007    1.0000 0.72642  0.15569  0.71270  Biso   1.000  H
  H1008    1.0000 0.72642  0.15573  0.71270  Biso   1.000  H
  C580     1.0000 0.92702  0.22930  0.67949  Biso   1.000  C
  O536     1.0000 0.82878  0.26150  0.62087  Biso   1.000  O
  H1009    1.0000 0.85761  0.31289  0.64611  Biso   1.000  H
  C581     1.0000 0.92209  0.25809  0.63781  Biso   1.000  C
  H1010    1.0000 0.85761  0.31293  0.64611  Biso   1.000  H
  C582     1.0000 0.92209  0.25813  0.63781  Biso   1.000  C
  O537     1.0000 0.82882  0.26150  0.62087  Biso   1.000  O
  C583     1.0000 0.92213  0.25809  0.63781  Biso   1.000  C
  C584     1.0000 0.92213  0.25813  0.63781  Biso   1.000  C
  H1011    1.0000 0.71510  0.80471  0.61870  Biso   1.000  H
  O538     1.0000 0.81931  0.83358  0.65591  Biso   1.000  O
  H1012    1.0000 0.74852  0.79818  0.66509  Biso   1.000  H
  O539     1.0000 0.81931  0.83362  0.65591  Biso   1.000  O
  H1013    1.0000 0.74852  0.79822  0.66509  Biso   1.000  H
  H1014    1.0000 0.68202  0.95139  0.70029  Biso   1.000  H
  H1015    1.0000 0.68202  0.95143  0.70029  Biso   1.000  H
  C585     1.0000 0.95379  0.26432  0.66120  Biso   1.000  C
  H1016    1.0000 0.92799  0.18911  0.67429  Biso   1.000  H
  C586     1.0000 0.95442  0.23351  0.70399  Biso   1.000  C
  C587     1.0000 0.95383  0.26432  0.66120  Biso   1.000  C
  H1017    1.0000 0.92803  0.18911  0.67429  Biso   1.000  H
  H1018    1.0000 0.80471  0.28490  0.61870  Biso   1.000  H
  O540     1.0000 0.94570  0.29702  0.62115  Biso   1.000  O
  H1019    1.0000 0.92571  0.21870  0.63180  Biso   1.000  H
  H1020    1.0000 0.92571  0.21874  0.63180  Biso   1.000  H
  C588     1.0000 0.84520  0.77958  0.66100  Biso   1.000  C
  C589     1.0000 0.84520  0.77962  0.66100  Biso   1.000  C
  H1021    1.0000 0.95269  0.30460  0.66620  Biso   1.000  H
  H1022    1.0000 0.95269  0.30464  0.66620  Biso   1.000  H
  H1023    1.0000 0.95273  0.30460  0.66620  Biso   1.000  H
  H1024    1.0000 0.95273  0.30464  0.66620  Biso   1.000  H
  O541     1.0000 0.01048  0.24879  0.65640  Biso   1.000  O
  O542     1.0000 0.01048  0.24883  0.65640  Biso   1.000  O
  O543     1.0000 0.01052  0.24879  0.65640  Biso   1.000  O
  O544     1.0000 0.01052  0.24883  0.65640  Biso   1.000  O
  O545     1.0000 0.94911  0.29681  0.71210  Biso   1.000  O
  H1025    1.0000 0.99449  0.22219  0.70320  Biso   1.000  H
  H1026    1.0000 0.93489  0.20838  0.71529  Biso   1.000  H
  H1027    1.0000 0.99449  0.22223  0.70320  Biso   1.000  H
  H1028    1.0000 0.93489  0.20843  0.71529  Biso   1.000  H
  H1029    1.0000 0.99453  0.22219  0.70320  Biso   1.000  H
  H1030    1.0000 0.93493  0.20838  0.71529  Biso   1.000  H
  H1031    1.0000 0.99453  0.22223  0.70320  Biso   1.000  H
  H1032    1.0000 0.93493  0.20843  0.71529  Biso   1.000  H
  H1033    1.0000 0.93800  0.33032  0.62071  Biso   1.000  H
  C590     1.0000 0.87542  0.76278  0.63770  Biso   1.000  C
  H1034    1.0000 0.81649  0.75100  0.66569  Biso   1.000  H
  C591     1.0000 0.89090  0.78720  0.68030  Biso   1.000  C
  C592     1.0000 0.87542  0.76283  0.63770  Biso   1.000  C
  H1035    1.0000 0.81653  0.75100  0.66569  Biso   1.000  H
  C593     1.0000 0.05371  0.28671  0.66321  Biso   1.000  C
  H1036    1.0000 0.95139  0.31798  0.70029  Biso   1.000  H
  H1037    1.0000 0.95139  0.31803  0.70029  Biso   1.000  H
  H1038    1.0000 0.95143  0.31798  0.70029  Biso   1.000  H
  H1039    1.0000 0.95143  0.31803  0.70029  Biso   1.000  H
  O546     1.0000 0.83392  0.75601  0.61905  Biso   1.000  O
  C594     1.0000 0.90568  0.70841  0.64200  Biso   1.000  C
  H1040    1.0000 0.90298  0.79258  0.63321  Biso   1.000  H
  H1041    1.0000 0.90298  0.79263  0.63321  Biso   1.000  H
  C595     1.0000 0.90572  0.70841  0.64200  Biso   1.000  C
  H1042    1.0000 0.90303  0.79258  0.63321  Biso   1.000  H
  H1043    1.0000 0.90303  0.79263  0.63321  Biso   1.000  H
  O547     1.0000 0.91692  0.73219  0.68335  Biso   1.000  O
  H1044    1.0000 0.91940  0.81599  0.67549  Biso   1.000  H
  C596     1.0000 0.86679  0.80050  0.70399  Biso   1.000  C
  O548     1.0000 0.91692  0.73223  0.68335  Biso   1.000  O
  H1045    1.0000 0.91940  0.81603  0.67549  Biso   1.000  H
  C597     1.0000 0.86683  0.80050  0.70399  Biso   1.000  C
  O549     1.0000 0.08308  0.26781  0.68335  Biso   1.000  O
  H1046    1.0000 0.03679  0.32442  0.66650  Biso   1.000  H
  C598     1.0000 0.09432  0.29159  0.64200  Biso   1.000  C
  C599     1.0000 0.09432  0.29164  0.64200  Biso   1.000  C
  O550     1.0000 0.08313  0.26781  0.68335  Biso   1.000  O
  H1047    1.0000 0.03683  0.32442  0.66650  Biso   1.000  H
  H1048    1.0000 0.80921  0.78160  0.62240  Biso   1.000  H
  O551     1.0000 0.93792  0.69300  0.62106  Biso   1.000  O
  C600     1.0000 0.94629  0.71329  0.66321  Biso   1.000  C
  H1049    1.0000 0.87748  0.67819  0.64530  Biso   1.000  H
  C601     1.0000 0.94629  0.71333  0.66321  Biso   1.000  C
  H1050    1.0000 0.87748  0.67823  0.64530  Biso   1.000  H
  C602     1.0000 0.94634  0.71329  0.66321  Biso   1.000  C
  H1051    1.0000 0.87752  0.67819  0.64530  Biso   1.000  H
  C603     1.0000 0.94634  0.71333  0.66321  Biso   1.000  C
  H1052    1.0000 0.87752  0.67823  0.64530  Biso   1.000  H
  O552     1.0000 0.82832  0.75799  0.71274  Biso   1.000  O
  H1053    1.0000 0.89802  0.80479  0.71540  Biso   1.000  H
  H1054    1.0000 0.84671  0.83690  0.70310  Biso   1.000  H
  O553     1.0000 0.82832  0.75803  0.71274  Biso   1.000  O
  H1055    1.0000 0.89802  0.80483  0.71540  Biso   1.000  H
  C604     1.0000 0.10910  0.21280  0.68030  Biso   1.000  C
  C605     1.0000 0.10914  0.21280  0.68030  Biso   1.000  C
  O554     1.0000 0.06208  0.30700  0.62106  Biso   1.000  O
  H1056    1.0000 0.12252  0.32181  0.64530  Biso   1.000  H
  C606     1.0000 0.12458  0.23722  0.63770  Biso   1.000  C
  O555     1.0000 0.06208  0.30704  0.62106  Biso   1.000  O
  O556     1.0000 0.06212  0.30700  0.62106  Biso   1.000  O
  C607     1.0000 0.12463  0.23722  0.63770  Biso   1.000  C
  O557     1.0000 0.06212  0.30704  0.62106  Biso   1.000  O
  H1057    1.0000 0.92668  0.65891  0.61900  Biso   1.000  H
  H1058    1.0000 0.92672  0.65891  0.61900  Biso   1.000  H
  O558     1.0000 0.98952  0.75121  0.65640  Biso   1.000  O
  H1059    1.0000 0.96321  0.67558  0.66650  Biso   1.000  H
  H1060    1.0000 0.96321  0.67562  0.66650  Biso   1.000  H
  H1061    1.0000 0.84431  0.72638  0.71270  Biso   1.000  H
  H1062    1.0000 0.84431  0.72642  0.71270  Biso   1.000  H
  C608     1.0000 0.15480  0.22042  0.66100  Biso   1.000  C
  H1063    1.0000 0.08060  0.18401  0.67549  Biso   1.000  H
  C609     1.0000 0.13321  0.19950  0.70399  Biso   1.000  C
  H1064    1.0000 0.07332  0.34109  0.61900  Biso   1.000  H
  H1065    1.0000 0.07332  0.34113  0.61900  Biso   1.000  H
  O559     1.0000 0.16608  0.24399  0.61905  Biso   1.000  O
  H1066    1.0000 0.09702  0.20742  0.63321  Biso   1.000  H
  O560     1.0000 0.16608  0.24403  0.61905  Biso   1.000  O
  O561     1.0000 0.16613  0.24399  0.61905  Biso   1.000  O
  O562     1.0000 0.16613  0.24403  0.61905  Biso   1.000  O
  C610     1.0000 0.04621  0.73568  0.66120  Biso   1.000  C
  C611     1.0000 0.04621  0.73572  0.66120  Biso   1.000  C
  O563     1.0000 0.18069  0.16642  0.65591  Biso   1.000  O
  H1067    1.0000 0.18351  0.24900  0.66569  Biso   1.000  H
  O564     1.0000 0.18073  0.16642  0.65591  Biso   1.000  O
  O565     1.0000 0.17168  0.24201  0.71274  Biso   1.000  O
  H1068    1.0000 0.10198  0.19521  0.71540  Biso   1.000  H
  H1069    1.0000 0.15329  0.16310  0.70310  Biso   1.000  H
  H1070    1.0000 0.15329  0.16314  0.70310  Biso   1.000  H
  O566     1.0000 0.17172  0.24201  0.71274  Biso   1.000  O
  H1071    1.0000 0.10202  0.19521  0.71540  Biso   1.000  H
  H1072    1.0000 0.15333  0.16310  0.70310  Biso   1.000  H
  H1073    1.0000 0.15333  0.16314  0.70310  Biso   1.000  H
  H1074    1.0000 0.19079  0.21840  0.62240  Biso   1.000  H
  H1075    1.0000 0.19083  0.21840  0.62240  Biso   1.000  H
  C612     1.0000 0.07791  0.74191  0.63781  Biso   1.000  C
  H1076    1.0000 0.04731  0.69540  0.66620  Biso   1.000  H
  C613     1.0000 0.07298  0.77070  0.67949  Biso   1.000  C
  C614     1.0000 0.07302  0.77070  0.67949  Biso   1.000  C
  C615     1.0000 0.23780  0.16272  0.66210  Biso   1.000  C
  H1077    1.0000 0.15569  0.27362  0.71270  Biso   1.000  H
  H1078    1.0000 0.15573  0.27362  0.71270  Biso   1.000  H
  O567     1.0000 0.05430  0.70298  0.62115  Biso   1.000  O
  C616     1.0000 0.13919  0.72789  0.64211  Biso   1.000  C
  H1079    1.0000 0.07429  0.78130  0.63180  Biso   1.000  H
  O568     1.0000 0.05430  0.70302  0.62115  Biso   1.000  O
  O569     1.0000 0.05434  0.70298  0.62115  Biso   1.000  O
  C617     1.0000 0.13923  0.72789  0.64211  Biso   1.000  C
  H1080    1.0000 0.07433  0.78130  0.63180  Biso   1.000  H
  O570     1.0000 0.05434  0.70302  0.62115  Biso   1.000  O
  O571     1.0000 0.13098  0.75479  0.68342  Biso   1.000  O
  H1081    1.0000 0.07201  0.81089  0.67429  Biso   1.000  H
  C618     1.0000 0.04558  0.76649  0.70399  Biso   1.000  C
  O572     1.0000 0.13098  0.75483  0.68342  Biso   1.000  O
  C619     1.0000 0.04558  0.76653  0.70399  Biso   1.000  C
  O573     1.0000 0.13102  0.75479  0.68342  Biso   1.000  O
  C620     1.0000 0.04562  0.76649  0.70399  Biso   1.000  C
  O574     1.0000 0.13102  0.75483  0.68342  Biso   1.000  O
  C621     1.0000 0.04562  0.76653  0.70399  Biso   1.000  C
  O575     1.0000 0.24521  0.13098  0.68342  Biso   1.000  O
  H1082    1.0000 0.25148  0.20182  0.66509  Biso   1.000  H
  C622     1.0000 0.27211  0.13919  0.64211  Biso   1.000  C
  O576     1.0000 0.24521  0.13102  0.68342  Biso   1.000  O
  C623     1.0000 0.27211  0.13923  0.64211  Biso   1.000  C
  H1083    1.0000 0.25153  0.20182  0.66509  Biso   1.000  H
  H1084    1.0000 0.06200  0.66968  0.62071  Biso   1.000  H
  H1085    1.0000 0.06200  0.66973  0.62071  Biso   1.000  H
  O577     1.0000 0.17122  0.73850  0.62087  Biso   1.000  O
  C624     1.0000 0.16272  0.76220  0.66210  Biso   1.000  C
  H1086    1.0000 0.14239  0.68711  0.64611  Biso   1.000  H
  H1087    1.0000 0.14243  0.68711  0.64611  Biso   1.000  H
  O578     1.0000 0.05089  0.70319  0.71210  Biso   1.000  O
  H1088    1.0000 0.00551  0.77781  0.70320  Biso   1.000  H
  H1089    1.0000 0.06511  0.79162  0.71529  Biso   1.000  H
  O579     1.0000 0.05089  0.70323  0.71210  Biso   1.000  O
  O580     1.0000 0.05093  0.70319  0.71210  Biso   1.000  O
  O581     1.0000 0.05093  0.70323  0.71210  Biso   1.000  O
  C625     1.0000 0.22930  0.07298  0.67949  Biso   1.000  C
  C626     1.0000 0.22930  0.07302  0.67949  Biso   1.000  C
  O582     1.0000 0.26150  0.17122  0.62087  Biso   1.000  O
  H1090    1.0000 0.31289  0.14239  0.64611  Biso   1.000  H
  C627     1.0000 0.25809  0.07791  0.63781  Biso   1.000  C
  H1091    1.0000 0.31289  0.14243  0.64611  Biso   1.000  H
  H1092    1.0000 0.31293  0.14239  0.64611  Biso   1.000  H
  C628     1.0000 0.25813  0.07791  0.63781  Biso   1.000  C
  H1093    1.0000 0.31293  0.14243  0.64611  Biso   1.000  H
  H1094    1.0000 0.19529  0.71510  0.61870  Biso   1.000  H
  H1095    1.0000 0.19534  0.71510  0.61870  Biso   1.000  H
  O583     1.0000 0.16642  0.81931  0.65591  Biso   1.000  O
  H1096    1.0000 0.20182  0.74852  0.66509  Biso   1.000  H
  H1097    1.0000 0.04861  0.68202  0.70029  Biso   1.000  H
  C629     1.0000 0.26432  0.04621  0.66120  Biso   1.000  C
  H1098    1.0000 0.18911  0.07201  0.67429  Biso   1.000  H
  C630     1.0000 0.23351  0.04558  0.70399  Biso   1.000  C
  C631     1.0000 0.23351  0.04562  0.70399  Biso   1.000  C
  H1099    1.0000 0.28490  0.19529  0.61870  Biso   1.000  H
  H1100    1.0000 0.28490  0.19534  0.61870  Biso   1.000  H
  O584     1.0000 0.29702  0.05430  0.62115  Biso   1.000  O
  H1101    1.0000 0.21870  0.07429  0.63180  Biso   1.000  H
  O585     1.0000 0.29702  0.05434  0.62115  Biso   1.000  O
  H1102    1.0000 0.21870  0.07433  0.63180  Biso   1.000  H
  H1103    1.0000 0.21874  0.07429  0.63180  Biso   1.000  H
  H1104    1.0000 0.21874  0.07433  0.63180  Biso   1.000  H
  C632     1.0000 0.22042  0.84520  0.66100  Biso   1.000  C
  O586     1.0000 0.24879  0.98952  0.65640  Biso   1.000  O
  O587     1.0000 0.24883  0.98952  0.65640  Biso   1.000  O
  H1105    1.0000 0.30460  0.04731  0.66620  Biso   1.000  H
  H1106    1.0000 0.30464  0.04731  0.66620  Biso   1.000  H
  O588     1.0000 0.29681  0.05089  0.71210  Biso   1.000  O
  H1107    1.0000 0.22219  0.00551  0.70320  Biso   1.000  H
  H1108    1.0000 0.20838  0.06511  0.71529  Biso   1.000  H
  O589     1.0000 0.29681  0.05093  0.71210  Biso   1.000  O
  H1109    1.0000 0.22223  0.00551  0.70320  Biso   1.000  H
  H1110    1.0000 0.20843  0.06511  0.71529  Biso   1.000  H
  H1111    1.0000 0.33032  0.06200  0.62071  Biso   1.000  H
  C633     1.0000 0.23722  0.87542  0.63770  Biso   1.000  C
  H1112    1.0000 0.24900  0.81649  0.66569  Biso   1.000  H
  C634     1.0000 0.21280  0.89090  0.68030  Biso   1.000  C
  H1113    1.0000 0.24900  0.81653  0.66569  Biso   1.000  H
  C635     1.0000 0.28671  0.94629  0.66321  Biso   1.000  C
  C636     1.0000 0.28671  0.94634  0.66321  Biso   1.000  C
  H1114    1.0000 0.31798  0.04861  0.70029  Biso   1.000  H
  H1115    1.0000 0.31803  0.04861  0.70029  Biso   1.000  H
  O590     1.0000 0.24399  0.83392  0.61905  Biso   1.000  O
  C637     1.0000 0.29159  0.90568  0.64200  Biso   1.000  C
  H1116    1.0000 0.20742  0.90298  0.63321  Biso   1.000  H
  C638     1.0000 0.29159  0.90572  0.64200  Biso   1.000  C
  H1117    1.0000 0.20742  0.90303  0.63321  Biso   1.000  H
  O591     1.0000 0.24403  0.83392  0.61905  Biso   1.000  O
  C639     1.0000 0.29164  0.90568  0.64200  Biso   1.000  C
  C640     1.0000 0.29164  0.90572  0.64200  Biso   1.000  C
  O592     1.0000 0.26781  0.91692  0.68335  Biso   1.000  O
  H1118    1.0000 0.18401  0.91940  0.67549  Biso   1.000  H
  C641     1.0000 0.19950  0.86679  0.70399  Biso   1.000  C
  C642     1.0000 0.19950  0.86683  0.70399  Biso   1.000  C
  H1119    1.0000 0.32442  0.96321  0.66650  Biso   1.000  H
  H1120    1.0000 0.21840  0.80921  0.62240  Biso   1.000  H
  O593     1.0000 0.30700  0.93792  0.62106  Biso   1.000  O
  H1121    1.0000 0.32181  0.87748  0.64530  Biso   1.000  H
  H1122    1.0000 0.32181  0.87752  0.64530  Biso   1.000  H
  O594     1.0000 0.30704  0.93792  0.62106  Biso   1.000  O
  O595     1.0000 0.24201  0.82832  0.71274  Biso   1.000  O
  H1123    1.0000 0.19521  0.89802  0.71540  Biso   1.000  H
  H1124    1.0000 0.16310  0.84671  0.70310  Biso   1.000  H
  H1125    1.0000 0.16314  0.84671  0.70310  Biso   1.000  H
  H1126    1.0000 0.34109  0.92668  0.61900  Biso   1.000  H
  H1127    1.0000 0.34109  0.92672  0.61900  Biso   1.000  H
  H1128    1.0000 0.34113  0.92668  0.61900  Biso   1.000  H
  H1129    1.0000 0.34113  0.92672  0.61900  Biso   1.000  H
  H1130    1.0000 0.27362  0.84431  0.71270  Biso   1.000  H
  O596     1.0000 0.69300  0.06212  0.62106  Biso   1.000  O
  H1131    1.0000 0.65891  0.07332  0.61900  Biso   1.000  H
  C643     1.0000 0.70841  0.09432  0.64200  Biso   1.000  C
  C644     1.0000 0.71329  0.05371  0.66321  Biso   1.000  C
  H1132    1.0000 0.67819  0.12252  0.64530  Biso   1.000  H
  O597     1.0000 0.69300  0.06208  0.62106  Biso   1.000  O
  C645     1.0000 0.71333  0.05371  0.66321  Biso   1.000  C
  H1133    1.0000 0.67823  0.12252  0.64530  Biso   1.000  H
  C646     1.0000 0.76278  0.12458  0.63770  Biso   1.000  C
  C647     1.0000 0.76278  0.12463  0.63770  Biso   1.000  C
  C648     1.0000 0.76283  0.12458  0.63770  Biso   1.000  C
  C649     1.0000 0.76283  0.12463  0.63770  Biso   1.000  C
  O598     1.0000 0.75121  0.01048  0.65640  Biso   1.000  O
  O599     1.0000 0.75121  0.01052  0.65640  Biso   1.000  O
  O600     1.0000 0.73219  0.08308  0.68335  Biso   1.000  O
  H1134    1.0000 0.67558  0.03679  0.66650  Biso   1.000  H
  O601     1.0000 0.73219  0.08313  0.68335  Biso   1.000  O
  H1135    1.0000 0.67558  0.03683  0.66650  Biso   1.000  H
  O602     1.0000 0.73223  0.08308  0.68335  Biso   1.000  O
  H1136    1.0000 0.67562  0.03679  0.66650  Biso   1.000  H
  O603     1.0000 0.73223  0.08313  0.68335  Biso   1.000  O
  H1137    1.0000 0.67562  0.03683  0.66650  Biso   1.000  H
  H1138    1.0000 0.79258  0.09702  0.63321  Biso   1.000  H
  C650     1.0000 0.77958  0.15480  0.66100  Biso   1.000  C
  O604     1.0000 0.75601  0.16608  0.61905  Biso   1.000  O
  O605     1.0000 0.75601  0.16613  0.61905  Biso   1.000  O
  H1139    1.0000 0.79263  0.09702  0.63321  Biso   1.000  H
  C651     1.0000 0.77962  0.15480  0.66100  Biso   1.000  C
  C652     1.0000 0.73568  0.95379  0.66120  Biso   1.000  C
  C653     1.0000 0.73568  0.95383  0.66120  Biso   1.000  C
  C654     1.0000 0.73572  0.95379  0.66120  Biso   1.000  C
  C655     1.0000 0.73572  0.95383  0.66120  Biso   1.000  C
  C656     1.0000 0.78720  0.10910  0.68030  Biso   1.000  C
  C657     1.0000 0.78720  0.10914  0.68030  Biso   1.000  C
  H1140    1.0000 0.75100  0.18351  0.66569  Biso   1.000  H
  O606     1.0000 0.83358  0.18069  0.65591  Biso   1.000  O
  O607     1.0000 0.83358  0.18073  0.65591  Biso   1.000  O
  O608     1.0000 0.83362  0.18069  0.65591  Biso   1.000  O
  O609     1.0000 0.83362  0.18073  0.65591  Biso   1.000  O
  H1141    1.0000 0.78160  0.19079  0.62240  Biso   1.000  H
  H1142    1.0000 0.78160  0.19083  0.62240  Biso   1.000  H
  C658     1.0000 0.74191  0.92209  0.63781  Biso   1.000  C
  H1143    1.0000 0.69540  0.95269  0.66620  Biso   1.000  H
  C659     1.0000 0.77070  0.92702  0.67949  Biso   1.000  C
  C660     1.0000 0.74191  0.92213  0.63781  Biso   1.000  C
  H1144    1.0000 0.69540  0.95273  0.66620  Biso   1.000  H
  H1145    1.0000 0.81599  0.08060  0.67549  Biso   1.000  H
  C661     1.0000 0.80050  0.13321  0.70399  Biso   1.000  C
  H1146    1.0000 0.81603  0.08060  0.67549  Biso   1.000  H
  C662     1.0000 0.83728  0.23780  0.66210  Biso   1.000  C
  C663     1.0000 0.83732  0.23780  0.66210  Biso   1.000  C
  O610     1.0000 0.70298  0.94570  0.62115  Biso   1.000  O
  C664     1.0000 0.72789  0.86081  0.64211  Biso   1.000  C
  H1147    1.0000 0.78130  0.92571  0.63180  Biso   1.000  H
  O611     1.0000 0.70302  0.94570  0.62115  Biso   1.000  O
  O612     1.0000 0.75479  0.86902  0.68342  Biso   1.000  O
  H1148    1.0000 0.81089  0.92799  0.67429  Biso   1.000  H
  C665     1.0000 0.76649  0.95442  0.70399  Biso   1.000  C
  H1149    1.0000 0.81089  0.92803  0.67429  Biso   1.000  H
  O613     1.0000 0.75483  0.86902  0.68342  Biso   1.000  O
  C666     1.0000 0.76653  0.95442  0.70399  Biso   1.000  C
  H1150    1.0000 0.83690  0.15329  0.70310  Biso   1.000  H
  H1151    1.0000 0.83690  0.15333  0.70310  Biso   1.000  H
  O614     1.0000 0.75799  0.17168  0.71274  Biso   1.000  O
  H1152    1.0000 0.80479  0.10198  0.71540  Biso   1.000  H
  O615     1.0000 0.75799  0.17172  0.71274  Biso   1.000  O
  H1153    1.0000 0.80479  0.10202  0.71540  Biso   1.000  H
  O616     1.0000 0.75803  0.17168  0.71274  Biso   1.000  O
  H1154    1.0000 0.80483  0.10198  0.71540  Biso   1.000  H
  O617     1.0000 0.75803  0.17172  0.71274  Biso   1.000  O
  H1155    1.0000 0.80483  0.10202  0.71540  Biso   1.000  H
  O618     1.0000 0.86902  0.24521  0.68342  Biso   1.000  O
  C667     1.0000 0.86081  0.27211  0.64211  Biso   1.000  C
  H1156    1.0000 0.79818  0.25148  0.66509  Biso   1.000  H
  H1157    1.0000 0.79818  0.25153  0.66509  Biso   1.000  H
  H1158    1.0000 0.79822  0.25148  0.66509  Biso   1.000  H
  H1159    1.0000 0.79822  0.25153  0.66509  Biso   1.000  H
  H1160    1.0000 0.66968  0.93800  0.62071  Biso   1.000  H
  H1161    1.0000 0.66973  0.93800  0.62071  Biso   1.000  H
  O619     1.0000 0.73850  0.82878  0.62087  Biso   1.000  O
  C668     1.0000 0.76220  0.83728  0.66210  Biso   1.000  C
  H1162    1.0000 0.68711  0.85761  0.64611  Biso   1.000  H
  O620     1.0000 0.73850  0.82882  0.62087  Biso   1.000  O
  C669     1.0000 0.76220  0.83732  0.66210  Biso   1.000  C
  O621     1.0000 0.70319  0.94911  0.71210  Biso   1.000  O
  H1163    1.0000 0.77781  0.99449  0.70320  Biso   1.000  H
  H1164    1.0000 0.79162  0.93489  0.71529  Biso   1.000  H
  H1165    1.0000 0.77781  0.99453  0.70320  Biso   1.000  H
  H1166    1.0000 0.79162  0.93493  0.71529  Biso   1.000  H
  O622     1.0000 0.70323  0.94911  0.71210  Biso   1.000  O
  H1167    1.0000 0.72638  0.15569  0.71270  Biso   1.000  H
  H1168    1.0000 0.72638  0.15573  0.71270  Biso   1.000  H
  H1169    1.0000 0.72642  0.15569  0.71270  Biso   1.000  H
  H1170    1.0000 0.72642  0.15573  0.71270  Biso   1.000  H
  C670     1.0000 0.92702  0.22930  0.67949  Biso   1.000  C
  O623     1.0000 0.82878  0.26150  0.62087  Biso   1.000  O
  H1171    1.0000 0.85761  0.31289  0.64611  Biso   1.000  H
  O624     1.0000 0.82882  0.26150  0.62087  Biso   1.000  O
  H1172    1.0000 0.85761  0.31293  0.64611  Biso   1.000  H
  C671     1.0000 0.92209  0.25809  0.63781  Biso   1.000  C
  C672     1.0000 0.92209  0.25813  0.63781  Biso   1.000  C
  C673     1.0000 0.92213  0.25809  0.63781  Biso   1.000  C
  C674     1.0000 0.92213  0.25813  0.63781  Biso   1.000  C
  H1173    1.0000 0.71510  0.80471  0.61870  Biso   1.000  H
  O625     1.0000 0.81931  0.83358  0.65591  Biso   1.000  O
  H1174    1.0000 0.74852  0.79818  0.66509  Biso   1.000  H
  O626     1.0000 0.81931  0.83362  0.65591  Biso   1.000  O
  H1175    1.0000 0.74852  0.79822  0.66509  Biso   1.000  H
  H1176    1.0000 0.68202  0.95139  0.70029  Biso   1.000  H
  H1177    1.0000 0.68202  0.95143  0.70029  Biso   1.000  H
  C675     1.0000 0.95379  0.26432  0.66120  Biso   1.000  C
  H1178    1.0000 0.92799  0.18911  0.67429  Biso   1.000  H
  C676     1.0000 0.95442  0.23351  0.70399  Biso   1.000  C
  C677     1.0000 0.95383  0.26432  0.66120  Biso   1.000  C
  H1179    1.0000 0.92803  0.18911  0.67429  Biso   1.000  H
  H1180    1.0000 0.80471  0.28490  0.61870  Biso   1.000  H
  O627     1.0000 0.94570  0.29702  0.62115  Biso   1.000  O
  H1181    1.0000 0.92571  0.21870  0.63180  Biso   1.000  H
  H1182    1.0000 0.92571  0.21874  0.63180  Biso   1.000  H
  C678     1.0000 0.84520  0.77958  0.66100  Biso   1.000  C
  C679     1.0000 0.84520  0.77962  0.66100  Biso   1.000  C
  H1183    1.0000 0.95269  0.30460  0.66620  Biso   1.000  H
  H1184    1.0000 0.95269  0.30464  0.66620  Biso   1.000  H
  H1185    1.0000 0.95273  0.30460  0.66620  Biso   1.000  H
  H1186    1.0000 0.95273  0.30464  0.66620  Biso   1.000  H
  O628     1.0000 0.01048  0.24879  0.65640  Biso   1.000  O
  O629     1.0000 0.01048  0.24883  0.65640  Biso   1.000  O
  O630     1.0000 0.01052  0.24879  0.65640  Biso   1.000  O
  O631     1.0000 0.01052  0.24883  0.65640  Biso   1.000  O
  O632     1.0000 0.94911  0.29681  0.71210  Biso   1.000  O
  H1187    1.0000 0.99449  0.22219  0.70320  Biso   1.000  H
  H1188    1.0000 0.93489  0.20838  0.71529  Biso   1.000  H
  H1189    1.0000 0.99449  0.22223  0.70320  Biso   1.000  H
  H1190    1.0000 0.93489  0.20843  0.71529  Biso   1.000  H
  H1191    1.0000 0.99453  0.22219  0.70320  Biso   1.000  H
  H1192    1.0000 0.93493  0.20838  0.71529  Biso   1.000  H
  H1193    1.0000 0.99453  0.22223  0.70320  Biso   1.000  H
  H1194    1.0000 0.93493  0.20843  0.71529  Biso   1.000  H
  H1195    1.0000 0.93800  0.33032  0.62071  Biso   1.000  H
  C680     1.0000 0.87542  0.76278  0.63770  Biso   1.000  C
  H1196    1.0000 0.81649  0.75100  0.66569  Biso   1.000  H
  C681     1.0000 0.89090  0.78720  0.68030  Biso   1.000  C
  C682     1.0000 0.87542  0.76283  0.63770  Biso   1.000  C
  H1197    1.0000 0.81653  0.75100  0.66569  Biso   1.000  H
  C683     1.0000 0.05371  0.28671  0.66321  Biso   1.000  C
  H1198    1.0000 0.95139  0.31798  0.70029  Biso   1.000  H
  H1199    1.0000 0.95139  0.31803  0.70029  Biso   1.000  H
  H1200    1.0000 0.95143  0.31798  0.70029  Biso   1.000  H
  H1201    1.0000 0.95143  0.31803  0.70029  Biso   1.000  H
  O633     1.0000 0.83392  0.75601  0.61905  Biso   1.000  O
  C684     1.0000 0.90568  0.70841  0.64200  Biso   1.000  C
  H1202    1.0000 0.90298  0.79258  0.63321  Biso   1.000  H
  H1203    1.0000 0.90298  0.79263  0.63321  Biso   1.000  H
  C685     1.0000 0.90572  0.70841  0.64200  Biso   1.000  C
  H1204    1.0000 0.90303  0.79258  0.63321  Biso   1.000  H
  H1205    1.0000 0.90303  0.79263  0.63321  Biso   1.000  H
  O634     1.0000 0.91692  0.73219  0.68335  Biso   1.000  O
  H1206    1.0000 0.91940  0.81599  0.67549  Biso   1.000  H
  C686     1.0000 0.86679  0.80050  0.70399  Biso   1.000  C
  O635     1.0000 0.91692  0.73223  0.68335  Biso   1.000  O
  H1207    1.0000 0.91940  0.81603  0.67549  Biso   1.000  H
  C687     1.0000 0.86683  0.80050  0.70399  Biso   1.000  C
  O636     1.0000 0.08308  0.26781  0.68335  Biso   1.000  O
  H1208    1.0000 0.03679  0.32442  0.66650  Biso   1.000  H
  C688     1.0000 0.09432  0.29159  0.64200  Biso   1.000  C
  C689     1.0000 0.09432  0.29164  0.64200  Biso   1.000  C
  O637     1.0000 0.08313  0.26781  0.68335  Biso   1.000  O
  H1209    1.0000 0.03683  0.32442  0.66650  Biso   1.000  H
  H1210    1.0000 0.80921  0.78160  0.62240  Biso   1.000  H
  O638     1.0000 0.93792  0.69300  0.62106  Biso   1.000  O
  C690     1.0000 0.94629  0.71329  0.66321  Biso   1.000  C
  H1211    1.0000 0.87748  0.67819  0.64530  Biso   1.000  H
  C691     1.0000 0.94629  0.71333  0.66321  Biso   1.000  C
  H1212    1.0000 0.87748  0.67823  0.64530  Biso   1.000  H
  C692     1.0000 0.94634  0.71329  0.66321  Biso   1.000  C
  H1213    1.0000 0.87752  0.67819  0.64530  Biso   1.000  H
  C693     1.0000 0.94634  0.71333  0.66321  Biso   1.000  C
  H1214    1.0000 0.87752  0.67823  0.64530  Biso   1.000  H
  O639     1.0000 0.82832  0.75799  0.71274  Biso   1.000  O
  H1215    1.0000 0.89802  0.80479  0.71540  Biso   1.000  H
  H1216    1.0000 0.84671  0.83690  0.70310  Biso   1.000  H
  O640     1.0000 0.82832  0.75803  0.71274  Biso   1.000  O
  H1217    1.0000 0.89802  0.80483  0.71540  Biso   1.000  H
  C694     1.0000 0.10910  0.21280  0.68030  Biso   1.000  C
  C695     1.0000 0.10914  0.21280  0.68030  Biso   1.000  C
  O641     1.0000 0.06208  0.30700  0.62106  Biso   1.000  O
  H1218    1.0000 0.12252  0.32181  0.64530  Biso   1.000  H
  C696     1.0000 0.12458  0.23722  0.63770  Biso   1.000  C
  O642     1.0000 0.06208  0.30704  0.62106  Biso   1.000  O
  O643     1.0000 0.06212  0.30700  0.62106  Biso   1.000  O
  C697     1.0000 0.12463  0.23722  0.63770  Biso   1.000  C
  O644     1.0000 0.06212  0.30704  0.62106  Biso   1.000  O
  H1219    1.0000 0.92668  0.65891  0.61900  Biso   1.000  H
  H1220    1.0000 0.92672  0.65891  0.61900  Biso   1.000  H
  O645     1.0000 0.98952  0.75121  0.65640  Biso   1.000  O
  H1221    1.0000 0.96321  0.67558  0.66650  Biso   1.000  H
  H1222    1.0000 0.96321  0.67562  0.66650  Biso   1.000  H
  H1223    1.0000 0.84431  0.72638  0.71270  Biso   1.000  H
  H1224    1.0000 0.84431  0.72642  0.71270  Biso   1.000  H
  C698     1.0000 0.15480  0.22042  0.66100  Biso   1.000  C
  H1225    1.0000 0.08060  0.18401  0.67549  Biso   1.000  H
  C699     1.0000 0.13321  0.19950  0.70399  Biso   1.000  C
  H1226    1.0000 0.07332  0.34109  0.61900  Biso   1.000  H
  H1227    1.0000 0.07332  0.34113  0.61900  Biso   1.000  H
  O646     1.0000 0.16608  0.24399  0.61905  Biso   1.000  O
  H1228    1.0000 0.09702  0.20742  0.63321  Biso   1.000  H
  O647     1.0000 0.16608  0.24403  0.61905  Biso   1.000  O
  O648     1.0000 0.16613  0.24399  0.61905  Biso   1.000  O
  O649     1.0000 0.16613  0.24403  0.61905  Biso   1.000  O
  C700     1.0000 0.04621  0.73568  0.66120  Biso   1.000  C
  C701     1.0000 0.04621  0.73572  0.66120  Biso   1.000  C
  O650     1.0000 0.18069  0.16642  0.65591  Biso   1.000  O
  H1229    1.0000 0.18351  0.24900  0.66569  Biso   1.000  H
  O651     1.0000 0.18073  0.16642  0.65591  Biso   1.000  O
  O652     1.0000 0.17168  0.24201  0.71274  Biso   1.000  O
  H1230    1.0000 0.10198  0.19521  0.71540  Biso   1.000  H
  H1231    1.0000 0.15329  0.16310  0.70310  Biso   1.000  H
  H1232    1.0000 0.15329  0.16314  0.70310  Biso   1.000  H
  O653     1.0000 0.17172  0.24201  0.71274  Biso   1.000  O
  H1233    1.0000 0.10202  0.19521  0.71540  Biso   1.000  H
  H1234    1.0000 0.15333  0.16310  0.70310  Biso   1.000  H
  H1235    1.0000 0.15333  0.16314  0.70310  Biso   1.000  H
  H1236    1.0000 0.19079  0.21840  0.62240  Biso   1.000  H
  H1237    1.0000 0.19083  0.21840  0.62240  Biso   1.000  H
  C702     1.0000 0.07791  0.74191  0.63781  Biso   1.000  C
  H1238    1.0000 0.04731  0.69540  0.66620  Biso   1.000  H
  C703     1.0000 0.07298  0.77070  0.67949  Biso   1.000  C
  C704     1.0000 0.07302  0.77070  0.67949  Biso   1.000  C
  C705     1.0000 0.23780  0.16272  0.66210  Biso   1.000  C
  H1239    1.0000 0.15569  0.27362  0.71270  Biso   1.000  H
  H1240    1.0000 0.15573  0.27362  0.71270  Biso   1.000  H
  O654     1.0000 0.05430  0.70298  0.62115  Biso   1.000  O
  C706     1.0000 0.13919  0.72789  0.64211  Biso   1.000  C
  H1241    1.0000 0.07429  0.78130  0.63180  Biso   1.000  H
  O655     1.0000 0.05430  0.70302  0.62115  Biso   1.000  O
  O656     1.0000 0.05434  0.70298  0.62115  Biso   1.000  O
  C707     1.0000 0.13923  0.72789  0.64211  Biso   1.000  C
  H1242    1.0000 0.07433  0.78130  0.63180  Biso   1.000  H
  O657     1.0000 0.05434  0.70302  0.62115  Biso   1.000  O
  O658     1.0000 0.13098  0.75479  0.68342  Biso   1.000  O
  H1243    1.0000 0.07201  0.81089  0.67429  Biso   1.000  H
  C708     1.0000 0.04558  0.76649  0.70399  Biso   1.000  C
  O659     1.0000 0.13098  0.75483  0.68342  Biso   1.000  O
  C709     1.0000 0.04558  0.76653  0.70399  Biso   1.000  C
  O660     1.0000 0.13102  0.75479  0.68342  Biso   1.000  O
  C710     1.0000 0.04562  0.76649  0.70399  Biso   1.000  C
  O661     1.0000 0.13102  0.75483  0.68342  Biso   1.000  O
  C711     1.0000 0.04562  0.76653  0.70399  Biso   1.000  C
  O662     1.0000 0.24521  0.13098  0.68342  Biso   1.000  O
  H1244    1.0000 0.25148  0.20182  0.66509  Biso   1.000  H
  C712     1.0000 0.27211  0.13919  0.64211  Biso   1.000  C
  O663     1.0000 0.24521  0.13102  0.68342  Biso   1.000  O
  C713     1.0000 0.27211  0.13923  0.64211  Biso   1.000  C
  H1245    1.0000 0.25153  0.20182  0.66509  Biso   1.000  H
  H1246    1.0000 0.06200  0.66968  0.62071  Biso   1.000  H
  H1247    1.0000 0.06200  0.66973  0.62071  Biso   1.000  H
  O664     1.0000 0.17122  0.73850  0.62087  Biso   1.000  O
  C714     1.0000 0.16272  0.76220  0.66210  Biso   1.000  C
  H1248    1.0000 0.14239  0.68711  0.64611  Biso   1.000  H
  H1249    1.0000 0.14243  0.68711  0.64611  Biso   1.000  H
  O665     1.0000 0.05089  0.70319  0.71210  Biso   1.000  O
  H1250    1.0000 0.00551  0.77781  0.70320  Biso   1.000  H
  H1251    1.0000 0.06511  0.79162  0.71529  Biso   1.000  H
  O666     1.0000 0.05089  0.70323  0.71210  Biso   1.000  O
  O667     1.0000 0.05093  0.70319  0.71210  Biso   1.000  O
  O668     1.0000 0.05093  0.70323  0.71210  Biso   1.000  O
  C715     1.0000 0.22930  0.07298  0.67949  Biso   1.000  C
  C716     1.0000 0.22930  0.07302  0.67949  Biso   1.000  C
  O669     1.0000 0.26150  0.17122  0.62087  Biso   1.000  O
  H1252    1.0000 0.31289  0.14239  0.64611  Biso   1.000  H
  C717     1.0000 0.25809  0.07791  0.63781  Biso   1.000  C
  H1253    1.0000 0.31289  0.14243  0.64611  Biso   1.000  H
  H1254    1.0000 0.31293  0.14239  0.64611  Biso   1.000  H
  C718     1.0000 0.25813  0.07791  0.63781  Biso   1.000  C
  H1255    1.0000 0.31293  0.14243  0.64611  Biso   1.000  H
  H1256    1.0000 0.19529  0.71510  0.61870  Biso   1.000  H
  H1257    1.0000 0.19534  0.71510  0.61870  Biso   1.000  H
  O670     1.0000 0.16642  0.81931  0.65591  Biso   1.000  O
  H1258    1.0000 0.20182  0.74852  0.66509  Biso   1.000  H
  H1259    1.0000 0.04861  0.68202  0.70029  Biso   1.000  H
  C719     1.0000 0.26432  0.04621  0.66120  Biso   1.000  C
  H1260    1.0000 0.18911  0.07201  0.67429  Biso   1.000  H
  C720     1.0000 0.23351  0.04558  0.70399  Biso   1.000  C
  C721     1.0000 0.23351  0.04562  0.70399  Biso   1.000  C
  H1261    1.0000 0.28490  0.19529  0.61870  Biso   1.000  H
  H1262    1.0000 0.28490  0.19534  0.61870  Biso   1.000  H
  O671     1.0000 0.29702  0.05430  0.62115  Biso   1.000  O
  H1263    1.0000 0.21870  0.07429  0.63180  Biso   1.000  H
  O672     1.0000 0.29702  0.05434  0.62115  Biso   1.000  O
  H1264    1.0000 0.21870  0.07433  0.63180  Biso   1.000  H
  H1265    1.0000 0.21874  0.07429  0.63180  Biso   1.000  H
  H1266    1.0000 0.21874  0.07433  0.63180  Biso   1.000  H
  C722     1.0000 0.22042  0.84520  0.66100  Biso   1.000  C
  O673     1.0000 0.24879  0.98952  0.65640  Biso   1.000  O
  O674     1.0000 0.24883  0.98952  0.65640  Biso   1.000  O
  H1267    1.0000 0.30460  0.04731  0.66620  Biso   1.000  H
  H1268    1.0000 0.30464  0.04731  0.66620  Biso   1.000  H
  O675     1.0000 0.29681  0.05089  0.71210  Biso   1.000  O
  H1269    1.0000 0.22219  0.00551  0.70320  Biso   1.000  H
  H1270    1.0000 0.20838  0.06511  0.71529  Biso   1.000  H
  O676     1.0000 0.29681  0.05093  0.71210  Biso   1.000  O
  H1271    1.0000 0.22223  0.00551  0.70320  Biso   1.000  H
  H1272    1.0000 0.20843  0.06511  0.71529  Biso   1.000  H
  H1273    1.0000 0.33032  0.06200  0.62071  Biso   1.000  H
  C723     1.0000 0.23722  0.87542  0.63770  Biso   1.000  C
  H1274    1.0000 0.24900  0.81649  0.66569  Biso   1.000  H
  C724     1.0000 0.21280  0.89090  0.68030  Biso   1.000  C
  H1275    1.0000 0.24900  0.81653  0.66569  Biso   1.000  H
  C725     1.0000 0.28671  0.94629  0.66321  Biso   1.000  C
  C726     1.0000 0.28671  0.94634  0.66321  Biso   1.000  C
  H1276    1.0000 0.31798  0.04861  0.70029  Biso   1.000  H
  H1277    1.0000 0.31803  0.04861  0.70029  Biso   1.000  H
  O677     1.0000 0.24399  0.83392  0.61905  Biso   1.000  O
  C727     1.0000 0.29159  0.90568  0.64200  Biso   1.000  C
  H1278    1.0000 0.20742  0.90298  0.63321  Biso   1.000  H
  C728     1.0000 0.29159  0.90572  0.64200  Biso   1.000  C
  H1279    1.0000 0.20742  0.90303  0.63321  Biso   1.000  H
  O678     1.0000 0.24403  0.83392  0.61905  Biso   1.000  O
  C729     1.0000 0.29164  0.90568  0.64200  Biso   1.000  C
  C730     1.0000 0.29164  0.90572  0.64200  Biso   1.000  C
  O679     1.0000 0.26781  0.91692  0.68335  Biso   1.000  O
  H1280    1.0000 0.18401  0.91940  0.67549  Biso   1.000  H
  C731     1.0000 0.19950  0.86679  0.70399  Biso   1.000  C
  C732     1.0000 0.19950  0.86683  0.70399  Biso   1.000  C
  H1281    1.0000 0.32442  0.96321  0.66650  Biso   1.000  H
  H1282    1.0000 0.21840  0.80921  0.62240  Biso   1.000  H
  O680     1.0000 0.30700  0.93792  0.62106  Biso   1.000  O
  H1283    1.0000 0.32181  0.87748  0.64530  Biso   1.000  H
  H1284    1.0000 0.32181  0.87752  0.64530  Biso   1.000  H
  O681     1.0000 0.30704  0.93792  0.62106  Biso   1.000  O
  O682     1.0000 0.24201  0.82832  0.71274  Biso   1.000  O
  H1285    1.0000 0.19521  0.89802  0.71540  Biso   1.000  H
  H1286    1.0000 0.16310  0.84671  0.70310  Biso   1.000  H
  H1287    1.0000 0.16314  0.84671  0.70310  Biso   1.000  H
  H1288    1.0000 0.34109  0.92668  0.61900  Biso   1.000  H
  H1289    1.0000 0.34109  0.92672  0.61900  Biso   1.000  H
  H1290    1.0000 0.34113  0.92668  0.61900  Biso   1.000  H
  H1291    1.0000 0.34113  0.92672  0.61900  Biso   1.000  H
  H1292    1.0000 0.27362  0.84431  0.71270  Biso   1.000  H
  O683     1.0000 0.69300  0.06212  0.62106  Biso   1.000  O
  C733     1.0000 0.70841  0.09432  0.64200  Biso   1.000  C
  H1293    1.0000 0.65891  0.07332  0.61900  Biso   1.000  H
  O684     1.0000 0.69300  0.06208  0.62106  Biso   1.000  O
  C734     1.0000 0.71329  0.05371  0.66321  Biso   1.000  C
  H1294    1.0000 0.67819  0.12252  0.64530  Biso   1.000  H
  C735     1.0000 0.76278  0.12458  0.63770  Biso   1.000  C
  C736     1.0000 0.76278  0.12463  0.63770  Biso   1.000  C
  C737     1.0000 0.71333  0.05371  0.66321  Biso   1.000  C
  H1295    1.0000 0.67823  0.12252  0.64530  Biso   1.000  H
  C738     1.0000 0.76283  0.12458  0.63770  Biso   1.000  C
  C739     1.0000 0.76283  0.12463  0.63770  Biso   1.000  C
  O685     1.0000 0.75121  0.01048  0.65640  Biso   1.000  O
  O686     1.0000 0.73219  0.08308  0.68335  Biso   1.000  O
  H1296    1.0000 0.67558  0.03679  0.66650  Biso   1.000  H
  O687     1.0000 0.75121  0.01052  0.65640  Biso   1.000  O
  O688     1.0000 0.73219  0.08313  0.68335  Biso   1.000  O
  H1297    1.0000 0.67558  0.03683  0.66650  Biso   1.000  H
  O689     1.0000 0.73223  0.08308  0.68335  Biso   1.000  O
  H1298    1.0000 0.67562  0.03679  0.66650  Biso   1.000  H
  O690     1.0000 0.73223  0.08313  0.68335  Biso   1.000  O
  H1299    1.0000 0.67562  0.03683  0.66650  Biso   1.000  H
  O691     1.0000 0.75601  0.16608  0.61905  Biso   1.000  O
  H1300    1.0000 0.79258  0.09702  0.63321  Biso   1.000  H
  C740     1.0000 0.77958  0.15480  0.66100  Biso   1.000  C
  O692     1.0000 0.75601  0.16613  0.61905  Biso   1.000  O
  H1301    1.0000 0.79263  0.09702  0.63321  Biso   1.000  H
  C741     1.0000 0.77962  0.15480  0.66100  Biso   1.000  C
  C742     1.0000 0.73568  0.95379  0.66120  Biso   1.000  C
  C743     1.0000 0.73568  0.95383  0.66120  Biso   1.000  C
  C744     1.0000 0.73572  0.95379  0.66120  Biso   1.000  C
  C745     1.0000 0.73572  0.95383  0.66120  Biso   1.000  C
  C746     1.0000 0.78720  0.10910  0.68030  Biso   1.000  C
  C747     1.0000 0.78720  0.10914  0.68030  Biso   1.000  C
  H1302    1.0000 0.78160  0.19079  0.62240  Biso   1.000  H
  H1303    1.0000 0.78160  0.19083  0.62240  Biso   1.000  H
  H1304    1.0000 0.75100  0.18351  0.66569  Biso   1.000  H
  O693     1.0000 0.83358  0.18069  0.65591  Biso   1.000  O
  O694     1.0000 0.83358  0.18073  0.65591  Biso   1.000  O
  O695     1.0000 0.83362  0.18069  0.65591  Biso   1.000  O
  O696     1.0000 0.83362  0.18073  0.65591  Biso   1.000  O
  C748     1.0000 0.74191  0.92209  0.63781  Biso   1.000  C
  H1305    1.0000 0.69540  0.95269  0.66620  Biso   1.000  H
  C749     1.0000 0.77070  0.92702  0.67949  Biso   1.000  C
  C750     1.0000 0.74191  0.92213  0.63781  Biso   1.000  C
  H1306    1.0000 0.69540  0.95273  0.66620  Biso   1.000  H
  C751     1.0000 0.80050  0.13321  0.70399  Biso   1.000  C
  H1307    1.0000 0.81599  0.08060  0.67549  Biso   1.000  H
  H1308    1.0000 0.81603  0.08060  0.67549  Biso   1.000  H
  C752     1.0000 0.83728  0.23780  0.66210  Biso   1.000  C
  C753     1.0000 0.83732  0.23780  0.66210  Biso   1.000  C
  O697     1.0000 0.70298  0.94570  0.62115  Biso   1.000  O
  C754     1.0000 0.72789  0.86081  0.64211  Biso   1.000  C
  H1309    1.0000 0.78130  0.92571  0.63180  Biso   1.000  H
  O698     1.0000 0.70302  0.94570  0.62115  Biso   1.000  O
  O699     1.0000 0.75479  0.86902  0.68342  Biso   1.000  O
  H1310    1.0000 0.81089  0.92799  0.67429  Biso   1.000  H
  C755     1.0000 0.76649  0.95442  0.70399  Biso   1.000  C
  H1311    1.0000 0.81089  0.92803  0.67429  Biso   1.000  H
  O700     1.0000 0.75483  0.86902  0.68342  Biso   1.000  O
  C756     1.0000 0.76653  0.95442  0.70399  Biso   1.000  C
  O701     1.0000 0.75799  0.17168  0.71274  Biso   1.000  O
  H1312    1.0000 0.80479  0.10198  0.71540  Biso   1.000  H
  H1313    1.0000 0.83690  0.15329  0.70310  Biso   1.000  H
  O702     1.0000 0.75799  0.17172  0.71274  Biso   1.000  O
  H1314    1.0000 0.80479  0.10202  0.71540  Biso   1.000  H
  H1315    1.0000 0.83690  0.15333  0.70310  Biso   1.000  H
  O703     1.0000 0.75803  0.17168  0.71274  Biso   1.000  O
  H1316    1.0000 0.80483  0.10198  0.71540  Biso   1.000  H
  O704     1.0000 0.75803  0.17172  0.71274  Biso   1.000  O
  H1317    1.0000 0.80483  0.10202  0.71540  Biso   1.000  H
  O705     1.0000 0.86902  0.24521  0.68342  Biso   1.000  O
  C757     1.0000 0.86081  0.27211  0.64211  Biso   1.000  C
  H1318    1.0000 0.79818  0.25148  0.66509  Biso   1.000  H
  H1319    1.0000 0.79818  0.25153  0.66509  Biso   1.000  H
  H1320    1.0000 0.79822  0.25148  0.66509  Biso   1.000  H
  H1321    1.0000 0.79822  0.25153  0.66509  Biso   1.000  H
  H1322    1.0000 0.66968  0.93800  0.62071  Biso   1.000  H
  H1323    1.0000 0.66973  0.93800  0.62071  Biso   1.000  H
  O706     1.0000 0.73850  0.82878  0.62087  Biso   1.000  O
  C758     1.0000 0.76220  0.83728  0.66210  Biso   1.000  C
  H1324    1.0000 0.68711  0.85761  0.64611  Biso   1.000  H
  O707     1.0000 0.73850  0.82882  0.62087  Biso   1.000  O
  C759     1.0000 0.76220  0.83732  0.66210  Biso   1.000  C
  O708     1.0000 0.70319  0.94911  0.71210  Biso   1.000  O
  H1325    1.0000 0.77781  0.99449  0.70320  Biso   1.000  H
  H1326    1.0000 0.79162  0.93489  0.71529  Biso   1.000  H
  H1327    1.0000 0.77781  0.99453  0.70320  Biso   1.000  H
  H1328    1.0000 0.79162  0.93493  0.71529  Biso   1.000  H
  O709     1.0000 0.70323  0.94911  0.71210  Biso   1.000  O
  H1329    1.0000 0.72638  0.15569  0.71270  Biso   1.000  H
  H1330    1.0000 0.72638  0.15573  0.71270  Biso   1.000  H
  H1331    1.0000 0.72642  0.15569  0.71270  Biso   1.000  H
  H1332    1.0000 0.72642  0.15573  0.71270  Biso   1.000  H
  C760     1.0000 0.92702  0.22930  0.67949  Biso   1.000  C
  O710     1.0000 0.82878  0.26150  0.62087  Biso   1.000  O
  H1333    1.0000 0.85761  0.31289  0.64611  Biso   1.000  H
  C761     1.0000 0.92209  0.25809  0.63781  Biso   1.000  C
  H1334    1.0000 0.85761  0.31293  0.64611  Biso   1.000  H
  C762     1.0000 0.92209  0.25813  0.63781  Biso   1.000  C
  O711     1.0000 0.82882  0.26150  0.62087  Biso   1.000  O
  C763     1.0000 0.92213  0.25809  0.63781  Biso   1.000  C
  C764     1.0000 0.92213  0.25813  0.63781  Biso   1.000  C
  H1335    1.0000 0.71510  0.80471  0.61870  Biso   1.000  H
  O712     1.0000 0.81931  0.83358  0.65591  Biso   1.000  O
  H1336    1.0000 0.74852  0.79818  0.66509  Biso   1.000  H
  O713     1.0000 0.81931  0.83362  0.65591  Biso   1.000  O
  H1337    1.0000 0.74852  0.79822  0.66509  Biso   1.000  H
  H1338    1.0000 0.68202  0.95139  0.70029  Biso   1.000  H
  H1339    1.0000 0.68202  0.95143  0.70029  Biso   1.000  H
  C765     1.0000 0.95442  0.23351  0.70399  Biso   1.000  C
  C766     1.0000 0.95379  0.26432  0.66120  Biso   1.000  C
  H1340    1.0000 0.92799  0.18911  0.67429  Biso   1.000  H
  C767     1.0000 0.95383  0.26432  0.66120  Biso   1.000  C
  H1341    1.0000 0.92803  0.18911  0.67429  Biso   1.000  H
  H1342    1.0000 0.80471  0.28490  0.61870  Biso   1.000  H
  O714     1.0000 0.94570  0.29702  0.62115  Biso   1.000  O
  H1343    1.0000 0.92571  0.21870  0.63180  Biso   1.000  H
  H1344    1.0000 0.92571  0.21874  0.63180  Biso   1.000  H
  C768     1.0000 0.84520  0.77958  0.66100  Biso   1.000  C
  C769     1.0000 0.84520  0.77962  0.66100  Biso   1.000  C
  O715     1.0000 0.94911  0.29681  0.71210  Biso   1.000  O
  H1345    1.0000 0.99449  0.22219  0.70320  Biso   1.000  H
  H1346    1.0000 0.93489  0.20838  0.71529  Biso   1.000  H
  H1347    1.0000 0.99449  0.22223  0.70320  Biso   1.000  H
  H1348    1.0000 0.93489  0.20843  0.71529  Biso   1.000  H
  H1349    1.0000 0.99453  0.22219  0.70320  Biso   1.000  H
  H1350    1.0000 0.93493  0.20838  0.71529  Biso   1.000  H
  H1351    1.0000 0.99453  0.22223  0.70320  Biso   1.000  H
  H1352    1.0000 0.93493  0.20843  0.71529  Biso   1.000  H
  H1353    1.0000 0.95269  0.30460  0.66620  Biso   1.000  H
  H1354    1.0000 0.95269  0.30464  0.66620  Biso   1.000  H
  H1355    1.0000 0.95273  0.30460  0.66620  Biso   1.000  H
  H1356    1.0000 0.95273  0.30464  0.66620  Biso   1.000  H
  O716     1.0000 0.01048  0.24879  0.65640  Biso   1.000  O
  O717     1.0000 0.01048  0.24883  0.65640  Biso   1.000  O
  O718     1.0000 0.01052  0.24879  0.65640  Biso   1.000  O
  O719     1.0000 0.01052  0.24883  0.65640  Biso   1.000  O
  H1357    1.0000 0.93800  0.33032  0.62071  Biso   1.000  H
  C770     1.0000 0.87542  0.76278  0.63770  Biso   1.000  C
  H1358    1.0000 0.81649  0.75100  0.66569  Biso   1.000  H
  C771     1.0000 0.89090  0.78720  0.68030  Biso   1.000  C
  C772     1.0000 0.87542  0.76283  0.63770  Biso   1.000  C
  H1359    1.0000 0.81653  0.75100  0.66569  Biso   1.000  H
  H1360    1.0000 0.95139  0.31798  0.70029  Biso   1.000  H
  H1361    1.0000 0.95139  0.31803  0.70029  Biso   1.000  H
  H1362    1.0000 0.95143  0.31798  0.70029  Biso   1.000  H
  H1363    1.0000 0.95143  0.31803  0.70029  Biso   1.000  H
  C773     1.0000 0.05371  0.28671  0.66321  Biso   1.000  C
  O720     1.0000 0.83392  0.75601  0.61905  Biso   1.000  O
  C774     1.0000 0.90568  0.70841  0.64200  Biso   1.000  C
  H1364    1.0000 0.90298  0.79258  0.63321  Biso   1.000  H
  H1365    1.0000 0.90298  0.79263  0.63321  Biso   1.000  H
  C775     1.0000 0.90572  0.70841  0.64200  Biso   1.000  C
  H1366    1.0000 0.90303  0.79258  0.63321  Biso   1.000  H
  H1367    1.0000 0.90303  0.79263  0.63321  Biso   1.000  H
  O721     1.0000 0.91692  0.73219  0.68335  Biso   1.000  O
  H1368    1.0000 0.91940  0.81599  0.67549  Biso   1.000  H
  C776     1.0000 0.86679  0.80050  0.70399  Biso   1.000  C
  O722     1.0000 0.91692  0.73223  0.68335  Biso   1.000  O
  H1369    1.0000 0.91940  0.81603  0.67549  Biso   1.000  H
  C777     1.0000 0.86683  0.80050  0.70399  Biso   1.000  C
  O723     1.0000 0.08308  0.26781  0.68335  Biso   1.000  O
  H1370    1.0000 0.03679  0.32442  0.66650  Biso   1.000  H
  C778     1.0000 0.09432  0.29159  0.64200  Biso   1.000  C
  C779     1.0000 0.09432  0.29164  0.64200  Biso   1.000  C
  O724     1.0000 0.08313  0.26781  0.68335  Biso   1.000  O
  H1371    1.0000 0.03683  0.32442  0.66650  Biso   1.000  H
  H1372    1.0000 0.80921  0.78160  0.62240  Biso   1.000  H
  O725     1.0000 0.93792  0.69300  0.62106  Biso   1.000  O
  C780     1.0000 0.94629  0.71329  0.66321  Biso   1.000  C
  H1373    1.0000 0.87748  0.67819  0.64530  Biso   1.000  H
  C781     1.0000 0.94629  0.71333  0.66321  Biso   1.000  C
  H1374    1.0000 0.87748  0.67823  0.64530  Biso   1.000  H
  C782     1.0000 0.94634  0.71329  0.66321  Biso   1.000  C
  H1375    1.0000 0.87752  0.67819  0.64530  Biso   1.000  H
  C783     1.0000 0.94634  0.71333  0.66321  Biso   1.000  C
  H1376    1.0000 0.87752  0.67823  0.64530  Biso   1.000  H
  O726     1.0000 0.82832  0.75799  0.71274  Biso   1.000  O
  H1377    1.0000 0.89802  0.80479  0.71540  Biso   1.000  H
  H1378    1.0000 0.84671  0.83690  0.70310  Biso   1.000  H
  O727     1.0000 0.82832  0.75803  0.71274  Biso   1.000  O
  H1379    1.0000 0.89802  0.80483  0.71540  Biso   1.000  H
  C784     1.0000 0.10910  0.21280  0.68030  Biso   1.000  C
  C785     1.0000 0.10914  0.21280  0.68030  Biso   1.000  C
  O728     1.0000 0.06208  0.30700  0.62106  Biso   1.000  O
  H1380    1.0000 0.12252  0.32181  0.64530  Biso   1.000  H
  C786     1.0000 0.12458  0.23722  0.63770  Biso   1.000  C
  O729     1.0000 0.06208  0.30704  0.62106  Biso   1.000  O
  O730     1.0000 0.06212  0.30700  0.62106  Biso   1.000  O
  C787     1.0000 0.12463  0.23722  0.63770  Biso   1.000  C
  O731     1.0000 0.06212  0.30704  0.62106  Biso   1.000  O
  H1381    1.0000 0.92668  0.65891  0.61900  Biso   1.000  H
  H1382    1.0000 0.92672  0.65891  0.61900  Biso   1.000  H
  O732     1.0000 0.98952  0.75121  0.65640  Biso   1.000  O
  H1383    1.0000 0.96321  0.67558  0.66650  Biso   1.000  H
  H1384    1.0000 0.96321  0.67562  0.66650  Biso   1.000  H
  H1385    1.0000 0.84431  0.72638  0.71270  Biso   1.000  H
  H1386    1.0000 0.84431  0.72642  0.71270  Biso   1.000  H
  C788     1.0000 0.15480  0.22042  0.66100  Biso   1.000  C
  H1387    1.0000 0.08060  0.18401  0.67549  Biso   1.000  H
  C789     1.0000 0.13321  0.19950  0.70399  Biso   1.000  C
  H1388    1.0000 0.07332  0.34109  0.61900  Biso   1.000  H
  H1389    1.0000 0.07332  0.34113  0.61900  Biso   1.000  H
  O733     1.0000 0.16608  0.24399  0.61905  Biso   1.000  O
  H1390    1.0000 0.09702  0.20742  0.63321  Biso   1.000  H
  O734     1.0000 0.16608  0.24403  0.61905  Biso   1.000  O
  O735     1.0000 0.16613  0.24399  0.61905  Biso   1.000  O
  O736     1.0000 0.16613  0.24403  0.61905  Biso   1.000  O
  C790     1.0000 0.04621  0.73568  0.66120  Biso   1.000  C
  C791     1.0000 0.04621  0.73572  0.66120  Biso   1.000  C
  O737     1.0000 0.18069  0.16642  0.65591  Biso   1.000  O
  H1391    1.0000 0.18351  0.24900  0.66569  Biso   1.000  H
  O738     1.0000 0.18073  0.16642  0.65591  Biso   1.000  O
  O739     1.0000 0.17168  0.24201  0.71274  Biso   1.000  O
  H1392    1.0000 0.10198  0.19521  0.71540  Biso   1.000  H
  H1393    1.0000 0.15329  0.16310  0.70310  Biso   1.000  H
  H1394    1.0000 0.15329  0.16314  0.70310  Biso   1.000  H
  O740     1.0000 0.17172  0.24201  0.71274  Biso   1.000  O
  H1395    1.0000 0.10202  0.19521  0.71540  Biso   1.000  H
  H1396    1.0000 0.15333  0.16310  0.70310  Biso   1.000  H
  H1397    1.0000 0.15333  0.16314  0.70310  Biso   1.000  H
  H1398    1.0000 0.19079  0.21840  0.62240  Biso   1.000  H
  H1399    1.0000 0.19083  0.21840  0.62240  Biso   1.000  H
  C792     1.0000 0.07791  0.74191  0.63781  Biso   1.000  C
  H1400    1.0000 0.04731  0.69540  0.66620  Biso   1.000  H
  C793     1.0000 0.07298  0.77070  0.67949  Biso   1.000  C
  C794     1.0000 0.07302  0.77070  0.67949  Biso   1.000  C
  C795     1.0000 0.23780  0.16272  0.66210  Biso   1.000  C
  H1401    1.0000 0.15569  0.27362  0.71270  Biso   1.000  H
  H1402    1.0000 0.15573  0.27362  0.71270  Biso   1.000  H
  O741     1.0000 0.05430  0.70298  0.62115  Biso   1.000  O
  C796     1.0000 0.13919  0.72789  0.64211  Biso   1.000  C
  H1403    1.0000 0.07429  0.78130  0.63180  Biso   1.000  H
  O742     1.0000 0.05430  0.70302  0.62115  Biso   1.000  O
  O743     1.0000 0.05434  0.70298  0.62115  Biso   1.000  O
  C797     1.0000 0.13923  0.72789  0.64211  Biso   1.000  C
  H1404    1.0000 0.07433  0.78130  0.63180  Biso   1.000  H
  O744     1.0000 0.05434  0.70302  0.62115  Biso   1.000  O
  O745     1.0000 0.13098  0.75479  0.68342  Biso   1.000  O
  H1405    1.0000 0.07201  0.81089  0.67429  Biso   1.000  H
  C798     1.0000 0.04558  0.76649  0.70399  Biso   1.000  C
  O746     1.0000 0.13098  0.75483  0.68342  Biso   1.000  O
  C799     1.0000 0.04558  0.76653  0.70399  Biso   1.000  C
  O747     1.0000 0.13102  0.75479  0.68342  Biso   1.000  O
  C800     1.0000 0.04562  0.76649  0.70399  Biso   1.000  C
  O748     1.0000 0.13102  0.75483  0.68342  Biso   1.000  O
  C801     1.0000 0.04562  0.76653  0.70399  Biso   1.000  C
  O749     1.0000 0.24521  0.13098  0.68342  Biso   1.000  O
  H1406    1.0000 0.25148  0.20182  0.66509  Biso   1.000  H
  C802     1.0000 0.27211  0.13919  0.64211  Biso   1.000  C
  O750     1.0000 0.24521  0.13102  0.68342  Biso   1.000  O
  C803     1.0000 0.27211  0.13923  0.64211  Biso   1.000  C
  H1407    1.0000 0.25153  0.20182  0.66509  Biso   1.000  H
  H1408    1.0000 0.06200  0.66968  0.62071  Biso   1.000  H
  H1409    1.0000 0.06200  0.66973  0.62071  Biso   1.000  H
  O751     1.0000 0.17122  0.73850  0.62087  Biso   1.000  O
  C804     1.0000 0.16272  0.76220  0.66210  Biso   1.000  C
  H1410    1.0000 0.14239  0.68711  0.64611  Biso   1.000  H
  H1411    1.0000 0.14243  0.68711  0.64611  Biso   1.000  H
  O752     1.0000 0.05089  0.70319  0.71210  Biso   1.000  O
  H1412    1.0000 0.00551  0.77781  0.70320  Biso   1.000  H
  H1413    1.0000 0.06511  0.79162  0.71529  Biso   1.000  H
  O753     1.0000 0.05089  0.70323  0.71210  Biso   1.000  O
  O754     1.0000 0.05093  0.70319  0.71210  Biso   1.000  O
  O755     1.0000 0.05093  0.70323  0.71210  Biso   1.000  O
  C805     1.0000 0.22930  0.07298  0.67949  Biso   1.000  C
  C806     1.0000 0.22930  0.07302  0.67949  Biso   1.000  C
  O756     1.0000 0.26150  0.17122  0.62087  Biso   1.000  O
  H1414    1.0000 0.31289  0.14239  0.64611  Biso   1.000  H
  C807     1.0000 0.25809  0.07791  0.63781  Biso   1.000  C
  H1415    1.0000 0.31289  0.14243  0.64611  Biso   1.000  H
  H1416    1.0000 0.31293  0.14239  0.64611  Biso   1.000  H
  C808     1.0000 0.25813  0.07791  0.63781  Biso   1.000  C
  H1417    1.0000 0.31293  0.14243  0.64611  Biso   1.000  H
  H1418    1.0000 0.19529  0.71510  0.61870  Biso   1.000  H
  H1419    1.0000 0.19534  0.71510  0.61870  Biso   1.000  H
  O757     1.0000 0.16642  0.81931  0.65591  Biso   1.000  O
  H1420    1.0000 0.20182  0.74852  0.66509  Biso   1.000  H
  H1421    1.0000 0.04861  0.68202  0.70029  Biso   1.000  H
  C809     1.0000 0.26432  0.04621  0.66120  Biso   1.000  C
  H1422    1.0000 0.18911  0.07201  0.67429  Biso   1.000  H
  C810     1.0000 0.23351  0.04558  0.70399  Biso   1.000  C
  C811     1.0000 0.23351  0.04562  0.70399  Biso   1.000  C
  H1423    1.0000 0.28490  0.19529  0.61870  Biso   1.000  H
  H1424    1.0000 0.28490  0.19534  0.61870  Biso   1.000  H
  O758     1.0000 0.29702  0.05430  0.62115  Biso   1.000  O
  H1425    1.0000 0.21870  0.07429  0.63180  Biso   1.000  H
  O759     1.0000 0.29702  0.05434  0.62115  Biso   1.000  O
  H1426    1.0000 0.21870  0.07433  0.63180  Biso   1.000  H
  H1427    1.0000 0.21874  0.07429  0.63180  Biso   1.000  H
  H1428    1.0000 0.21874  0.07433  0.63180  Biso   1.000  H
  C812     1.0000 0.22042  0.84520  0.66100  Biso   1.000  C
  O760     1.0000 0.24879  0.98952  0.65640  Biso   1.000  O
  O761     1.0000 0.24883  0.98952  0.65640  Biso   1.000  O
  H1429    1.0000 0.30460  0.04731  0.66620  Biso   1.000  H
  H1430    1.0000 0.30464  0.04731  0.66620  Biso   1.000  H
  O762     1.0000 0.29681  0.05089  0.71210  Biso   1.000  O
  H1431    1.0000 0.22219  0.00551  0.70320  Biso   1.000  H
  H1432    1.0000 0.20838  0.06511  0.71529  Biso   1.000  H
  O763     1.0000 0.29681  0.05093  0.71210  Biso   1.000  O
  H1433    1.0000 0.22223  0.00551  0.70320  Biso   1.000  H
  H1434    1.0000 0.20843  0.06511  0.71529  Biso   1.000  H
  H1435    1.0000 0.33032  0.06200  0.62071  Biso   1.000  H
  C813     1.0000 0.23722  0.87542  0.63770  Biso   1.000  C
  H1436    1.0000 0.24900  0.81649  0.66569  Biso   1.000  H
  C814     1.0000 0.21280  0.89090  0.68030  Biso   1.000  C
  H1437    1.0000 0.24900  0.81653  0.66569  Biso   1.000  H
  C815     1.0000 0.28671  0.94629  0.66321  Biso   1.000  C
  C816     1.0000 0.28671  0.94634  0.66321  Biso   1.000  C
  H1438    1.0000 0.31798  0.04861  0.70029  Biso   1.000  H
  H1439    1.0000 0.31803  0.04861  0.70029  Biso   1.000  H
  O764     1.0000 0.24399  0.83392  0.61905  Biso   1.000  O
  C817     1.0000 0.29159  0.90568  0.64200  Biso   1.000  C
  H1440    1.0000 0.20742  0.90298  0.63321  Biso   1.000  H
  C818     1.0000 0.29159  0.90572  0.64200  Biso   1.000  C
  H1441    1.0000 0.20742  0.90303  0.63321  Biso   1.000  H
  O765     1.0000 0.24403  0.83392  0.61905  Biso   1.000  O
  C819     1.0000 0.29164  0.90568  0.64200  Biso   1.000  C
  C820     1.0000 0.29164  0.90572  0.64200  Biso   1.000  C
  O766     1.0000 0.26781  0.91692  0.68335  Biso   1.000  O
  H1442    1.0000 0.18401  0.91940  0.67549  Biso   1.000  H
  C821     1.0000 0.19950  0.86679  0.70399  Biso   1.000  C
  C822     1.0000 0.19950  0.86683  0.70399  Biso   1.000  C
  H1443    1.0000 0.32442  0.96321  0.66650  Biso   1.000  H
  H1444    1.0000 0.21840  0.80921  0.62240  Biso   1.000  H
  O767     1.0000 0.30700  0.93792  0.62106  Biso   1.000  O
  H1445    1.0000 0.32181  0.87748  0.64530  Biso   1.000  H
  H1446    1.0000 0.32181  0.87752  0.64530  Biso   1.000  H
  O768     1.0000 0.30704  0.93792  0.62106  Biso   1.000  O
  O769     1.0000 0.24201  0.82832  0.71274  Biso   1.000  O
  H1447    1.0000 0.19521  0.89802  0.71540  Biso   1.000  H
  H1448    1.0000 0.16310  0.84671  0.70310  Biso   1.000  H
  H1449    1.0000 0.16314  0.84671  0.70310  Biso   1.000  H
  H1450    1.0000 0.34109  0.92668  0.61900  Biso   1.000  H
  H1451    1.0000 0.34109  0.92672  0.61900  Biso   1.000  H
  H1452    1.0000 0.34113  0.92668  0.61900  Biso   1.000  H
  H1453    1.0000 0.34113  0.92672  0.61900  Biso   1.000  H
  H1454    1.0000 0.27362  0.84431  0.71270  Biso   1.000  H
  O770     1.0000 0.69300  0.06212  0.62106  Biso   1.000  O
  C823     1.0000 0.70841  0.09432  0.64200  Biso   1.000  C
  H1455    1.0000 0.65891  0.07332  0.61900  Biso   1.000  H
  O771     1.0000 0.69300  0.06208  0.62106  Biso   1.000  O
  C824     1.0000 0.71329  0.05371  0.66321  Biso   1.000  C
  H1456    1.0000 0.67819  0.12252  0.64530  Biso   1.000  H
  C825     1.0000 0.76278  0.12458  0.63770  Biso   1.000  C
  C826     1.0000 0.76278  0.12463  0.63770  Biso   1.000  C
  C827     1.0000 0.71333  0.05371  0.66321  Biso   1.000  C
  H1457    1.0000 0.67823  0.12252  0.64530  Biso   1.000  H
  C828     1.0000 0.76283  0.12458  0.63770  Biso   1.000  C
  C829     1.0000 0.76283  0.12463  0.63770  Biso   1.000  C
  O772     1.0000 0.75121  0.01048  0.65640  Biso   1.000  O
  O773     1.0000 0.73219  0.08308  0.68335  Biso   1.000  O
  H1458    1.0000 0.67558  0.03679  0.66650  Biso   1.000  H
  O774     1.0000 0.75121  0.01052  0.65640  Biso   1.000  O
  O775     1.0000 0.73219  0.08313  0.68335  Biso   1.000  O
  H1459    1.0000 0.67558  0.03683  0.66650  Biso   1.000  H
  O776     1.0000 0.73223  0.08308  0.68335  Biso   1.000  O
  H1460    1.0000 0.67562  0.03679  0.66650  Biso   1.000  H
  O777     1.0000 0.73223  0.08313  0.68335  Biso   1.000  O
  H1461    1.0000 0.67562  0.03683  0.66650  Biso   1.000  H
  O778     1.0000 0.75601  0.16608  0.61905  Biso   1.000  O
  H1462    1.0000 0.79258  0.09702  0.63321  Biso   1.000  H
  C830     1.0000 0.77958  0.15480  0.66100  Biso   1.000  C
  O779     1.0000 0.75601  0.16613  0.61905  Biso   1.000  O
  H1463    1.0000 0.79263  0.09702  0.63321  Biso   1.000  H
  C831     1.0000 0.77962  0.15480  0.66100  Biso   1.000  C
  C832     1.0000 0.73568  0.95379  0.66120  Biso   1.000  C
  C833     1.0000 0.73568  0.95383  0.66120  Biso   1.000  C
  C834     1.0000 0.73572  0.95379  0.66120  Biso   1.000  C
  C835     1.0000 0.73572  0.95383  0.66120  Biso   1.000  C
  C836     1.0000 0.78720  0.10910  0.68030  Biso   1.000  C
  C837     1.0000 0.78720  0.10914  0.68030  Biso   1.000  C
  H1464    1.0000 0.78160  0.19079  0.62240  Biso   1.000  H
  H1465    1.0000 0.78160  0.19083  0.62240  Biso   1.000  H
  H1466    1.0000 0.75100  0.18351  0.66569  Biso   1.000  H
  O780     1.0000 0.83358  0.18069  0.65591  Biso   1.000  O
  O781     1.0000 0.83358  0.18073  0.65591  Biso   1.000  O
  O782     1.0000 0.83362  0.18069  0.65591  Biso   1.000  O
  O783     1.0000 0.83362  0.18073  0.65591  Biso   1.000  O
  C838     1.0000 0.74191  0.92209  0.63781  Biso   1.000  C
  H1467    1.0000 0.69540  0.95269  0.66620  Biso   1.000  H
  C839     1.0000 0.77070  0.92702  0.67949  Biso   1.000  C
  C840     1.0000 0.74191  0.92213  0.63781  Biso   1.000  C
  H1468    1.0000 0.69540  0.95273  0.66620  Biso   1.000  H
  C841     1.0000 0.80050  0.13321  0.70399  Biso   1.000  C
  H1469    1.0000 0.81599  0.08060  0.67549  Biso   1.000  H
  H1470    1.0000 0.81603  0.08060  0.67549  Biso   1.000  H
  C842     1.0000 0.83728  0.23780  0.66210  Biso   1.000  C
  C843     1.0000 0.83732  0.23780  0.66210  Biso   1.000  C
  O784     1.0000 0.70298  0.94570  0.62115  Biso   1.000  O
  C844     1.0000 0.72789  0.86081  0.64211  Biso   1.000  C
  H1471    1.0000 0.78130  0.92571  0.63180  Biso   1.000  H
  O785     1.0000 0.70302  0.94570  0.62115  Biso   1.000  O
  O786     1.0000 0.75479  0.86902  0.68342  Biso   1.000  O
  H1472    1.0000 0.81089  0.92799  0.67429  Biso   1.000  H
  C845     1.0000 0.76649  0.95442  0.70399  Biso   1.000  C
  H1473    1.0000 0.81089  0.92803  0.67429  Biso   1.000  H
  O787     1.0000 0.75483  0.86902  0.68342  Biso   1.000  O
  C846     1.0000 0.76653  0.95442  0.70399  Biso   1.000  C
  O788     1.0000 0.75799  0.17168  0.71274  Biso   1.000  O
  H1474    1.0000 0.80479  0.10198  0.71540  Biso   1.000  H
  H1475    1.0000 0.83690  0.15329  0.70310  Biso   1.000  H
  O789     1.0000 0.75799  0.17172  0.71274  Biso   1.000  O
  H1476    1.0000 0.80479  0.10202  0.71540  Biso   1.000  H
  H1477    1.0000 0.83690  0.15333  0.70310  Biso   1.000  H
  O790     1.0000 0.75803  0.17168  0.71274  Biso   1.000  O
  H1478    1.0000 0.80483  0.10198  0.71540  Biso   1.000  H
  O791     1.0000 0.75803  0.17172  0.71274  Biso   1.000  O
  H1479    1.0000 0.80483  0.10202  0.71540  Biso   1.000  H
  O792     1.0000 0.86902  0.24521  0.68342  Biso   1.000  O
  C847     1.0000 0.86081  0.27211  0.64211  Biso   1.000  C
  H1480    1.0000 0.79818  0.25148  0.66509  Biso   1.000  H
  H1481    1.0000 0.79818  0.25153  0.66509  Biso   1.000  H
  H1482    1.0000 0.79822  0.25148  0.66509  Biso   1.000  H
  H1483    1.0000 0.79822  0.25153  0.66509  Biso   1.000  H
  H1484    1.0000 0.66968  0.93800  0.62071  Biso   1.000  H
  H1485    1.0000 0.66973  0.93800  0.62071  Biso   1.000  H
  O793     1.0000 0.73850  0.82878  0.62087  Biso   1.000  O
  C848     1.0000 0.76220  0.83728  0.66210  Biso   1.000  C
  H1486    1.0000 0.68711  0.85761  0.64611  Biso   1.000  H
  O794     1.0000 0.73850  0.82882  0.62087  Biso   1.000  O
  C849     1.0000 0.76220  0.83732  0.66210  Biso   1.000  C
  O795     1.0000 0.70319  0.94911  0.71210  Biso   1.000  O
  H1487    1.0000 0.77781  0.99449  0.70320  Biso   1.000  H
  H1488    1.0000 0.79162  0.93489  0.71529  Biso   1.000  H
  H1489    1.0000 0.77781  0.99453  0.70320  Biso   1.000  H
  H1490    1.0000 0.79162  0.93493  0.71529  Biso   1.000  H
  O796     1.0000 0.70323  0.94911  0.71210  Biso   1.000  O
  H1491    1.0000 0.72638  0.15569  0.71270  Biso   1.000  H
  H1492    1.0000 0.72638  0.15573  0.71270  Biso   1.000  H
  H1493    1.0000 0.72642  0.15569  0.71270  Biso   1.000  H
  H1494    1.0000 0.72642  0.15573  0.71270  Biso   1.000  H
  C850     1.0000 0.92702  0.22930  0.67949  Biso   1.000  C
  O797     1.0000 0.82878  0.26150  0.62087  Biso   1.000  O
  H1495    1.0000 0.85761  0.31289  0.64611  Biso   1.000  H
  C851     1.0000 0.92209  0.25809  0.63781  Biso   1.000  C
  H1496    1.0000 0.85761  0.31293  0.64611  Biso   1.000  H
  C852     1.0000 0.92209  0.25813  0.63781  Biso   1.000  C
  O798     1.0000 0.82882  0.26150  0.62087  Biso   1.000  O
  C853     1.0000 0.92213  0.25809  0.63781  Biso   1.000  C
  C854     1.0000 0.92213  0.25813  0.63781  Biso   1.000  C
  H1497    1.0000 0.71510  0.80471  0.61870  Biso   1.000  H
  O799     1.0000 0.81931  0.83358  0.65591  Biso   1.000  O
  H1498    1.0000 0.74852  0.79818  0.66509  Biso   1.000  H
  O800     1.0000 0.81931  0.83362  0.65591  Biso   1.000  O
  H1499    1.0000 0.74852  0.79822  0.66509  Biso   1.000  H
  H1500    1.0000 0.68202  0.95139  0.70029  Biso   1.000  H
  H1501    1.0000 0.68202  0.95143  0.70029  Biso   1.000  H
  C855     1.0000 0.95442  0.23351  0.70399  Biso   1.000  C
  C856     1.0000 0.95379  0.26432  0.66120  Biso   1.000  C
  H1502    1.0000 0.92799  0.18911  0.67429  Biso   1.000  H
  C857     1.0000 0.95383  0.26432  0.66120  Biso   1.000  C
  H1503    1.0000 0.92803  0.18911  0.67429  Biso   1.000  H
  H1504    1.0000 0.80471  0.28490  0.61870  Biso   1.000  H
  O801     1.0000 0.94570  0.29702  0.62115  Biso   1.000  O
  H1505    1.0000 0.92571  0.21870  0.63180  Biso   1.000  H
  H1506    1.0000 0.92571  0.21874  0.63180  Biso   1.000  H
  C858     1.0000 0.84520  0.77958  0.66100  Biso   1.000  C
  C859     1.0000 0.84520  0.77962  0.66100  Biso   1.000  C
  O802     1.0000 0.94911  0.29681  0.71210  Biso   1.000  O
  H1507    1.0000 0.99449  0.22219  0.70320  Biso   1.000  H
  H1508    1.0000 0.93489  0.20838  0.71529  Biso   1.000  H
  H1509    1.0000 0.99449  0.22223  0.70320  Biso   1.000  H
  H1510    1.0000 0.93489  0.20843  0.71529  Biso   1.000  H
  H1511    1.0000 0.99453  0.22219  0.70320  Biso   1.000  H
  H1512    1.0000 0.93493  0.20838  0.71529  Biso   1.000  H
  H1513    1.0000 0.99453  0.22223  0.70320  Biso   1.000  H
  H1514    1.0000 0.93493  0.20843  0.71529  Biso   1.000  H
  H1515    1.0000 0.95269  0.30460  0.66620  Biso   1.000  H
  H1516    1.0000 0.95269  0.30464  0.66620  Biso   1.000  H
  H1517    1.0000 0.95273  0.30460  0.66620  Biso   1.000  H
  H1518    1.0000 0.95273  0.30464  0.66620  Biso   1.000  H
  O803     1.0000 0.01048  0.24879  0.65640  Biso   1.000  O
  O804     1.0000 0.01048  0.24883  0.65640  Biso   1.000  O
  O805     1.0000 0.01052  0.24879  0.65640  Biso   1.000  O
  O806     1.0000 0.01052  0.24883  0.65640  Biso   1.000  O
  H1519    1.0000 0.93800  0.33032  0.62071  Biso   1.000  H
  C860     1.0000 0.87542  0.76278  0.63770  Biso   1.000  C
  H1520    1.0000 0.81649  0.75100  0.66569  Biso   1.000  H
  C861     1.0000 0.89090  0.78720  0.68030  Biso   1.000  C
  C862     1.0000 0.87542  0.76283  0.63770  Biso   1.000  C
  H1521    1.0000 0.81653  0.75100  0.66569  Biso   1.000  H
  H1522    1.0000 0.95139  0.31798  0.70029  Biso   1.000  H
  H1523    1.0000 0.95139  0.31803  0.70029  Biso   1.000  H
  H1524    1.0000 0.95143  0.31798  0.70029  Biso   1.000  H
  H1525    1.0000 0.95143  0.31803  0.70029  Biso   1.000  H
  C863     1.0000 0.05371  0.28671  0.66321  Biso   1.000  C
  O807     1.0000 0.83392  0.75601  0.61905  Biso   1.000  O
  C864     1.0000 0.90568  0.70841  0.64200  Biso   1.000  C
  H1526    1.0000 0.90298  0.79258  0.63321  Biso   1.000  H
  H1527    1.0000 0.90298  0.79263  0.63321  Biso   1.000  H
  C865     1.0000 0.90572  0.70841  0.64200  Biso   1.000  C
  H1528    1.0000 0.90303  0.79258  0.63321  Biso   1.000  H
  H1529    1.0000 0.90303  0.79263  0.63321  Biso   1.000  H
  O808     1.0000 0.91692  0.73219  0.68335  Biso   1.000  O
  H1530    1.0000 0.91940  0.81599  0.67549  Biso   1.000  H
  C866     1.0000 0.86679  0.80050  0.70399  Biso   1.000  C
  O809     1.0000 0.91692  0.73223  0.68335  Biso   1.000  O
  H1531    1.0000 0.91940  0.81603  0.67549  Biso   1.000  H
  C867     1.0000 0.86683  0.80050  0.70399  Biso   1.000  C
  O810     1.0000 0.08308  0.26781  0.68335  Biso   1.000  O
  H1532    1.0000 0.03679  0.32442  0.66650  Biso   1.000  H
  C868     1.0000 0.09432  0.29159  0.64200  Biso   1.000  C
  C869     1.0000 0.09432  0.29164  0.64200  Biso   1.000  C
  O811     1.0000 0.08313  0.26781  0.68335  Biso   1.000  O
  H1533    1.0000 0.03683  0.32442  0.66650  Biso   1.000  H
  H1534    1.0000 0.80921  0.78160  0.62240  Biso   1.000  H
  O812     1.0000 0.93792  0.69300  0.62106  Biso   1.000  O
  C870     1.0000 0.94629  0.71329  0.66321  Biso   1.000  C
  H1535    1.0000 0.87748  0.67819  0.64530  Biso   1.000  H
  C871     1.0000 0.94629  0.71333  0.66321  Biso   1.000  C
  H1536    1.0000 0.87748  0.67823  0.64530  Biso   1.000  H
  C872     1.0000 0.94634  0.71329  0.66321  Biso   1.000  C
  H1537    1.0000 0.87752  0.67819  0.64530  Biso   1.000  H
  C873     1.0000 0.94634  0.71333  0.66321  Biso   1.000  C
  H1538    1.0000 0.87752  0.67823  0.64530  Biso   1.000  H
  O813     1.0000 0.82832  0.75799  0.71274  Biso   1.000  O
  H1539    1.0000 0.89802  0.80479  0.71540  Biso   1.000  H
  H1540    1.0000 0.84671  0.83690  0.70310  Biso   1.000  H
  O814     1.0000 0.82832  0.75803  0.71274  Biso   1.000  O
  H1541    1.0000 0.89802  0.80483  0.71540  Biso   1.000  H
  C874     1.0000 0.10910  0.21280  0.68030  Biso   1.000  C
  C875     1.0000 0.10914  0.21280  0.68030  Biso   1.000  C
  O815     1.0000 0.06208  0.30700  0.62106  Biso   1.000  O
  H1542    1.0000 0.12252  0.32181  0.64530  Biso   1.000  H
  C876     1.0000 0.12458  0.23722  0.63770  Biso   1.000  C
  O816     1.0000 0.06208  0.30704  0.62106  Biso   1.000  O
  O817     1.0000 0.06212  0.30700  0.62106  Biso   1.000  O
  C877     1.0000 0.12463  0.23722  0.63770  Biso   1.000  C
  O818     1.0000 0.06212  0.30704  0.62106  Biso   1.000  O
  H1543    1.0000 0.92668  0.65891  0.61900  Biso   1.000  H
  H1544    1.0000 0.92672  0.65891  0.61900  Biso   1.000  H
  O819     1.0000 0.98952  0.75121  0.65640  Biso   1.000  O
  H1545    1.0000 0.96321  0.67558  0.66650  Biso   1.000  H
  H1546    1.0000 0.96321  0.67562  0.66650  Biso   1.000  H
  H1547    1.0000 0.84431  0.72638  0.71270  Biso   1.000  H
  H1548    1.0000 0.84431  0.72642  0.71270  Biso   1.000  H
  C878     1.0000 0.15480  0.22042  0.66100  Biso   1.000  C
  H1549    1.0000 0.08060  0.18401  0.67549  Biso   1.000  H
  C879     1.0000 0.13321  0.19950  0.70399  Biso   1.000  C
  H1550    1.0000 0.07332  0.34109  0.61900  Biso   1.000  H
  H1551    1.0000 0.07332  0.34113  0.61900  Biso   1.000  H
  O820     1.0000 0.16608  0.24399  0.61905  Biso   1.000  O
  H1552    1.0000 0.09702  0.20742  0.63321  Biso   1.000  H
  O821     1.0000 0.16608  0.24403  0.61905  Biso   1.000  O
  O822     1.0000 0.16613  0.24399  0.61905  Biso   1.000  O
  O823     1.0000 0.16613  0.24403  0.61905  Biso   1.000  O
  C880     1.0000 0.04621  0.73568  0.66120  Biso   1.000  C
  C881     1.0000 0.04621  0.73572  0.66120  Biso   1.000  C
  O824     1.0000 0.18069  0.16642  0.65591  Biso   1.000  O
  H1553    1.0000 0.18351  0.24900  0.66569  Biso   1.000  H
  O825     1.0000 0.18073  0.16642  0.65591  Biso   1.000  O
  O826     1.0000 0.17168  0.24201  0.71274  Biso   1.000  O
  H1554    1.0000 0.10198  0.19521  0.71540  Biso   1.000  H
  H1555    1.0000 0.15329  0.16310  0.70310  Biso   1.000  H
  H1556    1.0000 0.15329  0.16314  0.70310  Biso   1.000  H
  O827     1.0000 0.17172  0.24201  0.71274  Biso   1.000  O
  H1557    1.0000 0.10202  0.19521  0.71540  Biso   1.000  H
  H1558    1.0000 0.15333  0.16310  0.70310  Biso   1.000  H
  H1559    1.0000 0.15333  0.16314  0.70310  Biso   1.000  H
  H1560    1.0000 0.19079  0.21840  0.62240  Biso   1.000  H
  H1561    1.0000 0.19083  0.21840  0.62240  Biso   1.000  H
  C882     1.0000 0.07791  0.74191  0.63781  Biso   1.000  C
  H1562    1.0000 0.04731  0.69540  0.66620  Biso   1.000  H
  C883     1.0000 0.07298  0.77070  0.67949  Biso   1.000  C
  C884     1.0000 0.07302  0.77070  0.67949  Biso   1.000  C
  C885     1.0000 0.23780  0.16272  0.66210  Biso   1.000  C
  H1563    1.0000 0.15569  0.27362  0.71270  Biso   1.000  H
  H1564    1.0000 0.15573  0.27362  0.71270  Biso   1.000  H
  O828     1.0000 0.05430  0.70298  0.62115  Biso   1.000  O
  C886     1.0000 0.13919  0.72789  0.64211  Biso   1.000  C
  H1565    1.0000 0.07429  0.78130  0.63180  Biso   1.000  H
  O829     1.0000 0.05430  0.70302  0.62115  Biso   1.000  O
  O830     1.0000 0.05434  0.70298  0.62115  Biso   1.000  O
  C887     1.0000 0.13923  0.72789  0.64211  Biso   1.000  C
  H1566    1.0000 0.07433  0.78130  0.63180  Biso   1.000  H
  O831     1.0000 0.05434  0.70302  0.62115  Biso   1.000  O
  O832     1.0000 0.13098  0.75479  0.68342  Biso   1.000  O
  H1567    1.0000 0.07201  0.81089  0.67429  Biso   1.000  H
  C888     1.0000 0.04558  0.76649  0.70399  Biso   1.000  C
  O833     1.0000 0.13098  0.75483  0.68342  Biso   1.000  O
  C889     1.0000 0.04558  0.76653  0.70399  Biso   1.000  C
  O834     1.0000 0.13102  0.75479  0.68342  Biso   1.000  O
  C890     1.0000 0.04562  0.76649  0.70399  Biso   1.000  C
  O835     1.0000 0.13102  0.75483  0.68342  Biso   1.000  O
  C891     1.0000 0.04562  0.76653  0.70399  Biso   1.000  C
  O836     1.0000 0.24521  0.13098  0.68342  Biso   1.000  O
  H1568    1.0000 0.25148  0.20182  0.66509  Biso   1.000  H
  C892     1.0000 0.27211  0.13919  0.64211  Biso   1.000  C
  O837     1.0000 0.24521  0.13102  0.68342  Biso   1.000  O
  C893     1.0000 0.27211  0.13923  0.64211  Biso   1.000  C
  H1569    1.0000 0.25153  0.20182  0.66509  Biso   1.000  H
  H1570    1.0000 0.06200  0.66968  0.62071  Biso   1.000  H
  H1571    1.0000 0.06200  0.66973  0.62071  Biso   1.000  H
  O838     1.0000 0.17122  0.73850  0.62087  Biso   1.000  O
  C894     1.0000 0.16272  0.76220  0.66210  Biso   1.000  C
  H1572    1.0000 0.14239  0.68711  0.64611  Biso   1.000  H
  H1573    1.0000 0.14243  0.68711  0.64611  Biso   1.000  H
  O839     1.0000 0.05089  0.70319  0.71210  Biso   1.000  O
  H1574    1.0000 0.00551  0.77781  0.70320  Biso   1.000  H
  H1575    1.0000 0.06511  0.79162  0.71529  Biso   1.000  H
  O840     1.0000 0.05089  0.70323  0.71210  Biso   1.000  O
  O841     1.0000 0.05093  0.70319  0.71210  Biso   1.000  O
  O842     1.0000 0.05093  0.70323  0.71210  Biso   1.000  O
  C895     1.0000 0.22930  0.07298  0.67949  Biso   1.000  C
  C896     1.0000 0.22930  0.07302  0.67949  Biso   1.000  C
  O843     1.0000 0.26150  0.17122  0.62087  Biso   1.000  O
  H1576    1.0000 0.31289  0.14239  0.64611  Biso   1.000  H
  C897     1.0000 0.25809  0.07791  0.63781  Biso   1.000  C
  H1577    1.0000 0.31289  0.14243  0.64611  Biso   1.000  H
  H1578    1.0000 0.31293  0.14239  0.64611  Biso   1.000  H
  C898     1.0000 0.25813  0.07791  0.63781  Biso   1.000  C
  H1579    1.0000 0.31293  0.14243  0.64611  Biso   1.000  H
  H1580    1.0000 0.19529  0.71510  0.61870  Biso   1.000  H
  H1581    1.0000 0.19534  0.71510  0.61870  Biso   1.000  H
  O844     1.0000 0.16642  0.81931  0.65591  Biso   1.000  O
  H1582    1.0000 0.20182  0.74852  0.66509  Biso   1.000  H
  H1583    1.0000 0.04861  0.68202  0.70029  Biso   1.000  H
  C899     1.0000 0.26432  0.04621  0.66120  Biso   1.000  C
  H1584    1.0000 0.18911  0.07201  0.67429  Biso   1.000  H
  C900     1.0000 0.23351  0.04558  0.70399  Biso   1.000  C
  C901     1.0000 0.23351  0.04562  0.70399  Biso   1.000  C
  H1585    1.0000 0.28490  0.19529  0.61870  Biso   1.000  H
  H1586    1.0000 0.28490  0.19534  0.61870  Biso   1.000  H
  O845     1.0000 0.29702  0.05430  0.62115  Biso   1.000  O
  H1587    1.0000 0.21870  0.07429  0.63180  Biso   1.000  H
  O846     1.0000 0.29702  0.05434  0.62115  Biso   1.000  O
  H1588    1.0000 0.21870  0.07433  0.63180  Biso   1.000  H
  H1589    1.0000 0.21874  0.07429  0.63180  Biso   1.000  H
  H1590    1.0000 0.21874  0.07433  0.63180  Biso   1.000  H
  C902     1.0000 0.22042  0.84520  0.66100  Biso   1.000  C
  O847     1.0000 0.24879  0.98952  0.65640  Biso   1.000  O
  O848     1.0000 0.24883  0.98952  0.65640  Biso   1.000  O
  H1591    1.0000 0.30460  0.04731  0.66620  Biso   1.000  H
  H1592    1.0000 0.30464  0.04731  0.66620  Biso   1.000  H
  O849     1.0000 0.29681  0.05089  0.71210  Biso   1.000  O
  H1593    1.0000 0.22219  0.00551  0.70320  Biso   1.000  H
  H1594    1.0000 0.20838  0.06511  0.71529  Biso   1.000  H
  O850     1.0000 0.29681  0.05093  0.71210  Biso   1.000  O
  H1595    1.0000 0.22223  0.00551  0.70320  Biso   1.000  H
  H1596    1.0000 0.20843  0.06511  0.71529  Biso   1.000  H
  H1597    1.0000 0.33032  0.06200  0.62071  Biso   1.000  H
  C903     1.0000 0.23722  0.87542  0.63770  Biso   1.000  C
  H1598    1.0000 0.24900  0.81649  0.66569  Biso   1.000  H
  C904     1.0000 0.21280  0.89090  0.68030  Biso   1.000  C
  H1599    1.0000 0.24900  0.81653  0.66569  Biso   1.000  H
  C905     1.0000 0.28671  0.94629  0.66321  Biso   1.000  C
  C906     1.0000 0.28671  0.94634  0.66321  Biso   1.000  C
  H1600    1.0000 0.31798  0.04861  0.70029  Biso   1.000  H
  H1601    1.0000 0.31803  0.04861  0.70029  Biso   1.000  H
  O851     1.0000 0.24399  0.83392  0.61905  Biso   1.000  O
  C907     1.0000 0.29159  0.90568  0.64200  Biso   1.000  C
  H1602    1.0000 0.20742  0.90298  0.63321  Biso   1.000  H
  C908     1.0000 0.29159  0.90572  0.64200  Biso   1.000  C
  H1603    1.0000 0.20742  0.90303  0.63321  Biso   1.000  H
  O852     1.0000 0.24403  0.83392  0.61905  Biso   1.000  O
  C909     1.0000 0.29164  0.90568  0.64200  Biso   1.000  C
  C910     1.0000 0.29164  0.90572  0.64200  Biso   1.000  C
  O853     1.0000 0.26781  0.91692  0.68335  Biso   1.000  O
  H1604    1.0000 0.18401  0.91940  0.67549  Biso   1.000  H
  C911     1.0000 0.19950  0.86679  0.70399  Biso   1.000  C
  C912     1.0000 0.19950  0.86683  0.70399  Biso   1.000  C
  H1605    1.0000 0.32442  0.96321  0.66650  Biso   1.000  H
  H1606    1.0000 0.21840  0.80921  0.62240  Biso   1.000  H
  O854     1.0000 0.30700  0.93792  0.62106  Biso   1.000  O
  H1607    1.0000 0.32181  0.87748  0.64530  Biso   1.000  H
  H1608    1.0000 0.32181  0.87752  0.64530  Biso   1.000  H
  O855     1.0000 0.30704  0.93792  0.62106  Biso   1.000  O
  O856     1.0000 0.24201  0.82832  0.71274  Biso   1.000  O
  H1609    1.0000 0.19521  0.89802  0.71540  Biso   1.000  H
  H1610    1.0000 0.16310  0.84671  0.70310  Biso   1.000  H
  H1611    1.0000 0.16314  0.84671  0.70310  Biso   1.000  H
  H1612    1.0000 0.34109  0.92668  0.61900  Biso   1.000  H
  H1613    1.0000 0.34109  0.92672  0.61900  Biso   1.000  H
  H1614    1.0000 0.34113  0.92668  0.61900  Biso   1.000  H
  H1615    1.0000 0.34113  0.92672  0.61900  Biso   1.000  H
  H1616    1.0000 0.27362  0.84431  0.71270  Biso   1.000  H
  Na9      1.0000 0.16322  0.31609  0.25920  Biso   1.000  Na
  O857     1.0000 0.19580  0.21760  0.24663  Biso   1.000  O
  H1617    1.0000 0.21491  0.20380  0.25770  Biso   1.000  H
  C913     1.0000 0.15219  0.17800  0.23971  Biso   1.000  C
  H1618    1.0000 0.21491  0.20384  0.25770  Biso   1.000  H
  C914     1.0000 0.15219  0.17804  0.23971  Biso   1.000  C
  C915     1.0000 0.15224  0.17800  0.23971  Biso   1.000  C
  C916     1.0000 0.15224  0.17804  0.23971  Biso   1.000  C
  C917     1.0000 0.12951  0.19652  0.21630  Biso   1.000  C
  H1619    1.0000 0.12181  0.17749  0.25160  Biso   1.000  H
  H1620    1.0000 0.16810  0.13961  0.23851  Biso   1.000  H
  H1621    1.0000 0.12181  0.17753  0.25160  Biso   1.000  H
  O858     1.0000 0.11019  0.25313  0.21996  Biso   1.000  O
  C918     1.0000 0.17602  0.20022  0.19670  Biso   1.000  C
  H1622    1.0000 0.09782  0.17160  0.21110  Biso   1.000  H
  H1623    1.0000 0.09782  0.17164  0.21110  Biso   1.000  H
  O859     1.0000 0.11023  0.25313  0.21996  Biso   1.000  O
  C919     1.0000 0.08422  0.27829  0.19909  Biso   1.000  C
  C920     1.0000 0.08422  0.27834  0.19909  Biso   1.000  C
  O860     1.0000 0.19870  0.14428  0.19284  Biso   1.000  O
  C921     1.0000 0.14870  0.21941  0.17399  Biso   1.000  C
  H1624    1.0000 0.20641  0.22690  0.20149  Biso   1.000  H
  O861     1.0000 0.19870  0.14432  0.19284  Biso   1.000  O
  O862     1.0000 0.03611  0.24639  0.19188  Biso   1.000  O
  H1625    1.0000 0.07239  0.31769  0.20280  Biso   1.000  H
  C922     1.0000 0.12509  0.27880  0.17881  Biso   1.000  C
  O863     1.0000 0.03611  0.24643  0.19188  Biso   1.000  O
  H1626    1.0000 0.07239  0.31773  0.20280  Biso   1.000  H
  C923     1.0000 0.12509  0.27884  0.17881  Biso   1.000  C
  H1627    1.0000 0.07244  0.31769  0.20280  Biso   1.000  H
  C924     1.0000 0.12513  0.27880  0.17881  Biso   1.000  C
  H1628    1.0000 0.07244  0.31773  0.20280  Biso   1.000  H
  C925     1.0000 0.12513  0.27884  0.17881  Biso   1.000  C
  C926     1.0000 0.25582  0.13831  0.19931  Biso   1.000  C
  O864     1.0000 0.19012  0.22110  0.15623  Biso   1.000  O
  H1629    1.0000 0.11760  0.19311  0.16939  Biso   1.000  H
  O865     1.0000 0.19012  0.22114  0.15623  Biso   1.000  O
  H1630    1.0000 0.11764  0.19311  0.16939  Biso   1.000  H
  C927     1.0000 0.98190  0.27051  0.19691  Biso   1.000  C
  O866     1.0000 0.09761  0.30250  0.15765  Biso   1.000  O
  H1631    1.0000 0.15729  0.30388  0.18311  Biso   1.000  H
  O867     1.0000 0.09761  0.30254  0.15765  Biso   1.000  O
  H1632    1.0000 0.15729  0.30393  0.18311  Biso   1.000  H
  H1633    1.0000 0.15733  0.30388  0.18311  Biso   1.000  H
  H1634    1.0000 0.15733  0.30393  0.18311  Biso   1.000  H
  O868     1.0000 0.25969  0.10320  0.21965  Biso   1.000  O
  H1635    1.0000 0.27270  0.17602  0.20260  Biso   1.000  H
  C928     1.0000 0.28549  0.11112  0.17821  Biso   1.000  C
  O869     1.0000 0.25973  0.10320  0.21965  Biso   1.000  O
  H1636    1.0000 0.27274  0.17602  0.20260  Biso   1.000  H
  C929     1.0000 0.28553  0.11112  0.17821  Biso   1.000  C
  H1637    1.0000 0.17480  0.22720  0.14309  Biso   1.000  H
  H1638    1.0000 0.17480  0.22724  0.14309  Biso   1.000  H
  H1639    1.0000 0.17484  0.22720  0.14309  Biso   1.000  H
  H1640    1.0000 0.17484  0.22724  0.14309  Biso   1.000  H
  C930     1.0000 0.94701  0.26529  0.17309  Biso   1.000  C
  H1641    1.0000 0.98582  0.31091  0.20160  Biso   1.000  H
  C931     1.0000 0.95299  0.23772  0.21610  Biso   1.000  C
  C932     1.0000 0.94701  0.26533  0.17309  Biso   1.000  C
  C933     1.0000 0.95303  0.23772  0.21610  Biso   1.000  C
  H1642    1.0000 0.11688  0.29551  0.14620  Biso   1.000  H
  H1643    1.0000 0.11692  0.29551  0.14620  Biso   1.000  H
  C934     1.0000 0.23772  0.04701  0.21610  Biso   1.000  C
  O870     1.0000 0.28301  0.14529  0.15792  Biso   1.000  O
  H1644    1.0000 0.32611  0.10779  0.18251  Biso   1.000  H
  C935     1.0000 0.26529  0.05299  0.17309  Biso   1.000  C
  O871     1.0000 0.28301  0.14533  0.15792  Biso   1.000  O
  H1645    1.0000 0.32611  0.10783  0.18251  Biso   1.000  H
  C936     1.0000 0.26529  0.05303  0.17309  Biso   1.000  C
  C937     1.0000 0.26533  0.05299  0.17309  Biso   1.000  C
  C938     1.0000 0.26533  0.05303  0.17309  Biso   1.000  C
  O872     1.0000 0.97710  0.29892  0.15638  Biso   1.000  O
  C939     1.0000 0.88888  0.28549  0.17821  Biso   1.000  C
  H1646    1.0000 0.94600  0.22509  0.16781  Biso   1.000  H
  C940     1.0000 0.88888  0.28553  0.17821  Biso   1.000  C
  H1647    1.0000 0.94600  0.22514  0.16781  Biso   1.000  H
  C941     1.0000 0.88893  0.28549  0.17821  Biso   1.000  C
  C942     1.0000 0.88893  0.28553  0.17821  Biso   1.000  C
  O873     1.0000 0.89680  0.25969  0.21965  Biso   1.000  O
  C943     1.0000 0.98119  0.23991  0.24001  Biso   1.000  C
  H1648    1.0000 0.95000  0.19740  0.21110  Biso   1.000  H
  O874     1.0000 0.89680  0.25973  0.21965  Biso   1.000  O
  H1649    1.0000 0.95000  0.19744  0.21110  Biso   1.000  H
  C944     1.0000 0.98123  0.23991  0.24001  Biso   1.000  C
  C945     1.0000 0.27051  0.01810  0.19691  Biso   1.000  C
  C946     1.0000 0.23991  0.01881  0.24001  Biso   1.000  C
  H1650    1.0000 0.19740  0.05000  0.21110  Biso   1.000  H
  H1651    1.0000 0.19744  0.05000  0.21110  Biso   1.000  H
  H1652    1.0000 0.24930  0.14942  0.15379  Biso   1.000  H
  H1653    1.0000 0.24934  0.14942  0.15379  Biso   1.000  H
  O875     1.0000 0.29892  0.02290  0.15638  Biso   1.000  O
  H1654    1.0000 0.22509  0.05400  0.16781  Biso   1.000  H
  H1655    1.0000 0.22514  0.05400  0.16781  Biso   1.000  H
  H1656    1.0000 0.96111  0.29681  0.14320  Biso   1.000  H
  O876     1.0000 0.85471  0.28301  0.15792  Biso   1.000  O
  C947     1.0000 0.86169  0.25582  0.19931  Biso   1.000  C
  H1657    1.0000 0.89221  0.32611  0.18251  Biso   1.000  H
  H1658    1.0000 0.01940  0.22328  0.23900  Biso   1.000  H
  H1659    1.0000 0.01940  0.22333  0.23900  Biso   1.000  H
  O877     1.0000 0.98489  0.29761  0.24760  Biso   1.000  O
  H1660    1.0000 0.95909  0.21781  0.25160  Biso   1.000  H
  O878     1.0000 0.98493  0.29761  0.24760  Biso   1.000  O
  H1661    1.0000 0.95913  0.21781  0.25160  Biso   1.000  H
  H1662    1.0000 0.31091  0.01418  0.20160  Biso   1.000  H
  H1663    1.0000 0.31091  0.01423  0.20160  Biso   1.000  H
  O879     1.0000 0.24639  0.96389  0.19188  Biso   1.000  O
  O880     1.0000 0.24639  0.96393  0.19188  Biso   1.000  O
  O881     1.0000 0.24643  0.96389  0.19188  Biso   1.000  O
  O882     1.0000 0.24643  0.96393  0.19188  Biso   1.000  O
  O883     1.0000 0.29761  0.01511  0.24760  Biso   1.000  O
  H1664    1.0000 0.21781  0.04091  0.25160  Biso   1.000  H
  H1665    1.0000 0.22328  0.98060  0.23900  Biso   1.000  H
  H1666    1.0000 0.22333  0.98060  0.23900  Biso   1.000  H
  H1667    1.0000 0.29681  0.03889  0.14320  Biso   1.000  H
  H1668    1.0000 0.29681  0.03893  0.14320  Biso   1.000  H
  H1669    1.0000 0.85058  0.24930  0.15379  Biso   1.000  H
  H1670    1.0000 0.85058  0.24934  0.15379  Biso   1.000  H
  H1671    1.0000 0.85063  0.24930  0.15379  Biso   1.000  H
  H1672    1.0000 0.85063  0.24934  0.15379  Biso   1.000  H
  O884     1.0000 0.85572  0.19870  0.19284  Biso   1.000  O
  H1673    1.0000 0.82398  0.27270  0.20260  Biso   1.000  H
  H1674    1.0000 0.82398  0.27274  0.20260  Biso   1.000  H
  H1675    1.0000 0.82402  0.27270  0.20260  Biso   1.000  H
  H1676    1.0000 0.82402  0.27274  0.20260  Biso   1.000  H
  H1677    1.0000 0.00909  0.30039  0.25830  Biso   1.000  H
  H1678    1.0000 0.00909  0.30043  0.25830  Biso   1.000  H
  H1679    1.0000 0.00913  0.30039  0.25830  Biso   1.000  H
  H1680    1.0000 0.00913  0.30043  0.25830  Biso   1.000  H
  C948     1.0000 0.27829  0.91578  0.19909  Biso   1.000  C
  C949     1.0000 0.27829  0.91582  0.19909  Biso   1.000  C
  C950     1.0000 0.27834  0.91578  0.19909  Biso   1.000  C
  C951     1.0000 0.27834  0.91582  0.19909  Biso   1.000  C
  H1681    1.0000 0.30039  0.99091  0.25830  Biso   1.000  H
  H1682    1.0000 0.30043  0.99091  0.25830  Biso   1.000  H
  C952     1.0000 0.79978  0.17602  0.19670  Biso   1.000  C
  C953     1.0000 0.79982  0.17602  0.19670  Biso   1.000  C
  O885     1.0000 0.25313  0.88981  0.21996  Biso   1.000  O
  H1683    1.0000 0.31769  0.92761  0.20280  Biso   1.000  H
  C954     1.0000 0.27880  0.87491  0.17881  Biso   1.000  C
  H1684    1.0000 0.31773  0.92761  0.20280  Biso   1.000  H
  C955     1.0000 0.27884  0.87491  0.17881  Biso   1.000  C
  C956     1.0000 0.78059  0.14870  0.17399  Biso   1.000  C
  H1685    1.0000 0.77310  0.20641  0.20149  Biso   1.000  H
  C957     1.0000 0.80348  0.12951  0.21630  Biso   1.000  C
  C958     1.0000 0.78063  0.14870  0.17399  Biso   1.000  C
  C959     1.0000 0.80353  0.12951  0.21630  Biso   1.000  C
  C960     1.0000 0.19652  0.87049  0.21630  Biso   1.000  C
  C961     1.0000 0.19652  0.87053  0.21630  Biso   1.000  C
  O886     1.0000 0.30250  0.90239  0.15765  Biso   1.000  O
  H1686    1.0000 0.30388  0.84271  0.18311  Biso   1.000  H
  C962     1.0000 0.21941  0.85130  0.17399  Biso   1.000  C
  O887     1.0000 0.30254  0.90239  0.15765  Biso   1.000  O
  H1687    1.0000 0.30393  0.84271  0.18311  Biso   1.000  H
  O888     1.0000 0.77890  0.19012  0.15623  Biso   1.000  O
  C963     1.0000 0.72120  0.12509  0.17881  Biso   1.000  C
  H1688    1.0000 0.80689  0.11760  0.16939  Biso   1.000  H
  C964     1.0000 0.72120  0.12513  0.17881  Biso   1.000  C
  H1689    1.0000 0.80689  0.11764  0.16939  Biso   1.000  H
  O889     1.0000 0.74687  0.11019  0.21996  Biso   1.000  O
  H1690    1.0000 0.82840  0.09782  0.21110  Biso   1.000  H
  C965     1.0000 0.82200  0.15219  0.23971  Biso   1.000  C
  O890     1.0000 0.74687  0.11023  0.21996  Biso   1.000  O
  C966     1.0000 0.82200  0.15224  0.23971  Biso   1.000  C
  O891     1.0000 0.74692  0.11019  0.21996  Biso   1.000  O
  O892     1.0000 0.74692  0.11023  0.21996  Biso   1.000  O
  C967     1.0000 0.20022  0.82398  0.19670  Biso   1.000  C
  H1691    1.0000 0.17160  0.90218  0.21110  Biso   1.000  H
  C968     1.0000 0.17800  0.84781  0.23971  Biso   1.000  C
  C969     1.0000 0.20022  0.82402  0.19670  Biso   1.000  C
  H1692    1.0000 0.17160  0.90223  0.21110  Biso   1.000  H
  H1693    1.0000 0.17164  0.90218  0.21110  Biso   1.000  H
  C970     1.0000 0.17804  0.84781  0.23971  Biso   1.000  C
  H1694    1.0000 0.17164  0.90223  0.21110  Biso   1.000  H
  H1695    1.0000 0.29551  0.88312  0.14620  Biso   1.000  H
  O893     1.0000 0.22110  0.80988  0.15623  Biso   1.000  O
  H1696    1.0000 0.19311  0.88240  0.16939  Biso   1.000  H
  O894     1.0000 0.22110  0.80992  0.15623  Biso   1.000  O
  O895     1.0000 0.22114  0.80988  0.15623  Biso   1.000  O
  O896     1.0000 0.22114  0.80992  0.15623  Biso   1.000  O
  H1697    1.0000 0.77280  0.17480  0.14309  Biso   1.000  H
  H1698    1.0000 0.77280  0.17484  0.14309  Biso   1.000  H
  O897     1.0000 0.69750  0.09761  0.15765  Biso   1.000  O
  C971     1.0000 0.72171  0.08422  0.19909  Biso   1.000  C
  H1699    1.0000 0.69612  0.15729  0.18311  Biso   1.000  H
  H1700    1.0000 0.69612  0.15733  0.18311  Biso   1.000  H
  O898     1.0000 0.78240  0.19580  0.24663  Biso   1.000  O
  H1701    1.0000 0.82251  0.12181  0.25160  Biso   1.000  H
  H1702    1.0000 0.86039  0.16810  0.23851  Biso   1.000  H
  H1703    1.0000 0.86043  0.16810  0.23851  Biso   1.000  H
  O899     1.0000 0.14428  0.80130  0.19284  Biso   1.000  O
  H1704    1.0000 0.22690  0.79359  0.20149  Biso   1.000  H
  O900     1.0000 0.14432  0.80130  0.19284  Biso   1.000  O
  O901     1.0000 0.21760  0.80420  0.24663  Biso   1.000  O
  H1705    1.0000 0.17749  0.87819  0.25160  Biso   1.000  H
  H1706    1.0000 0.13961  0.83190  0.23851  Biso   1.000  H
  H1707    1.0000 0.17749  0.87824  0.25160  Biso   1.000  H
  H1708    1.0000 0.17753  0.87819  0.25160  Biso   1.000  H
  H1709    1.0000 0.17753  0.87824  0.25160  Biso   1.000  H
  H1710    1.0000 0.22720  0.82520  0.14309  Biso   1.000  H
  H1711    1.0000 0.22724  0.82520  0.14309  Biso   1.000  H
  H1712    1.0000 0.70449  0.11688  0.14620  Biso   1.000  H
  H1713    1.0000 0.70449  0.11692  0.14620  Biso   1.000  H
  O902     1.0000 0.75361  0.03611  0.19188  Biso   1.000  O
  H1714    1.0000 0.68231  0.07239  0.20280  Biso   1.000  H
  H1715    1.0000 0.68231  0.07244  0.20280  Biso   1.000  H
  Na10     1.0000 0.68391  0.16322  0.25920  Biso   1.000  Na
  H1716    1.0000 0.79620  0.21491  0.25770  Biso   1.000  H
  C972     1.0000 0.13831  0.74418  0.19931  Biso   1.000  C
  C973     1.0000 0.13831  0.74422  0.19931  Biso   1.000  C
  Na11     1.0000 0.31609  0.83682  0.25920  Biso   1.000  Na
  H1717    1.0000 0.20380  0.78509  0.25770  Biso   1.000  H
  H1718    1.0000 0.20380  0.78513  0.25770  Biso   1.000  H
  H1719    1.0000 0.20384  0.78509  0.25770  Biso   1.000  H
  H1720    1.0000 0.20384  0.78513  0.25770  Biso   1.000  H
  C974     1.0000 0.72949  0.98190  0.19691  Biso   1.000  C
  O903     1.0000 0.10320  0.74031  0.21965  Biso   1.000  O
  H1721    1.0000 0.17602  0.72730  0.20260  Biso   1.000  H
  C975     1.0000 0.11112  0.71451  0.17821  Biso   1.000  C
  C976     1.0000 0.73471  0.94701  0.17309  Biso   1.000  C
  H1722    1.0000 0.68909  0.98582  0.20160  Biso   1.000  H
  C977     1.0000 0.76228  0.95299  0.21610  Biso   1.000  C
  C978     1.0000 0.76228  0.95303  0.21610  Biso   1.000  C
  H1723    1.0000 0.68913  0.98582  0.20160  Biso   1.000  H
  C979     1.0000 0.76232  0.95299  0.21610  Biso   1.000  C
  C980     1.0000 0.76232  0.95303  0.21610  Biso   1.000  C
  C981     1.0000 0.04701  0.76228  0.21610  Biso   1.000  C
  C982     1.0000 0.04701  0.76232  0.21610  Biso   1.000  C
  O904     1.0000 0.14529  0.71699  0.15792  Biso   1.000  O
  H1724    1.0000 0.10779  0.67389  0.18251  Biso   1.000  H
  C983     1.0000 0.05299  0.73471  0.17309  Biso   1.000  C
  O905     1.0000 0.14533  0.71699  0.15792  Biso   1.000  O
  H1725    1.0000 0.10783  0.67389  0.18251  Biso   1.000  H
  C984     1.0000 0.05303  0.73471  0.17309  Biso   1.000  C
  O906     1.0000 0.70108  0.97710  0.15638  Biso   1.000  O
  C985     1.0000 0.71451  0.88888  0.17821  Biso   1.000  C
  H1726    1.0000 0.77491  0.94600  0.16781  Biso   1.000  H
  C986     1.0000 0.71451  0.88893  0.17821  Biso   1.000  C
  O907     1.0000 0.70112  0.97710  0.15638  Biso   1.000  O
  O908     1.0000 0.74031  0.89680  0.21965  Biso   1.000  O
  C987     1.0000 0.76009  0.98119  0.24001  Biso   1.000  C
  H1727    1.0000 0.80260  0.95000  0.21110  Biso   1.000  H
  C988     1.0000 0.76009  0.98123  0.24001  Biso   1.000  C
  C989     1.0000 0.76013  0.98119  0.24001  Biso   1.000  C
  C990     1.0000 0.76013  0.98123  0.24001  Biso   1.000  C
  C991     1.0000 0.01810  0.72949  0.19691  Biso   1.000  C
  C992     1.0000 0.01881  0.76009  0.24001  Biso   1.000  C
  H1728    1.0000 0.05000  0.80260  0.21110  Biso   1.000  H
  C993     1.0000 0.01881  0.76013  0.24001  Biso   1.000  C
  H1729    1.0000 0.14942  0.75070  0.15379  Biso   1.000  H
  O909     1.0000 0.02290  0.70108  0.15638  Biso   1.000  O
  H1730    1.0000 0.05400  0.77491  0.16781  Biso   1.000  H
  O910     1.0000 0.02290  0.70112  0.15638  Biso   1.000  O
  H1731    1.0000 0.70319  0.96111  0.14320  Biso   1.000  H
  H1732    1.0000 0.70323  0.96111  0.14320  Biso   1.000  H
  O911     1.0000 0.71699  0.85471  0.15792  Biso   1.000  O
  C994     1.0000 0.74418  0.86169  0.19931  Biso   1.000  C
  H1733    1.0000 0.67389  0.89221  0.18251  Biso   1.000  H
  C995     1.0000 0.74422  0.86169  0.19931  Biso   1.000  C
  O912     1.0000 0.70239  0.98489  0.24760  Biso   1.000  O
  H1734    1.0000 0.78219  0.95909  0.25160  Biso   1.000  H
  O913     1.0000 0.70239  0.98493  0.24760  Biso   1.000  O
  H1735    1.0000 0.78219  0.95913  0.25160  Biso   1.000  H
  O914     1.0000 0.70243  0.98489  0.24760  Biso   1.000  O
  H1736    1.0000 0.78223  0.95909  0.25160  Biso   1.000  H
  O915     1.0000 0.70243  0.98493  0.24760  Biso   1.000  O
  H1737    1.0000 0.78223  0.95913  0.25160  Biso   1.000  H
  H1738    1.0000 0.77672  0.01940  0.23900  Biso   1.000  H
  O916     1.0000 0.96389  0.75361  0.19188  Biso   1.000  O
  O917     1.0000 0.96393  0.75361  0.19188  Biso   1.000  O
  H1739    1.0000 0.01418  0.68909  0.20160  Biso   1.000  H
  H1740    1.0000 0.01418  0.68913  0.20160  Biso   1.000  H
  H1741    1.0000 0.01423  0.68909  0.20160  Biso   1.000  H
  H1742    1.0000 0.01423  0.68913  0.20160  Biso   1.000  H
  H1743    1.0000 0.98060  0.77672  0.23900  Biso   1.000  H
  O918     1.0000 0.01511  0.70239  0.24760  Biso   1.000  O
  H1744    1.0000 0.04091  0.78219  0.25160  Biso   1.000  H
  O919     1.0000 0.01511  0.70243  0.24760  Biso   1.000  O
  H1745    1.0000 0.04091  0.78223  0.25160  Biso   1.000  H
  H1746    1.0000 0.03889  0.70319  0.14320  Biso   1.000  H
  H1747    1.0000 0.03889  0.70323  0.14320  Biso   1.000  H
  H1748    1.0000 0.03893  0.70319  0.14320  Biso   1.000  H
  H1749    1.0000 0.03893  0.70323  0.14320  Biso   1.000  H
  H1750    1.0000 0.75070  0.85058  0.15379  Biso   1.000  H
  H1751    1.0000 0.75070  0.85063  0.15379  Biso   1.000  H
  O920     1.0000 0.80130  0.85572  0.19284  Biso   1.000  O
  H1752    1.0000 0.72730  0.82398  0.20260  Biso   1.000  H
  H1753    1.0000 0.72730  0.82402  0.20260  Biso   1.000  H
  H1754    1.0000 0.69961  0.00909  0.25830  Biso   1.000  H
  H1755    1.0000 0.69961  0.00913  0.25830  Biso   1.000  H
  C996     1.0000 0.91578  0.72171  0.19909  Biso   1.000  C
  C997     1.0000 0.91582  0.72171  0.19909  Biso   1.000  C
  H1756    1.0000 0.99091  0.69961  0.25830  Biso   1.000  H
  C998     1.0000 0.82398  0.79978  0.19670  Biso   1.000  C
  C999     1.0000 0.82398  0.79982  0.19670  Biso   1.000  C
  C1000    1.0000 0.82402  0.79978  0.19670  Biso   1.000  C
  C1001    1.0000 0.82402  0.79982  0.19670  Biso   1.000  C
  O921     1.0000 0.88981  0.74687  0.21996  Biso   1.000  O
  H1757    1.0000 0.92761  0.68231  0.20280  Biso   1.000  H
  C1002    1.0000 0.87491  0.72120  0.17881  Biso   1.000  C
  O922     1.0000 0.88981  0.74692  0.21996  Biso   1.000  O
  C1003    1.0000 0.85130  0.78059  0.17399  Biso   1.000  C
  H1758    1.0000 0.79359  0.77310  0.20149  Biso   1.000  H
  C1004    1.0000 0.87049  0.80348  0.21630  Biso   1.000  C
  C1005    1.0000 0.85130  0.78063  0.17399  Biso   1.000  C
  C1006    1.0000 0.87049  0.80353  0.21630  Biso   1.000  C
  C1007    1.0000 0.87053  0.80348  0.21630  Biso   1.000  C
  C1008    1.0000 0.87053  0.80353  0.21630  Biso   1.000  C
  O923     1.0000 0.90239  0.69750  0.15765  Biso   1.000  O
  H1759    1.0000 0.84271  0.69612  0.18311  Biso   1.000  H
  O924     1.0000 0.80988  0.77890  0.15623  Biso   1.000  O
  H1760    1.0000 0.88240  0.80689  0.16939  Biso   1.000  H
  O925     1.0000 0.80992  0.77890  0.15623  Biso   1.000  O
  H1761    1.0000 0.90218  0.82840  0.21110  Biso   1.000  H
  C1009    1.0000 0.84781  0.82200  0.23971  Biso   1.000  C
  H1762    1.0000 0.90223  0.82840  0.21110  Biso   1.000  H
  H1763    1.0000 0.88312  0.70449  0.14620  Biso   1.000  H
  H1764    1.0000 0.82520  0.77280  0.14309  Biso   1.000  H
  O926     1.0000 0.80420  0.78240  0.24663  Biso   1.000  O
  H1765    1.0000 0.87819  0.82251  0.25160  Biso   1.000  H
  H1766    1.0000 0.83190  0.86039  0.23851  Biso   1.000  H
  H1767    1.0000 0.83190  0.86043  0.23851  Biso   1.000  H
  H1768    1.0000 0.87824  0.82251  0.25160  Biso   1.000  H
  Na12     1.0000 0.83682  0.68391  0.25920  Biso   1.000  Na
  H1769    1.0000 0.78509  0.79620  0.25770  Biso   1.000  H
  H1770    1.0000 0.78513  0.79620  0.25770  Biso   1.000  H
  Na13     1.0000 0.16322  0.31609  0.25920  Biso   1.000  Na
  O927     1.0000 0.19580  0.21760  0.24663  Biso   1.000  O
  H1771    1.0000 0.21491  0.20380  0.25770  Biso   1.000  H
  H1772    1.0000 0.21491  0.20384  0.25770  Biso   1.000  H
  C1010    1.0000 0.15219  0.17800  0.23971  Biso   1.000  C
  C1011    1.0000 0.15219  0.17804  0.23971  Biso   1.000  C
  C1012    1.0000 0.15224  0.17800  0.23971  Biso   1.000  C
  C1013    1.0000 0.15224  0.17804  0.23971  Biso   1.000  C
  C1014    1.0000 0.12951  0.19652  0.21630  Biso   1.000  C
  H1773    1.0000 0.16810  0.13961  0.23851  Biso   1.000  H
  H1774    1.0000 0.12181  0.17749  0.25160  Biso   1.000  H
  H1775    1.0000 0.12181  0.17753  0.25160  Biso   1.000  H
  O928     1.0000 0.11019  0.25313  0.21996  Biso   1.000  O
  C1015    1.0000 0.17602  0.20022  0.19670  Biso   1.000  C
  H1776    1.0000 0.09782  0.17160  0.21110  Biso   1.000  H
  O929     1.0000 0.11023  0.25313  0.21996  Biso   1.000  O
  H1777    1.0000 0.09782  0.17164  0.21110  Biso   1.000  H
  C1016    1.0000 0.08422  0.27829  0.19909  Biso   1.000  C
  C1017    1.0000 0.08422  0.27834  0.19909  Biso   1.000  C
  C1018    1.0000 0.14870  0.21941  0.17399  Biso   1.000  C
  H1778    1.0000 0.20641  0.22690  0.20149  Biso   1.000  H
  O930     1.0000 0.19870  0.14428  0.19284  Biso   1.000  O
  O931     1.0000 0.19870  0.14432  0.19284  Biso   1.000  O
  O932     1.0000 0.03611  0.24639  0.19188  Biso   1.000  O
  O933     1.0000 0.03611  0.24643  0.19188  Biso   1.000  O
  H1779    1.0000 0.07239  0.31769  0.20280  Biso   1.000  H
  C1019    1.0000 0.12509  0.27880  0.17881  Biso   1.000  C
  H1780    1.0000 0.07239  0.31773  0.20280  Biso   1.000  H
  C1020    1.0000 0.12509  0.27884  0.17881  Biso   1.000  C
  H1781    1.0000 0.07244  0.31769  0.20280  Biso   1.000  H
  C1021    1.0000 0.12513  0.27880  0.17881  Biso   1.000  C
  H1782    1.0000 0.07244  0.31773  0.20280  Biso   1.000  H
  C1022    1.0000 0.12513  0.27884  0.17881  Biso   1.000  C
  H1783    1.0000 0.11760  0.19311  0.16939  Biso   1.000  H
  O934     1.0000 0.19012  0.22110  0.15623  Biso   1.000  O
  O935     1.0000 0.19012  0.22114  0.15623  Biso   1.000  O
  H1784    1.0000 0.11764  0.19311  0.16939  Biso   1.000  H
  C1023    1.0000 0.25582  0.13831  0.19931  Biso   1.000  C
  C1024    1.0000 0.98190  0.27051  0.19691  Biso   1.000  C
  O936     1.0000 0.09761  0.30250  0.15765  Biso   1.000  O
  O937     1.0000 0.09761  0.30254  0.15765  Biso   1.000  O
  H1785    1.0000 0.15729  0.30388  0.18311  Biso   1.000  H
  H1786    1.0000 0.15729  0.30393  0.18311  Biso   1.000  H
  H1787    1.0000 0.15733  0.30388  0.18311  Biso   1.000  H
  H1788    1.0000 0.15733  0.30393  0.18311  Biso   1.000  H
  H1789    1.0000 0.17480  0.22720  0.14309  Biso   1.000  H
  H1790    1.0000 0.17480  0.22724  0.14309  Biso   1.000  H
  H1791    1.0000 0.17484  0.22720  0.14309  Biso   1.000  H
  H1792    1.0000 0.17484  0.22724  0.14309  Biso   1.000  H
  O938     1.0000 0.25969  0.10320  0.21965  Biso   1.000  O
  H1793    1.0000 0.27270  0.17602  0.20260  Biso   1.000  H
  C1025    1.0000 0.28549  0.11112  0.17821  Biso   1.000  C
  O939     1.0000 0.25973  0.10320  0.21965  Biso   1.000  O
  H1794    1.0000 0.27274  0.17602  0.20260  Biso   1.000  H
  C1026    1.0000 0.28553  0.11112  0.17821  Biso   1.000  C
  C1027    1.0000 0.94701  0.26529  0.17309  Biso   1.000  C
  H1795    1.0000 0.98582  0.31091  0.20160  Biso   1.000  H
  C1028    1.0000 0.95299  0.23772  0.21610  Biso   1.000  C
  C1029    1.0000 0.94701  0.26533  0.17309  Biso   1.000  C
  C1030    1.0000 0.95303  0.23772  0.21610  Biso   1.000  C
  H1796    1.0000 0.11688  0.29551  0.14620  Biso   1.000  H
  H1797    1.0000 0.11692  0.29551  0.14620  Biso   1.000  H
  C1031    1.0000 0.23772  0.04701  0.21610  Biso   1.000  C
  O940     1.0000 0.28301  0.14529  0.15792  Biso   1.000  O
  H1798    1.0000 0.32611  0.10779  0.18251  Biso   1.000  H
  O941     1.0000 0.28301  0.14533  0.15792  Biso   1.000  O
  H1799    1.0000 0.32611  0.10783  0.18251  Biso   1.000  H
  C1032    1.0000 0.26529  0.05299  0.17309  Biso   1.000  C
  C1033    1.0000 0.26529  0.05303  0.17309  Biso   1.000  C
  C1034    1.0000 0.26533  0.05299  0.17309  Biso   1.000  C
  C1035    1.0000 0.26533  0.05303  0.17309  Biso   1.000  C
  O942     1.0000 0.97710  0.29892  0.15638  Biso   1.000  O
  C1036    1.0000 0.88888  0.28549  0.17821  Biso   1.000  C
  H1800    1.0000 0.94600  0.22509  0.16781  Biso   1.000  H
  C1037    1.0000 0.88888  0.28553  0.17821  Biso   1.000  C
  H1801    1.0000 0.94600  0.22514  0.16781  Biso   1.000  H
  C1038    1.0000 0.88893  0.28549  0.17821  Biso   1.000  C
  C1039    1.0000 0.88893  0.28553  0.17821  Biso   1.000  C
  O943     1.0000 0.89680  0.25969  0.21965  Biso   1.000  O
  C1040    1.0000 0.98119  0.23991  0.24001  Biso   1.000  C
  H1802    1.0000 0.95000  0.19740  0.21110  Biso   1.000  H
  O944     1.0000 0.89680  0.25973  0.21965  Biso   1.000  O
  H1803    1.0000 0.95000  0.19744  0.21110  Biso   1.000  H
  C1041    1.0000 0.98123  0.23991  0.24001  Biso   1.000  C
  C1042    1.0000 0.27051  0.01810  0.19691  Biso   1.000  C
  C1043    1.0000 0.23991  0.01881  0.24001  Biso   1.000  C
  H1804    1.0000 0.19740  0.05000  0.21110  Biso   1.000  H
  H1805    1.0000 0.19744  0.05000  0.21110  Biso   1.000  H
  H1806    1.0000 0.24930  0.14942  0.15379  Biso   1.000  H
  H1807    1.0000 0.24934  0.14942  0.15379  Biso   1.000  H
  O945     1.0000 0.29892  0.02290  0.15638  Biso   1.000  O
  H1808    1.0000 0.22509  0.05400  0.16781  Biso   1.000  H
  H1809    1.0000 0.22514  0.05400  0.16781  Biso   1.000  H
  H1810    1.0000 0.96111  0.29681  0.14320  Biso   1.000  H
  O946     1.0000 0.85471  0.28301  0.15792  Biso   1.000  O
  C1044    1.0000 0.86169  0.25582  0.19931  Biso   1.000  C
  H1811    1.0000 0.89221  0.32611  0.18251  Biso   1.000  H
  H1812    1.0000 0.01940  0.22328  0.23900  Biso   1.000  H
  H1813    1.0000 0.01940  0.22333  0.23900  Biso   1.000  H
  O947     1.0000 0.98489  0.29761  0.24760  Biso   1.000  O
  H1814    1.0000 0.95909  0.21781  0.25160  Biso   1.000  H
  O948     1.0000 0.98493  0.29761  0.24760  Biso   1.000  O
  H1815    1.0000 0.95913  0.21781  0.25160  Biso   1.000  H
  H1816    1.0000 0.31091  0.01418  0.20160  Biso   1.000  H
  H1817    1.0000 0.31091  0.01423  0.20160  Biso   1.000  H
  O949     1.0000 0.24639  0.96389  0.19188  Biso   1.000  O
  O950     1.0000 0.24639  0.96393  0.19188  Biso   1.000  O
  O951     1.0000 0.24643  0.96389  0.19188  Biso   1.000  O
  O952     1.0000 0.24643  0.96393  0.19188  Biso   1.000  O
  O953     1.0000 0.29761  0.01511  0.24760  Biso   1.000  O
  H1818    1.0000 0.21781  0.04091  0.25160  Biso   1.000  H
  H1819    1.0000 0.22328  0.98060  0.23900  Biso   1.000  H
  H1820    1.0000 0.22333  0.98060  0.23900  Biso   1.000  H
  H1821    1.0000 0.29681  0.03889  0.14320  Biso   1.000  H
  H1822    1.0000 0.29681  0.03893  0.14320  Biso   1.000  H
  H1823    1.0000 0.85058  0.24930  0.15379  Biso   1.000  H
  H1824    1.0000 0.85058  0.24934  0.15379  Biso   1.000  H
  H1825    1.0000 0.85063  0.24930  0.15379  Biso   1.000  H
  H1826    1.0000 0.85063  0.24934  0.15379  Biso   1.000  H
  O954     1.0000 0.85572  0.19870  0.19284  Biso   1.000  O
  H1827    1.0000 0.82398  0.27270  0.20260  Biso   1.000  H
  H1828    1.0000 0.82398  0.27274  0.20260  Biso   1.000  H
  H1829    1.0000 0.82402  0.27270  0.20260  Biso   1.000  H
  H1830    1.0000 0.82402  0.27274  0.20260  Biso   1.000  H
  H1831    1.0000 0.00909  0.30039  0.25830  Biso   1.000  H
  H1832    1.0000 0.00909  0.30043  0.25830  Biso   1.000  H
  H1833    1.0000 0.00913  0.30039  0.25830  Biso   1.000  H
  H1834    1.0000 0.00913  0.30043  0.25830  Biso   1.000  H
  C1045    1.0000 0.27829  0.91578  0.19909  Biso   1.000  C
  C1046    1.0000 0.27829  0.91582  0.19909  Biso   1.000  C
  C1047    1.0000 0.27834  0.91578  0.19909  Biso   1.000  C
  C1048    1.0000 0.27834  0.91582  0.19909  Biso   1.000  C
  H1835    1.0000 0.30039  0.99091  0.25830  Biso   1.000  H
  H1836    1.0000 0.30043  0.99091  0.25830  Biso   1.000  H
  C1049    1.0000 0.79978  0.17602  0.19670  Biso   1.000  C
  C1050    1.0000 0.79982  0.17602  0.19670  Biso   1.000  C
  O955     1.0000 0.25313  0.88981  0.21996  Biso   1.000  O
  H1837    1.0000 0.31769  0.92761  0.20280  Biso   1.000  H
  C1051    1.0000 0.27880  0.87491  0.17881  Biso   1.000  C
  H1838    1.0000 0.31773  0.92761  0.20280  Biso   1.000  H
  C1052    1.0000 0.27884  0.87491  0.17881  Biso   1.000  C
  C1053    1.0000 0.78059  0.14870  0.17399  Biso   1.000  C
  H1839    1.0000 0.77310  0.20641  0.20149  Biso   1.000  H
  C1054    1.0000 0.80348  0.12951  0.21630  Biso   1.000  C
  C1055    1.0000 0.78063  0.14870  0.17399  Biso   1.000  C
  C1056    1.0000 0.80353  0.12951  0.21630  Biso   1.000  C
  C1057    1.0000 0.19652  0.87049  0.21630  Biso   1.000  C
  C1058    1.0000 0.19652  0.87053  0.21630  Biso   1.000  C
  O956     1.0000 0.30250  0.90239  0.15765  Biso   1.000  O
  H1840    1.0000 0.30388  0.84271  0.18311  Biso   1.000  H
  C1059    1.0000 0.21941  0.85130  0.17399  Biso   1.000  C
  O957     1.0000 0.30254  0.90239  0.15765  Biso   1.000  O
  H1841    1.0000 0.30393  0.84271  0.18311  Biso   1.000  H
  O958     1.0000 0.77890  0.19012  0.15623  Biso   1.000  O
  C1060    1.0000 0.72120  0.12509  0.17881  Biso   1.000  C
  H1842    1.0000 0.80689  0.11760  0.16939  Biso   1.000  H
  C1061    1.0000 0.72120  0.12513  0.17881  Biso   1.000  C
  H1843    1.0000 0.80689  0.11764  0.16939  Biso   1.000  H
  O959     1.0000 0.74687  0.11019  0.21996  Biso   1.000  O
  H1844    1.0000 0.82840  0.09782  0.21110  Biso   1.000  H
  C1062    1.0000 0.82200  0.15219  0.23971  Biso   1.000  C
  O960     1.0000 0.74687  0.11023  0.21996  Biso   1.000  O
  C1063    1.0000 0.82200  0.15224  0.23971  Biso   1.000  C
  O961     1.0000 0.74692  0.11019  0.21996  Biso   1.000  O
  O962     1.0000 0.74692  0.11023  0.21996  Biso   1.000  O
  C1064    1.0000 0.20022  0.82398  0.19670  Biso   1.000  C
  H1845    1.0000 0.17160  0.90218  0.21110  Biso   1.000  H
  C1065    1.0000 0.17800  0.84781  0.23971  Biso   1.000  C
  C1066    1.0000 0.20022  0.82402  0.19670  Biso   1.000  C
  H1846    1.0000 0.17160  0.90223  0.21110  Biso   1.000  H
  H1847    1.0000 0.17164  0.90218  0.21110  Biso   1.000  H
  C1067    1.0000 0.17804  0.84781  0.23971  Biso   1.000  C
  H1848    1.0000 0.17164  0.90223  0.21110  Biso   1.000  H
  H1849    1.0000 0.29551  0.88312  0.14620  Biso   1.000  H
  O963     1.0000 0.22110  0.80988  0.15623  Biso   1.000  O
  H1850    1.0000 0.19311  0.88240  0.16939  Biso   1.000  H
  O964     1.0000 0.22110  0.80992  0.15623  Biso   1.000  O
  O965     1.0000 0.22114  0.80988  0.15623  Biso   1.000  O
  O966     1.0000 0.22114  0.80992  0.15623  Biso   1.000  O
  H1851    1.0000 0.77280  0.17480  0.14309  Biso   1.000  H
  H1852    1.0000 0.77280  0.17484  0.14309  Biso   1.000  H
  O967     1.0000 0.69750  0.09761  0.15765  Biso   1.000  O
  C1068    1.0000 0.72171  0.08422  0.19909  Biso   1.000  C
  H1853    1.0000 0.69612  0.15729  0.18311  Biso   1.000  H
  H1854    1.0000 0.69612  0.15733  0.18311  Biso   1.000  H
  O968     1.0000 0.78240  0.19580  0.24663  Biso   1.000  O
  H1855    1.0000 0.82251  0.12181  0.25160  Biso   1.000  H
  H1856    1.0000 0.86039  0.16810  0.23851  Biso   1.000  H
  H1857    1.0000 0.86043  0.16810  0.23851  Biso   1.000  H
  O969     1.0000 0.14428  0.80130  0.19284  Biso   1.000  O
  H1858    1.0000 0.22690  0.79359  0.20149  Biso   1.000  H
  O970     1.0000 0.14432  0.80130  0.19284  Biso   1.000  O
  O971     1.0000 0.21760  0.80420  0.24663  Biso   1.000  O
  H1859    1.0000 0.17749  0.87819  0.25160  Biso   1.000  H
  H1860    1.0000 0.13961  0.83190  0.23851  Biso   1.000  H
  H1861    1.0000 0.17749  0.87824  0.25160  Biso   1.000  H
  H1862    1.0000 0.17753  0.87819  0.25160  Biso   1.000  H
  H1863    1.0000 0.17753  0.87824  0.25160  Biso   1.000  H
  H1864    1.0000 0.22720  0.82520  0.14309  Biso   1.000  H
  H1865    1.0000 0.22724  0.82520  0.14309  Biso   1.000  H
  H1866    1.0000 0.70449  0.11688  0.14620  Biso   1.000  H
  H1867    1.0000 0.70449  0.11692  0.14620  Biso   1.000  H
  O972     1.0000 0.75361  0.03611  0.19188  Biso   1.000  O
  H1868    1.0000 0.68231  0.07239  0.20280  Biso   1.000  H
  H1869    1.0000 0.68231  0.07244  0.20280  Biso   1.000  H
  Na14     1.0000 0.68391  0.16322  0.25920  Biso   1.000  Na
  H1870    1.0000 0.79620  0.21491  0.25770  Biso   1.000  H
  C1069    1.0000 0.13831  0.74418  0.19931  Biso   1.000  C
  C1070    1.0000 0.13831  0.74422  0.19931  Biso   1.000  C
  Na15     1.0000 0.31609  0.83682  0.25920  Biso   1.000  Na
  H1871    1.0000 0.20380  0.78509  0.25770  Biso   1.000  H
  H1872    1.0000 0.20380  0.78513  0.25770  Biso   1.000  H
  H1873    1.0000 0.20384  0.78509  0.25770  Biso   1.000  H
  H1874    1.0000 0.20384  0.78513  0.25770  Biso   1.000  H
  C1071    1.0000 0.72949  0.98190  0.19691  Biso   1.000  C
  O973     1.0000 0.10320  0.74031  0.21965  Biso   1.000  O
  H1875    1.0000 0.17602  0.72730  0.20260  Biso   1.000  H
  C1072    1.0000 0.11112  0.71451  0.17821  Biso   1.000  C
  C1073    1.0000 0.73471  0.94701  0.17309  Biso   1.000  C
  H1876    1.0000 0.68909  0.98582  0.20160  Biso   1.000  H
  C1074    1.0000 0.76228  0.95299  0.21610  Biso   1.000  C
  C1075    1.0000 0.76228  0.95303  0.21610  Biso   1.000  C
  H1877    1.0000 0.68913  0.98582  0.20160  Biso   1.000  H
  C1076    1.0000 0.76232  0.95299  0.21610  Biso   1.000  C
  C1077    1.0000 0.76232  0.95303  0.21610  Biso   1.000  C
  C1078    1.0000 0.04701  0.76228  0.21610  Biso   1.000  C
  C1079    1.0000 0.04701  0.76232  0.21610  Biso   1.000  C
  O974     1.0000 0.14529  0.71699  0.15792  Biso   1.000  O
  H1878    1.0000 0.10779  0.67389  0.18251  Biso   1.000  H
  C1080    1.0000 0.05299  0.73471  0.17309  Biso   1.000  C
  O975     1.0000 0.14533  0.71699  0.15792  Biso   1.000  O
  H1879    1.0000 0.10783  0.67389  0.18251  Biso   1.000  H
  C1081    1.0000 0.05303  0.73471  0.17309  Biso   1.000  C
  O976     1.0000 0.70108  0.97710  0.15638  Biso   1.000  O
  C1082    1.0000 0.71451  0.88888  0.17821  Biso   1.000  C
  H1880    1.0000 0.77491  0.94600  0.16781  Biso   1.000  H
  C1083    1.0000 0.71451  0.88893  0.17821  Biso   1.000  C
  O977     1.0000 0.70112  0.97710  0.15638  Biso   1.000  O
  O978     1.0000 0.74031  0.89680  0.21965  Biso   1.000  O
  C1084    1.0000 0.76009  0.98119  0.24001  Biso   1.000  C
  H1881    1.0000 0.80260  0.95000  0.21110  Biso   1.000  H
  C1085    1.0000 0.76009  0.98123  0.24001  Biso   1.000  C
  C1086    1.0000 0.76013  0.98119  0.24001  Biso   1.000  C
  C1087    1.0000 0.76013  0.98123  0.24001  Biso   1.000  C
  C1088    1.0000 0.01810  0.72949  0.19691  Biso   1.000  C
  C1089    1.0000 0.01881  0.76009  0.24001  Biso   1.000  C
  H1882    1.0000 0.05000  0.80260  0.21110  Biso   1.000  H
  C1090    1.0000 0.01881  0.76013  0.24001  Biso   1.000  C
  H1883    1.0000 0.14942  0.75070  0.15379  Biso   1.000  H
  O979     1.0000 0.02290  0.70108  0.15638  Biso   1.000  O
  H1884    1.0000 0.05400  0.77491  0.16781  Biso   1.000  H
  O980     1.0000 0.02290  0.70112  0.15638  Biso   1.000  O
  H1885    1.0000 0.70319  0.96111  0.14320  Biso   1.000  H
  H1886    1.0000 0.70323  0.96111  0.14320  Biso   1.000  H
  O981     1.0000 0.71699  0.85471  0.15792  Biso   1.000  O
  C1091    1.0000 0.74418  0.86169  0.19931  Biso   1.000  C
  H1887    1.0000 0.67389  0.89221  0.18251  Biso   1.000  H
  C1092    1.0000 0.74422  0.86169  0.19931  Biso   1.000  C
  O982     1.0000 0.70239  0.98489  0.24760  Biso   1.000  O
  H1888    1.0000 0.78219  0.95909  0.25160  Biso   1.000  H
  O983     1.0000 0.70239  0.98493  0.24760  Biso   1.000  O
  H1889    1.0000 0.78219  0.95913  0.25160  Biso   1.000  H
  O984     1.0000 0.70243  0.98489  0.24760  Biso   1.000  O
  H1890    1.0000 0.78223  0.95909  0.25160  Biso   1.000  H
  O985     1.0000 0.70243  0.98493  0.24760  Biso   1.000  O
  H1891    1.0000 0.78223  0.95913  0.25160  Biso   1.000  H
  H1892    1.0000 0.77672  0.01940  0.23900  Biso   1.000  H
  O986     1.0000 0.96389  0.75361  0.19188  Biso   1.000  O
  O987     1.0000 0.96393  0.75361  0.19188  Biso   1.000  O
  H1893    1.0000 0.01418  0.68909  0.20160  Biso   1.000  H
  H1894    1.0000 0.01418  0.68913  0.20160  Biso   1.000  H
  H1895    1.0000 0.01423  0.68909  0.20160  Biso   1.000  H
  H1896    1.0000 0.01423  0.68913  0.20160  Biso   1.000  H
  H1897    1.0000 0.98060  0.77672  0.23900  Biso   1.000  H
  O988     1.0000 0.01511  0.70239  0.24760  Biso   1.000  O
  H1898    1.0000 0.04091  0.78219  0.25160  Biso   1.000  H
  O989     1.0000 0.01511  0.70243  0.24760  Biso   1.000  O
  H1899    1.0000 0.04091  0.78223  0.25160  Biso   1.000  H
  H1900    1.0000 0.03889  0.70319  0.14320  Biso   1.000  H
  H1901    1.0000 0.03889  0.70323  0.14320  Biso   1.000  H
  H1902    1.0000 0.03893  0.70319  0.14320  Biso   1.000  H
  H1903    1.0000 0.03893  0.70323  0.14320  Biso   1.000  H
  H1904    1.0000 0.75070  0.85058  0.15379  Biso   1.000  H
  H1905    1.0000 0.75070  0.85063  0.15379  Biso   1.000  H
  O990     1.0000 0.80130  0.85572  0.19284  Biso   1.000  O
  H1906    1.0000 0.72730  0.82398  0.20260  Biso   1.000  H
  H1907    1.0000 0.72730  0.82402  0.20260  Biso   1.000  H
  H1908    1.0000 0.69961  0.00909  0.25830  Biso   1.000  H
  H1909    1.0000 0.69961  0.00913  0.25830  Biso   1.000  H
  C1093    1.0000 0.91578  0.72171  0.19909  Biso   1.000  C
  C1094    1.0000 0.91582  0.72171  0.19909  Biso   1.000  C
  H1910    1.0000 0.99091  0.69961  0.25830  Biso   1.000  H
  C1095    1.0000 0.82398  0.79978  0.19670  Biso   1.000  C
  C1096    1.0000 0.82398  0.79982  0.19670  Biso   1.000  C
  C1097    1.0000 0.82402  0.79978  0.19670  Biso   1.000  C
  C1098    1.0000 0.82402  0.79982  0.19670  Biso   1.000  C
  O991     1.0000 0.88981  0.74687  0.21996  Biso   1.000  O
  H1911    1.0000 0.92761  0.68231  0.20280  Biso   1.000  H
  C1099    1.0000 0.87491  0.72120  0.17881  Biso   1.000  C
  O992     1.0000 0.88981  0.74692  0.21996  Biso   1.000  O
  C1100    1.0000 0.85130  0.78059  0.17399  Biso   1.000  C
  H1912    1.0000 0.79359  0.77310  0.20149  Biso   1.000  H
  C1101    1.0000 0.87049  0.80348  0.21630  Biso   1.000  C
  C1102    1.0000 0.85130  0.78063  0.17399  Biso   1.000  C
  C1103    1.0000 0.87049  0.80353  0.21630  Biso   1.000  C
  C1104    1.0000 0.87053  0.80348  0.21630  Biso   1.000  C
  C1105    1.0000 0.87053  0.80353  0.21630  Biso   1.000  C
  O993     1.0000 0.90239  0.69750  0.15765  Biso   1.000  O
  H1913    1.0000 0.84271  0.69612  0.18311  Biso   1.000  H
  O994     1.0000 0.80988  0.77890  0.15623  Biso   1.000  O
  H1914    1.0000 0.88240  0.80689  0.16939  Biso   1.000  H
  O995     1.0000 0.80992  0.77890  0.15623  Biso   1.000  O
  H1915    1.0000 0.90218  0.82840  0.21110  Biso   1.000  H
  C1106    1.0000 0.84781  0.82200  0.23971  Biso   1.000  C
  H1916    1.0000 0.90223  0.82840  0.21110  Biso   1.000  H
  H1917    1.0000 0.88312  0.70449  0.14620  Biso   1.000  H
  H1918    1.0000 0.82520  0.77280  0.14309  Biso   1.000  H
  O996     1.0000 0.80420  0.78240  0.24663  Biso   1.000  O
  H1919    1.0000 0.87819  0.82251  0.25160  Biso   1.000  H
  H1920    1.0000 0.83190  0.86039  0.23851  Biso   1.000  H
  H1921    1.0000 0.83190  0.86043  0.23851  Biso   1.000  H
  H1922    1.0000 0.87824  0.82251  0.25160  Biso   1.000  H
  Na16     1.0000 0.83682  0.68391  0.25920  Biso   1.000  Na
  H1923    1.0000 0.78509  0.79620  0.25770  Biso   1.000  H
  H1924    1.0000 0.78513  0.79620  0.25770  Biso   1.000  H
  Na17     1.0000 0.16322  0.31609  0.25920  Biso   1.000  Na
  O997     1.0000 0.19580  0.21760  0.24663  Biso   1.000  O
  H1925    1.0000 0.21491  0.20380  0.25770  Biso   1.000  H
  C1107    1.0000 0.15219  0.17800  0.23971  Biso   1.000  C
  H1926    1.0000 0.21491  0.20384  0.25770  Biso   1.000  H
  C1108    1.0000 0.15219  0.17804  0.23971  Biso   1.000  C
  C1109    1.0000 0.15224  0.17800  0.23971  Biso   1.000  C
  C1110    1.0000 0.15224  0.17804  0.23971  Biso   1.000  C
  C1111    1.0000 0.12951  0.19652  0.21630  Biso   1.000  C
  H1927    1.0000 0.16810  0.13961  0.23851  Biso   1.000  H
  H1928    1.0000 0.12181  0.17749  0.25160  Biso   1.000  H
  H1929    1.0000 0.12181  0.17753  0.25160  Biso   1.000  H
  C1112    1.0000 0.17602  0.20022  0.19670  Biso   1.000  C
  O998     1.0000 0.11019  0.25313  0.21996  Biso   1.000  O
  H1930    1.0000 0.09782  0.17160  0.21110  Biso   1.000  H
  H1931    1.0000 0.09782  0.17164  0.21110  Biso   1.000  H
  O999     1.0000 0.11023  0.25313  0.21996  Biso   1.000  O
  C1113    1.0000 0.14870  0.21941  0.17399  Biso   1.000  C
  H1932    1.0000 0.20641  0.22690  0.20149  Biso   1.000  H
  O1000    1.0000 0.19870  0.14428  0.19284  Biso   1.000  O
  O1001    1.0000 0.19870  0.14432  0.19284  Biso   1.000  O
  C1114    1.0000 0.08422  0.27829  0.19909  Biso   1.000  C
  C1115    1.0000 0.08422  0.27834  0.19909  Biso   1.000  C
  O1002    1.0000 0.19012  0.22110  0.15623  Biso   1.000  O
  C1116    1.0000 0.12509  0.27880  0.17881  Biso   1.000  C
  H1933    1.0000 0.11760  0.19311  0.16939  Biso   1.000  H
  O1003    1.0000 0.19012  0.22114  0.15623  Biso   1.000  O
  C1117    1.0000 0.12509  0.27884  0.17881  Biso   1.000  C
  C1118    1.0000 0.12513  0.27880  0.17881  Biso   1.000  C
  H1934    1.0000 0.11764  0.19311  0.16939  Biso   1.000  H
  C1119    1.0000 0.12513  0.27884  0.17881  Biso   1.000  C
  C1120    1.0000 0.25582  0.13831  0.19931  Biso   1.000  C
  O1004    1.0000 0.03611  0.24639  0.19188  Biso   1.000  O
  H1935    1.0000 0.07239  0.31769  0.20280  Biso   1.000  H
  O1005    1.0000 0.03611  0.24643  0.19188  Biso   1.000  O
  H1936    1.0000 0.07239  0.31773  0.20280  Biso   1.000  H
  H1937    1.0000 0.07244  0.31769  0.20280  Biso   1.000  H
  H1938    1.0000 0.07244  0.31773  0.20280  Biso   1.000  H
  H1939    1.0000 0.17480  0.22720  0.14309  Biso   1.000  H
  H1940    1.0000 0.17480  0.22724  0.14309  Biso   1.000  H
  H1941    1.0000 0.17484  0.22720  0.14309  Biso   1.000  H
  H1942    1.0000 0.17484  0.22724  0.14309  Biso   1.000  H
  O1006    1.0000 0.09761  0.30250  0.15765  Biso   1.000  O
  H1943    1.0000 0.15729  0.30388  0.18311  Biso   1.000  H
  O1007    1.0000 0.09761  0.30254  0.15765  Biso   1.000  O
  H1944    1.0000 0.15729  0.30393  0.18311  Biso   1.000  H
  H1945    1.0000 0.15733  0.30388  0.18311  Biso   1.000  H
  H1946    1.0000 0.15733  0.30393  0.18311  Biso   1.000  H
  O1008    1.0000 0.25969  0.10320  0.21965  Biso   1.000  O
  H1947    1.0000 0.27270  0.17602  0.20260  Biso   1.000  H
  C1121    1.0000 0.28549  0.11112  0.17821  Biso   1.000  C
  O1009    1.0000 0.25973  0.10320  0.21965  Biso   1.000  O
  H1948    1.0000 0.27274  0.17602  0.20260  Biso   1.000  H
  C1122    1.0000 0.28553  0.11112  0.17821  Biso   1.000  C
  C1123    1.0000 0.98190  0.27051  0.19691  Biso   1.000  C
  H1949    1.0000 0.11688  0.29551  0.14620  Biso   1.000  H
  H1950    1.0000 0.11692  0.29551  0.14620  Biso   1.000  H
  C1124    1.0000 0.23772  0.04701  0.21610  Biso   1.000  C
  O1010    1.0000 0.28301  0.14529  0.15792  Biso   1.000  O
  H1951    1.0000 0.32611  0.10779  0.18251  Biso   1.000  H
  C1125    1.0000 0.26529  0.05299  0.17309  Biso   1.000  C
  O1011    1.0000 0.28301  0.14533  0.15792  Biso   1.000  O
  H1952    1.0000 0.32611  0.10783  0.18251  Biso   1.000  H
  C1126    1.0000 0.26529  0.05303  0.17309  Biso   1.000  C
  C1127    1.0000 0.26533  0.05299  0.17309  Biso   1.000  C
  C1128    1.0000 0.26533  0.05303  0.17309  Biso   1.000  C
  C1129    1.0000 0.94701  0.26529  0.17309  Biso   1.000  C
  H1953    1.0000 0.98582  0.31091  0.20160  Biso   1.000  H
  C1130    1.0000 0.95299  0.23772  0.21610  Biso   1.000  C
  C1131    1.0000 0.94701  0.26533  0.17309  Biso   1.000  C
  C1132    1.0000 0.95303  0.23772  0.21610  Biso   1.000  C
  C1133    1.0000 0.27051  0.01810  0.19691  Biso   1.000  C
  C1134    1.0000 0.23991  0.01881  0.24001  Biso   1.000  C
  H1954    1.0000 0.19740  0.05000  0.21110  Biso   1.000  H
  H1955    1.0000 0.19744  0.05000  0.21110  Biso   1.000  H
  H1956    1.0000 0.24930  0.14942  0.15379  Biso   1.000  H
  H1957    1.0000 0.24934  0.14942  0.15379  Biso   1.000  H
  O1012    1.0000 0.29892  0.02290  0.15638  Biso   1.000  O
  H1958    1.0000 0.22509  0.05400  0.16781  Biso   1.000  H
  H1959    1.0000 0.22514  0.05400  0.16781  Biso   1.000  H
  O1013    1.0000 0.97710  0.29892  0.15638  Biso   1.000  O
  C1135    1.0000 0.88888  0.28549  0.17821  Biso   1.000  C
  H1960    1.0000 0.94600  0.22509  0.16781  Biso   1.000  H
  C1136    1.0000 0.88888  0.28553  0.17821  Biso   1.000  C
  H1961    1.0000 0.94600  0.22514  0.16781  Biso   1.000  H
  C1137    1.0000 0.88893  0.28549  0.17821  Biso   1.000  C
  C1138    1.0000 0.88893  0.28553  0.17821  Biso   1.000  C
  O1014    1.0000 0.89680  0.25969  0.21965  Biso   1.000  O
  C1139    1.0000 0.98119  0.23991  0.24001  Biso   1.000  C
  H1962    1.0000 0.95000  0.19740  0.21110  Biso   1.000  H
  O1015    1.0000 0.89680  0.25973  0.21965  Biso   1.000  O
  H1963    1.0000 0.95000  0.19744  0.21110  Biso   1.000  H
  C1140    1.0000 0.98123  0.23991  0.24001  Biso   1.000  C
  O1016    1.0000 0.24639  0.96389  0.19188  Biso   1.000  O
  O1017    1.0000 0.24639  0.96393  0.19188  Biso   1.000  O
  O1018    1.0000 0.24643  0.96389  0.19188  Biso   1.000  O
  O1019    1.0000 0.24643  0.96393  0.19188  Biso   1.000  O
  H1964    1.0000 0.31091  0.01418  0.20160  Biso   1.000  H
  H1965    1.0000 0.31091  0.01423  0.20160  Biso   1.000  H
  O1020    1.0000 0.29761  0.01511  0.24760  Biso   1.000  O
  H1966    1.0000 0.21781  0.04091  0.25160  Biso   1.000  H
  H1967    1.0000 0.22328  0.98060  0.23900  Biso   1.000  H
  H1968    1.0000 0.22333  0.98060  0.23900  Biso   1.000  H
  H1969    1.0000 0.29681  0.03889  0.14320  Biso   1.000  H
  H1970    1.0000 0.29681  0.03893  0.14320  Biso   1.000  H
  H1971    1.0000 0.96111  0.29681  0.14320  Biso   1.000  H
  O1021    1.0000 0.85471  0.28301  0.15792  Biso   1.000  O
  C1141    1.0000 0.86169  0.25582  0.19931  Biso   1.000  C
  H1972    1.0000 0.89221  0.32611  0.18251  Biso   1.000  H
  O1022    1.0000 0.98489  0.29761  0.24760  Biso   1.000  O
  H1973    1.0000 0.95909  0.21781  0.25160  Biso   1.000  H
  O1023    1.0000 0.98493  0.29761  0.24760  Biso   1.000  O
  H1974    1.0000 0.95913  0.21781  0.25160  Biso   1.000  H
  H1975    1.0000 0.01940  0.22328  0.23900  Biso   1.000  H
  H1976    1.0000 0.01940  0.22333  0.23900  Biso   1.000  H
  C1142    1.0000 0.27829  0.91578  0.19909  Biso   1.000  C
  C1143    1.0000 0.27829  0.91582  0.19909  Biso   1.000  C
  C1144    1.0000 0.27834  0.91578  0.19909  Biso   1.000  C
  C1145    1.0000 0.27834  0.91582  0.19909  Biso   1.000  C
  H1977    1.0000 0.30039  0.99091  0.25830  Biso   1.000  H
  H1978    1.0000 0.30043  0.99091  0.25830  Biso   1.000  H
  H1979    1.0000 0.85058  0.24930  0.15379  Biso   1.000  H
  H1980    1.0000 0.85058  0.24934  0.15379  Biso   1.000  H
  H1981    1.0000 0.85063  0.24930  0.15379  Biso   1.000  H
  H1982    1.0000 0.85063  0.24934  0.15379  Biso   1.000  H
  O1024    1.0000 0.85572  0.19870  0.19284  Biso   1.000  O
  H1983    1.0000 0.82398  0.27270  0.20260  Biso   1.000  H
  H1984    1.0000 0.82398  0.27274  0.20260  Biso   1.000  H
  H1985    1.0000 0.82402  0.27270  0.20260  Biso   1.000  H
  H1986    1.0000 0.82402  0.27274  0.20260  Biso   1.000  H
  H1987    1.0000 0.00909  0.30039  0.25830  Biso   1.000  H
  H1988    1.0000 0.00909  0.30043  0.25830  Biso   1.000  H
  H1989    1.0000 0.00913  0.30039  0.25830  Biso   1.000  H
  H1990    1.0000 0.00913  0.30043  0.25830  Biso   1.000  H
  O1025    1.0000 0.25313  0.88981  0.21996  Biso   1.000  O
  H1991    1.0000 0.31769  0.92761  0.20280  Biso   1.000  H
  C1146    1.0000 0.27880  0.87491  0.17881  Biso   1.000  C
  H1992    1.0000 0.31773  0.92761  0.20280  Biso   1.000  H
  C1147    1.0000 0.27884  0.87491  0.17881  Biso   1.000  C
  C1148    1.0000 0.79978  0.17602  0.19670  Biso   1.000  C
  C1149    1.0000 0.79982  0.17602  0.19670  Biso   1.000  C
  C1150    1.0000 0.19652  0.87049  0.21630  Biso   1.000  C
  C1151    1.0000 0.19652  0.87053  0.21630  Biso   1.000  C
  O1026    1.0000 0.30250  0.90239  0.15765  Biso   1.000  O
  H1993    1.0000 0.30388  0.84271  0.18311  Biso   1.000  H
  C1152    1.0000 0.21941  0.85130  0.17399  Biso   1.000  C
  O1027    1.0000 0.30254  0.90239  0.15765  Biso   1.000  O
  H1994    1.0000 0.30393  0.84271  0.18311  Biso   1.000  H
  C1153    1.0000 0.78059  0.14870  0.17399  Biso   1.000  C
  H1995    1.0000 0.77310  0.20641  0.20149  Biso   1.000  H
  C1154    1.0000 0.80348  0.12951  0.21630  Biso   1.000  C
  C1155    1.0000 0.78063  0.14870  0.17399  Biso   1.000  C
  C1156    1.0000 0.80353  0.12951  0.21630  Biso   1.000  C
  C1157    1.0000 0.20022  0.82398  0.19670  Biso   1.000  C
  H1996    1.0000 0.17160  0.90218  0.21110  Biso   1.000  H
  C1158    1.0000 0.17800  0.84781  0.23971  Biso   1.000  C
  C1159    1.0000 0.20022  0.82402  0.19670  Biso   1.000  C
  H1997    1.0000 0.17160  0.90223  0.21110  Biso   1.000  H
  H1998    1.0000 0.17164  0.90218  0.21110  Biso   1.000  H
  C1160    1.0000 0.17804  0.84781  0.23971  Biso   1.000  C
  H1999    1.0000 0.17164  0.90223  0.21110  Biso   1.000  H
  H2000    1.0000 0.29551  0.88312  0.14620  Biso   1.000  H
  O1028    1.0000 0.22110  0.80988  0.15623  Biso   1.000  O
  H2001    1.0000 0.19311  0.88240  0.16939  Biso   1.000  H
  O1029    1.0000 0.22110  0.80992  0.15623  Biso   1.000  O
  O1030    1.0000 0.22114  0.80988  0.15623  Biso   1.000  O
  O1031    1.0000 0.22114  0.80992  0.15623  Biso   1.000  O
  O1032    1.0000 0.77890  0.19012  0.15623  Biso   1.000  O
  C1161    1.0000 0.72120  0.12509  0.17881  Biso   1.000  C
  H2002    1.0000 0.80689  0.11760  0.16939  Biso   1.000  H
  C1162    1.0000 0.72120  0.12513  0.17881  Biso   1.000  C
  H2003    1.0000 0.80689  0.11764  0.16939  Biso   1.000  H
  O1033    1.0000 0.74687  0.11019  0.21996  Biso   1.000  O
  H2004    1.0000 0.82840  0.09782  0.21110  Biso   1.000  H
  C1163    1.0000 0.82200  0.15219  0.23971  Biso   1.000  C
  O1034    1.0000 0.74687  0.11023  0.21996  Biso   1.000  O
  C1164    1.0000 0.82200  0.15224  0.23971  Biso   1.000  C
  O1035    1.0000 0.74692  0.11019  0.21996  Biso   1.000  O
  O1036    1.0000 0.74692  0.11023  0.21996  Biso   1.000  O
  O1037    1.0000 0.14428  0.80130  0.19284  Biso   1.000  O
  H2005    1.0000 0.22690  0.79359  0.20149  Biso   1.000  H
  O1038    1.0000 0.14432  0.80130  0.19284  Biso   1.000  O
  O1039    1.0000 0.21760  0.80420  0.24663  Biso   1.000  O
  H2006    1.0000 0.17749  0.87819  0.25160  Biso   1.000  H
  H2007    1.0000 0.13961  0.83190  0.23851  Biso   1.000  H
  H2008    1.0000 0.17749  0.87824  0.25160  Biso   1.000  H
  H2009    1.0000 0.17753  0.87819  0.25160  Biso   1.000  H
  H2010    1.0000 0.17753  0.87824  0.25160  Biso   1.000  H
  H2011    1.0000 0.22720  0.82520  0.14309  Biso   1.000  H
  H2012    1.0000 0.22724  0.82520  0.14309  Biso   1.000  H
  H2013    1.0000 0.77280  0.17480  0.14309  Biso   1.000  H
  H2014    1.0000 0.77280  0.17484  0.14309  Biso   1.000  H
  O1040    1.0000 0.69750  0.09761  0.15765  Biso   1.000  O
  C1165    1.0000 0.72171  0.08422  0.19909  Biso   1.000  C
  H2015    1.0000 0.69612  0.15729  0.18311  Biso   1.000  H
  H2016    1.0000 0.69612  0.15733  0.18311  Biso   1.000  H
  O1041    1.0000 0.78240  0.19580  0.24663  Biso   1.000  O
  H2017    1.0000 0.82251  0.12181  0.25160  Biso   1.000  H
  H2018    1.0000 0.86039  0.16810  0.23851  Biso   1.000  H
  H2019    1.0000 0.86043  0.16810  0.23851  Biso   1.000  H
  C1166    1.0000 0.13831  0.74418  0.19931  Biso   1.000  C
  C1167    1.0000 0.13831  0.74422  0.19931  Biso   1.000  C
  Na18     1.0000 0.31609  0.83682  0.25920  Biso   1.000  Na
  H2020    1.0000 0.20380  0.78509  0.25770  Biso   1.000  H
  H2021    1.0000 0.20380  0.78513  0.25770  Biso   1.000  H
  H2022    1.0000 0.20384  0.78509  0.25770  Biso   1.000  H
  H2023    1.0000 0.20384  0.78513  0.25770  Biso   1.000  H
  H2024    1.0000 0.70449  0.11688  0.14620  Biso   1.000  H
  H2025    1.0000 0.70449  0.11692  0.14620  Biso   1.000  H
  O1042    1.0000 0.75361  0.03611  0.19188  Biso   1.000  O
  H2026    1.0000 0.68231  0.07239  0.20280  Biso   1.000  H
  H2027    1.0000 0.68231  0.07244  0.20280  Biso   1.000  H
  Na19     1.0000 0.68391  0.16322  0.25920  Biso   1.000  Na
  H2028    1.0000 0.79620  0.21491  0.25770  Biso   1.000  H
  O1043    1.0000 0.10320  0.74031  0.21965  Biso   1.000  O
  H2029    1.0000 0.17602  0.72730  0.20260  Biso   1.000  H
  C1168    1.0000 0.11112  0.71451  0.17821  Biso   1.000  C
  C1169    1.0000 0.72949  0.98190  0.19691  Biso   1.000  C
  C1170    1.0000 0.04701  0.76228  0.21610  Biso   1.000  C
  C1171    1.0000 0.04701  0.76232  0.21610  Biso   1.000  C
  O1044    1.0000 0.14529  0.71699  0.15792  Biso   1.000  O
  H2030    1.0000 0.10779  0.67389  0.18251  Biso   1.000  H
  C1172    1.0000 0.05299  0.73471  0.17309  Biso   1.000  C
  O1045    1.0000 0.14533  0.71699  0.15792  Biso   1.000  O
  H2031    1.0000 0.10783  0.67389  0.18251  Biso   1.000  H
  C1173    1.0000 0.05303  0.73471  0.17309  Biso   1.000  C
  C1174    1.0000 0.73471  0.94701  0.17309  Biso   1.000  C
  H2032    1.0000 0.68909  0.98582  0.20160  Biso   1.000  H
  C1175    1.0000 0.76228  0.95299  0.21610  Biso   1.000  C
  C1176    1.0000 0.76228  0.95303  0.21610  Biso   1.000  C
  H2033    1.0000 0.68913  0.98582  0.20160  Biso   1.000  H
  C1177    1.0000 0.76232  0.95299  0.21610  Biso   1.000  C
  C1178    1.0000 0.76232  0.95303  0.21610  Biso   1.000  C
  C1179    1.0000 0.01810  0.72949  0.19691  Biso   1.000  C
  C1180    1.0000 0.01881  0.76009  0.24001  Biso   1.000  C
  H2034    1.0000 0.05000  0.80260  0.21110  Biso   1.000  H
  C1181    1.0000 0.01881  0.76013  0.24001  Biso   1.000  C
  H2035    1.0000 0.14942  0.75070  0.15379  Biso   1.000  H
  O1046    1.0000 0.02290  0.70108  0.15638  Biso   1.000  O
  H2036    1.0000 0.05400  0.77491  0.16781  Biso   1.000  H
  O1047    1.0000 0.02290  0.70112  0.15638  Biso   1.000  O
  O1048    1.0000 0.70108  0.97710  0.15638  Biso   1.000  O
  C1182    1.0000 0.71451  0.88888  0.17821  Biso   1.000  C
  H2037    1.0000 0.77491  0.94600  0.16781  Biso   1.000  H
  C1183    1.0000 0.71451  0.88893  0.17821  Biso   1.000  C
  O1049    1.0000 0.70112  0.97710  0.15638  Biso   1.000  O
  O1050    1.0000 0.74031  0.89680  0.21965  Biso   1.000  O
  C1184    1.0000 0.76009  0.98119  0.24001  Biso   1.000  C
  H2038    1.0000 0.80260  0.95000  0.21110  Biso   1.000  H
  C1185    1.0000 0.76009  0.98123  0.24001  Biso   1.000  C
  C1186    1.0000 0.76013  0.98119  0.24001  Biso   1.000  C
  C1187    1.0000 0.76013  0.98123  0.24001  Biso   1.000  C
  O1051    1.0000 0.96389  0.75361  0.19188  Biso   1.000  O
  O1052    1.0000 0.96393  0.75361  0.19188  Biso   1.000  O
  H2039    1.0000 0.01418  0.68909  0.20160  Biso   1.000  H
  H2040    1.0000 0.01418  0.68913  0.20160  Biso   1.000  H
  H2041    1.0000 0.01423  0.68909  0.20160  Biso   1.000  H
  H2042    1.0000 0.01423  0.68913  0.20160  Biso   1.000  H
  H2043    1.0000 0.98060  0.77672  0.23900  Biso   1.000  H
  O1053    1.0000 0.01511  0.70239  0.24760  Biso   1.000  O
  H2044    1.0000 0.04091  0.78219  0.25160  Biso   1.000  H
  O1054    1.0000 0.01511  0.70243  0.24760  Biso   1.000  O
  H2045    1.0000 0.04091  0.78223  0.25160  Biso   1.000  H
  H2046    1.0000 0.03889  0.70319  0.14320  Biso   1.000  H
  H2047    1.0000 0.03889  0.70323  0.14320  Biso   1.000  H
  H2048    1.0000 0.03893  0.70319  0.14320  Biso   1.000  H
  H2049    1.0000 0.03893  0.70323  0.14320  Biso   1.000  H
  H2050    1.0000 0.70319  0.96111  0.14320  Biso   1.000  H
  H2051    1.0000 0.70323  0.96111  0.14320  Biso   1.000  H
  O1055    1.0000 0.71699  0.85471  0.15792  Biso   1.000  O
  C1188    1.0000 0.74418  0.86169  0.19931  Biso   1.000  C
  H2052    1.0000 0.67389  0.89221  0.18251  Biso   1.000  H
  C1189    1.0000 0.74422  0.86169  0.19931  Biso   1.000  C
  O1056    1.0000 0.70239  0.98489  0.24760  Biso   1.000  O
  H2053    1.0000 0.78219  0.95909  0.25160  Biso   1.000  H
  O1057    1.0000 0.70239  0.98493  0.24760  Biso   1.000  O
  H2054    1.0000 0.78219  0.95913  0.25160  Biso   1.000  H
  O1058    1.0000 0.70243  0.98489  0.24760  Biso   1.000  O
  H2055    1.0000 0.78223  0.95909  0.25160  Biso   1.000  H
  O1059    1.0000 0.70243  0.98493  0.24760  Biso   1.000  O
  H2056    1.0000 0.78223  0.95913  0.25160  Biso   1.000  H
  H2057    1.0000 0.77672  0.01940  0.23900  Biso   1.000  H
  C1190    1.0000 0.91578  0.72171  0.19909  Biso   1.000  C
  C1191    1.0000 0.91582  0.72171  0.19909  Biso   1.000  C
  H2058    1.0000 0.99091  0.69961  0.25830  Biso   1.000  H
  H2059    1.0000 0.75070  0.85058  0.15379  Biso   1.000  H
  H2060    1.0000 0.75070  0.85063  0.15379  Biso   1.000  H
  O1060    1.0000 0.80130  0.85572  0.19284  Biso   1.000  O
  H2061    1.0000 0.72730  0.82398  0.20260  Biso   1.000  H
  H2062    1.0000 0.72730  0.82402  0.20260  Biso   1.000  H
  H2063    1.0000 0.69961  0.00909  0.25830  Biso   1.000  H
  H2064    1.0000 0.69961  0.00913  0.25830  Biso   1.000  H
  O1061    1.0000 0.88981  0.74687  0.21996  Biso   1.000  O
  H2065    1.0000 0.92761  0.68231  0.20280  Biso   1.000  H
  C1192    1.0000 0.87491  0.72120  0.17881  Biso   1.000  C
  O1062    1.0000 0.88981  0.74692  0.21996  Biso   1.000  O
  C1193    1.0000 0.82398  0.79978  0.19670  Biso   1.000  C
  C1194    1.0000 0.82398  0.79982  0.19670  Biso   1.000  C
  C1195    1.0000 0.82402  0.79978  0.19670  Biso   1.000  C
  C1196    1.0000 0.82402  0.79982  0.19670  Biso   1.000  C
  C1197    1.0000 0.87049  0.80348  0.21630  Biso   1.000  C
  C1198    1.0000 0.87049  0.80353  0.21630  Biso   1.000  C
  C1199    1.0000 0.87053  0.80348  0.21630  Biso   1.000  C
  C1200    1.0000 0.87053  0.80353  0.21630  Biso   1.000  C
  O1063    1.0000 0.90239  0.69750  0.15765  Biso   1.000  O
  H2066    1.0000 0.84271  0.69612  0.18311  Biso   1.000  H
  C1201    1.0000 0.85130  0.78059  0.17399  Biso   1.000  C
  C1202    1.0000 0.85130  0.78063  0.17399  Biso   1.000  C
  H2067    1.0000 0.79359  0.77310  0.20149  Biso   1.000  H
  H2068    1.0000 0.90218  0.82840  0.21110  Biso   1.000  H
  C1203    1.0000 0.84781  0.82200  0.23971  Biso   1.000  C
  H2069    1.0000 0.90223  0.82840  0.21110  Biso   1.000  H
  H2070    1.0000 0.88312  0.70449  0.14620  Biso   1.000  H
  O1064    1.0000 0.80988  0.77890  0.15623  Biso   1.000  O
  H2071    1.0000 0.88240  0.80689  0.16939  Biso   1.000  H
  O1065    1.0000 0.80992  0.77890  0.15623  Biso   1.000  O
  O1066    1.0000 0.80420  0.78240  0.24663  Biso   1.000  O
  H2072    1.0000 0.87819  0.82251  0.25160  Biso   1.000  H
  H2073    1.0000 0.83190  0.86039  0.23851  Biso   1.000  H
  H2074    1.0000 0.83190  0.86043  0.23851  Biso   1.000  H
  H2075    1.0000 0.87824  0.82251  0.25160  Biso   1.000  H
  H2076    1.0000 0.82520  0.77280  0.14309  Biso   1.000  H
  Na20     1.0000 0.83682  0.68391  0.25920  Biso   1.000  Na
  H2077    1.0000 0.78509  0.79620  0.25770  Biso   1.000  H
  H2078    1.0000 0.78513  0.79620  0.25770  Biso   1.000  H
  Na21     1.0000 0.16322  0.31609  0.25920  Biso   1.000  Na
  O1067    1.0000 0.19580  0.21760  0.24663  Biso   1.000  O
  H2079    1.0000 0.21491  0.20380  0.25770  Biso   1.000  H
  C1204    1.0000 0.15219  0.17800  0.23971  Biso   1.000  C
  H2080    1.0000 0.21491  0.20384  0.25770  Biso   1.000  H
  C1205    1.0000 0.15219  0.17804  0.23971  Biso   1.000  C
  C1206    1.0000 0.15224  0.17800  0.23971  Biso   1.000  C
  C1207    1.0000 0.15224  0.17804  0.23971  Biso   1.000  C
  C1208    1.0000 0.12951  0.19652  0.21630  Biso   1.000  C
  H2081    1.0000 0.16810  0.13961  0.23851  Biso   1.000  H
  H2082    1.0000 0.12181  0.17749  0.25160  Biso   1.000  H
  H2083    1.0000 0.12181  0.17753  0.25160  Biso   1.000  H
  C1209    1.0000 0.17602  0.20022  0.19670  Biso   1.000  C
  O1068    1.0000 0.11019  0.25313  0.21996  Biso   1.000  O
  H2084    1.0000 0.09782  0.17160  0.21110  Biso   1.000  H
  H2085    1.0000 0.09782  0.17164  0.21110  Biso   1.000  H
  O1069    1.0000 0.11023  0.25313  0.21996  Biso   1.000  O
  C1210    1.0000 0.14870  0.21941  0.17399  Biso   1.000  C
  H2086    1.0000 0.20641  0.22690  0.20149  Biso   1.000  H
  O1070    1.0000 0.19870  0.14428  0.19284  Biso   1.000  O
  O1071    1.0000 0.19870  0.14432  0.19284  Biso   1.000  O
  C1211    1.0000 0.08422  0.27829  0.19909  Biso   1.000  C
  C1212    1.0000 0.08422  0.27834  0.19909  Biso   1.000  C
  O1072    1.0000 0.19012  0.22110  0.15623  Biso   1.000  O
  C1213    1.0000 0.12509  0.27880  0.17881  Biso   1.000  C
  H2087    1.0000 0.11760  0.19311  0.16939  Biso   1.000  H
  O1073    1.0000 0.19012  0.22114  0.15623  Biso   1.000  O
  C1214    1.0000 0.12509  0.27884  0.17881  Biso   1.000  C
  C1215    1.0000 0.12513  0.27880  0.17881  Biso   1.000  C
  H2088    1.0000 0.11764  0.19311  0.16939  Biso   1.000  H
  C1216    1.0000 0.12513  0.27884  0.17881  Biso   1.000  C
  C1217    1.0000 0.25582  0.13831  0.19931  Biso   1.000  C
  O1074    1.0000 0.03611  0.24639  0.19188  Biso   1.000  O
  H2089    1.0000 0.07239  0.31769  0.20280  Biso   1.000  H
  O1075    1.0000 0.03611  0.24643  0.19188  Biso   1.000  O
  H2090    1.0000 0.07239  0.31773  0.20280  Biso   1.000  H
  H2091    1.0000 0.07244  0.31769  0.20280  Biso   1.000  H
  H2092    1.0000 0.07244  0.31773  0.20280  Biso   1.000  H
  H2093    1.0000 0.17480  0.22720  0.14309  Biso   1.000  H
  H2094    1.0000 0.17480  0.22724  0.14309  Biso   1.000  H
  H2095    1.0000 0.17484  0.22720  0.14309  Biso   1.000  H
  H2096    1.0000 0.17484  0.22724  0.14309  Biso   1.000  H
  O1076    1.0000 0.09761  0.30250  0.15765  Biso   1.000  O
  H2097    1.0000 0.15729  0.30388  0.18311  Biso   1.000  H
  O1077    1.0000 0.09761  0.30254  0.15765  Biso   1.000  O
  H2098    1.0000 0.15729  0.30393  0.18311  Biso   1.000  H
  H2099    1.0000 0.15733  0.30388  0.18311  Biso   1.000  H
  H2100    1.0000 0.15733  0.30393  0.18311  Biso   1.000  H
  O1078    1.0000 0.25969  0.10320  0.21965  Biso   1.000  O
  H2101    1.0000 0.27270  0.17602  0.20260  Biso   1.000  H
  C1218    1.0000 0.28549  0.11112  0.17821  Biso   1.000  C
  O1079    1.0000 0.25973  0.10320  0.21965  Biso   1.000  O
  H2102    1.0000 0.27274  0.17602  0.20260  Biso   1.000  H
  C1219    1.0000 0.28553  0.11112  0.17821  Biso   1.000  C
  C1220    1.0000 0.98190  0.27051  0.19691  Biso   1.000  C
  H2103    1.0000 0.11688  0.29551  0.14620  Biso   1.000  H
  H2104    1.0000 0.11692  0.29551  0.14620  Biso   1.000  H
  C1221    1.0000 0.23772  0.04701  0.21610  Biso   1.000  C
  O1080    1.0000 0.28301  0.14529  0.15792  Biso   1.000  O
  H2105    1.0000 0.32611  0.10779  0.18251  Biso   1.000  H
  C1222    1.0000 0.26529  0.05299  0.17309  Biso   1.000  C
  O1081    1.0000 0.28301  0.14533  0.15792  Biso   1.000  O
  H2106    1.0000 0.32611  0.10783  0.18251  Biso   1.000  H
  C1223    1.0000 0.26529  0.05303  0.17309  Biso   1.000  C
  C1224    1.0000 0.26533  0.05299  0.17309  Biso   1.000  C
  C1225    1.0000 0.26533  0.05303  0.17309  Biso   1.000  C
  C1226    1.0000 0.94701  0.26529  0.17309  Biso   1.000  C
  H2107    1.0000 0.98582  0.31091  0.20160  Biso   1.000  H
  C1227    1.0000 0.95299  0.23772  0.21610  Biso   1.000  C
  C1228    1.0000 0.94701  0.26533  0.17309  Biso   1.000  C
  C1229    1.0000 0.95303  0.23772  0.21610  Biso   1.000  C
  C1230    1.0000 0.27051  0.01810  0.19691  Biso   1.000  C
  C1231    1.0000 0.23991  0.01881  0.24001  Biso   1.000  C
  H2108    1.0000 0.19740  0.05000  0.21110  Biso   1.000  H
  H2109    1.0000 0.19744  0.05000  0.21110  Biso   1.000  H
  H2110    1.0000 0.24930  0.14942  0.15379  Biso   1.000  H
  H2111    1.0000 0.24934  0.14942  0.15379  Biso   1.000  H
  O1082    1.0000 0.29892  0.02290  0.15638  Biso   1.000  O
  H2112    1.0000 0.22509  0.05400  0.16781  Biso   1.000  H
  H2113    1.0000 0.22514  0.05400  0.16781  Biso   1.000  H
  O1083    1.0000 0.97710  0.29892  0.15638  Biso   1.000  O
  C1232    1.0000 0.88888  0.28549  0.17821  Biso   1.000  C
  H2114    1.0000 0.94600  0.22509  0.16781  Biso   1.000  H
  C1233    1.0000 0.88888  0.28553  0.17821  Biso   1.000  C
  H2115    1.0000 0.94600  0.22514  0.16781  Biso   1.000  H
  C1234    1.0000 0.88893  0.28549  0.17821  Biso   1.000  C
  C1235    1.0000 0.88893  0.28553  0.17821  Biso   1.000  C
  O1084    1.0000 0.89680  0.25969  0.21965  Biso   1.000  O
  C1236    1.0000 0.98119  0.23991  0.24001  Biso   1.000  C
  H2116    1.0000 0.95000  0.19740  0.21110  Biso   1.000  H
  O1085    1.0000 0.89680  0.25973  0.21965  Biso   1.000  O
  H2117    1.0000 0.95000  0.19744  0.21110  Biso   1.000  H
  C1237    1.0000 0.98123  0.23991  0.24001  Biso   1.000  C
  O1086    1.0000 0.24639  0.96389  0.19188  Biso   1.000  O
  O1087    1.0000 0.24639  0.96393  0.19188  Biso   1.000  O
  O1088    1.0000 0.24643  0.96389  0.19188  Biso   1.000  O
  O1089    1.0000 0.24643  0.96393  0.19188  Biso   1.000  O
  H2118    1.0000 0.31091  0.01418  0.20160  Biso   1.000  H
  H2119    1.0000 0.31091  0.01423  0.20160  Biso   1.000  H
  O1090    1.0000 0.29761  0.01511  0.24760  Biso   1.000  O
  H2120    1.0000 0.21781  0.04091  0.25160  Biso   1.000  H
  H2121    1.0000 0.22328  0.98060  0.23900  Biso   1.000  H
  H2122    1.0000 0.22333  0.98060  0.23900  Biso   1.000  H
  H2123    1.0000 0.29681  0.03889  0.14320  Biso   1.000  H
  H2124    1.0000 0.29681  0.03893  0.14320  Biso   1.000  H
  H2125    1.0000 0.96111  0.29681  0.14320  Biso   1.000  H
  O1091    1.0000 0.85471  0.28301  0.15792  Biso   1.000  O
  C1238    1.0000 0.86169  0.25582  0.19931  Biso   1.000  C
  H2126    1.0000 0.89221  0.32611  0.18251  Biso   1.000  H
  O1092    1.0000 0.98489  0.29761  0.24760  Biso   1.000  O
  H2127    1.0000 0.95909  0.21781  0.25160  Biso   1.000  H
  O1093    1.0000 0.98493  0.29761  0.24760  Biso   1.000  O
  H2128    1.0000 0.95913  0.21781  0.25160  Biso   1.000  H
  H2129    1.0000 0.01940  0.22328  0.23900  Biso   1.000  H
  H2130    1.0000 0.01940  0.22333  0.23900  Biso   1.000  H
  C1239    1.0000 0.27829  0.91578  0.19909  Biso   1.000  C
  C1240    1.0000 0.27829  0.91582  0.19909  Biso   1.000  C
  C1241    1.0000 0.27834  0.91578  0.19909  Biso   1.000  C
  C1242    1.0000 0.27834  0.91582  0.19909  Biso   1.000  C
  H2131    1.0000 0.30039  0.99091  0.25830  Biso   1.000  H
  H2132    1.0000 0.30043  0.99091  0.25830  Biso   1.000  H
  H2133    1.0000 0.85058  0.24930  0.15379  Biso   1.000  H
  H2134    1.0000 0.85058  0.24934  0.15379  Biso   1.000  H
  H2135    1.0000 0.85063  0.24930  0.15379  Biso   1.000  H
  H2136    1.0000 0.85063  0.24934  0.15379  Biso   1.000  H
  O1094    1.0000 0.85572  0.19870  0.19284  Biso   1.000  O
  H2137    1.0000 0.82398  0.27270  0.20260  Biso   1.000  H
  H2138    1.0000 0.82398  0.27274  0.20260  Biso   1.000  H
  H2139    1.0000 0.82402  0.27270  0.20260  Biso   1.000  H
  H2140    1.0000 0.82402  0.27274  0.20260  Biso   1.000  H
  H2141    1.0000 0.00909  0.30039  0.25830  Biso   1.000  H
  H2142    1.0000 0.00909  0.30043  0.25830  Biso   1.000  H
  H2143    1.0000 0.00913  0.30039  0.25830  Biso   1.000  H
  H2144    1.0000 0.00913  0.30043  0.25830  Biso   1.000  H
  O1095    1.0000 0.25313  0.88981  0.21996  Biso   1.000  O
  H2145    1.0000 0.31769  0.92761  0.20280  Biso   1.000  H
  C1243    1.0000 0.27880  0.87491  0.17881  Biso   1.000  C
  H2146    1.0000 0.31773  0.92761  0.20280  Biso   1.000  H
  C1244    1.0000 0.27884  0.87491  0.17881  Biso   1.000  C
  C1245    1.0000 0.79978  0.17602  0.19670  Biso   1.000  C
  C1246    1.0000 0.79982  0.17602  0.19670  Biso   1.000  C
  C1247    1.0000 0.19652  0.87049  0.21630  Biso   1.000  C
  C1248    1.0000 0.19652  0.87053  0.21630  Biso   1.000  C
  O1096    1.0000 0.30250  0.90239  0.15765  Biso   1.000  O
  H2147    1.0000 0.30388  0.84271  0.18311  Biso   1.000  H
  C1249    1.0000 0.21941  0.85130  0.17399  Biso   1.000  C
  O1097    1.0000 0.30254  0.90239  0.15765  Biso   1.000  O
  H2148    1.0000 0.30393  0.84271  0.18311  Biso   1.000  H
  C1250    1.0000 0.78059  0.14870  0.17399  Biso   1.000  C
  H2149    1.0000 0.77310  0.20641  0.20149  Biso   1.000  H
  C1251    1.0000 0.80348  0.12951  0.21630  Biso   1.000  C
  C1252    1.0000 0.78063  0.14870  0.17399  Biso   1.000  C
  C1253    1.0000 0.80353  0.12951  0.21630  Biso   1.000  C
  C1254    1.0000 0.20022  0.82398  0.19670  Biso   1.000  C
  H2150    1.0000 0.17160  0.90218  0.21110  Biso   1.000  H
  C1255    1.0000 0.17800  0.84781  0.23971  Biso   1.000  C
  C1256    1.0000 0.20022  0.82402  0.19670  Biso   1.000  C
  H2151    1.0000 0.17160  0.90223  0.21110  Biso   1.000  H
  H2152    1.0000 0.17164  0.90218  0.21110  Biso   1.000  H
  C1257    1.0000 0.17804  0.84781  0.23971  Biso   1.000  C
  H2153    1.0000 0.17164  0.90223  0.21110  Biso   1.000  H
  H2154    1.0000 0.29551  0.88312  0.14620  Biso   1.000  H
  O1098    1.0000 0.22110  0.80988  0.15623  Biso   1.000  O
  H2155    1.0000 0.19311  0.88240  0.16939  Biso   1.000  H
  O1099    1.0000 0.22110  0.80992  0.15623  Biso   1.000  O
  O1100    1.0000 0.22114  0.80988  0.15623  Biso   1.000  O
  O1101    1.0000 0.22114  0.80992  0.15623  Biso   1.000  O
  O1102    1.0000 0.77890  0.19012  0.15623  Biso   1.000  O
  C1258    1.0000 0.72120  0.12509  0.17881  Biso   1.000  C
  H2156    1.0000 0.80689  0.11760  0.16939  Biso   1.000  H
  C1259    1.0000 0.72120  0.12513  0.17881  Biso   1.000  C
  H2157    1.0000 0.80689  0.11764  0.16939  Biso   1.000  H
  O1103    1.0000 0.74687  0.11019  0.21996  Biso   1.000  O
  H2158    1.0000 0.82840  0.09782  0.21110  Biso   1.000  H
  C1260    1.0000 0.82200  0.15219  0.23971  Biso   1.000  C
  O1104    1.0000 0.74687  0.11023  0.21996  Biso   1.000  O
  C1261    1.0000 0.82200  0.15224  0.23971  Biso   1.000  C
  O1105    1.0000 0.74692  0.11019  0.21996  Biso   1.000  O
  O1106    1.0000 0.74692  0.11023  0.21996  Biso   1.000  O
  O1107    1.0000 0.14428  0.80130  0.19284  Biso   1.000  O
  H2159    1.0000 0.22690  0.79359  0.20149  Biso   1.000  H
  O1108    1.0000 0.14432  0.80130  0.19284  Biso   1.000  O
  O1109    1.0000 0.21760  0.80420  0.24663  Biso   1.000  O
  H2160    1.0000 0.17749  0.87819  0.25160  Biso   1.000  H
  H2161    1.0000 0.13961  0.83190  0.23851  Biso   1.000  H
  H2162    1.0000 0.17749  0.87824  0.25160  Biso   1.000  H
  H2163    1.0000 0.17753  0.87819  0.25160  Biso   1.000  H
  H2164    1.0000 0.17753  0.87824  0.25160  Biso   1.000  H
  H2165    1.0000 0.22720  0.82520  0.14309  Biso   1.000  H
  H2166    1.0000 0.22724  0.82520  0.14309  Biso   1.000  H
  H2167    1.0000 0.77280  0.17480  0.14309  Biso   1.000  H
  H2168    1.0000 0.77280  0.17484  0.14309  Biso   1.000  H
  O1110    1.0000 0.69750  0.09761  0.15765  Biso   1.000  O
  C1262    1.0000 0.72171  0.08422  0.19909  Biso   1.000  C
  H2169    1.0000 0.69612  0.15729  0.18311  Biso   1.000  H
  H2170    1.0000 0.69612  0.15733  0.18311  Biso   1.000  H
  O1111    1.0000 0.78240  0.19580  0.24663  Biso   1.000  O
  H2171    1.0000 0.82251  0.12181  0.25160  Biso   1.000  H
  H2172    1.0000 0.86039  0.16810  0.23851  Biso   1.000  H
  H2173    1.0000 0.86043  0.16810  0.23851  Biso   1.000  H
  C1263    1.0000 0.13831  0.74418  0.19931  Biso   1.000  C
  C1264    1.0000 0.13831  0.74422  0.19931  Biso   1.000  C
  Na22     1.0000 0.31609  0.83682  0.25920  Biso   1.000  Na
  H2174    1.0000 0.20380  0.78509  0.25770  Biso   1.000  H
  H2175    1.0000 0.20380  0.78513  0.25770  Biso   1.000  H
  H2176    1.0000 0.20384  0.78509  0.25770  Biso   1.000  H
  H2177    1.0000 0.20384  0.78513  0.25770  Biso   1.000  H
  H2178    1.0000 0.70449  0.11688  0.14620  Biso   1.000  H
  H2179    1.0000 0.70449  0.11692  0.14620  Biso   1.000  H
  O1112    1.0000 0.75361  0.03611  0.19188  Biso   1.000  O
  H2180    1.0000 0.68231  0.07239  0.20280  Biso   1.000  H
  H2181    1.0000 0.68231  0.07244  0.20280  Biso   1.000  H
  Na23     1.0000 0.68391  0.16322  0.25920  Biso   1.000  Na
  H2182    1.0000 0.79620  0.21491  0.25770  Biso   1.000  H
  O1113    1.0000 0.10320  0.74031  0.21965  Biso   1.000  O
  H2183    1.0000 0.17602  0.72730  0.20260  Biso   1.000  H
  C1265    1.0000 0.11112  0.71451  0.17821  Biso   1.000  C
  C1266    1.0000 0.72949  0.98190  0.19691  Biso   1.000  C
  C1267    1.0000 0.04701  0.76228  0.21610  Biso   1.000  C
  C1268    1.0000 0.04701  0.76232  0.21610  Biso   1.000  C
  O1114    1.0000 0.14529  0.71699  0.15792  Biso   1.000  O
  H2184    1.0000 0.10779  0.67389  0.18251  Biso   1.000  H
  C1269    1.0000 0.05299  0.73471  0.17309  Biso   1.000  C
  O1115    1.0000 0.14533  0.71699  0.15792  Biso   1.000  O
  H2185    1.0000 0.10783  0.67389  0.18251  Biso   1.000  H
  C1270    1.0000 0.05303  0.73471  0.17309  Biso   1.000  C
  C1271    1.0000 0.73471  0.94701  0.17309  Biso   1.000  C
  H2186    1.0000 0.68909  0.98582  0.20160  Biso   1.000  H
  C1272    1.0000 0.76228  0.95299  0.21610  Biso   1.000  C
  C1273    1.0000 0.76228  0.95303  0.21610  Biso   1.000  C
  H2187    1.0000 0.68913  0.98582  0.20160  Biso   1.000  H
  C1274    1.0000 0.76232  0.95299  0.21610  Biso   1.000  C
  C1275    1.0000 0.76232  0.95303  0.21610  Biso   1.000  C
  C1276    1.0000 0.01810  0.72949  0.19691  Biso   1.000  C
  C1277    1.0000 0.01881  0.76009  0.24001  Biso   1.000  C
  H2188    1.0000 0.05000  0.80260  0.21110  Biso   1.000  H
  C1278    1.0000 0.01881  0.76013  0.24001  Biso   1.000  C
  H2189    1.0000 0.14942  0.75070  0.15379  Biso   1.000  H
  O1116    1.0000 0.02290  0.70108  0.15638  Biso   1.000  O
  H2190    1.0000 0.05400  0.77491  0.16781  Biso   1.000  H
  O1117    1.0000 0.02290  0.70112  0.15638  Biso   1.000  O
  O1118    1.0000 0.70108  0.97710  0.15638  Biso   1.000  O
  C1279    1.0000 0.71451  0.88888  0.17821  Biso   1.000  C
  H2191    1.0000 0.77491  0.94600  0.16781  Biso   1.000  H
  C1280    1.0000 0.71451  0.88893  0.17821  Biso   1.000  C
  O1119    1.0000 0.70112  0.97710  0.15638  Biso   1.000  O
  O1120    1.0000 0.74031  0.89680  0.21965  Biso   1.000  O
  C1281    1.0000 0.76009  0.98119  0.24001  Biso   1.000  C
  H2192    1.0000 0.80260  0.95000  0.21110  Biso   1.000  H
  C1282    1.0000 0.76009  0.98123  0.24001  Biso   1.000  C
  C1283    1.0000 0.76013  0.98119  0.24001  Biso   1.000  C
  C1284    1.0000 0.76013  0.98123  0.24001  Biso   1.000  C
  O1121    1.0000 0.96389  0.75361  0.19188  Biso   1.000  O
  O1122    1.0000 0.96393  0.75361  0.19188  Biso   1.000  O
  H2193    1.0000 0.01418  0.68909  0.20160  Biso   1.000  H
  H2194    1.0000 0.01418  0.68913  0.20160  Biso   1.000  H
  H2195    1.0000 0.01423  0.68909  0.20160  Biso   1.000  H
  H2196    1.0000 0.01423  0.68913  0.20160  Biso   1.000  H
  H2197    1.0000 0.98060  0.77672  0.23900  Biso   1.000  H
  O1123    1.0000 0.01511  0.70239  0.24760  Biso   1.000  O
  H2198    1.0000 0.04091  0.78219  0.25160  Biso   1.000  H
  O1124    1.0000 0.01511  0.70243  0.24760  Biso   1.000  O
  H2199    1.0000 0.04091  0.78223  0.25160  Biso   1.000  H
  H2200    1.0000 0.03889  0.70319  0.14320  Biso   1.000  H
  H2201    1.0000 0.03889  0.70323  0.14320  Biso   1.000  H
  H2202    1.0000 0.03893  0.70319  0.14320  Biso   1.000  H
  H2203    1.0000 0.03893  0.70323  0.14320  Biso   1.000  H
  H2204    1.0000 0.70319  0.96111  0.14320  Biso   1.000  H
  H2205    1.0000 0.70323  0.96111  0.14320  Biso   1.000  H
  O1125    1.0000 0.71699  0.85471  0.15792  Biso   1.000  O
  C1285    1.0000 0.74418  0.86169  0.19931  Biso   1.000  C
  H2206    1.0000 0.67389  0.89221  0.18251  Biso   1.000  H
  C1286    1.0000 0.74422  0.86169  0.19931  Biso   1.000  C
  O1126    1.0000 0.70239  0.98489  0.24760  Biso   1.000  O
  H2207    1.0000 0.78219  0.95909  0.25160  Biso   1.000  H
  O1127    1.0000 0.70239  0.98493  0.24760  Biso   1.000  O
  H2208    1.0000 0.78219  0.95913  0.25160  Biso   1.000  H
  O1128    1.0000 0.70243  0.98489  0.24760  Biso   1.000  O
  H2209    1.0000 0.78223  0.95909  0.25160  Biso   1.000  H
  O1129    1.0000 0.70243  0.98493  0.24760  Biso   1.000  O
  H2210    1.0000 0.78223  0.95913  0.25160  Biso   1.000  H
  H2211    1.0000 0.77672  0.01940  0.23900  Biso   1.000  H
  C1287    1.0000 0.91578  0.72171  0.19909  Biso   1.000  C
  C1288    1.0000 0.91582  0.72171  0.19909  Biso   1.000  C
  H2212    1.0000 0.99091  0.69961  0.25830  Biso   1.000  H
  H2213    1.0000 0.75070  0.85058  0.15379  Biso   1.000  H
  H2214    1.0000 0.75070  0.85063  0.15379  Biso   1.000  H
  O1130    1.0000 0.80130  0.85572  0.19284  Biso   1.000  O
  H2215    1.0000 0.72730  0.82398  0.20260  Biso   1.000  H
  H2216    1.0000 0.72730  0.82402  0.20260  Biso   1.000  H
  H2217    1.0000 0.69961  0.00909  0.25830  Biso   1.000  H
  H2218    1.0000 0.69961  0.00913  0.25830  Biso   1.000  H
  O1131    1.0000 0.88981  0.74687  0.21996  Biso   1.000  O
  H2219    1.0000 0.92761  0.68231  0.20280  Biso   1.000  H
  C1289    1.0000 0.87491  0.72120  0.17881  Biso   1.000  C
  O1132    1.0000 0.88981  0.74692  0.21996  Biso   1.000  O
  C1290    1.0000 0.82398  0.79978  0.19670  Biso   1.000  C
  C1291    1.0000 0.82398  0.79982  0.19670  Biso   1.000  C
  C1292    1.0000 0.82402  0.79978  0.19670  Biso   1.000  C
  C1293    1.0000 0.82402  0.79982  0.19670  Biso   1.000  C
  C1294    1.0000 0.87049  0.80348  0.21630  Biso   1.000  C
  C1295    1.0000 0.87049  0.80353  0.21630  Biso   1.000  C
  C1296    1.0000 0.87053  0.80348  0.21630  Biso   1.000  C
  C1297    1.0000 0.87053  0.80353  0.21630  Biso   1.000  C
  O1133    1.0000 0.90239  0.69750  0.15765  Biso   1.000  O
  H2220    1.0000 0.84271  0.69612  0.18311  Biso   1.000  H
  C1298    1.0000 0.85130  0.78059  0.17399  Biso   1.000  C
  C1299    1.0000 0.85130  0.78063  0.17399  Biso   1.000  C
  H2221    1.0000 0.79359  0.77310  0.20149  Biso   1.000  H
  H2222    1.0000 0.90218  0.82840  0.21110  Biso   1.000  H
  C1300    1.0000 0.84781  0.82200  0.23971  Biso   1.000  C
  H2223    1.0000 0.90223  0.82840  0.21110  Biso   1.000  H
  H2224    1.0000 0.88312  0.70449  0.14620  Biso   1.000  H
  O1134    1.0000 0.80988  0.77890  0.15623  Biso   1.000  O
  H2225    1.0000 0.88240  0.80689  0.16939  Biso   1.000  H
  O1135    1.0000 0.80992  0.77890  0.15623  Biso   1.000  O
  O1136    1.0000 0.80420  0.78240  0.24663  Biso   1.000  O
  H2226    1.0000 0.87819  0.82251  0.25160  Biso   1.000  H
  H2227    1.0000 0.83190  0.86039  0.23851  Biso   1.000  H
  H2228    1.0000 0.83190  0.86043  0.23851  Biso   1.000  H
  H2229    1.0000 0.87824  0.82251  0.25160  Biso   1.000  H
  H2230    1.0000 0.82520  0.77280  0.14309  Biso   1.000  H
  Na24     1.0000 0.83682  0.68391  0.25920  Biso   1.000  Na
  H2231    1.0000 0.78509  0.79620  0.25770  Biso   1.000  H
  H2232    1.0000 0.78513  0.79620  0.25770  Biso   1.000  H
  Na25     1.0000 0.31609  0.16322  0.74080  Biso   1.000  Na
  O1137    1.0000 0.21760  0.19580  0.75337  Biso   1.000  O
  H2233    1.0000 0.20380  0.21491  0.74230  Biso   1.000  H
  C1301    1.0000 0.17800  0.15219  0.76029  Biso   1.000  C
  C1302    1.0000 0.17800  0.15224  0.76029  Biso   1.000  C
  H2234    1.0000 0.20384  0.21491  0.74230  Biso   1.000  H
  C1303    1.0000 0.17804  0.15219  0.76029  Biso   1.000  C
  C1304    1.0000 0.17804  0.15224  0.76029  Biso   1.000  C
  C1305    1.0000 0.19652  0.12951  0.78370  Biso   1.000  C
  H2235    1.0000 0.17749  0.12181  0.74840  Biso   1.000  H
  H2236    1.0000 0.13961  0.16810  0.76149  Biso   1.000  H
  H2237    1.0000 0.17753  0.12181  0.74840  Biso   1.000  H
  O1138    1.0000 0.25313  0.11019  0.78004  Biso   1.000  O
  C1306    1.0000 0.20022  0.17602  0.80330  Biso   1.000  C
  H2238    1.0000 0.17160  0.09782  0.78890  Biso   1.000  H
  O1139    1.0000 0.25313  0.11023  0.78004  Biso   1.000  O
  H2239    1.0000 0.17164  0.09782  0.78890  Biso   1.000  H
  C1307    1.0000 0.27829  0.08422  0.80091  Biso   1.000  C
  C1308    1.0000 0.27834  0.08422  0.80091  Biso   1.000  C
  O1140    1.0000 0.14428  0.19870  0.80716  Biso   1.000  O
  C1309    1.0000 0.21941  0.14870  0.82601  Biso   1.000  C
  H2240    1.0000 0.22690  0.20641  0.79851  Biso   1.000  H
  O1141    1.0000 0.14432  0.19870  0.80716  Biso   1.000  O
  O1142    1.0000 0.24639  0.03611  0.80812  Biso   1.000  O
  H2241    1.0000 0.31769  0.07239  0.79720  Biso   1.000  H
  C1310    1.0000 0.27880  0.12509  0.82119  Biso   1.000  C
  H2242    1.0000 0.31769  0.07244  0.79720  Biso   1.000  H
  C1311    1.0000 0.27880  0.12513  0.82119  Biso   1.000  C
  O1143    1.0000 0.24643  0.03611  0.80812  Biso   1.000  O
  H2243    1.0000 0.31773  0.07239  0.79720  Biso   1.000  H
  C1312    1.0000 0.27884  0.12509  0.82119  Biso   1.000  C
  H2244    1.0000 0.31773  0.07244  0.79720  Biso   1.000  H
  C1313    1.0000 0.27884  0.12513  0.82119  Biso   1.000  C
  C1314    1.0000 0.13831  0.25582  0.80069  Biso   1.000  C
  O1144    1.0000 0.22110  0.19012  0.84377  Biso   1.000  O
  H2245    1.0000 0.19311  0.11760  0.83061  Biso   1.000  H
  H2246    1.0000 0.19311  0.11764  0.83061  Biso   1.000  H
  O1145    1.0000 0.22114  0.19012  0.84377  Biso   1.000  O
  C1315    1.0000 0.27051  0.98190  0.80309  Biso   1.000  C
  O1146    1.0000 0.30250  0.09761  0.84235  Biso   1.000  O
  H2247    1.0000 0.30388  0.15729  0.81689  Biso   1.000  H
  H2248    1.0000 0.30388  0.15733  0.81689  Biso   1.000  H
  O1147    1.0000 0.30254  0.09761  0.84235  Biso   1.000  O
  H2249    1.0000 0.30393  0.15729  0.81689  Biso   1.000  H
  H2250    1.0000 0.30393  0.15733  0.81689  Biso   1.000  H
  O1148    1.0000 0.10320  0.25969  0.78035  Biso   1.000  O
  H2251    1.0000 0.17602  0.27270  0.79740  Biso   1.000  H
  C1316    1.0000 0.11112  0.28549  0.82179  Biso   1.000  C
  O1149    1.0000 0.10320  0.25973  0.78035  Biso   1.000  O
  H2252    1.0000 0.17602  0.27274  0.79740  Biso   1.000  H
  C1317    1.0000 0.11112  0.28553  0.82179  Biso   1.000  C
  H2253    1.0000 0.22720  0.17480  0.85691  Biso   1.000  H
  H2254    1.0000 0.22720  0.17484  0.85691  Biso   1.000  H
  H2255    1.0000 0.22724  0.17480  0.85691  Biso   1.000  H
  H2256    1.0000 0.22724  0.17484  0.85691  Biso   1.000  H
  C1318    1.0000 0.26529  0.94701  0.82691  Biso   1.000  C
  H2257    1.0000 0.31091  0.98582  0.79840  Biso   1.000  H
  C1319    1.0000 0.23772  0.95299  0.78390  Biso   1.000  C
  C1320    1.0000 0.23772  0.95303  0.78390  Biso   1.000  C
  C1321    1.0000 0.26533  0.94701  0.82691  Biso   1.000  C
  H2258    1.0000 0.29551  0.11688  0.85380  Biso   1.000  H
  H2259    1.0000 0.29551  0.11692  0.85380  Biso   1.000  H
  C1322    1.0000 0.04701  0.23772  0.78390  Biso   1.000  C
  O1150    1.0000 0.14529  0.28301  0.84208  Biso   1.000  O
  H2260    1.0000 0.10779  0.32611  0.81749  Biso   1.000  H
  C1323    1.0000 0.05299  0.26529  0.82691  Biso   1.000  C
  C1324    1.0000 0.05299  0.26533  0.82691  Biso   1.000  C
  O1151    1.0000 0.14533  0.28301  0.84208  Biso   1.000  O
  H2261    1.0000 0.10783  0.32611  0.81749  Biso   1.000  H
  C1325    1.0000 0.05303  0.26529  0.82691  Biso   1.000  C
  C1326    1.0000 0.05303  0.26533  0.82691  Biso   1.000  C
  O1152    1.0000 0.29892  0.97710  0.84362  Biso   1.000  O
  C1327    1.0000 0.28549  0.88888  0.82179  Biso   1.000  C
  H2262    1.0000 0.22509  0.94600  0.83219  Biso   1.000  H
  C1328    1.0000 0.28549  0.88893  0.82179  Biso   1.000  C
  C1329    1.0000 0.28553  0.88888  0.82179  Biso   1.000  C
  H2263    1.0000 0.22514  0.94600  0.83219  Biso   1.000  H
  C1330    1.0000 0.28553  0.88893  0.82179  Biso   1.000  C
  O1153    1.0000 0.25969  0.89680  0.78035  Biso   1.000  O
  C1331    1.0000 0.23991  0.98119  0.75999  Biso   1.000  C
  H2264    1.0000 0.19740  0.95000  0.78890  Biso   1.000  H
  C1332    1.0000 0.23991  0.98123  0.75999  Biso   1.000  C
  O1154    1.0000 0.25973  0.89680  0.78035  Biso   1.000  O
  H2265    1.0000 0.19744  0.95000  0.78890  Biso   1.000  H
  C1333    1.0000 0.01810  0.27051  0.80309  Biso   1.000  C
  C1334    1.0000 0.01881  0.23991  0.75999  Biso   1.000  C
  H2266    1.0000 0.05000  0.19740  0.78890  Biso   1.000  H
  H2267    1.0000 0.05000  0.19744  0.78890  Biso   1.000  H
  H2268    1.0000 0.14942  0.24930  0.84621  Biso   1.000  H
  H2269    1.0000 0.14942  0.24934  0.84621  Biso   1.000  H
  O1155    1.0000 0.02290  0.29892  0.84362  Biso   1.000  O
  H2270    1.0000 0.05400  0.22509  0.83219  Biso   1.000  H
  H2271    1.0000 0.05400  0.22514  0.83219  Biso   1.000  H
  H2272    1.0000 0.29681  0.96111  0.85680  Biso   1.000  H
  O1156    1.0000 0.28301  0.85471  0.84208  Biso   1.000  O
  C1335    1.0000 0.25582  0.86169  0.80069  Biso   1.000  C
  H2273    1.0000 0.32611  0.89221  0.81749  Biso   1.000  H
  H2274    1.0000 0.22328  0.01940  0.76100  Biso   1.000  H
  H2275    1.0000 0.22333  0.01940  0.76100  Biso   1.000  H
  O1157    1.0000 0.29761  0.98489  0.75240  Biso   1.000  O
  H2276    1.0000 0.21781  0.95909  0.74840  Biso   1.000  H
  O1158    1.0000 0.29761  0.98493  0.75240  Biso   1.000  O
  H2277    1.0000 0.21781  0.95913  0.74840  Biso   1.000  H
  H2278    1.0000 0.01418  0.31091  0.79840  Biso   1.000  H
  H2279    1.0000 0.01423  0.31091  0.79840  Biso   1.000  H
  O1159    1.0000 0.96389  0.24639  0.80812  Biso   1.000  O
  O1160    1.0000 0.96389  0.24643  0.80812  Biso   1.000  O
  O1161    1.0000 0.96393  0.24639  0.80812  Biso   1.000  O
  O1162    1.0000 0.96393  0.24643  0.80812  Biso   1.000  O
  O1163    1.0000 0.01511  0.29761  0.75240  Biso   1.000  O
  H2280    1.0000 0.04091  0.21781  0.74840  Biso   1.000  H
  H2281    1.0000 0.98060  0.22328  0.76100  Biso   1.000  H
  H2282    1.0000 0.98060  0.22333  0.76100  Biso   1.000  H
  H2283    1.0000 0.03889  0.29681  0.85680  Biso   1.000  H
  H2284    1.0000 0.03893  0.29681  0.85680  Biso   1.000  H
  H2285    1.0000 0.24930  0.85058  0.84621  Biso   1.000  H
  H2286    1.0000 0.24930  0.85063  0.84621  Biso   1.000  H
  H2287    1.0000 0.24934  0.85058  0.84621  Biso   1.000  H
  H2288    1.0000 0.24934  0.85063  0.84621  Biso   1.000  H
  O1164    1.0000 0.19870  0.85572  0.80716  Biso   1.000  O
  H2289    1.0000 0.27270  0.82398  0.79740  Biso   1.000  H
  H2290    1.0000 0.27270  0.82402  0.79740  Biso   1.000  H
  H2291    1.0000 0.27274  0.82398  0.79740  Biso   1.000  H
  H2292    1.0000 0.27274  0.82402  0.79740  Biso   1.000  H
  H2293    1.0000 0.30039  0.00909  0.74170  Biso   1.000  H
  H2294    1.0000 0.30039  0.00913  0.74170  Biso   1.000  H
  H2295    1.0000 0.30043  0.00909  0.74170  Biso   1.000  H
  H2296    1.0000 0.30043  0.00913  0.74170  Biso   1.000  H
  C1336    1.0000 0.91578  0.27829  0.80091  Biso   1.000  C
  C1337    1.0000 0.91578  0.27834  0.80091  Biso   1.000  C
  C1338    1.0000 0.91582  0.27829  0.80091  Biso   1.000  C
  C1339    1.0000 0.91582  0.27834  0.80091  Biso   1.000  C
  H2297    1.0000 0.99091  0.30039  0.74170  Biso   1.000  H
  H2298    1.0000 0.99091  0.30043  0.74170  Biso   1.000  H
  C1340    1.0000 0.17602  0.79978  0.80330  Biso   1.000  C
  C1341    1.0000 0.17602  0.79982  0.80330  Biso   1.000  C
  O1165    1.0000 0.88981  0.25313  0.78004  Biso   1.000  O
  H2299    1.0000 0.92761  0.31769  0.79720  Biso   1.000  H
  C1342    1.0000 0.87491  0.27880  0.82119  Biso   1.000  C
  H2300    1.0000 0.92761  0.31773  0.79720  Biso   1.000  H
  C1343    1.0000 0.87491  0.27884  0.82119  Biso   1.000  C
  C1344    1.0000 0.14870  0.78059  0.82601  Biso   1.000  C
  H2301    1.0000 0.20641  0.77310  0.79851  Biso   1.000  H
  C1345    1.0000 0.12951  0.80348  0.78370  Biso   1.000  C
  C1346    1.0000 0.14870  0.78063  0.82601  Biso   1.000  C
  C1347    1.0000 0.12951  0.80353  0.78370  Biso   1.000  C
  C1348    1.0000 0.87049  0.19652  0.78370  Biso   1.000  C
  C1349    1.0000 0.87053  0.19652  0.78370  Biso   1.000  C
  O1166    1.0000 0.90239  0.30250  0.84235  Biso   1.000  O
  H2302    1.0000 0.84271  0.30388  0.81689  Biso   1.000  H
  C1350    1.0000 0.85130  0.21941  0.82601  Biso   1.000  C
  O1167    1.0000 0.90239  0.30254  0.84235  Biso   1.000  O
  H2303    1.0000 0.84271  0.30393  0.81689  Biso   1.000  H
  O1168    1.0000 0.19012  0.77890  0.84377  Biso   1.000  O
  C1351    1.0000 0.12509  0.72120  0.82119  Biso   1.000  C
  H2304    1.0000 0.11760  0.80689  0.83061  Biso   1.000  H
  C1352    1.0000 0.12513  0.72120  0.82119  Biso   1.000  C
  H2305    1.0000 0.11764  0.80689  0.83061  Biso   1.000  H
  O1169    1.0000 0.11019  0.74687  0.78004  Biso   1.000  O
  H2306    1.0000 0.09782  0.82840  0.78890  Biso   1.000  H
  C1353    1.0000 0.15219  0.82200  0.76029  Biso   1.000  C
  O1170    1.0000 0.11019  0.74692  0.78004  Biso   1.000  O
  O1171    1.0000 0.11023  0.74687  0.78004  Biso   1.000  O
  C1354    1.0000 0.15224  0.82200  0.76029  Biso   1.000  C
  O1172    1.0000 0.11023  0.74692  0.78004  Biso   1.000  O
  C1355    1.0000 0.82398  0.20022  0.80330  Biso   1.000  C
  H2307    1.0000 0.90218  0.17160  0.78890  Biso   1.000  H
  C1356    1.0000 0.84781  0.17800  0.76029  Biso   1.000  C
  H2308    1.0000 0.90218  0.17164  0.78890  Biso   1.000  H
  C1357    1.0000 0.84781  0.17804  0.76029  Biso   1.000  C
  C1358    1.0000 0.82402  0.20022  0.80330  Biso   1.000  C
  H2309    1.0000 0.90223  0.17160  0.78890  Biso   1.000  H
  H2310    1.0000 0.90223  0.17164  0.78890  Biso   1.000  H
  H2311    1.0000 0.88312  0.29551  0.85380  Biso   1.000  H
  O1173    1.0000 0.80988  0.22110  0.84377  Biso   1.000  O
  H2312    1.0000 0.88240  0.19311  0.83061  Biso   1.000  H
  O1174    1.0000 0.80988  0.22114  0.84377  Biso   1.000  O
  O1175    1.0000 0.80992  0.22110  0.84377  Biso   1.000  O
  O1176    1.0000 0.80992  0.22114  0.84377  Biso   1.000  O
  H2313    1.0000 0.17480  0.77280  0.85691  Biso   1.000  H
  H2314    1.0000 0.17484  0.77280  0.85691  Biso   1.000  H
  O1177    1.0000 0.09761  0.69750  0.84235  Biso   1.000  O
  C1359    1.0000 0.08422  0.72171  0.80091  Biso   1.000  C
  H2315    1.0000 0.15729  0.69612  0.81689  Biso   1.000  H
  H2316    1.0000 0.15733  0.69612  0.81689  Biso   1.000  H
  O1178    1.0000 0.19580  0.78240  0.75337  Biso   1.000  O
  H2317    1.0000 0.12181  0.82251  0.74840  Biso   1.000  H
  H2318    1.0000 0.16810  0.86039  0.76149  Biso   1.000  H
  H2319    1.0000 0.16810  0.86043  0.76149  Biso   1.000  H
  O1179    1.0000 0.80130  0.14428  0.80716  Biso   1.000  O
  H2320    1.0000 0.79359  0.22690  0.79851  Biso   1.000  H
  O1180    1.0000 0.80130  0.14432  0.80716  Biso   1.000  O
  O1181    1.0000 0.80420  0.21760  0.75337  Biso   1.000  O
  H2321    1.0000 0.87819  0.17749  0.74840  Biso   1.000  H
  H2322    1.0000 0.83190  0.13961  0.76149  Biso   1.000  H
  H2323    1.0000 0.87819  0.17753  0.74840  Biso   1.000  H
  H2324    1.0000 0.87824  0.17749  0.74840  Biso   1.000  H
  H2325    1.0000 0.87824  0.17753  0.74840  Biso   1.000  H
  H2326    1.0000 0.82520  0.22720  0.85691  Biso   1.000  H
  H2327    1.0000 0.82520  0.22724  0.85691  Biso   1.000  H
  H2328    1.0000 0.11688  0.70449  0.85380  Biso   1.000  H
  H2329    1.0000 0.11692  0.70449  0.85380  Biso   1.000  H
  O1182    1.0000 0.03611  0.75361  0.80812  Biso   1.000  O
  H2330    1.0000 0.07239  0.68231  0.79720  Biso   1.000  H
  H2331    1.0000 0.07244  0.68231  0.79720  Biso   1.000  H
  Na26     1.0000 0.16322  0.68391  0.74080  Biso   1.000  Na
  H2332    1.0000 0.21491  0.79620  0.74230  Biso   1.000  H
  C1360    1.0000 0.74418  0.13831  0.80069  Biso   1.000  C
  C1361    1.0000 0.74422  0.13831  0.80069  Biso   1.000  C
  Na27     1.0000 0.83682  0.31609  0.74080  Biso   1.000  Na
  H2333    1.0000 0.78509  0.20380  0.74230  Biso   1.000  H
  H2334    1.0000 0.78509  0.20384  0.74230  Biso   1.000  H
  H2335    1.0000 0.78513  0.20380  0.74230  Biso   1.000  H
  H2336    1.0000 0.78513  0.20384  0.74230  Biso   1.000  H
  C1362    1.0000 0.98190  0.72949  0.80309  Biso   1.000  C
  O1183    1.0000 0.74031  0.10320  0.78035  Biso   1.000  O
  H2337    1.0000 0.72730  0.17602  0.79740  Biso   1.000  H
  C1363    1.0000 0.71451  0.11112  0.82179  Biso   1.000  C
  C1364    1.0000 0.94701  0.73471  0.82691  Biso   1.000  C
  H2338    1.0000 0.98582  0.68909  0.79840  Biso   1.000  H
  C1365    1.0000 0.95299  0.76228  0.78390  Biso   1.000  C
  H2339    1.0000 0.98582  0.68913  0.79840  Biso   1.000  H
  C1366    1.0000 0.95299  0.76232  0.78390  Biso   1.000  C
  C1367    1.0000 0.95303  0.76228  0.78390  Biso   1.000  C
  C1368    1.0000 0.95303  0.76232  0.78390  Biso   1.000  C
  C1369    1.0000 0.76228  0.04701  0.78390  Biso   1.000  C
  C1370    1.0000 0.76232  0.04701  0.78390  Biso   1.000  C
  O1184    1.0000 0.71699  0.14529  0.84208  Biso   1.000  O
  H2340    1.0000 0.67389  0.10779  0.81749  Biso   1.000  H
  C1371    1.0000 0.73471  0.05299  0.82691  Biso   1.000  C
  O1185    1.0000 0.71699  0.14533  0.84208  Biso   1.000  O
  H2341    1.0000 0.67389  0.10783  0.81749  Biso   1.000  H
  C1372    1.0000 0.73471  0.05303  0.82691  Biso   1.000  C
  O1186    1.0000 0.97710  0.70108  0.84362  Biso   1.000  O
  C1373    1.0000 0.88888  0.71451  0.82179  Biso   1.000  C
  H2342    1.0000 0.94600  0.77491  0.83219  Biso   1.000  H
  O1187    1.0000 0.97710  0.70112  0.84362  Biso   1.000  O
  C1374    1.0000 0.88893  0.71451  0.82179  Biso   1.000  C
  O1188    1.0000 0.89680  0.74031  0.78035  Biso   1.000  O
  C1375    1.0000 0.98119  0.76009  0.75999  Biso   1.000  C
  H2343    1.0000 0.95000  0.80260  0.78890  Biso   1.000  H
  C1376    1.0000 0.98119  0.76013  0.75999  Biso   1.000  C
  C1377    1.0000 0.98123  0.76009  0.75999  Biso   1.000  C
  C1378    1.0000 0.98123  0.76013  0.75999  Biso   1.000  C
  C1379    1.0000 0.72949  0.01810  0.80309  Biso   1.000  C
  C1380    1.0000 0.76009  0.01881  0.75999  Biso   1.000  C
  H2344    1.0000 0.80260  0.05000  0.78890  Biso   1.000  H
  C1381    1.0000 0.76013  0.01881  0.75999  Biso   1.000  C
  H2345    1.0000 0.75070  0.14942  0.84621  Biso   1.000  H
  O1189    1.0000 0.70108  0.02290  0.84362  Biso   1.000  O
  H2346    1.0000 0.77491  0.05400  0.83219  Biso   1.000  H
  O1190    1.0000 0.70112  0.02290  0.84362  Biso   1.000  O
  H2347    1.0000 0.96111  0.70319  0.85680  Biso   1.000  H
  H2348    1.0000 0.96111  0.70323  0.85680  Biso   1.000  H
  O1191    1.0000 0.85471  0.71699  0.84208  Biso   1.000  O
  C1382    1.0000 0.86169  0.74418  0.80069  Biso   1.000  C
  H2349    1.0000 0.89221  0.67389  0.81749  Biso   1.000  H
  C1383    1.0000 0.86169  0.74422  0.80069  Biso   1.000  C
  O1192    1.0000 0.98489  0.70239  0.75240  Biso   1.000  O
  H2350    1.0000 0.95909  0.78219  0.74840  Biso   1.000  H
  O1193    1.0000 0.98489  0.70243  0.75240  Biso   1.000  O
  H2351    1.0000 0.95909  0.78223  0.74840  Biso   1.000  H
  O1194    1.0000 0.98493  0.70239  0.75240  Biso   1.000  O
  H2352    1.0000 0.95913  0.78219  0.74840  Biso   1.000  H
  O1195    1.0000 0.98493  0.70243  0.75240  Biso   1.000  O
  H2353    1.0000 0.95913  0.78223  0.74840  Biso   1.000  H
  H2354    1.0000 0.01940  0.77672  0.76100  Biso   1.000  H
  O1196    1.0000 0.75361  0.96389  0.80812  Biso   1.000  O
  O1197    1.0000 0.75361  0.96393  0.80812  Biso   1.000  O
  H2355    1.0000 0.68909  0.01418  0.79840  Biso   1.000  H
  H2356    1.0000 0.68909  0.01423  0.79840  Biso   1.000  H
  H2357    1.0000 0.68913  0.01418  0.79840  Biso   1.000  H
  H2358    1.0000 0.68913  0.01423  0.79840  Biso   1.000  H
  H2359    1.0000 0.77672  0.98060  0.76100  Biso   1.000  H
  O1198    1.0000 0.70239  0.01511  0.75240  Biso   1.000  O
  H2360    1.0000 0.78219  0.04091  0.74840  Biso   1.000  H
  O1199    1.0000 0.70243  0.01511  0.75240  Biso   1.000  O
  H2361    1.0000 0.78223  0.04091  0.74840  Biso   1.000  H
  H2362    1.0000 0.70319  0.03889  0.85680  Biso   1.000  H
  H2363    1.0000 0.70319  0.03893  0.85680  Biso   1.000  H
  H2364    1.0000 0.70323  0.03889  0.85680  Biso   1.000  H
  H2365    1.0000 0.70323  0.03893  0.85680  Biso   1.000  H
  H2366    1.0000 0.85058  0.75070  0.84621  Biso   1.000  H
  H2367    1.0000 0.85063  0.75070  0.84621  Biso   1.000  H
  O1200    1.0000 0.85572  0.80130  0.80716  Biso   1.000  O
  H2368    1.0000 0.82398  0.72730  0.79740  Biso   1.000  H
  H2369    1.0000 0.82402  0.72730  0.79740  Biso   1.000  H
  H2370    1.0000 0.00909  0.69961  0.74170  Biso   1.000  H
  H2371    1.0000 0.00913  0.69961  0.74170  Biso   1.000  H
  C1384    1.0000 0.72171  0.91578  0.80091  Biso   1.000  C
  C1385    1.0000 0.72171  0.91582  0.80091  Biso   1.000  C
  H2372    1.0000 0.69961  0.99091  0.74170  Biso   1.000  H
  C1386    1.0000 0.79978  0.82398  0.80330  Biso   1.000  C
  C1387    1.0000 0.79978  0.82402  0.80330  Biso   1.000  C
  C1388    1.0000 0.79982  0.82398  0.80330  Biso   1.000  C
  C1389    1.0000 0.79982  0.82402  0.80330  Biso   1.000  C
  O1201    1.0000 0.74687  0.88981  0.78004  Biso   1.000  O
  H2373    1.0000 0.68231  0.92761  0.79720  Biso   1.000  H
  C1390    1.0000 0.72120  0.87491  0.82119  Biso   1.000  C
  O1202    1.0000 0.74692  0.88981  0.78004  Biso   1.000  O
  C1391    1.0000 0.78059  0.85130  0.82601  Biso   1.000  C
  H2374    1.0000 0.77310  0.79359  0.79851  Biso   1.000  H
  C1392    1.0000 0.80348  0.87049  0.78370  Biso   1.000  C
  C1393    1.0000 0.80348  0.87053  0.78370  Biso   1.000  C
  C1394    1.0000 0.78063  0.85130  0.82601  Biso   1.000  C
  C1395    1.0000 0.80353  0.87049  0.78370  Biso   1.000  C
  C1396    1.0000 0.80353  0.87053  0.78370  Biso   1.000  C
  O1203    1.0000 0.69750  0.90239  0.84235  Biso   1.000  O
  H2375    1.0000 0.69612  0.84271  0.81689  Biso   1.000  H
  O1204    1.0000 0.77890  0.80988  0.84377  Biso   1.000  O
  H2376    1.0000 0.80689  0.88240  0.83061  Biso   1.000  H
  O1205    1.0000 0.77890  0.80992  0.84377  Biso   1.000  O
  H2377    1.0000 0.82840  0.90218  0.78890  Biso   1.000  H
  C1397    1.0000 0.82200  0.84781  0.76029  Biso   1.000  C
  H2378    1.0000 0.82840  0.90223  0.78890  Biso   1.000  H
  H2379    1.0000 0.70449  0.88312  0.85380  Biso   1.000  H
  H2380    1.0000 0.77280  0.82520  0.85691  Biso   1.000  H
  O1206    1.0000 0.78240  0.80420  0.75337  Biso   1.000  O
  H2381    1.0000 0.82251  0.87819  0.74840  Biso   1.000  H
  H2382    1.0000 0.86039  0.83190  0.76149  Biso   1.000  H
  H2383    1.0000 0.82251  0.87824  0.74840  Biso   1.000  H
  H2384    1.0000 0.86043  0.83190  0.76149  Biso   1.000  H
  Na28     1.0000 0.68391  0.83682  0.74080  Biso   1.000  Na
  H2385    1.0000 0.79620  0.78509  0.74230  Biso   1.000  H
  H2386    1.0000 0.79620  0.78513  0.74230  Biso   1.000  H
  Na29     1.0000 0.31609  0.16322  0.74080  Biso   1.000  Na
  O1207    1.0000 0.21760  0.19580  0.75337  Biso   1.000  O
  H2387    1.0000 0.20380  0.21491  0.74230  Biso   1.000  H
  H2388    1.0000 0.20384  0.21491  0.74230  Biso   1.000  H
  C1398    1.0000 0.17800  0.15219  0.76029  Biso   1.000  C
  C1399    1.0000 0.17800  0.15224  0.76029  Biso   1.000  C
  C1400    1.0000 0.17804  0.15219  0.76029  Biso   1.000  C
  C1401    1.0000 0.17804  0.15224  0.76029  Biso   1.000  C
  C1402    1.0000 0.19652  0.12951  0.78370  Biso   1.000  C
  H2389    1.0000 0.17749  0.12181  0.74840  Biso   1.000  H
  H2390    1.0000 0.13961  0.16810  0.76149  Biso   1.000  H
  H2391    1.0000 0.17753  0.12181  0.74840  Biso   1.000  H
  C1403    1.0000 0.20022  0.17602  0.80330  Biso   1.000  C
  H2392    1.0000 0.17160  0.09782  0.78890  Biso   1.000  H
  O1208    1.0000 0.25313  0.11019  0.78004  Biso   1.000  O
  O1209    1.0000 0.25313  0.11023  0.78004  Biso   1.000  O
  H2393    1.0000 0.17164  0.09782  0.78890  Biso   1.000  H
  O1210    1.0000 0.14428  0.19870  0.80716  Biso   1.000  O
  C1404    1.0000 0.21941  0.14870  0.82601  Biso   1.000  C
  H2394    1.0000 0.22690  0.20641  0.79851  Biso   1.000  H
  O1211    1.0000 0.14432  0.19870  0.80716  Biso   1.000  O
  C1405    1.0000 0.27829  0.08422  0.80091  Biso   1.000  C
  C1406    1.0000 0.27834  0.08422  0.80091  Biso   1.000  C
  C1407    1.0000 0.13831  0.25582  0.80069  Biso   1.000  C
  O1212    1.0000 0.22110  0.19012  0.84377  Biso   1.000  O
  H2395    1.0000 0.19311  0.11760  0.83061  Biso   1.000  H
  O1213    1.0000 0.22114  0.19012  0.84377  Biso   1.000  O
  H2396    1.0000 0.19311  0.11764  0.83061  Biso   1.000  H
  C1408    1.0000 0.27880  0.12509  0.82119  Biso   1.000  C
  C1409    1.0000 0.27880  0.12513  0.82119  Biso   1.000  C
  C1410    1.0000 0.27884  0.12509  0.82119  Biso   1.000  C
  C1411    1.0000 0.27884  0.12513  0.82119  Biso   1.000  C
  O1214    1.0000 0.24639  0.03611  0.80812  Biso   1.000  O
  O1215    1.0000 0.24643  0.03611  0.80812  Biso   1.000  O
  H2397    1.0000 0.31769  0.07239  0.79720  Biso   1.000  H
  H2398    1.0000 0.31769  0.07244  0.79720  Biso   1.000  H
  H2399    1.0000 0.31773  0.07239  0.79720  Biso   1.000  H
  H2400    1.0000 0.31773  0.07244  0.79720  Biso   1.000  H
  O1216    1.0000 0.10320  0.25969  0.78035  Biso   1.000  O
  H2401    1.0000 0.17602  0.27270  0.79740  Biso   1.000  H
  C1412    1.0000 0.11112  0.28549  0.82179  Biso   1.000  C
  O1217    1.0000 0.10320  0.25973  0.78035  Biso   1.000  O
  H2402    1.0000 0.17602  0.27274  0.79740  Biso   1.000  H
  C1413    1.0000 0.11112  0.28553  0.82179  Biso   1.000  C
  H2403    1.0000 0.22720  0.17480  0.85691  Biso   1.000  H
  H2404    1.0000 0.22720  0.17484  0.85691  Biso   1.000  H
  H2405    1.0000 0.22724  0.17480  0.85691  Biso   1.000  H
  H2406    1.0000 0.22724  0.17484  0.85691  Biso   1.000  H
  O1218    1.0000 0.30250  0.09761  0.84235  Biso   1.000  O
  O1219    1.0000 0.30254  0.09761  0.84235  Biso   1.000  O
  H2407    1.0000 0.30388  0.15729  0.81689  Biso   1.000  H
  H2408    1.0000 0.30388  0.15733  0.81689  Biso   1.000  H
  H2409    1.0000 0.30393  0.15729  0.81689  Biso   1.000  H
  H2410    1.0000 0.30393  0.15733  0.81689  Biso   1.000  H
  C1414    1.0000 0.27051  0.98190  0.80309  Biso   1.000  C
  C1415    1.0000 0.04701  0.23772  0.78390  Biso   1.000  C
  O1220    1.0000 0.14529  0.28301  0.84208  Biso   1.000  O
  H2411    1.0000 0.10779  0.32611  0.81749  Biso   1.000  H
  O1221    1.0000 0.14533  0.28301  0.84208  Biso   1.000  O
  H2412    1.0000 0.10783  0.32611  0.81749  Biso   1.000  H
  C1416    1.0000 0.05299  0.26529  0.82691  Biso   1.000  C
  C1417    1.0000 0.05299  0.26533  0.82691  Biso   1.000  C
  C1418    1.0000 0.05303  0.26529  0.82691  Biso   1.000  C
  C1419    1.0000 0.05303  0.26533  0.82691  Biso   1.000  C
  H2413    1.0000 0.29551  0.11688  0.85380  Biso   1.000  H
  H2414    1.0000 0.29551  0.11692  0.85380  Biso   1.000  H
  C1420    1.0000 0.26529  0.94701  0.82691  Biso   1.000  C
  H2415    1.0000 0.31091  0.98582  0.79840  Biso   1.000  H
  C1421    1.0000 0.23772  0.95299  0.78390  Biso   1.000  C
  C1422    1.0000 0.23772  0.95303  0.78390  Biso   1.000  C
  C1423    1.0000 0.26533  0.94701  0.82691  Biso   1.000  C
  C1424    1.0000 0.01810  0.27051  0.80309  Biso   1.000  C
  C1425    1.0000 0.01881  0.23991  0.75999  Biso   1.000  C
  H2416    1.0000 0.05000  0.19740  0.78890  Biso   1.000  H
  H2417    1.0000 0.05000  0.19744  0.78890  Biso   1.000  H
  H2418    1.0000 0.14942  0.24930  0.84621  Biso   1.000  H
  H2419    1.0000 0.14942  0.24934  0.84621  Biso   1.000  H
  O1222    1.0000 0.02290  0.29892  0.84362  Biso   1.000  O
  H2420    1.0000 0.05400  0.22509  0.83219  Biso   1.000  H
  H2421    1.0000 0.05400  0.22514  0.83219  Biso   1.000  H
  O1223    1.0000 0.29892  0.97710  0.84362  Biso   1.000  O
  C1426    1.0000 0.28549  0.88888  0.82179  Biso   1.000  C
  H2422    1.0000 0.22509  0.94600  0.83219  Biso   1.000  H
  C1427    1.0000 0.28549  0.88893  0.82179  Biso   1.000  C
  C1428    1.0000 0.28553  0.88888  0.82179  Biso   1.000  C
  H2423    1.0000 0.22514  0.94600  0.83219  Biso   1.000  H
  C1429    1.0000 0.28553  0.88893  0.82179  Biso   1.000  C
  O1224    1.0000 0.25969  0.89680  0.78035  Biso   1.000  O
  C1430    1.0000 0.23991  0.98119  0.75999  Biso   1.000  C
  H2424    1.0000 0.19740  0.95000  0.78890  Biso   1.000  H
  C1431    1.0000 0.23991  0.98123  0.75999  Biso   1.000  C
  O1225    1.0000 0.25973  0.89680  0.78035  Biso   1.000  O
  H2425    1.0000 0.19744  0.95000  0.78890  Biso   1.000  H
  H2426    1.0000 0.01418  0.31091  0.79840  Biso   1.000  H
  H2427    1.0000 0.01423  0.31091  0.79840  Biso   1.000  H
  O1226    1.0000 0.96389  0.24639  0.80812  Biso   1.000  O
  O1227    1.0000 0.96389  0.24643  0.80812  Biso   1.000  O
  O1228    1.0000 0.96393  0.24639  0.80812  Biso   1.000  O
  O1229    1.0000 0.96393  0.24643  0.80812  Biso   1.000  O
  O1230    1.0000 0.01511  0.29761  0.75240  Biso   1.000  O
  H2428    1.0000 0.04091  0.21781  0.74840  Biso   1.000  H
  H2429    1.0000 0.98060  0.22328  0.76100  Biso   1.000  H
  H2430    1.0000 0.98060  0.22333  0.76100  Biso   1.000  H
  H2431    1.0000 0.03889  0.29681  0.85680  Biso   1.000  H
  H2432    1.0000 0.03893  0.29681  0.85680  Biso   1.000  H
  H2433    1.0000 0.29681  0.96111  0.85680  Biso   1.000  H
  O1231    1.0000 0.28301  0.85471  0.84208  Biso   1.000  O
  C1432    1.0000 0.25582  0.86169  0.80069  Biso   1.000  C
  H2434    1.0000 0.32611  0.89221  0.81749  Biso   1.000  H
  H2435    1.0000 0.22328  0.01940  0.76100  Biso   1.000  H
  H2436    1.0000 0.22333  0.01940  0.76100  Biso   1.000  H
  O1232    1.0000 0.29761  0.98489  0.75240  Biso   1.000  O
  H2437    1.0000 0.21781  0.95909  0.74840  Biso   1.000  H
  O1233    1.0000 0.29761  0.98493  0.75240  Biso   1.000  O
  H2438    1.0000 0.21781  0.95913  0.74840  Biso   1.000  H
  C1433    1.0000 0.91578  0.27829  0.80091  Biso   1.000  C
  C1434    1.0000 0.91578  0.27834  0.80091  Biso   1.000  C
  C1435    1.0000 0.91582  0.27829  0.80091  Biso   1.000  C
  C1436    1.0000 0.91582  0.27834  0.80091  Biso   1.000  C
  H2439    1.0000 0.99091  0.30039  0.74170  Biso   1.000  H
  H2440    1.0000 0.99091  0.30043  0.74170  Biso   1.000  H
  H2441    1.0000 0.24930  0.85058  0.84621  Biso   1.000  H
  H2442    1.0000 0.24930  0.85063  0.84621  Biso   1.000  H
  H2443    1.0000 0.24934  0.85058  0.84621  Biso   1.000  H
  H2444    1.0000 0.24934  0.85063  0.84621  Biso   1.000  H
  O1234    1.0000 0.19870  0.85572  0.80716  Biso   1.000  O
  H2445    1.0000 0.27270  0.82398  0.79740  Biso   1.000  H
  H2446    1.0000 0.27270  0.82402  0.79740  Biso   1.000  H
  H2447    1.0000 0.27274  0.82398  0.79740  Biso   1.000  H
  H2448    1.0000 0.27274  0.82402  0.79740  Biso   1.000  H
  H2449    1.0000 0.30039  0.00909  0.74170  Biso   1.000  H
  H2450    1.0000 0.30039  0.00913  0.74170  Biso   1.000  H
  H2451    1.0000 0.30043  0.00909  0.74170  Biso   1.000  H
  H2452    1.0000 0.30043  0.00913  0.74170  Biso   1.000  H
  O1235    1.0000 0.88981  0.25313  0.78004  Biso   1.000  O
  H2453    1.0000 0.92761  0.31769  0.79720  Biso   1.000  H
  C1437    1.0000 0.87491  0.27880  0.82119  Biso   1.000  C
  H2454    1.0000 0.92761  0.31773  0.79720  Biso   1.000  H
  C1438    1.0000 0.87491  0.27884  0.82119  Biso   1.000  C
  C1439    1.0000 0.17602  0.79978  0.80330  Biso   1.000  C
  C1440    1.0000 0.17602  0.79982  0.80330  Biso   1.000  C
  C1441    1.0000 0.87049  0.19652  0.78370  Biso   1.000  C
  C1442    1.0000 0.87053  0.19652  0.78370  Biso   1.000  C
  O1236    1.0000 0.90239  0.30250  0.84235  Biso   1.000  O
  H2455    1.0000 0.84271  0.30388  0.81689  Biso   1.000  H
  C1443    1.0000 0.85130  0.21941  0.82601  Biso   1.000  C
  O1237    1.0000 0.90239  0.30254  0.84235  Biso   1.000  O
  H2456    1.0000 0.84271  0.30393  0.81689  Biso   1.000  H
  C1444    1.0000 0.14870  0.78059  0.82601  Biso   1.000  C
  H2457    1.0000 0.20641  0.77310  0.79851  Biso   1.000  H
  C1445    1.0000 0.12951  0.80348  0.78370  Biso   1.000  C
  C1446    1.0000 0.14870  0.78063  0.82601  Biso   1.000  C
  C1447    1.0000 0.12951  0.80353  0.78370  Biso   1.000  C
  C1448    1.0000 0.82398  0.20022  0.80330  Biso   1.000  C
  H2458    1.0000 0.90218  0.17160  0.78890  Biso   1.000  H
  C1449    1.0000 0.84781  0.17800  0.76029  Biso   1.000  C
  H2459    1.0000 0.90218  0.17164  0.78890  Biso   1.000  H
  C1450    1.0000 0.84781  0.17804  0.76029  Biso   1.000  C
  C1451    1.0000 0.82402  0.20022  0.80330  Biso   1.000  C
  H2460    1.0000 0.90223  0.17160  0.78890  Biso   1.000  H
  H2461    1.0000 0.90223  0.17164  0.78890  Biso   1.000  H
  H2462    1.0000 0.88312  0.29551  0.85380  Biso   1.000  H
  O1238    1.0000 0.80988  0.22110  0.84377  Biso   1.000  O
  H2463    1.0000 0.88240  0.19311  0.83061  Biso   1.000  H
  O1239    1.0000 0.80988  0.22114  0.84377  Biso   1.000  O
  O1240    1.0000 0.80992  0.22110  0.84377  Biso   1.000  O
  O1241    1.0000 0.80992  0.22114  0.84377  Biso   1.000  O
  O1242    1.0000 0.19012  0.77890  0.84377  Biso   1.000  O
  C1452    1.0000 0.12509  0.72120  0.82119  Biso   1.000  C
  H2464    1.0000 0.11760  0.80689  0.83061  Biso   1.000  H
  C1453    1.0000 0.12513  0.72120  0.82119  Biso   1.000  C
  H2465    1.0000 0.11764  0.80689  0.83061  Biso   1.000  H
  O1243    1.0000 0.11019  0.74687  0.78004  Biso   1.000  O
  H2466    1.0000 0.09782  0.82840  0.78890  Biso   1.000  H
  C1454    1.0000 0.15219  0.82200  0.76029  Biso   1.000  C
  O1244    1.0000 0.11019  0.74692  0.78004  Biso   1.000  O
  O1245    1.0000 0.11023  0.74687  0.78004  Biso   1.000  O
  C1455    1.0000 0.15224  0.82200  0.76029  Biso   1.000  C
  O1246    1.0000 0.11023  0.74692  0.78004  Biso   1.000  O
  O1247    1.0000 0.80130  0.14428  0.80716  Biso   1.000  O
  H2467    1.0000 0.79359  0.22690  0.79851  Biso   1.000  H
  O1248    1.0000 0.80130  0.14432  0.80716  Biso   1.000  O
  O1249    1.0000 0.80420  0.21760  0.75337  Biso   1.000  O
  H2468    1.0000 0.87819  0.17749  0.74840  Biso   1.000  H
  H2469    1.0000 0.83190  0.13961  0.76149  Biso   1.000  H
  H2470    1.0000 0.87819  0.17753  0.74840  Biso   1.000  H
  H2471    1.0000 0.87824  0.17749  0.74840  Biso   1.000  H
  H2472    1.0000 0.87824  0.17753  0.74840  Biso   1.000  H
  H2473    1.0000 0.82520  0.22720  0.85691  Biso   1.000  H
  H2474    1.0000 0.82520  0.22724  0.85691  Biso   1.000  H
  H2475    1.0000 0.17480  0.77280  0.85691  Biso   1.000  H
  H2476    1.0000 0.17484  0.77280  0.85691  Biso   1.000  H
  O1250    1.0000 0.09761  0.69750  0.84235  Biso   1.000  O
  C1456    1.0000 0.08422  0.72171  0.80091  Biso   1.000  C
  H2477    1.0000 0.15729  0.69612  0.81689  Biso   1.000  H
  H2478    1.0000 0.15733  0.69612  0.81689  Biso   1.000  H
  O1251    1.0000 0.19580  0.78240  0.75337  Biso   1.000  O
  H2479    1.0000 0.12181  0.82251  0.74840  Biso   1.000  H
  H2480    1.0000 0.16810  0.86039  0.76149  Biso   1.000  H
  H2481    1.0000 0.16810  0.86043  0.76149  Biso   1.000  H
  C1457    1.0000 0.74418  0.13831  0.80069  Biso   1.000  C
  C1458    1.0000 0.74422  0.13831  0.80069  Biso   1.000  C
  Na30     1.0000 0.83682  0.31609  0.74080  Biso   1.000  Na
  H2482    1.0000 0.78509  0.20380  0.74230  Biso   1.000  H
  H2483    1.0000 0.78509  0.20384  0.74230  Biso   1.000  H
  H2484    1.0000 0.78513  0.20380  0.74230  Biso   1.000  H
  H2485    1.0000 0.78513  0.20384  0.74230  Biso   1.000  H
  H2486    1.0000 0.11688  0.70449  0.85380  Biso   1.000  H
  H2487    1.0000 0.11692  0.70449  0.85380  Biso   1.000  H
  O1252    1.0000 0.03611  0.75361  0.80812  Biso   1.000  O
  H2488    1.0000 0.07239  0.68231  0.79720  Biso   1.000  H
  H2489    1.0000 0.07244  0.68231  0.79720  Biso   1.000  H
  Na31     1.0000 0.16322  0.68391  0.74080  Biso   1.000  Na
  H2490    1.0000 0.21491  0.79620  0.74230  Biso   1.000  H
  O1253    1.0000 0.74031  0.10320  0.78035  Biso   1.000  O
  H2491    1.0000 0.72730  0.17602  0.79740  Biso   1.000  H
  C1459    1.0000 0.71451  0.11112  0.82179  Biso   1.000  C
  C1460    1.0000 0.98190  0.72949  0.80309  Biso   1.000  C
  C1461    1.0000 0.76228  0.04701  0.78390  Biso   1.000  C
  C1462    1.0000 0.76232  0.04701  0.78390  Biso   1.000  C
  O1254    1.0000 0.71699  0.14529  0.84208  Biso   1.000  O
  H2492    1.0000 0.67389  0.10779  0.81749  Biso   1.000  H
  C1463    1.0000 0.73471  0.05299  0.82691  Biso   1.000  C
  O1255    1.0000 0.71699  0.14533  0.84208  Biso   1.000  O
  H2493    1.0000 0.67389  0.10783  0.81749  Biso   1.000  H
  C1464    1.0000 0.73471  0.05303  0.82691  Biso   1.000  C
  C1465    1.0000 0.94701  0.73471  0.82691  Biso   1.000  C
  H2494    1.0000 0.98582  0.68909  0.79840  Biso   1.000  H
  C1466    1.0000 0.95299  0.76228  0.78390  Biso   1.000  C
  H2495    1.0000 0.98582  0.68913  0.79840  Biso   1.000  H
  C1467    1.0000 0.95299  0.76232  0.78390  Biso   1.000  C
  C1468    1.0000 0.95303  0.76228  0.78390  Biso   1.000  C
  C1469    1.0000 0.95303  0.76232  0.78390  Biso   1.000  C
  C1470    1.0000 0.72949  0.01810  0.80309  Biso   1.000  C
  C1471    1.0000 0.76009  0.01881  0.75999  Biso   1.000  C
  H2496    1.0000 0.80260  0.05000  0.78890  Biso   1.000  H
  C1472    1.0000 0.76013  0.01881  0.75999  Biso   1.000  C
  H2497    1.0000 0.75070  0.14942  0.84621  Biso   1.000  H
  O1256    1.0000 0.70108  0.02290  0.84362  Biso   1.000  O
  H2498    1.0000 0.77491  0.05400  0.83219  Biso   1.000  H
  O1257    1.0000 0.70112  0.02290  0.84362  Biso   1.000  O
  O1258    1.0000 0.97710  0.70108  0.84362  Biso   1.000  O
  C1473    1.0000 0.88888  0.71451  0.82179  Biso   1.000  C
  H2499    1.0000 0.94600  0.77491  0.83219  Biso   1.000  H
  O1259    1.0000 0.97710  0.70112  0.84362  Biso   1.000  O
  C1474    1.0000 0.88893  0.71451  0.82179  Biso   1.000  C
  O1260    1.0000 0.89680  0.74031  0.78035  Biso   1.000  O
  C1475    1.0000 0.98119  0.76009  0.75999  Biso   1.000  C
  H2500    1.0000 0.95000  0.80260  0.78890  Biso   1.000  H
  C1476    1.0000 0.98119  0.76013  0.75999  Biso   1.000  C
  C1477    1.0000 0.98123  0.76009  0.75999  Biso   1.000  C
  C1478    1.0000 0.98123  0.76013  0.75999  Biso   1.000  C
  O1261    1.0000 0.75361  0.96389  0.80812  Biso   1.000  O
  O1262    1.0000 0.75361  0.96393  0.80812  Biso   1.000  O
  H2501    1.0000 0.68909  0.01418  0.79840  Biso   1.000  H
  H2502    1.0000 0.68909  0.01423  0.79840  Biso   1.000  H
  H2503    1.0000 0.68913  0.01418  0.79840  Biso   1.000  H
  H2504    1.0000 0.68913  0.01423  0.79840  Biso   1.000  H
  H2505    1.0000 0.77672  0.98060  0.76100  Biso   1.000  H
  O1263    1.0000 0.70239  0.01511  0.75240  Biso   1.000  O
  H2506    1.0000 0.78219  0.04091  0.74840  Biso   1.000  H
  O1264    1.0000 0.70243  0.01511  0.75240  Biso   1.000  O
  H2507    1.0000 0.78223  0.04091  0.74840  Biso   1.000  H
  H2508    1.0000 0.70319  0.03889  0.85680  Biso   1.000  H
  H2509    1.0000 0.70319  0.03893  0.85680  Biso   1.000  H
  H2510    1.0000 0.70323  0.03889  0.85680  Biso   1.000  H
  H2511    1.0000 0.70323  0.03893  0.85680  Biso   1.000  H
  H2512    1.0000 0.96111  0.70319  0.85680  Biso   1.000  H
  H2513    1.0000 0.96111  0.70323  0.85680  Biso   1.000  H
  O1265    1.0000 0.85471  0.71699  0.84208  Biso   1.000  O
  C1479    1.0000 0.86169  0.74418  0.80069  Biso   1.000  C
  H2514    1.0000 0.89221  0.67389  0.81749  Biso   1.000  H
  C1480    1.0000 0.86169  0.74422  0.80069  Biso   1.000  C
  O1266    1.0000 0.98489  0.70239  0.75240  Biso   1.000  O
  H2515    1.0000 0.95909  0.78219  0.74840  Biso   1.000  H
  O1267    1.0000 0.98489  0.70243  0.75240  Biso   1.000  O
  H2516    1.0000 0.95909  0.78223  0.74840  Biso   1.000  H
  O1268    1.0000 0.98493  0.70239  0.75240  Biso   1.000  O
  H2517    1.0000 0.95913  0.78219  0.74840  Biso   1.000  H
  O1269    1.0000 0.98493  0.70243  0.75240  Biso   1.000  O
  H2518    1.0000 0.95913  0.78223  0.74840  Biso   1.000  H
  H2519    1.0000 0.01940  0.77672  0.76100  Biso   1.000  H
  C1481    1.0000 0.72171  0.91578  0.80091  Biso   1.000  C
  C1482    1.0000 0.72171  0.91582  0.80091  Biso   1.000  C
  H2520    1.0000 0.69961  0.99091  0.74170  Biso   1.000  H
  H2521    1.0000 0.85058  0.75070  0.84621  Biso   1.000  H
  H2522    1.0000 0.85063  0.75070  0.84621  Biso   1.000  H
  O1270    1.0000 0.85572  0.80130  0.80716  Biso   1.000  O
  H2523    1.0000 0.82398  0.72730  0.79740  Biso   1.000  H
  H2524    1.0000 0.82402  0.72730  0.79740  Biso   1.000  H
  H2525    1.0000 0.00909  0.69961  0.74170  Biso   1.000  H
  H2526    1.0000 0.00913  0.69961  0.74170  Biso   1.000  H
  O1271    1.0000 0.74687  0.88981  0.78004  Biso   1.000  O
  H2527    1.0000 0.68231  0.92761  0.79720  Biso   1.000  H
  C1483    1.0000 0.72120  0.87491  0.82119  Biso   1.000  C
  O1272    1.0000 0.74692  0.88981  0.78004  Biso   1.000  O
  C1484    1.0000 0.79978  0.82398  0.80330  Biso   1.000  C
  C1485    1.0000 0.79978  0.82402  0.80330  Biso   1.000  C
  C1486    1.0000 0.79982  0.82398  0.80330  Biso   1.000  C
  C1487    1.0000 0.79982  0.82402  0.80330  Biso   1.000  C
  C1488    1.0000 0.80348  0.87049  0.78370  Biso   1.000  C
  C1489    1.0000 0.80348  0.87053  0.78370  Biso   1.000  C
  C1490    1.0000 0.80353  0.87049  0.78370  Biso   1.000  C
  C1491    1.0000 0.80353  0.87053  0.78370  Biso   1.000  C
  O1273    1.0000 0.69750  0.90239  0.84235  Biso   1.000  O
  H2528    1.0000 0.69612  0.84271  0.81689  Biso   1.000  H
  C1492    1.0000 0.78059  0.85130  0.82601  Biso   1.000  C
  C1493    1.0000 0.78063  0.85130  0.82601  Biso   1.000  C
  H2529    1.0000 0.77310  0.79359  0.79851  Biso   1.000  H
  H2530    1.0000 0.82840  0.90218  0.78890  Biso   1.000  H
  C1494    1.0000 0.82200  0.84781  0.76029  Biso   1.000  C
  H2531    1.0000 0.82840  0.90223  0.78890  Biso   1.000  H
  H2532    1.0000 0.70449  0.88312  0.85380  Biso   1.000  H
  O1274    1.0000 0.77890  0.80988  0.84377  Biso   1.000  O
  H2533    1.0000 0.80689  0.88240  0.83061  Biso   1.000  H
  O1275    1.0000 0.77890  0.80992  0.84377  Biso   1.000  O
  O1276    1.0000 0.78240  0.80420  0.75337  Biso   1.000  O
  H2534    1.0000 0.82251  0.87819  0.74840  Biso   1.000  H
  H2535    1.0000 0.86039  0.83190  0.76149  Biso   1.000  H
  H2536    1.0000 0.82251  0.87824  0.74840  Biso   1.000  H
  H2537    1.0000 0.86043  0.83190  0.76149  Biso   1.000  H
  H2538    1.0000 0.77280  0.82520  0.85691  Biso   1.000  H
  Na32     1.0000 0.68391  0.83682  0.74080  Biso   1.000  Na
  H2539    1.0000 0.79620  0.78509  0.74230  Biso   1.000  H
  H2540    1.0000 0.79620  0.78513  0.74230  Biso   1.000  H
  Na33     1.0000 0.31609  0.16322  0.74080  Biso   1.000  Na
  O1277    1.0000 0.21760  0.19580  0.75337  Biso   1.000  O
  H2541    1.0000 0.20380  0.21491  0.74230  Biso   1.000  H
  C1495    1.0000 0.17800  0.15219  0.76029  Biso   1.000  C
  C1496    1.0000 0.17800  0.15224  0.76029  Biso   1.000  C
  H2542    1.0000 0.20384  0.21491  0.74230  Biso   1.000  H
  C1497    1.0000 0.17804  0.15219  0.76029  Biso   1.000  C
  C1498    1.0000 0.17804  0.15224  0.76029  Biso   1.000  C
  C1499    1.0000 0.19652  0.12951  0.78370  Biso   1.000  C
  H2543    1.0000 0.13961  0.16810  0.76149  Biso   1.000  H
  H2544    1.0000 0.17749  0.12181  0.74840  Biso   1.000  H
  H2545    1.0000 0.17753  0.12181  0.74840  Biso   1.000  H
  C1500    1.0000 0.20022  0.17602  0.80330  Biso   1.000  C
  O1278    1.0000 0.25313  0.11019  0.78004  Biso   1.000  O
  H2546    1.0000 0.17160  0.09782  0.78890  Biso   1.000  H
  O1279    1.0000 0.25313  0.11023  0.78004  Biso   1.000  O
  H2547    1.0000 0.17164  0.09782  0.78890  Biso   1.000  H
  C1501    1.0000 0.21941  0.14870  0.82601  Biso   1.000  C
  H2548    1.0000 0.22690  0.20641  0.79851  Biso   1.000  H
  O1280    1.0000 0.14428  0.19870  0.80716  Biso   1.000  O
  O1281    1.0000 0.14432  0.19870  0.80716  Biso   1.000  O
  C1502    1.0000 0.27829  0.08422  0.80091  Biso   1.000  C
  C1503    1.0000 0.27834  0.08422  0.80091  Biso   1.000  C
  O1282    1.0000 0.22110  0.19012  0.84377  Biso   1.000  O
  C1504    1.0000 0.27880  0.12509  0.82119  Biso   1.000  C
  H2549    1.0000 0.19311  0.11760  0.83061  Biso   1.000  H
  C1505    1.0000 0.27880  0.12513  0.82119  Biso   1.000  C
  H2550    1.0000 0.19311  0.11764  0.83061  Biso   1.000  H
  O1283    1.0000 0.22114  0.19012  0.84377  Biso   1.000  O
  C1506    1.0000 0.27884  0.12509  0.82119  Biso   1.000  C
  C1507    1.0000 0.27884  0.12513  0.82119  Biso   1.000  C
  C1508    1.0000 0.13831  0.25582  0.80069  Biso   1.000  C
  O1284    1.0000 0.24639  0.03611  0.80812  Biso   1.000  O
  H2551    1.0000 0.31769  0.07239  0.79720  Biso   1.000  H
  H2552    1.0000 0.31769  0.07244  0.79720  Biso   1.000  H
  O1285    1.0000 0.24643  0.03611  0.80812  Biso   1.000  O
  H2553    1.0000 0.31773  0.07239  0.79720  Biso   1.000  H
  H2554    1.0000 0.31773  0.07244  0.79720  Biso   1.000  H
  H2555    1.0000 0.22720  0.17480  0.85691  Biso   1.000  H
  H2556    1.0000 0.22720  0.17484  0.85691  Biso   1.000  H
  H2557    1.0000 0.22724  0.17480  0.85691  Biso   1.000  H
  H2558    1.0000 0.22724  0.17484  0.85691  Biso   1.000  H
  O1286    1.0000 0.30250  0.09761  0.84235  Biso   1.000  O
  H2559    1.0000 0.30388  0.15729  0.81689  Biso   1.000  H
  H2560    1.0000 0.30388  0.15733  0.81689  Biso   1.000  H
  O1287    1.0000 0.30254  0.09761  0.84235  Biso   1.000  O
  H2561    1.0000 0.30393  0.15729  0.81689  Biso   1.000  H
  H2562    1.0000 0.30393  0.15733  0.81689  Biso   1.000  H
  O1288    1.0000 0.10320  0.25969  0.78035  Biso   1.000  O
  H2563    1.0000 0.17602  0.27270  0.79740  Biso   1.000  H
  C1509    1.0000 0.11112  0.28549  0.82179  Biso   1.000  C
  O1289    1.0000 0.10320  0.25973  0.78035  Biso   1.000  O
  H2564    1.0000 0.17602  0.27274  0.79740  Biso   1.000  H
  C1510    1.0000 0.11112  0.28553  0.82179  Biso   1.000  C
  C1511    1.0000 0.27051  0.98190  0.80309  Biso   1.000  C
  H2565    1.0000 0.29551  0.11688  0.85380  Biso   1.000  H
  H2566    1.0000 0.29551  0.11692  0.85380  Biso   1.000  H
  C1512    1.0000 0.04701  0.23772  0.78390  Biso   1.000  C
  O1290    1.0000 0.14529  0.28301  0.84208  Biso   1.000  O
  H2567    1.0000 0.10779  0.32611  0.81749  Biso   1.000  H
  C1513    1.0000 0.05299  0.26529  0.82691  Biso   1.000  C
  C1514    1.0000 0.05299  0.26533  0.82691  Biso   1.000  C
  O1291    1.0000 0.14533  0.28301  0.84208  Biso   1.000  O
  H2568    1.0000 0.10783  0.32611  0.81749  Biso   1.000  H
  C1515    1.0000 0.05303  0.26529  0.82691  Biso   1.000  C
  C1516    1.0000 0.05303  0.26533  0.82691  Biso   1.000  C
  C1517    1.0000 0.26529  0.94701  0.82691  Biso   1.000  C
  H2569    1.0000 0.31091  0.98582  0.79840  Biso   1.000  H
  C1518    1.0000 0.23772  0.95299  0.78390  Biso   1.000  C
  C1519    1.0000 0.23772  0.95303  0.78390  Biso   1.000  C
  C1520    1.0000 0.26533  0.94701  0.82691  Biso   1.000  C
  C1521    1.0000 0.01810  0.27051  0.80309  Biso   1.000  C
  C1522    1.0000 0.01881  0.23991  0.75999  Biso   1.000  C
  H2570    1.0000 0.05000  0.19740  0.78890  Biso   1.000  H
  H2571    1.0000 0.05000  0.19744  0.78890  Biso   1.000  H
  H2572    1.0000 0.14942  0.24930  0.84621  Biso   1.000  H
  H2573    1.0000 0.14942  0.24934  0.84621  Biso   1.000  H
  O1292    1.0000 0.02290  0.29892  0.84362  Biso   1.000  O
  H2574    1.0000 0.05400  0.22509  0.83219  Biso   1.000  H
  H2575    1.0000 0.05400  0.22514  0.83219  Biso   1.000  H
  O1293    1.0000 0.29892  0.97710  0.84362  Biso   1.000  O
  C1523    1.0000 0.28549  0.88888  0.82179  Biso   1.000  C
  H2576    1.0000 0.22509  0.94600  0.83219  Biso   1.000  H
  C1524    1.0000 0.28549  0.88893  0.82179  Biso   1.000  C
  C1525    1.0000 0.28553  0.88888  0.82179  Biso   1.000  C
  H2577    1.0000 0.22514  0.94600  0.83219  Biso   1.000  H
  C1526    1.0000 0.28553  0.88893  0.82179  Biso   1.000  C
  O1294    1.0000 0.25969  0.89680  0.78035  Biso   1.000  O
  C1527    1.0000 0.23991  0.98119  0.75999  Biso   1.000  C
  H2578    1.0000 0.19740  0.95000  0.78890  Biso   1.000  H
  C1528    1.0000 0.23991  0.98123  0.75999  Biso   1.000  C
  O1295    1.0000 0.25973  0.89680  0.78035  Biso   1.000  O
  H2579    1.0000 0.19744  0.95000  0.78890  Biso   1.000  H
  O1296    1.0000 0.96389  0.24639  0.80812  Biso   1.000  O
  O1297    1.0000 0.96389  0.24643  0.80812  Biso   1.000  O
  O1298    1.0000 0.96393  0.24639  0.80812  Biso   1.000  O
  O1299    1.0000 0.96393  0.24643  0.80812  Biso   1.000  O
  H2580    1.0000 0.01418  0.31091  0.79840  Biso   1.000  H
  H2581    1.0000 0.01423  0.31091  0.79840  Biso   1.000  H
  O1300    1.0000 0.01511  0.29761  0.75240  Biso   1.000  O
  H2582    1.0000 0.04091  0.21781  0.74840  Biso   1.000  H
  H2583    1.0000 0.98060  0.22328  0.76100  Biso   1.000  H
  H2584    1.0000 0.98060  0.22333  0.76100  Biso   1.000  H
  H2585    1.0000 0.03889  0.29681  0.85680  Biso   1.000  H
  H2586    1.0000 0.03893  0.29681  0.85680  Biso   1.000  H
  H2587    1.0000 0.29681  0.96111  0.85680  Biso   1.000  H
  O1301    1.0000 0.28301  0.85471  0.84208  Biso   1.000  O
  C1529    1.0000 0.25582  0.86169  0.80069  Biso   1.000  C
  H2588    1.0000 0.32611  0.89221  0.81749  Biso   1.000  H
  O1302    1.0000 0.29761  0.98489  0.75240  Biso   1.000  O
  H2589    1.0000 0.21781  0.95909  0.74840  Biso   1.000  H
  O1303    1.0000 0.29761  0.98493  0.75240  Biso   1.000  O
  H2590    1.0000 0.21781  0.95913  0.74840  Biso   1.000  H
  H2591    1.0000 0.22328  0.01940  0.76100  Biso   1.000  H
  H2592    1.0000 0.22333  0.01940  0.76100  Biso   1.000  H
  C1530    1.0000 0.91578  0.27829  0.80091  Biso   1.000  C
  C1531    1.0000 0.91578  0.27834  0.80091  Biso   1.000  C
  C1532    1.0000 0.91582  0.27829  0.80091  Biso   1.000  C
  C1533    1.0000 0.91582  0.27834  0.80091  Biso   1.000  C
  H2593    1.0000 0.99091  0.30039  0.74170  Biso   1.000  H
  H2594    1.0000 0.99091  0.30043  0.74170  Biso   1.000  H
  H2595    1.0000 0.24930  0.85058  0.84621  Biso   1.000  H
  H2596    1.0000 0.24930  0.85063  0.84621  Biso   1.000  H
  H2597    1.0000 0.24934  0.85058  0.84621  Biso   1.000  H
  H2598    1.0000 0.24934  0.85063  0.84621  Biso   1.000  H
  O1304    1.0000 0.19870  0.85572  0.80716  Biso   1.000  O
  H2599    1.0000 0.27270  0.82398  0.79740  Biso   1.000  H
  H2600    1.0000 0.27270  0.82402  0.79740  Biso   1.000  H
  H2601    1.0000 0.27274  0.82398  0.79740  Biso   1.000  H
  H2602    1.0000 0.27274  0.82402  0.79740  Biso   1.000  H
  H2603    1.0000 0.30039  0.00909  0.74170  Biso   1.000  H
  H2604    1.0000 0.30039  0.00913  0.74170  Biso   1.000  H
  H2605    1.0000 0.30043  0.00909  0.74170  Biso   1.000  H
  H2606    1.0000 0.30043  0.00913  0.74170  Biso   1.000  H
  O1305    1.0000 0.88981  0.25313  0.78004  Biso   1.000  O
  H2607    1.0000 0.92761  0.31769  0.79720  Biso   1.000  H
  C1534    1.0000 0.87491  0.27880  0.82119  Biso   1.000  C
  H2608    1.0000 0.92761  0.31773  0.79720  Biso   1.000  H
  C1535    1.0000 0.87491  0.27884  0.82119  Biso   1.000  C
  C1536    1.0000 0.17602  0.79978  0.80330  Biso   1.000  C
  C1537    1.0000 0.17602  0.79982  0.80330  Biso   1.000  C
  C1538    1.0000 0.87049  0.19652  0.78370  Biso   1.000  C
  C1539    1.0000 0.87053  0.19652  0.78370  Biso   1.000  C
  O1306    1.0000 0.90239  0.30250  0.84235  Biso   1.000  O
  H2609    1.0000 0.84271  0.30388  0.81689  Biso   1.000  H
  C1540    1.0000 0.85130  0.21941  0.82601  Biso   1.000  C
  O1307    1.0000 0.90239  0.30254  0.84235  Biso   1.000  O
  H2610    1.0000 0.84271  0.30393  0.81689  Biso   1.000  H
  C1541    1.0000 0.14870  0.78059  0.82601  Biso   1.000  C
  H2611    1.0000 0.20641  0.77310  0.79851  Biso   1.000  H
  C1542    1.0000 0.12951  0.80348  0.78370  Biso   1.000  C
  C1543    1.0000 0.14870  0.78063  0.82601  Biso   1.000  C
  C1544    1.0000 0.12951  0.80353  0.78370  Biso   1.000  C
  C1545    1.0000 0.82398  0.20022  0.80330  Biso   1.000  C
  H2612    1.0000 0.90218  0.17160  0.78890  Biso   1.000  H
  C1546    1.0000 0.84781  0.17800  0.76029  Biso   1.000  C
  H2613    1.0000 0.90218  0.17164  0.78890  Biso   1.000  H
  C1547    1.0000 0.84781  0.17804  0.76029  Biso   1.000  C
  C1548    1.0000 0.82402  0.20022  0.80330  Biso   1.000  C
  H2614    1.0000 0.90223  0.17160  0.78890  Biso   1.000  H
  H2615    1.0000 0.90223  0.17164  0.78890  Biso   1.000  H
  H2616    1.0000 0.88312  0.29551  0.85380  Biso   1.000  H
  O1308    1.0000 0.80988  0.22110  0.84377  Biso   1.000  O
  H2617    1.0000 0.88240  0.19311  0.83061  Biso   1.000  H
  O1309    1.0000 0.80988  0.22114  0.84377  Biso   1.000  O
  O1310    1.0000 0.80992  0.22110  0.84377  Biso   1.000  O
  O1311    1.0000 0.80992  0.22114  0.84377  Biso   1.000  O
  O1312    1.0000 0.19012  0.77890  0.84377  Biso   1.000  O
  C1549    1.0000 0.12509  0.72120  0.82119  Biso   1.000  C
  H2618    1.0000 0.11760  0.80689  0.83061  Biso   1.000  H
  C1550    1.0000 0.12513  0.72120  0.82119  Biso   1.000  C
  H2619    1.0000 0.11764  0.80689  0.83061  Biso   1.000  H
  O1313    1.0000 0.11019  0.74687  0.78004  Biso   1.000  O
  H2620    1.0000 0.09782  0.82840  0.78890  Biso   1.000  H
  C1551    1.0000 0.15219  0.82200  0.76029  Biso   1.000  C
  O1314    1.0000 0.11019  0.74692  0.78004  Biso   1.000  O
  O1315    1.0000 0.11023  0.74687  0.78004  Biso   1.000  O
  C1552    1.0000 0.15224  0.82200  0.76029  Biso   1.000  C
  O1316    1.0000 0.11023  0.74692  0.78004  Biso   1.000  O
  O1317    1.0000 0.80130  0.14428  0.80716  Biso   1.000  O
  H2621    1.0000 0.79359  0.22690  0.79851  Biso   1.000  H
  O1318    1.0000 0.80130  0.14432  0.80716  Biso   1.000  O
  O1319    1.0000 0.80420  0.21760  0.75337  Biso   1.000  O
  H2622    1.0000 0.87819  0.17749  0.74840  Biso   1.000  H
  H2623    1.0000 0.83190  0.13961  0.76149  Biso   1.000  H
  H2624    1.0000 0.87819  0.17753  0.74840  Biso   1.000  H
  H2625    1.0000 0.87824  0.17749  0.74840  Biso   1.000  H
  H2626    1.0000 0.87824  0.17753  0.74840  Biso   1.000  H
  H2627    1.0000 0.82520  0.22720  0.85691  Biso   1.000  H
  H2628    1.0000 0.82520  0.22724  0.85691  Biso   1.000  H
  H2629    1.0000 0.17480  0.77280  0.85691  Biso   1.000  H
  H2630    1.0000 0.17484  0.77280  0.85691  Biso   1.000  H
  O1320    1.0000 0.09761  0.69750  0.84235  Biso   1.000  O
  C1553    1.0000 0.08422  0.72171  0.80091  Biso   1.000  C
  H2631    1.0000 0.15729  0.69612  0.81689  Biso   1.000  H
  H2632    1.0000 0.15733  0.69612  0.81689  Biso   1.000  H
  O1321    1.0000 0.19580  0.78240  0.75337  Biso   1.000  O
  H2633    1.0000 0.12181  0.82251  0.74840  Biso   1.000  H
  H2634    1.0000 0.16810  0.86039  0.76149  Biso   1.000  H
  H2635    1.0000 0.16810  0.86043  0.76149  Biso   1.000  H
  C1554    1.0000 0.74418  0.13831  0.80069  Biso   1.000  C
  C1555    1.0000 0.74422  0.13831  0.80069  Biso   1.000  C
  Na34     1.0000 0.83682  0.31609  0.74080  Biso   1.000  Na
  H2636    1.0000 0.78509  0.20380  0.74230  Biso   1.000  H
  H2637    1.0000 0.78509  0.20384  0.74230  Biso   1.000  H
  H2638    1.0000 0.78513  0.20380  0.74230  Biso   1.000  H
  H2639    1.0000 0.78513  0.20384  0.74230  Biso   1.000  H
  H2640    1.0000 0.11688  0.70449  0.85380  Biso   1.000  H
  H2641    1.0000 0.11692  0.70449  0.85380  Biso   1.000  H
  O1322    1.0000 0.03611  0.75361  0.80812  Biso   1.000  O
  H2642    1.0000 0.07239  0.68231  0.79720  Biso   1.000  H
  H2643    1.0000 0.07244  0.68231  0.79720  Biso   1.000  H
  Na35     1.0000 0.16322  0.68391  0.74080  Biso   1.000  Na
  H2644    1.0000 0.21491  0.79620  0.74230  Biso   1.000  H
  O1323    1.0000 0.74031  0.10320  0.78035  Biso   1.000  O
  H2645    1.0000 0.72730  0.17602  0.79740  Biso   1.000  H
  C1556    1.0000 0.71451  0.11112  0.82179  Biso   1.000  C
  C1557    1.0000 0.98190  0.72949  0.80309  Biso   1.000  C
  C1558    1.0000 0.76228  0.04701  0.78390  Biso   1.000  C
  C1559    1.0000 0.76232  0.04701  0.78390  Biso   1.000  C
  O1324    1.0000 0.71699  0.14529  0.84208  Biso   1.000  O
  H2646    1.0000 0.67389  0.10779  0.81749  Biso   1.000  H
  C1560    1.0000 0.73471  0.05299  0.82691  Biso   1.000  C
  O1325    1.0000 0.71699  0.14533  0.84208  Biso   1.000  O
  H2647    1.0000 0.67389  0.10783  0.81749  Biso   1.000  H
  C1561    1.0000 0.73471  0.05303  0.82691  Biso   1.000  C
  C1562    1.0000 0.94701  0.73471  0.82691  Biso   1.000  C
  H2648    1.0000 0.98582  0.68909  0.79840  Biso   1.000  H
  C1563    1.0000 0.95299  0.76228  0.78390  Biso   1.000  C
  H2649    1.0000 0.98582  0.68913  0.79840  Biso   1.000  H
  C1564    1.0000 0.95299  0.76232  0.78390  Biso   1.000  C
  C1565    1.0000 0.95303  0.76228  0.78390  Biso   1.000  C
  C1566    1.0000 0.95303  0.76232  0.78390  Biso   1.000  C
  C1567    1.0000 0.72949  0.01810  0.80309  Biso   1.000  C
  C1568    1.0000 0.76009  0.01881  0.75999  Biso   1.000  C
  H2650    1.0000 0.80260  0.05000  0.78890  Biso   1.000  H
  C1569    1.0000 0.76013  0.01881  0.75999  Biso   1.000  C
  H2651    1.0000 0.75070  0.14942  0.84621  Biso   1.000  H
  O1326    1.0000 0.70108  0.02290  0.84362  Biso   1.000  O
  H2652    1.0000 0.77491  0.05400  0.83219  Biso   1.000  H
  O1327    1.0000 0.70112  0.02290  0.84362  Biso   1.000  O
  O1328    1.0000 0.97710  0.70108  0.84362  Biso   1.000  O
  C1570    1.0000 0.88888  0.71451  0.82179  Biso   1.000  C
  H2653    1.0000 0.94600  0.77491  0.83219  Biso   1.000  H
  O1329    1.0000 0.97710  0.70112  0.84362  Biso   1.000  O
  C1571    1.0000 0.88893  0.71451  0.82179  Biso   1.000  C
  O1330    1.0000 0.89680  0.74031  0.78035  Biso   1.000  O
  C1572    1.0000 0.98119  0.76009  0.75999  Biso   1.000  C
  H2654    1.0000 0.95000  0.80260  0.78890  Biso   1.000  H
  C1573    1.0000 0.98119  0.76013  0.75999  Biso   1.000  C
  C1574    1.0000 0.98123  0.76009  0.75999  Biso   1.000  C
  C1575    1.0000 0.98123  0.76013  0.75999  Biso   1.000  C
  O1331    1.0000 0.75361  0.96389  0.80812  Biso   1.000  O
  O1332    1.0000 0.75361  0.96393  0.80812  Biso   1.000  O
  H2655    1.0000 0.68909  0.01418  0.79840  Biso   1.000  H
  H2656    1.0000 0.68909  0.01423  0.79840  Biso   1.000  H
  H2657    1.0000 0.68913  0.01418  0.79840  Biso   1.000  H
  H2658    1.0000 0.68913  0.01423  0.79840  Biso   1.000  H
  H2659    1.0000 0.77672  0.98060  0.76100  Biso   1.000  H
  O1333    1.0000 0.70239  0.01511  0.75240  Biso   1.000  O
  H2660    1.0000 0.78219  0.04091  0.74840  Biso   1.000  H
  O1334    1.0000 0.70243  0.01511  0.75240  Biso   1.000  O
  H2661    1.0000 0.78223  0.04091  0.74840  Biso   1.000  H
  H2662    1.0000 0.70319  0.03889  0.85680  Biso   1.000  H
  H2663    1.0000 0.70319  0.03893  0.85680  Biso   1.000  H
  H2664    1.0000 0.70323  0.03889  0.85680  Biso   1.000  H
  H2665    1.0000 0.70323  0.03893  0.85680  Biso   1.000  H
  H2666    1.0000 0.96111  0.70319  0.85680  Biso   1.000  H
  H2667    1.0000 0.96111  0.70323  0.85680  Biso   1.000  H
  O1335    1.0000 0.85471  0.71699  0.84208  Biso   1.000  O
  C1576    1.0000 0.86169  0.74418  0.80069  Biso   1.000  C
  H2668    1.0000 0.89221  0.67389  0.81749  Biso   1.000  H
  C1577    1.0000 0.86169  0.74422  0.80069  Biso   1.000  C
  O1336    1.0000 0.98489  0.70239  0.75240  Biso   1.000  O
  H2669    1.0000 0.95909  0.78219  0.74840  Biso   1.000  H
  O1337    1.0000 0.98489  0.70243  0.75240  Biso   1.000  O
  H2670    1.0000 0.95909  0.78223  0.74840  Biso   1.000  H
  O1338    1.0000 0.98493  0.70239  0.75240  Biso   1.000  O
  H2671    1.0000 0.95913  0.78219  0.74840  Biso   1.000  H
  O1339    1.0000 0.98493  0.70243  0.75240  Biso   1.000  O
  H2672    1.0000 0.95913  0.78223  0.74840  Biso   1.000  H
  H2673    1.0000 0.01940  0.77672  0.76100  Biso   1.000  H
  C1578    1.0000 0.72171  0.91578  0.80091  Biso   1.000  C
  C1579    1.0000 0.72171  0.91582  0.80091  Biso   1.000  C
  H2674    1.0000 0.69961  0.99091  0.74170  Biso   1.000  H
  H2675    1.0000 0.85058  0.75070  0.84621  Biso   1.000  H
  H2676    1.0000 0.85063  0.75070  0.84621  Biso   1.000  H
  O1340    1.0000 0.85572  0.80130  0.80716  Biso   1.000  O
  H2677    1.0000 0.82398  0.72730  0.79740  Biso   1.000  H
  H2678    1.0000 0.82402  0.72730  0.79740  Biso   1.000  H
  H2679    1.0000 0.00909  0.69961  0.74170  Biso   1.000  H
  H2680    1.0000 0.00913  0.69961  0.74170  Biso   1.000  H
  O1341    1.0000 0.74687  0.88981  0.78004  Biso   1.000  O
  H2681    1.0000 0.68231  0.92761  0.79720  Biso   1.000  H
  C1580    1.0000 0.72120  0.87491  0.82119  Biso   1.000  C
  O1342    1.0000 0.74692  0.88981  0.78004  Biso   1.000  O
  C1581    1.0000 0.79978  0.82398  0.80330  Biso   1.000  C
  C1582    1.0000 0.79978  0.82402  0.80330  Biso   1.000  C
  C1583    1.0000 0.79982  0.82398  0.80330  Biso   1.000  C
  C1584    1.0000 0.79982  0.82402  0.80330  Biso   1.000  C
  C1585    1.0000 0.80348  0.87049  0.78370  Biso   1.000  C
  C1586    1.0000 0.80348  0.87053  0.78370  Biso   1.000  C
  C1587    1.0000 0.80353  0.87049  0.78370  Biso   1.000  C
  C1588    1.0000 0.80353  0.87053  0.78370  Biso   1.000  C
  O1343    1.0000 0.69750  0.90239  0.84235  Biso   1.000  O
  H2682    1.0000 0.69612  0.84271  0.81689  Biso   1.000  H
  C1589    1.0000 0.78059  0.85130  0.82601  Biso   1.000  C
  C1590    1.0000 0.78063  0.85130  0.82601  Biso   1.000  C
  H2683    1.0000 0.77310  0.79359  0.79851  Biso   1.000  H
  H2684    1.0000 0.82840  0.90218  0.78890  Biso   1.000  H
  C1591    1.0000 0.82200  0.84781  0.76029  Biso   1.000  C
  H2685    1.0000 0.82840  0.90223  0.78890  Biso   1.000  H
  H2686    1.0000 0.70449  0.88312  0.85380  Biso   1.000  H
  O1344    1.0000 0.77890  0.80988  0.84377  Biso   1.000  O
  H2687    1.0000 0.80689  0.88240  0.83061  Biso   1.000  H
  O1345    1.0000 0.77890  0.80992  0.84377  Biso   1.000  O
  O1346    1.0000 0.78240  0.80420  0.75337  Biso   1.000  O
  H2688    1.0000 0.82251  0.87819  0.74840  Biso   1.000  H
  H2689    1.0000 0.86039  0.83190  0.76149  Biso   1.000  H
  H2690    1.0000 0.82251  0.87824  0.74840  Biso   1.000  H
  H2691    1.0000 0.86043  0.83190  0.76149  Biso   1.000  H
  H2692    1.0000 0.77280  0.82520  0.85691  Biso   1.000  H
  Na36     1.0000 0.68391  0.83682  0.74080  Biso   1.000  Na
  H2693    1.0000 0.79620  0.78509  0.74230  Biso   1.000  H
  H2694    1.0000 0.79620  0.78513  0.74230  Biso   1.000  H
  Na37     1.0000 0.31609  0.16322  0.74080  Biso   1.000  Na
  O1347    1.0000 0.21760  0.19580  0.75337  Biso   1.000  O
  H2695    1.0000 0.20380  0.21491  0.74230  Biso   1.000  H
  C1592    1.0000 0.17800  0.15219  0.76029  Biso   1.000  C
  C1593    1.0000 0.17800  0.15224  0.76029  Biso   1.000  C
  H2696    1.0000 0.20384  0.21491  0.74230  Biso   1.000  H
  C1594    1.0000 0.17804  0.15219  0.76029  Biso   1.000  C
  C1595    1.0000 0.17804  0.15224  0.76029  Biso   1.000  C
  C1596    1.0000 0.19652  0.12951  0.78370  Biso   1.000  C
  H2697    1.0000 0.13961  0.16810  0.76149  Biso   1.000  H
  H2698    1.0000 0.17749  0.12181  0.74840  Biso   1.000  H
  H2699    1.0000 0.17753  0.12181  0.74840  Biso   1.000  H
  C1597    1.0000 0.20022  0.17602  0.80330  Biso   1.000  C
  O1348    1.0000 0.25313  0.11019  0.78004  Biso   1.000  O
  H2700    1.0000 0.17160  0.09782  0.78890  Biso   1.000  H
  O1349    1.0000 0.25313  0.11023  0.78004  Biso   1.000  O
  H2701    1.0000 0.17164  0.09782  0.78890  Biso   1.000  H
  C1598    1.0000 0.21941  0.14870  0.82601  Biso   1.000  C
  H2702    1.0000 0.22690  0.20641  0.79851  Biso   1.000  H
  O1350    1.0000 0.14428  0.19870  0.80716  Biso   1.000  O
  O1351    1.0000 0.14432  0.19870  0.80716  Biso   1.000  O
  C1599    1.0000 0.27829  0.08422  0.80091  Biso   1.000  C
  C1600    1.0000 0.27834  0.08422  0.80091  Biso   1.000  C
  O1352    1.0000 0.22110  0.19012  0.84377  Biso   1.000  O
  C1601    1.0000 0.27880  0.12509  0.82119  Biso   1.000  C
  H2703    1.0000 0.19311  0.11760  0.83061  Biso   1.000  H
  C1602    1.0000 0.27880  0.12513  0.82119  Biso   1.000  C
  H2704    1.0000 0.19311  0.11764  0.83061  Biso   1.000  H
  O1353    1.0000 0.22114  0.19012  0.84377  Biso   1.000  O
  C1603    1.0000 0.27884  0.12509  0.82119  Biso   1.000  C
  C1604    1.0000 0.27884  0.12513  0.82119  Biso   1.000  C
  C1605    1.0000 0.13831  0.25582  0.80069  Biso   1.000  C
  O1354    1.0000 0.24639  0.03611  0.80812  Biso   1.000  O
  H2705    1.0000 0.31769  0.07239  0.79720  Biso   1.000  H
  H2706    1.0000 0.31769  0.07244  0.79720  Biso   1.000  H
  O1355    1.0000 0.24643  0.03611  0.80812  Biso   1.000  O
  H2707    1.0000 0.31773  0.07239  0.79720  Biso   1.000  H
  H2708    1.0000 0.31773  0.07244  0.79720  Biso   1.000  H
  H2709    1.0000 0.22720  0.17480  0.85691  Biso   1.000  H
  H2710    1.0000 0.22720  0.17484  0.85691  Biso   1.000  H
  H2711    1.0000 0.22724  0.17480  0.85691  Biso   1.000  H
  H2712    1.0000 0.22724  0.17484  0.85691  Biso   1.000  H
  O1356    1.0000 0.30250  0.09761  0.84235  Biso   1.000  O
  H2713    1.0000 0.30388  0.15729  0.81689  Biso   1.000  H
  H2714    1.0000 0.30388  0.15733  0.81689  Biso   1.000  H
  O1357    1.0000 0.30254  0.09761  0.84235  Biso   1.000  O
  H2715    1.0000 0.30393  0.15729  0.81689  Biso   1.000  H
  H2716    1.0000 0.30393  0.15733  0.81689  Biso   1.000  H
  O1358    1.0000 0.10320  0.25969  0.78035  Biso   1.000  O
  H2717    1.0000 0.17602  0.27270  0.79740  Biso   1.000  H
  C1606    1.0000 0.11112  0.28549  0.82179  Biso   1.000  C
  O1359    1.0000 0.10320  0.25973  0.78035  Biso   1.000  O
  H2718    1.0000 0.17602  0.27274  0.79740  Biso   1.000  H
  C1607    1.0000 0.11112  0.28553  0.82179  Biso   1.000  C
  C1608    1.0000 0.27051  0.98190  0.80309  Biso   1.000  C
  H2719    1.0000 0.29551  0.11688  0.85380  Biso   1.000  H
  H2720    1.0000 0.29551  0.11692  0.85380  Biso   1.000  H
  C1609    1.0000 0.04701  0.23772  0.78390  Biso   1.000  C
  O1360    1.0000 0.14529  0.28301  0.84208  Biso   1.000  O
  H2721    1.0000 0.10779  0.32611  0.81749  Biso   1.000  H
  C1610    1.0000 0.05299  0.26529  0.82691  Biso   1.000  C
  C1611    1.0000 0.05299  0.26533  0.82691  Biso   1.000  C
  O1361    1.0000 0.14533  0.28301  0.84208  Biso   1.000  O
  H2722    1.0000 0.10783  0.32611  0.81749  Biso   1.000  H
  C1612    1.0000 0.05303  0.26529  0.82691  Biso   1.000  C
  C1613    1.0000 0.05303  0.26533  0.82691  Biso   1.000  C
  C1614    1.0000 0.26529  0.94701  0.82691  Biso   1.000  C
  H2723    1.0000 0.31091  0.98582  0.79840  Biso   1.000  H
  C1615    1.0000 0.23772  0.95299  0.78390  Biso   1.000  C
  C1616    1.0000 0.23772  0.95303  0.78390  Biso   1.000  C
  C1617    1.0000 0.26533  0.94701  0.82691  Biso   1.000  C
  C1618    1.0000 0.01810  0.27051  0.80309  Biso   1.000  C
  C1619    1.0000 0.01881  0.23991  0.75999  Biso   1.000  C
  H2724    1.0000 0.05000  0.19740  0.78890  Biso   1.000  H
  H2725    1.0000 0.05000  0.19744  0.78890  Biso   1.000  H
  H2726    1.0000 0.14942  0.24930  0.84621  Biso   1.000  H
  H2727    1.0000 0.14942  0.24934  0.84621  Biso   1.000  H
  O1362    1.0000 0.02290  0.29892  0.84362  Biso   1.000  O
  H2728    1.0000 0.05400  0.22509  0.83219  Biso   1.000  H
  H2729    1.0000 0.05400  0.22514  0.83219  Biso   1.000  H
  O1363    1.0000 0.29892  0.97710  0.84362  Biso   1.000  O
  C1620    1.0000 0.28549  0.88888  0.82179  Biso   1.000  C
  H2730    1.0000 0.22509  0.94600  0.83219  Biso   1.000  H
  C1621    1.0000 0.28549  0.88893  0.82179  Biso   1.000  C
  C1622    1.0000 0.28553  0.88888  0.82179  Biso   1.000  C
  H2731    1.0000 0.22514  0.94600  0.83219  Biso   1.000  H
  C1623    1.0000 0.28553  0.88893  0.82179  Biso   1.000  C
  O1364    1.0000 0.25969  0.89680  0.78035  Biso   1.000  O
  C1624    1.0000 0.23991  0.98119  0.75999  Biso   1.000  C
  H2732    1.0000 0.19740  0.95000  0.78890  Biso   1.000  H
  C1625    1.0000 0.23991  0.98123  0.75999  Biso   1.000  C
  O1365    1.0000 0.25973  0.89680  0.78035  Biso   1.000  O
  H2733    1.0000 0.19744  0.95000  0.78890  Biso   1.000  H
  O1366    1.0000 0.96389  0.24639  0.80812  Biso   1.000  O
  O1367    1.0000 0.96389  0.24643  0.80812  Biso   1.000  O
  O1368    1.0000 0.96393  0.24639  0.80812  Biso   1.000  O
  O1369    1.0000 0.96393  0.24643  0.80812  Biso   1.000  O
  H2734    1.0000 0.01418  0.31091  0.79840  Biso   1.000  H
  H2735    1.0000 0.01423  0.31091  0.79840  Biso   1.000  H
  O1370    1.0000 0.01511  0.29761  0.75240  Biso   1.000  O
  H2736    1.0000 0.04091  0.21781  0.74840  Biso   1.000  H
  H2737    1.0000 0.98060  0.22328  0.76100  Biso   1.000  H
  H2738    1.0000 0.98060  0.22333  0.76100  Biso   1.000  H
  H2739    1.0000 0.03889  0.29681  0.85680  Biso   1.000  H
  H2740    1.0000 0.03893  0.29681  0.85680  Biso   1.000  H
  H2741    1.0000 0.29681  0.96111  0.85680  Biso   1.000  H
  O1371    1.0000 0.28301  0.85471  0.84208  Biso   1.000  O
  C1626    1.0000 0.25582  0.86169  0.80069  Biso   1.000  C
  H2742    1.0000 0.32611  0.89221  0.81749  Biso   1.000  H
  O1372    1.0000 0.29761  0.98489  0.75240  Biso   1.000  O
  H2743    1.0000 0.21781  0.95909  0.74840  Biso   1.000  H
  O1373    1.0000 0.29761  0.98493  0.75240  Biso   1.000  O
  H2744    1.0000 0.21781  0.95913  0.74840  Biso   1.000  H
  H2745    1.0000 0.22328  0.01940  0.76100  Biso   1.000  H
  H2746    1.0000 0.22333  0.01940  0.76100  Biso   1.000  H
  C1627    1.0000 0.91578  0.27829  0.80091  Biso   1.000  C
  C1628    1.0000 0.91578  0.27834  0.80091  Biso   1.000  C
  C1629    1.0000 0.91582  0.27829  0.80091  Biso   1.000  C
  C1630    1.0000 0.91582  0.27834  0.80091  Biso   1.000  C
  H2747    1.0000 0.99091  0.30039  0.74170  Biso   1.000  H
  H2748    1.0000 0.99091  0.30043  0.74170  Biso   1.000  H
  H2749    1.0000 0.24930  0.85058  0.84621  Biso   1.000  H
  H2750    1.0000 0.24930  0.85063  0.84621  Biso   1.000  H
  H2751    1.0000 0.24934  0.85058  0.84621  Biso   1.000  H
  H2752    1.0000 0.24934  0.85063  0.84621  Biso   1.000  H
  O1374    1.0000 0.19870  0.85572  0.80716  Biso   1.000  O
  H2753    1.0000 0.27270  0.82398  0.79740  Biso   1.000  H
  H2754    1.0000 0.27270  0.82402  0.79740  Biso   1.000  H
  H2755    1.0000 0.27274  0.82398  0.79740  Biso   1.000  H
  H2756    1.0000 0.27274  0.82402  0.79740  Biso   1.000  H
  H2757    1.0000 0.30039  0.00909  0.74170  Biso   1.000  H
  H2758    1.0000 0.30039  0.00913  0.74170  Biso   1.000  H
  H2759    1.0000 0.30043  0.00909  0.74170  Biso   1.000  H
  H2760    1.0000 0.30043  0.00913  0.74170  Biso   1.000  H
  O1375    1.0000 0.88981  0.25313  0.78004  Biso   1.000  O
  H2761    1.0000 0.92761  0.31769  0.79720  Biso   1.000  H
  C1631    1.0000 0.87491  0.27880  0.82119  Biso   1.000  C
  H2762    1.0000 0.92761  0.31773  0.79720  Biso   1.000  H
  C1632    1.0000 0.87491  0.27884  0.82119  Biso   1.000  C
  C1633    1.0000 0.17602  0.79978  0.80330  Biso   1.000  C
  C1634    1.0000 0.17602  0.79982  0.80330  Biso   1.000  C
  C1635    1.0000 0.87049  0.19652  0.78370  Biso   1.000  C
  C1636    1.0000 0.87053  0.19652  0.78370  Biso   1.000  C
  O1376    1.0000 0.90239  0.30250  0.84235  Biso   1.000  O
  H2763    1.0000 0.84271  0.30388  0.81689  Biso   1.000  H
  C1637    1.0000 0.85130  0.21941  0.82601  Biso   1.000  C
  O1377    1.0000 0.90239  0.30254  0.84235  Biso   1.000  O
  H2764    1.0000 0.84271  0.30393  0.81689  Biso   1.000  H
  C1638    1.0000 0.14870  0.78059  0.82601  Biso   1.000  C
  H2765    1.0000 0.20641  0.77310  0.79851  Biso   1.000  H
  C1639    1.0000 0.12951  0.80348  0.78370  Biso   1.000  C
  C1640    1.0000 0.14870  0.78063  0.82601  Biso   1.000  C
  C1641    1.0000 0.12951  0.80353  0.78370  Biso   1.000  C
  C1642    1.0000 0.82398  0.20022  0.80330  Biso   1.000  C
  H2766    1.0000 0.90218  0.17160  0.78890  Biso   1.000  H
  C1643    1.0000 0.84781  0.17800  0.76029  Biso   1.000  C
  H2767    1.0000 0.90218  0.17164  0.78890  Biso   1.000  H
  C1644    1.0000 0.84781  0.17804  0.76029  Biso   1.000  C
  C1645    1.0000 0.82402  0.20022  0.80330  Biso   1.000  C
  H2768    1.0000 0.90223  0.17160  0.78890  Biso   1.000  H
  H2769    1.0000 0.90223  0.17164  0.78890  Biso   1.000  H
  H2770    1.0000 0.88312  0.29551  0.85380  Biso   1.000  H
  O1378    1.0000 0.80988  0.22110  0.84377  Biso   1.000  O
  H2771    1.0000 0.88240  0.19311  0.83061  Biso   1.000  H
  O1379    1.0000 0.80988  0.22114  0.84377  Biso   1.000  O
  O1380    1.0000 0.80992  0.22110  0.84377  Biso   1.000  O
  O1381    1.0000 0.80992  0.22114  0.84377  Biso   1.000  O
  O1382    1.0000 0.19012  0.77890  0.84377  Biso   1.000  O
  C1646    1.0000 0.12509  0.72120  0.82119  Biso   1.000  C
  H2772    1.0000 0.11760  0.80689  0.83061  Biso   1.000  H
  C1647    1.0000 0.12513  0.72120  0.82119  Biso   1.000  C
  H2773    1.0000 0.11764  0.80689  0.83061  Biso   1.000  H
  O1383    1.0000 0.11019  0.74687  0.78004  Biso   1.000  O
  H2774    1.0000 0.09782  0.82840  0.78890  Biso   1.000  H
  C1648    1.0000 0.15219  0.82200  0.76029  Biso   1.000  C
  O1384    1.0000 0.11019  0.74692  0.78004  Biso   1.000  O
  O1385    1.0000 0.11023  0.74687  0.78004  Biso   1.000  O
  C1649    1.0000 0.15224  0.82200  0.76029  Biso   1.000  C
  O1386    1.0000 0.11023  0.74692  0.78004  Biso   1.000  O
  O1387    1.0000 0.80130  0.14428  0.80716  Biso   1.000  O
  H2775    1.0000 0.79359  0.22690  0.79851  Biso   1.000  H
  O1388    1.0000 0.80130  0.14432  0.80716  Biso   1.000  O
  O1389    1.0000 0.80420  0.21760  0.75337  Biso   1.000  O
  H2776    1.0000 0.87819  0.17749  0.74840  Biso   1.000  H
  H2777    1.0000 0.83190  0.13961  0.76149  Biso   1.000  H
  H2778    1.0000 0.87819  0.17753  0.74840  Biso   1.000  H
  H2779    1.0000 0.87824  0.17749  0.74840  Biso   1.000  H
  H2780    1.0000 0.87824  0.17753  0.74840  Biso   1.000  H
  H2781    1.0000 0.82520  0.22720  0.85691  Biso   1.000  H
  H2782    1.0000 0.82520  0.22724  0.85691  Biso   1.000  H
  H2783    1.0000 0.17480  0.77280  0.85691  Biso   1.000  H
  H2784    1.0000 0.17484  0.77280  0.85691  Biso   1.000  H
  O1390    1.0000 0.09761  0.69750  0.84235  Biso   1.000  O
  C1650    1.0000 0.08422  0.72171  0.80091  Biso   1.000  C
  H2785    1.0000 0.15729  0.69612  0.81689  Biso   1.000  H
  H2786    1.0000 0.15733  0.69612  0.81689  Biso   1.000  H
  O1391    1.0000 0.19580  0.78240  0.75337  Biso   1.000  O
  H2787    1.0000 0.12181  0.82251  0.74840  Biso   1.000  H
  H2788    1.0000 0.16810  0.86039  0.76149  Biso   1.000  H
  H2789    1.0000 0.16810  0.86043  0.76149  Biso   1.000  H
  C1651    1.0000 0.74418  0.13831  0.80069  Biso   1.000  C
  C1652    1.0000 0.74422  0.13831  0.80069  Biso   1.000  C
  Na38     1.0000 0.83682  0.31609  0.74080  Biso   1.000  Na
  H2790    1.0000 0.78509  0.20380  0.74230  Biso   1.000  H
  H2791    1.0000 0.78509  0.20384  0.74230  Biso   1.000  H
  H2792    1.0000 0.78513  0.20380  0.74230  Biso   1.000  H
  H2793    1.0000 0.78513  0.20384  0.74230  Biso   1.000  H
  H2794    1.0000 0.11688  0.70449  0.85380  Biso   1.000  H
  H2795    1.0000 0.11692  0.70449  0.85380  Biso   1.000  H
  O1392    1.0000 0.03611  0.75361  0.80812  Biso   1.000  O
  H2796    1.0000 0.07239  0.68231  0.79720  Biso   1.000  H
  H2797    1.0000 0.07244  0.68231  0.79720  Biso   1.000  H
  Na39     1.0000 0.16322  0.68391  0.74080  Biso   1.000  Na
  H2798    1.0000 0.21491  0.79620  0.74230  Biso   1.000  H
  O1393    1.0000 0.74031  0.10320  0.78035  Biso   1.000  O
  H2799    1.0000 0.72730  0.17602  0.79740  Biso   1.000  H
  C1653    1.0000 0.71451  0.11112  0.82179  Biso   1.000  C
  C1654    1.0000 0.98190  0.72949  0.80309  Biso   1.000  C
  C1655    1.0000 0.76228  0.04701  0.78390  Biso   1.000  C
  C1656    1.0000 0.76232  0.04701  0.78390  Biso   1.000  C
  O1394    1.0000 0.71699  0.14529  0.84208  Biso   1.000  O
  H2800    1.0000 0.67389  0.10779  0.81749  Biso   1.000  H
  C1657    1.0000 0.73471  0.05299  0.82691  Biso   1.000  C
  O1395    1.0000 0.71699  0.14533  0.84208  Biso   1.000  O
  H2801    1.0000 0.67389  0.10783  0.81749  Biso   1.000  H
  C1658    1.0000 0.73471  0.05303  0.82691  Biso   1.000  C
  C1659    1.0000 0.94701  0.73471  0.82691  Biso   1.000  C
  H2802    1.0000 0.98582  0.68909  0.79840  Biso   1.000  H
  C1660    1.0000 0.95299  0.76228  0.78390  Biso   1.000  C
  H2803    1.0000 0.98582  0.68913  0.79840  Biso   1.000  H
  C1661    1.0000 0.95299  0.76232  0.78390  Biso   1.000  C
  C1662    1.0000 0.95303  0.76228  0.78390  Biso   1.000  C
  C1663    1.0000 0.95303  0.76232  0.78390  Biso   1.000  C
  C1664    1.0000 0.72949  0.01810  0.80309  Biso   1.000  C
  C1665    1.0000 0.76009  0.01881  0.75999  Biso   1.000  C
  H2804    1.0000 0.80260  0.05000  0.78890  Biso   1.000  H
  C1666    1.0000 0.76013  0.01881  0.75999  Biso   1.000  C
  H2805    1.0000 0.75070  0.14942  0.84621  Biso   1.000  H
  O1396    1.0000 0.70108  0.02290  0.84362  Biso   1.000  O
  H2806    1.0000 0.77491  0.05400  0.83219  Biso   1.000  H
  O1397    1.0000 0.70112  0.02290  0.84362  Biso   1.000  O
  O1398    1.0000 0.97710  0.70108  0.84362  Biso   1.000  O
  C1667    1.0000 0.88888  0.71451  0.82179  Biso   1.000  C
  H2807    1.0000 0.94600  0.77491  0.83219  Biso   1.000  H
  O1399    1.0000 0.97710  0.70112  0.84362  Biso   1.000  O
  C1668    1.0000 0.88893  0.71451  0.82179  Biso   1.000  C
  O1400    1.0000 0.89680  0.74031  0.78035  Biso   1.000  O
  C1669    1.0000 0.98119  0.76009  0.75999  Biso   1.000  C
  H2808    1.0000 0.95000  0.80260  0.78890  Biso   1.000  H
  C1670    1.0000 0.98119  0.76013  0.75999  Biso   1.000  C
  C1671    1.0000 0.98123  0.76009  0.75999  Biso   1.000  C
  C1672    1.0000 0.98123  0.76013  0.75999  Biso   1.000  C
  O1401    1.0000 0.75361  0.96389  0.80812  Biso   1.000  O
  O1402    1.0000 0.75361  0.96393  0.80812  Biso   1.000  O
  H2809    1.0000 0.68909  0.01418  0.79840  Biso   1.000  H
  H2810    1.0000 0.68909  0.01423  0.79840  Biso   1.000  H
  H2811    1.0000 0.68913  0.01418  0.79840  Biso   1.000  H
  H2812    1.0000 0.68913  0.01423  0.79840  Biso   1.000  H
  H2813    1.0000 0.77672  0.98060  0.76100  Biso   1.000  H
  O1403    1.0000 0.70239  0.01511  0.75240  Biso   1.000  O
  H2814    1.0000 0.78219  0.04091  0.74840  Biso   1.000  H
  O1404    1.0000 0.70243  0.01511  0.75240  Biso   1.000  O
  H2815    1.0000 0.78223  0.04091  0.74840  Biso   1.000  H
  H2816    1.0000 0.70319  0.03889  0.85680  Biso   1.000  H
  H2817    1.0000 0.70319  0.03893  0.85680  Biso   1.000  H
  H2818    1.0000 0.70323  0.03889  0.85680  Biso   1.000  H
  H2819    1.0000 0.70323  0.03893  0.85680  Biso   1.000  H
  H2820    1.0000 0.96111  0.70319  0.85680  Biso   1.000  H
  H2821    1.0000 0.96111  0.70323  0.85680  Biso   1.000  H
  O1405    1.0000 0.85471  0.71699  0.84208  Biso   1.000  O
  C1673    1.0000 0.86169  0.74418  0.80069  Biso   1.000  C
  H2822    1.0000 0.89221  0.67389  0.81749  Biso   1.000  H
  C1674    1.0000 0.86169  0.74422  0.80069  Biso   1.000  C
  O1406    1.0000 0.98489  0.70239  0.75240  Biso   1.000  O
  H2823    1.0000 0.95909  0.78219  0.74840  Biso   1.000  H
  O1407    1.0000 0.98489  0.70243  0.75240  Biso   1.000  O
  H2824    1.0000 0.95909  0.78223  0.74840  Biso   1.000  H
  O1408    1.0000 0.98493  0.70239  0.75240  Biso   1.000  O
  H2825    1.0000 0.95913  0.78219  0.74840  Biso   1.000  H
  O1409    1.0000 0.98493  0.70243  0.75240  Biso   1.000  O
  H2826    1.0000 0.95913  0.78223  0.74840  Biso   1.000  H
  H2827    1.0000 0.01940  0.77672  0.76100  Biso   1.000  H
  C1675    1.0000 0.72171  0.91578  0.80091  Biso   1.000  C
  C1676    1.0000 0.72171  0.91582  0.80091  Biso   1.000  C
  H2828    1.0000 0.69961  0.99091  0.74170  Biso   1.000  H
  H2829    1.0000 0.85058  0.75070  0.84621  Biso   1.000  H
  H2830    1.0000 0.85063  0.75070  0.84621  Biso   1.000  H
  O1410    1.0000 0.85572  0.80130  0.80716  Biso   1.000  O
  H2831    1.0000 0.82398  0.72730  0.79740  Biso   1.000  H
  H2832    1.0000 0.82402  0.72730  0.79740  Biso   1.000  H
  H2833    1.0000 0.00909  0.69961  0.74170  Biso   1.000  H
  H2834    1.0000 0.00913  0.69961  0.74170  Biso   1.000  H
  O1411    1.0000 0.74687  0.88981  0.78004  Biso   1.000  O
  H2835    1.0000 0.68231  0.92761  0.79720  Biso   1.000  H
  C1677    1.0000 0.72120  0.87491  0.82119  Biso   1.000  C
  O1412    1.0000 0.74692  0.88981  0.78004  Biso   1.000  O
  C1678    1.0000 0.79978  0.82398  0.80330  Biso   1.000  C
  C1679    1.0000 0.79978  0.82402  0.80330  Biso   1.000  C
  C1680    1.0000 0.79982  0.82398  0.80330  Biso   1.000  C
  C1681    1.0000 0.79982  0.82402  0.80330  Biso   1.000  C
  C1682    1.0000 0.80348  0.87049  0.78370  Biso   1.000  C
  C1683    1.0000 0.80348  0.87053  0.78370  Biso   1.000  C
  C1684    1.0000 0.80353  0.87049  0.78370  Biso   1.000  C
  C1685    1.0000 0.80353  0.87053  0.78370  Biso   1.000  C
  O1413    1.0000 0.69750  0.90239  0.84235  Biso   1.000  O
  H2836    1.0000 0.69612  0.84271  0.81689  Biso   1.000  H
  C1686    1.0000 0.78059  0.85130  0.82601  Biso   1.000  C
  C1687    1.0000 0.78063  0.85130  0.82601  Biso   1.000  C
  H2837    1.0000 0.77310  0.79359  0.79851  Biso   1.000  H
  H2838    1.0000 0.82840  0.90218  0.78890  Biso   1.000  H
  C1688    1.0000 0.82200  0.84781  0.76029  Biso   1.000  C
  H2839    1.0000 0.82840  0.90223  0.78890  Biso   1.000  H
  H2840    1.0000 0.70449  0.88312  0.85380  Biso   1.000  H
  O1414    1.0000 0.77890  0.80988  0.84377  Biso   1.000  O
  H2841    1.0000 0.80689  0.88240  0.83061  Biso   1.000  H
  O1415    1.0000 0.77890  0.80992  0.84377  Biso   1.000  O
  O1416    1.0000 0.78240  0.80420  0.75337  Biso   1.000  O
  H2842    1.0000 0.82251  0.87819  0.74840  Biso   1.000  H
  H2843    1.0000 0.86039  0.83190  0.76149  Biso   1.000  H
  H2844    1.0000 0.82251  0.87824  0.74840  Biso   1.000  H
  H2845    1.0000 0.86043  0.83190  0.76149  Biso   1.000  H
  H2846    1.0000 0.77280  0.82520  0.85691  Biso   1.000  H
  Na40     1.0000 0.68391  0.83682  0.74080  Biso   1.000  Na
  H2847    1.0000 0.79620  0.78509  0.74230  Biso   1.000  H
  H2848    1.0000 0.79620  0.78513  0.74230  Biso   1.000  H
  O1417    1.0000 0.32830  0.25801  0.21274  Biso   1.000  O
  H2849    1.0000 0.34429  0.22640  0.21270  Biso   1.000  H
  C1689    1.0000 0.36681  0.30052  0.20399  Biso   1.000  C
  C1690    1.0000 0.39093  0.28722  0.18030  Biso   1.000  C
  H2850    1.0000 0.39800  0.30481  0.21540  Biso   1.000  H
  H2851    1.0000 0.34669  0.33692  0.20310  Biso   1.000  H
  O1418    1.0000 0.41689  0.23221  0.18335  Biso   1.000  O
  C1691    1.0000 0.34522  0.27960  0.16100  Biso   1.000  C
  H2852    1.0000 0.41942  0.31601  0.17549  Biso   1.000  H
  C1692    1.0000 0.44632  0.21331  0.16321  Biso   1.000  C
  O1419    1.0000 0.31929  0.33360  0.15591  Biso   1.000  O
  C1693    1.0000 0.37539  0.26281  0.13770  Biso   1.000  C
  H2853    1.0000 0.31651  0.25102  0.16569  Biso   1.000  H
  O1420    1.0000 0.48950  0.25119  0.15640  Biso   1.000  O
  H2854    1.0000 0.46319  0.17560  0.16650  Biso   1.000  H
  C1694    1.0000 0.40570  0.20838  0.14200  Biso   1.000  C
  C1695    1.0000 0.26222  0.33730  0.16210  Biso   1.000  C
  O1421    1.0000 0.33389  0.25599  0.11905  Biso   1.000  O
  H2855    1.0000 0.40301  0.29260  0.13321  Biso   1.000  H
  C1696    1.0000 0.54619  0.23570  0.16120  Biso   1.000  C
  O1422    1.0000 0.43790  0.19302  0.12106  Biso   1.000  O
  H2856    1.0000 0.37750  0.17821  0.14530  Biso   1.000  H
  O1423    1.0000 0.25481  0.36900  0.18342  Biso   1.000  O
  H2857    1.0000 0.24850  0.29820  0.16509  Biso   1.000  H
  C1697    1.0000 0.22791  0.36079  0.14211  Biso   1.000  C
  H2858    1.0000 0.30919  0.28162  0.12240  Biso   1.000  H
  C1698    1.0000 0.57793  0.24189  0.13781  Biso   1.000  C
  H2859    1.0000 0.54733  0.19542  0.16620  Biso   1.000  H
  C1699    1.0000 0.57300  0.27072  0.17949  Biso   1.000  C
  H2860    1.0000 0.42670  0.15889  0.11900  Biso   1.000  H
  C1700    1.0000 0.27072  0.42700  0.17949  Biso   1.000  C
  O1424    1.0000 0.23852  0.32880  0.12087  Biso   1.000  O
  H2861    1.0000 0.18709  0.35759  0.14611  Biso   1.000  H
  C1701    1.0000 0.24189  0.42211  0.13781  Biso   1.000  C
  O1425    1.0000 0.55432  0.20300  0.12115  Biso   1.000  O
  C1702    1.0000 0.63921  0.22791  0.14211  Biso   1.000  C
  H2862    1.0000 0.57431  0.28132  0.13180  Biso   1.000  H
  O1426    1.0000 0.63100  0.25481  0.18342  Biso   1.000  O
  H2863    1.0000 0.57199  0.31091  0.17429  Biso   1.000  H
  C1703    1.0000 0.54560  0.26651  0.20399  Biso   1.000  C
  C1704    1.0000 0.23570  0.45381  0.16120  Biso   1.000  C
  H2864    1.0000 0.31091  0.42801  0.17429  Biso   1.000  H
  C1705    1.0000 0.26651  0.45440  0.20399  Biso   1.000  C
  H2865    1.0000 0.21512  0.30468  0.11870  Biso   1.000  H
  O1427    1.0000 0.20300  0.44573  0.12115  Biso   1.000  O
  H2866    1.0000 0.28132  0.42569  0.13180  Biso   1.000  H
  H2867    1.0000 0.56202  0.16970  0.12071  Biso   1.000  H
  O1428    1.0000 0.67120  0.23852  0.12087  Biso   1.000  O
  C1706    1.0000 0.66270  0.26222  0.16210  Biso   1.000  C
  H2868    1.0000 0.64241  0.18709  0.14611  Biso   1.000  H
  O1429    1.0000 0.55091  0.20321  0.21210  Biso   1.000  O
  H2869    1.0000 0.50549  0.27779  0.20320  Biso   1.000  H
  H2870    1.0000 0.56509  0.29159  0.21529  Biso   1.000  H
  H2871    1.0000 0.19542  0.45271  0.16620  Biso   1.000  H
  O1430    1.0000 0.25119  0.51050  0.15640  Biso   1.000  O
  O1431    1.0000 0.20321  0.44909  0.21210  Biso   1.000  O
  H2872    1.0000 0.27779  0.49451  0.20320  Biso   1.000  H
  H2873    1.0000 0.29159  0.43491  0.21529  Biso   1.000  H
  H2874    1.0000 0.16970  0.43802  0.12071  Biso   1.000  H
  H2875    1.0000 0.69532  0.21512  0.11870  Biso   1.000  H
  O1432    1.0000 0.66640  0.31929  0.15591  Biso   1.000  O
  H2876    1.0000 0.70180  0.24850  0.16509  Biso   1.000  H
  H2877    1.0000 0.54859  0.18199  0.20029  Biso   1.000  H
  C1707    1.0000 0.21331  0.55373  0.16321  Biso   1.000  C
  H2878    1.0000 0.18199  0.45141  0.20029  Biso   1.000  H
  C1708    1.0000 0.72040  0.34522  0.16100  Biso   1.000  C
  O1433    1.0000 0.23221  0.58311  0.18335  Biso   1.000  O
  H2879    1.0000 0.17560  0.53681  0.16650  Biso   1.000  H
  C1709    1.0000 0.20838  0.59430  0.14200  Biso   1.000  C
  C1710    1.0000 0.73719  0.37539  0.13770  Biso   1.000  C
  H2880    1.0000 0.74902  0.31651  0.16569  Biso   1.000  H
  C1711    1.0000 0.71282  0.39093  0.18030  Biso   1.000  C
  C1712    1.0000 0.28722  0.60912  0.18030  Biso   1.000  C
  O1434    1.0000 0.19302  0.56210  0.12106  Biso   1.000  O
  H2881    1.0000 0.17821  0.62250  0.14530  Biso   1.000  H
  C1713    1.0000 0.26281  0.62461  0.13770  Biso   1.000  C
  O1435    1.0000 0.74401  0.33389  0.11905  Biso   1.000  O
  C1714    1.0000 0.79162  0.40570  0.14200  Biso   1.000  C
  H2882    1.0000 0.70740  0.40301  0.13321  Biso   1.000  H
  O1436    1.0000 0.76779  0.41689  0.18335  Biso   1.000  O
  H2883    1.0000 0.68399  0.41942  0.17549  Biso   1.000  H
  C1715    1.0000 0.69952  0.36681  0.20399  Biso   1.000  C
  C1716    1.0000 0.27960  0.65483  0.16100  Biso   1.000  C
  H2884    1.0000 0.31601  0.58062  0.17549  Biso   1.000  H
  C1717    1.0000 0.30052  0.63319  0.20399  Biso   1.000  C
  H2885    1.0000 0.15889  0.57330  0.11900  Biso   1.000  H
  O1437    1.0000 0.25599  0.66611  0.11905  Biso   1.000  O
  H2886    1.0000 0.29260  0.59699  0.13321  Biso   1.000  H
  H2887    1.0000 0.71842  0.30919  0.12240  Biso   1.000  H
  O1438    1.0000 0.80702  0.43790  0.12106  Biso   1.000  O
  C1718    1.0000 0.78673  0.44632  0.16321  Biso   1.000  C
  H2888    1.0000 0.82179  0.37750  0.14530  Biso   1.000  H
  O1439    1.0000 0.74199  0.32830  0.21274  Biso   1.000  O
  H2889    1.0000 0.69523  0.39800  0.21540  Biso   1.000  H
  H2890    1.0000 0.66312  0.34669  0.20310  Biso   1.000  H
  O1440    1.0000 0.33360  0.68071  0.15591  Biso   1.000  O
  H2891    1.0000 0.25102  0.68353  0.16569  Biso   1.000  H
  O1441    1.0000 0.25801  0.67170  0.21274  Biso   1.000  O
  H2892    1.0000 0.30481  0.60200  0.21540  Biso   1.000  H
  H2893    1.0000 0.33692  0.65331  0.20310  Biso   1.000  H
  H2894    1.0000 0.28162  0.69081  0.12240  Biso   1.000  H
  H2895    1.0000 0.84111  0.42670  0.11900  Biso   1.000  H
  O1442    1.0000 0.74881  0.48950  0.15640  Biso   1.000  O
  H2896    1.0000 0.82440  0.46319  0.16650  Biso   1.000  H
  H2897    1.0000 0.77360  0.34429  0.21270  Biso   1.000  H
  C1719    1.0000 0.33730  0.73783  0.16210  Biso   1.000  C
  H2898    1.0000 0.22640  0.65571  0.21270  Biso   1.000  H
  C1720    1.0000 0.76430  0.54619  0.16120  Biso   1.000  C
  O1443    1.0000 0.36900  0.74523  0.18342  Biso   1.000  O
  H2899    1.0000 0.29820  0.75150  0.16509  Biso   1.000  H
  C1721    1.0000 0.36079  0.77213  0.14211  Biso   1.000  C
  C1722    1.0000 0.75811  0.57793  0.13781  Biso   1.000  C
  H2900    1.0000 0.80462  0.54733  0.16620  Biso   1.000  H
  C1723    1.0000 0.72932  0.57300  0.17949  Biso   1.000  C
  C1724    1.0000 0.42700  0.72932  0.17949  Biso   1.000  C
  O1444    1.0000 0.32880  0.76152  0.12087  Biso   1.000  O
  H2901    1.0000 0.35759  0.81291  0.14611  Biso   1.000  H
  C1725    1.0000 0.42211  0.75811  0.13781  Biso   1.000  C
  O1445    1.0000 0.79700  0.55432  0.12115  Biso   1.000  O
  C1726    1.0000 0.77213  0.63921  0.14211  Biso   1.000  C
  H2902    1.0000 0.71872  0.57431  0.13180  Biso   1.000  H
  O1446    1.0000 0.74523  0.63100  0.18342  Biso   1.000  O
  H2903    1.0000 0.68913  0.57199  0.17429  Biso   1.000  H
  C1727    1.0000 0.73353  0.54560  0.20399  Biso   1.000  C
  C1728    1.0000 0.45381  0.76430  0.16120  Biso   1.000  C
  H2904    1.0000 0.42801  0.68913  0.17429  Biso   1.000  H
  C1729    1.0000 0.45440  0.73353  0.20399  Biso   1.000  C
  H2905    1.0000 0.30468  0.78492  0.11870  Biso   1.000  H
  O1447    1.0000 0.44573  0.79700  0.12115  Biso   1.000  O
  H2906    1.0000 0.42569  0.71872  0.13180  Biso   1.000  H
  H2907    1.0000 0.83030  0.56202  0.12071  Biso   1.000  H
  O1448    1.0000 0.76152  0.67120  0.12087  Biso   1.000  O
  C1730    1.0000 0.73783  0.66270  0.16210  Biso   1.000  C
  H2908    1.0000 0.81291  0.64241  0.14611  Biso   1.000  H
  O1449    1.0000 0.79679  0.55091  0.21210  Biso   1.000  O
  H2909    1.0000 0.72221  0.50549  0.20320  Biso   1.000  H
  H2910    1.0000 0.70841  0.56509  0.21529  Biso   1.000  H
  H2911    1.0000 0.45271  0.80462  0.16620  Biso   1.000  H
  O1450    1.0000 0.51050  0.74881  0.15640  Biso   1.000  O
  O1451    1.0000 0.44909  0.79679  0.21210  Biso   1.000  O
  H2912    1.0000 0.49451  0.72221  0.20320  Biso   1.000  H
  H2913    1.0000 0.43491  0.70841  0.21529  Biso   1.000  H
  H2914    1.0000 0.43802  0.83030  0.12071  Biso   1.000  H
  H2915    1.0000 0.78492  0.69532  0.11870  Biso   1.000  H
  O1452    1.0000 0.68071  0.66640  0.15591  Biso   1.000  O
  H2916    1.0000 0.75150  0.70180  0.16509  Biso   1.000  H
  H2917    1.0000 0.81801  0.54859  0.20029  Biso   1.000  H
  C1731    1.0000 0.55373  0.78673  0.16321  Biso   1.000  C
  H2918    1.0000 0.45141  0.81801  0.20029  Biso   1.000  H
  C1732    1.0000 0.65483  0.72040  0.16100  Biso   1.000  C
  O1453    1.0000 0.58311  0.76779  0.18335  Biso   1.000  O
  H2919    1.0000 0.53681  0.82440  0.16650  Biso   1.000  H
  C1733    1.0000 0.59430  0.79162  0.14200  Biso   1.000  C
  C1734    1.0000 0.62461  0.73719  0.13770  Biso   1.000  C
  H2920    1.0000 0.68353  0.74902  0.16569  Biso   1.000  H
  C1735    1.0000 0.60912  0.71282  0.18030  Biso   1.000  C
  O1454    1.0000 0.56210  0.80702  0.12106  Biso   1.000  O
  H2921    1.0000 0.62250  0.82179  0.14530  Biso   1.000  H
  O1455    1.0000 0.66611  0.74401  0.11905  Biso   1.000  O
  H2922    1.0000 0.59699  0.70740  0.13321  Biso   1.000  H
  H2923    1.0000 0.58062  0.68399  0.17549  Biso   1.000  H
  C1736    1.0000 0.63319  0.69952  0.20399  Biso   1.000  C
  H2924    1.0000 0.57330  0.84111  0.11900  Biso   1.000  H
  H2925    1.0000 0.69081  0.71842  0.12240  Biso   1.000  H
  O1456    1.0000 0.67170  0.74199  0.21274  Biso   1.000  O
  H2926    1.0000 0.60200  0.69523  0.21540  Biso   1.000  H
  H2927    1.0000 0.65331  0.66312  0.20310  Biso   1.000  H
  H2928    1.0000 0.65571  0.77360  0.21270  Biso   1.000  H
  O1457    1.0000 0.25801  0.32830  0.78726  Biso   1.000  O
  H2929    1.0000 0.22640  0.34429  0.78730  Biso   1.000  H
  C1737    1.0000 0.30052  0.36681  0.79601  Biso   1.000  C
  C1738    1.0000 0.28722  0.39093  0.81970  Biso   1.000  C
  H2930    1.0000 0.30481  0.39800  0.78460  Biso   1.000  H
  H2931    1.0000 0.33692  0.34669  0.79690  Biso   1.000  H
  O1458    1.0000 0.23221  0.41689  0.81665  Biso   1.000  O
  C1739    1.0000 0.27960  0.34522  0.83900  Biso   1.000  C
  H2932    1.0000 0.31601  0.41942  0.82451  Biso   1.000  H
  C1740    1.0000 0.21331  0.44632  0.83679  Biso   1.000  C
  O1459    1.0000 0.33360  0.31929  0.84409  Biso   1.000  O
  C1741    1.0000 0.26281  0.37539  0.86230  Biso   1.000  C
  H2933    1.0000 0.25102  0.31651  0.83431  Biso   1.000  H
  O1460    1.0000 0.25119  0.48950  0.84360  Biso   1.000  O
  H2934    1.0000 0.17560  0.46319  0.83350  Biso   1.000  H
  C1742    1.0000 0.20838  0.40570  0.85800  Biso   1.000  C
  C1743    1.0000 0.33730  0.26222  0.83790  Biso   1.000  C
  O1461    1.0000 0.25599  0.33389  0.88095  Biso   1.000  O
  H2935    1.0000 0.29260  0.40301  0.86679  Biso   1.000  H
  C1744    1.0000 0.23570  0.54619  0.83880  Biso   1.000  C
  O1462    1.0000 0.19302  0.43790  0.87894  Biso   1.000  O
  H2936    1.0000 0.17821  0.37750  0.85470  Biso   1.000  H
  O1463    1.0000 0.36900  0.25481  0.81658  Biso   1.000  O
  H2937    1.0000 0.29820  0.24850  0.83491  Biso   1.000  H
  C1745    1.0000 0.36079  0.22791  0.85789  Biso   1.000  C
  H2938    1.0000 0.28162  0.30919  0.87760  Biso   1.000  H
  C1746    1.0000 0.24189  0.57793  0.86219  Biso   1.000  C
  H2939    1.0000 0.19542  0.54733  0.83380  Biso   1.000  H
  C1747    1.0000 0.27072  0.57300  0.82051  Biso   1.000  C
  H2940    1.0000 0.15889  0.42670  0.88100  Biso   1.000  H
  C1748    1.0000 0.42700  0.27072  0.82051  Biso   1.000  C
  O1464    1.0000 0.32880  0.23852  0.87913  Biso   1.000  O
  H2941    1.0000 0.35759  0.18709  0.85389  Biso   1.000  H
  C1749    1.0000 0.42211  0.24189  0.86219  Biso   1.000  C
  O1465    1.0000 0.20300  0.55432  0.87885  Biso   1.000  O
  C1750    1.0000 0.22791  0.63921  0.85789  Biso   1.000  C
  H2942    1.0000 0.28132  0.57431  0.86820  Biso   1.000  H
  O1466    1.0000 0.25481  0.63100  0.81658  Biso   1.000  O
  H2943    1.0000 0.31091  0.57199  0.82571  Biso   1.000  H
  C1751    1.0000 0.26651  0.54560  0.79601  Biso   1.000  C
  C1752    1.0000 0.45381  0.23570  0.83880  Biso   1.000  C
  H2944    1.0000 0.42801  0.31091  0.82571  Biso   1.000  H
  C1753    1.0000 0.45440  0.26651  0.79601  Biso   1.000  C
  H2945    1.0000 0.30468  0.21512  0.88130  Biso   1.000  H
  O1467    1.0000 0.44573  0.20300  0.87885  Biso   1.000  O
  H2946    1.0000 0.42569  0.28132  0.86820  Biso   1.000  H
  H2947    1.0000 0.16970  0.56202  0.87929  Biso   1.000  H
  O1468    1.0000 0.23852  0.67120  0.87913  Biso   1.000  O
  C1754    1.0000 0.26222  0.66270  0.83790  Biso   1.000  C
  H2948    1.0000 0.18709  0.64241  0.85389  Biso   1.000  H
  O1469    1.0000 0.20321  0.55091  0.78790  Biso   1.000  O
  H2949    1.0000 0.27779  0.50549  0.79680  Biso   1.000  H
  H2950    1.0000 0.29159  0.56509  0.78471  Biso   1.000  H
  H2951    1.0000 0.45271  0.19542  0.83380  Biso   1.000  H
  O1470    1.0000 0.51050  0.25119  0.84360  Biso   1.000  O
  O1471    1.0000 0.44909  0.20321  0.78790  Biso   1.000  O
  H2952    1.0000 0.49451  0.27779  0.79680  Biso   1.000  H
  H2953    1.0000 0.43491  0.29159  0.78471  Biso   1.000  H
  H2954    1.0000 0.43802  0.16970  0.87929  Biso   1.000  H
  H2955    1.0000 0.21512  0.69532  0.88130  Biso   1.000  H
  O1472    1.0000 0.31929  0.66640  0.84409  Biso   1.000  O
  H2956    1.0000 0.24850  0.70180  0.83491  Biso   1.000  H
  H2957    1.0000 0.18199  0.54859  0.79971  Biso   1.000  H
  C1755    1.0000 0.55373  0.21331  0.83679  Biso   1.000  C
  H2958    1.0000 0.45141  0.18199  0.79971  Biso   1.000  H
  C1756    1.0000 0.34522  0.72040  0.83900  Biso   1.000  C
  O1473    1.0000 0.58311  0.23221  0.81665  Biso   1.000  O
  H2959    1.0000 0.53681  0.17560  0.83350  Biso   1.000  H
  C1757    1.0000 0.59430  0.20838  0.85800  Biso   1.000  C
  C1758    1.0000 0.37539  0.73719  0.86230  Biso   1.000  C
  H2960    1.0000 0.31651  0.74902  0.83431  Biso   1.000  H
  C1759    1.0000 0.39093  0.71282  0.81970  Biso   1.000  C
  C1760    1.0000 0.60912  0.28722  0.81970  Biso   1.000  C
  O1474    1.0000 0.56210  0.19302  0.87894  Biso   1.000  O
  H2961    1.0000 0.62250  0.17821  0.85470  Biso   1.000  H
  C1761    1.0000 0.62461  0.26281  0.86230  Biso   1.000  C
  O1475    1.0000 0.33389  0.74401  0.88095  Biso   1.000  O
  C1762    1.0000 0.40570  0.79162  0.85800  Biso   1.000  C
  H2962    1.0000 0.40301  0.70740  0.86679  Biso   1.000  H
  O1476    1.0000 0.41689  0.76779  0.81665  Biso   1.000  O
  H2963    1.0000 0.41942  0.68399  0.82451  Biso   1.000  H
  C1763    1.0000 0.36681  0.69952  0.79601  Biso   1.000  C
  C1764    1.0000 0.65483  0.27960  0.83900  Biso   1.000  C
  H2964    1.0000 0.58062  0.31601  0.82451  Biso   1.000  H
  C1765    1.0000 0.63319  0.30052  0.79601  Biso   1.000  C
  H2965    1.0000 0.57330  0.15889  0.88100  Biso   1.000  H
  O1477    1.0000 0.66611  0.25599  0.88095  Biso   1.000  O
  H2966    1.0000 0.59699  0.29260  0.86679  Biso   1.000  H
  H2967    1.0000 0.30919  0.71842  0.87760  Biso   1.000  H
  O1478    1.0000 0.43790  0.80702  0.87894  Biso   1.000  O
  C1766    1.0000 0.44632  0.78673  0.83679  Biso   1.000  C
  H2968    1.0000 0.37750  0.82179  0.85470  Biso   1.000  H
  O1479    1.0000 0.32830  0.74199  0.78726  Biso   1.000  O
  H2969    1.0000 0.39800  0.69523  0.78460  Biso   1.000  H
  H2970    1.0000 0.34669  0.66312  0.79690  Biso   1.000  H
  O1480    1.0000 0.68071  0.33360  0.84409  Biso   1.000  O
  H2971    1.0000 0.68353  0.25102  0.83431  Biso   1.000  H
  O1481    1.0000 0.67170  0.25801  0.78726  Biso   1.000  O
  H2972    1.0000 0.60200  0.30481  0.78460  Biso   1.000  H
  H2973    1.0000 0.65331  0.33692  0.79690  Biso   1.000  H
  H2974    1.0000 0.69081  0.28162  0.87760  Biso   1.000  H
  H2975    1.0000 0.42670  0.84111  0.88100  Biso   1.000  H
  O1482    1.0000 0.48950  0.74881  0.84360  Biso   1.000  O
  H2976    1.0000 0.46319  0.82440  0.83350  Biso   1.000  H
  H2977    1.0000 0.34429  0.77360  0.78730  Biso   1.000  H
  C1767    1.0000 0.73783  0.33730  0.83790  Biso   1.000  C
  H2978    1.0000 0.65571  0.22640  0.78730  Biso   1.000  H
  C1768    1.0000 0.54619  0.76430  0.83880  Biso   1.000  C
  O1483    1.0000 0.74523  0.36900  0.81658  Biso   1.000  O
  H2979    1.0000 0.75150  0.29820  0.83491  Biso   1.000  H
  C1769    1.0000 0.77213  0.36079  0.85789  Biso   1.000  C
  C1770    1.0000 0.57793  0.75811  0.86219  Biso   1.000  C
  H2980    1.0000 0.54733  0.80462  0.83380  Biso   1.000  H
  C1771    1.0000 0.57300  0.72932  0.82051  Biso   1.000  C
  C1772    1.0000 0.72932  0.42700  0.82051  Biso   1.000  C
  O1484    1.0000 0.76152  0.32880  0.87913  Biso   1.000  O
  H2981    1.0000 0.81291  0.35759  0.85389  Biso   1.000  H
  C1773    1.0000 0.75811  0.42211  0.86219  Biso   1.000  C
  O1485    1.0000 0.55432  0.79700  0.87885  Biso   1.000  O
  C1774    1.0000 0.63921  0.77213  0.85789  Biso   1.000  C
  H2982    1.0000 0.57431  0.71872  0.86820  Biso   1.000  H
  O1486    1.0000 0.63100  0.74523  0.81658  Biso   1.000  O
  H2983    1.0000 0.57199  0.68913  0.82571  Biso   1.000  H
  C1775    1.0000 0.54560  0.73353  0.79601  Biso   1.000  C
  C1776    1.0000 0.76430  0.45381  0.83880  Biso   1.000  C
  H2984    1.0000 0.68913  0.42801  0.82571  Biso   1.000  H
  C1777    1.0000 0.73353  0.45440  0.79601  Biso   1.000  C
  H2985    1.0000 0.78492  0.30468  0.88130  Biso   1.000  H
  O1487    1.0000 0.79700  0.44573  0.87885  Biso   1.000  O
  H2986    1.0000 0.71872  0.42569  0.86820  Biso   1.000  H
  H2987    1.0000 0.56202  0.83030  0.87929  Biso   1.000  H
  O1488    1.0000 0.67120  0.76152  0.87913  Biso   1.000  O
  C1778    1.0000 0.66270  0.73783  0.83790  Biso   1.000  C
  H2988    1.0000 0.64241  0.81291  0.85389  Biso   1.000  H
  O1489    1.0000 0.55091  0.79679  0.78790  Biso   1.000  O
  H2989    1.0000 0.50549  0.72221  0.79680  Biso   1.000  H
  H2990    1.0000 0.56509  0.70841  0.78471  Biso   1.000  H
  O1490    1.0000 0.74881  0.51050  0.84360  Biso   1.000  O
  H2991    1.0000 0.80462  0.45271  0.83380  Biso   1.000  H
  O1491    1.0000 0.79679  0.44909  0.78790  Biso   1.000  O
  H2992    1.0000 0.72221  0.49451  0.79680  Biso   1.000  H
  H2993    1.0000 0.70841  0.43491  0.78471  Biso   1.000  H
  H2994    1.0000 0.83030  0.43802  0.87929  Biso   1.000  H
  H2995    1.0000 0.69532  0.78492  0.88130  Biso   1.000  H
  O1492    1.0000 0.66640  0.68071  0.84409  Biso   1.000  O
  H2996    1.0000 0.70180  0.75150  0.83491  Biso   1.000  H
  H2997    1.0000 0.54859  0.81801  0.79971  Biso   1.000  H
  C1779    1.0000 0.78673  0.55373  0.83679  Biso   1.000  C
  H2998    1.0000 0.81801  0.45141  0.79971  Biso   1.000  H
  C1780    1.0000 0.72040  0.65483  0.83900  Biso   1.000  C
  O1493    1.0000 0.76779  0.58311  0.81665  Biso   1.000  O
  H2999    1.0000 0.82440  0.53681  0.83350  Biso   1.000  H
  C1781    1.0000 0.79162  0.59430  0.85800  Biso   1.000  C
  C1782    1.0000 0.73719  0.62461  0.86230  Biso   1.000  C
  H3000    1.0000 0.74902  0.68353  0.83431  Biso   1.000  H
  C1783    1.0000 0.71282  0.60912  0.81970  Biso   1.000  C
  O1494    1.0000 0.80702  0.56210  0.87894  Biso   1.000  O
  H3001    1.0000 0.82179  0.62250  0.85470  Biso   1.000  H
  O1495    1.0000 0.74401  0.66611  0.88095  Biso   1.000  O
  H3002    1.0000 0.70740  0.59699  0.86679  Biso   1.000  H
  H3003    1.0000 0.68399  0.58062  0.82451  Biso   1.000  H
  C1784    1.0000 0.69952  0.63319  0.79601  Biso   1.000  C
  H3004    1.0000 0.84111  0.57330  0.88100  Biso   1.000  H
  H3005    1.0000 0.71842  0.69081  0.87760  Biso   1.000  H
  O1496    1.0000 0.74199  0.67170  0.78726  Biso   1.000  O
  H3006    1.0000 0.69523  0.60200  0.78460  Biso   1.000  H
  H3007    1.0000 0.66312  0.65331  0.79690  Biso   1.000  H
  H3008    1.0000 0.77360  0.65571  0.78730  Biso   1.000  H
  O1497    1.0000 0.69111  0.05143  0.11024  Biso   1.000  O
  H3009    1.0000 0.68841  0.03022  0.12210  Biso   1.000  H
  C1785    1.0000 0.69628  0.01629  0.08850  Biso   1.000  C
  C1786    1.0000 0.69628  0.01633  0.08850  Biso   1.000  C
  C1787    1.0000 0.69633  0.01629  0.08850  Biso   1.000  C
  C1788    1.0000 0.69633  0.01633  0.08850  Biso   1.000  C
  O1498    1.0000 0.69111  0.05139  0.11024  Biso   1.000  O
  H3010    1.0000 0.65811  0.00122  0.08470  Biso   1.000  H
  C1789    1.0000 0.71531  0.05181  0.06820  Biso   1.000  C
  C1790    1.0000 0.73357  0.96831  0.09280  Biso   1.000  C
  C1791    1.0000 0.73362  0.96831  0.09280  Biso   1.000  C
  O1499    1.0000 0.76468  0.07749  0.07431  Biso   1.000  O
  O1500    1.0000 0.72099  0.01911  0.04720  Biso   1.000  O
  H3011    1.0000 0.68639  0.08161  0.06531  Biso   1.000  H
  O1501    1.0000 0.76468  0.07753  0.07431  Biso   1.000  O
  O1502    1.0000 0.76472  0.07749  0.07431  Biso   1.000  O
  O1503    1.0000 0.72103  0.01911  0.04720  Biso   1.000  O
  O1504    1.0000 0.76472  0.07753  0.07431  Biso   1.000  O
  O1505    1.0000 0.71059  0.93219  0.11133  Biso   1.000  O
  C1792    1.0000 0.74010  0.93661  0.06991  Biso   1.000  C
  H3012    1.0000 0.77129  0.98262  0.09790  Biso   1.000  H
  O1506    1.0000 0.71059  0.93224  0.11133  Biso   1.000  O
  H3013    1.0000 0.77133  0.98262  0.09790  Biso   1.000  H
  C1793    1.0000 0.76821  0.13730  0.07010  Biso   1.000  C
  C1794    1.0000 0.76821  0.13734  0.07010  Biso   1.000  C
  C1795    1.0000 0.76228  0.97361  0.05140  Biso   1.000  C
  C1796    1.0000 0.76232  0.97361  0.05140  Biso   1.000  C
  H3014    1.0000 0.68829  0.90871  0.10530  Biso   1.000  H
  H3015    1.0000 0.68833  0.90871  0.10530  Biso   1.000  H
  O1507    1.0000 0.77958  0.89048  0.07433  Biso   1.000  O
  H3016    1.0000 0.70281  0.92091  0.06490  Biso   1.000  H
  O1508    1.0000 0.77958  0.89053  0.07433  Biso   1.000  O
  O1509    1.0000 0.77962  0.89048  0.07433  Biso   1.000  O
  O1510    1.0000 0.77962  0.89053  0.07433  Biso   1.000  O
  H3017    1.0000 0.73088  0.15312  0.06540  Biso   1.000  H
  C1797    1.0000 0.78968  0.16390  0.09319  Biso   1.000  C
  C1798    1.0000 0.81321  0.14879  0.05110  Biso   1.000  C
  C1799    1.0000 0.78968  0.16394  0.09319  Biso   1.000  C
  C1800    1.0000 0.81321  0.14883  0.05110  Biso   1.000  C
  H3018    1.0000 0.73092  0.15312  0.06540  Biso   1.000  H
  C1801    1.0000 0.78972  0.16390  0.09319  Biso   1.000  C
  C1802    1.0000 0.78972  0.16394  0.09319  Biso   1.000  C
  H3019    1.0000 0.79919  0.98990  0.05641  Biso   1.000  H
  C1803    1.0000 0.76788  0.94579  0.02660  Biso   1.000  C
  C1804    1.0000 0.76788  0.94583  0.02660  Biso   1.000  C
  H3020    1.0000 0.79923  0.98990  0.05641  Biso   1.000  H
  C1805    1.0000 0.76792  0.94579  0.02660  Biso   1.000  C
  C1806    1.0000 0.76792  0.94583  0.02660  Biso   1.000  C
  C1807    1.0000 0.76102  0.83598  0.06809  Biso   1.000  C
  C1808    1.0000 0.76102  0.83602  0.06809  Biso   1.000  C
  O1511    1.0000 0.74751  0.15619  0.11182  Biso   1.000  O
  H3021    1.0000 0.82609  0.14622  0.09800  Biso   1.000  H
  C1809    1.0000 0.79789  0.22720  0.08910  Biso   1.000  C
  O1512    1.0000 0.74751  0.15624  0.11182  Biso   1.000  O
  C1810    1.0000 0.79789  0.22724  0.08910  Biso   1.000  C
  H3022    1.0000 0.82613  0.14622  0.09800  Biso   1.000  H
  C1811    1.0000 0.79793  0.22720  0.08910  Biso   1.000  C
  C1812    1.0000 0.79793  0.22724  0.08910  Biso   1.000  C
  O1513    1.0000 0.81649  0.20990  0.04763  Biso   1.000  O
  H3023    1.0000 0.85050  0.13481  0.05690  Biso   1.000  H
  C1813    1.0000 0.80092  0.12261  0.02679  Biso   1.000  C
  O1514    1.0000 0.81653  0.20990  0.04763  Biso   1.000  O
  O1515    1.0000 0.71830  0.92209  0.01950  Biso   1.000  O
  H3024    1.0000 0.77958  0.97462  0.01500  Biso   1.000  H
  H3025    1.0000 0.79751  0.91649  0.02709  Biso   1.000  H
  O1516    1.0000 0.71830  0.92213  0.01950  Biso   1.000  O
  H3026    1.0000 0.77962  0.97462  0.01500  Biso   1.000  H
  O1517    1.0000 0.79010  0.81649  0.04763  Biso   1.000  O
  C1814    1.0000 0.77280  0.79789  0.08910  Biso   1.000  C
  H3027    1.0000 0.71960  0.83678  0.06490  Biso   1.000  H
  O1518    1.0000 0.79010  0.81653  0.04763  Biso   1.000  O
  C1815    1.0000 0.77280  0.79793  0.08910  Biso   1.000  C
  H3028    1.0000 0.71960  0.83682  0.06490  Biso   1.000  H
  H3029    1.0000 0.73248  0.12429  0.11040  Biso   1.000  H
  H3030    1.0000 0.73248  0.12433  0.11040  Biso   1.000  H
  H3031    1.0000 0.73252  0.12429  0.11040  Biso   1.000  H
  H3032    1.0000 0.73252  0.12433  0.11040  Biso   1.000  H
  O1519    1.0000 0.82259  0.25089  0.10994  Biso   1.000  O
  H3033    1.0000 0.76039  0.24509  0.08641  Biso   1.000  H
  C1816    1.0000 0.83598  0.23898  0.06809  Biso   1.000  C
  O1520    1.0000 0.82259  0.25094  0.10994  Biso   1.000  O
  H3034    1.0000 0.76039  0.24513  0.08641  Biso   1.000  H
  C1817    1.0000 0.83598  0.23903  0.06809  Biso   1.000  C
  H3035    1.0000 0.76043  0.24509  0.08641  Biso   1.000  H
  C1818    1.0000 0.83602  0.23898  0.06809  Biso   1.000  C
  H3036    1.0000 0.76043  0.24513  0.08641  Biso   1.000  H
  C1819    1.0000 0.83602  0.23903  0.06809  Biso   1.000  C
  O1521    1.0000 0.74687  0.14142  0.01870  Biso   1.000  O
  H3037    1.0000 0.83038  0.13389  0.01541  Biso   1.000  H
  H3038    1.0000 0.80121  0.08102  0.02810  Biso   1.000  H
  H3039    1.0000 0.83038  0.13393  0.01541  Biso   1.000  H
  O1522    1.0000 0.74692  0.14142  0.01870  Biso   1.000  O
  H3040    1.0000 0.83042  0.13389  0.01541  Biso   1.000  H
  H3041    1.0000 0.83042  0.13393  0.01541  Biso   1.000  H
  H3042    1.0000 0.69271  0.94381  0.01511  Biso   1.000  H
  C1820    1.0000 0.85121  0.81321  0.05110  Biso   1.000  C
  O1523    1.0000 0.74911  0.82259  0.10994  Biso   1.000  O
  C1821    1.0000 0.83610  0.78968  0.09319  Biso   1.000  C
  H3043    1.0000 0.75491  0.76039  0.08641  Biso   1.000  H
  C1822    1.0000 0.83610  0.78972  0.09319  Biso   1.000  C
  H3044    1.0000 0.75491  0.76043  0.08641  Biso   1.000  H
  H3045    1.0000 0.80412  0.27552  0.11500  Biso   1.000  H
  O1524    1.0000 0.89048  0.22042  0.07433  Biso   1.000  O
  H3046    1.0000 0.83678  0.28040  0.06490  Biso   1.000  H
  H3047    1.0000 0.83678  0.28044  0.06490  Biso   1.000  H
  O1525    1.0000 0.89053  0.22042  0.07433  Biso   1.000  O
  H3048    1.0000 0.83682  0.28040  0.06490  Biso   1.000  H
  H3049    1.0000 0.83682  0.28044  0.06490  Biso   1.000  H
  H3050    1.0000 0.73000  0.12000  0.00811  Biso   1.000  H
  H3051    1.0000 0.73000  0.12004  0.00811  Biso   1.000  H
  C1823    1.0000 0.86270  0.76821  0.07010  Biso   1.000  C
  H3052    1.0000 0.86519  0.85050  0.05690  Biso   1.000  H
  C1824    1.0000 0.87739  0.80092  0.02679  Biso   1.000  C
  H3053    1.0000 0.86523  0.85050  0.05690  Biso   1.000  H
  H3054    1.0000 0.72448  0.80412  0.11500  Biso   1.000  H
  H3055    1.0000 0.72453  0.80412  0.11500  Biso   1.000  H
  O1526    1.0000 0.84381  0.74751  0.11182  Biso   1.000  O
  H3056    1.0000 0.85378  0.82609  0.09800  Biso   1.000  H
  H3057    1.0000 0.85378  0.82613  0.09800  Biso   1.000  H
  H3058    1.0000 0.85382  0.82609  0.09800  Biso   1.000  H
  H3059    1.0000 0.85382  0.82613  0.09800  Biso   1.000  H
  C1825    1.0000 0.93661  0.25990  0.06991  Biso   1.000  C
  O1527    1.0000 0.92251  0.76468  0.07431  Biso   1.000  O
  H3060    1.0000 0.84688  0.73088  0.06540  Biso   1.000  H
  O1528    1.0000 0.92251  0.76472  0.07431  Biso   1.000  O
  H3061    1.0000 0.84688  0.73092  0.06540  Biso   1.000  H
  H3062    1.0000 0.84692  0.73088  0.06540  Biso   1.000  H
  H3063    1.0000 0.84692  0.73092  0.06540  Biso   1.000  H
  O1529    1.0000 0.85858  0.74687  0.01870  Biso   1.000  O
  H3064    1.0000 0.86611  0.83038  0.01541  Biso   1.000  H
  H3065    1.0000 0.91898  0.80121  0.02810  Biso   1.000  H
  O1530    1.0000 0.85858  0.74692  0.01870  Biso   1.000  O
  H3066    1.0000 0.86611  0.83042  0.01541  Biso   1.000  H
  O1531    1.0000 0.85862  0.74687  0.01870  Biso   1.000  O
  H3067    1.0000 0.91902  0.80121  0.02810  Biso   1.000  H
  O1532    1.0000 0.85862  0.74692  0.01870  Biso   1.000  O
  H3068    1.0000 0.87571  0.73248  0.11040  Biso   1.000  H
  H3069    1.0000 0.87571  0.73252  0.11040  Biso   1.000  H
  H3070    1.0000 0.92091  0.29719  0.06490  Biso   1.000  H
  C1826    1.0000 0.96831  0.26643  0.09280  Biso   1.000  C
  C1827    1.0000 0.97361  0.23772  0.05140  Biso   1.000  C
  H3071    1.0000 0.92091  0.29723  0.06490  Biso   1.000  H
  C1828    1.0000 0.94819  0.71531  0.06820  Biso   1.000  C
  C1829    1.0000 0.94823  0.71531  0.06820  Biso   1.000  C
  H3072    1.0000 0.88000  0.73000  0.00811  Biso   1.000  H
  O1533    1.0000 0.93219  0.28941  0.11133  Biso   1.000  O
  H3073    1.0000 0.98262  0.22871  0.09790  Biso   1.000  H
  O1534    1.0000 0.93224  0.28941  0.11133  Biso   1.000  O
  C1830    1.0000 0.01629  0.30372  0.08850  Biso   1.000  C
  C1831    1.0000 0.01633  0.30372  0.08850  Biso   1.000  C
  H3074    1.0000 0.98990  0.20081  0.05641  Biso   1.000  H
  C1832    1.0000 0.94579  0.23212  0.02660  Biso   1.000  C
  C1833    1.0000 0.94583  0.23212  0.02660  Biso   1.000  C
  O1535    1.0000 0.01911  0.27901  0.04720  Biso   1.000  O
  O1536    1.0000 0.98089  0.72099  0.04720  Biso   1.000  O
  C1834    1.0000 0.98371  0.69628  0.08850  Biso   1.000  C
  H3075    1.0000 0.91839  0.68639  0.06531  Biso   1.000  H
  O1537    1.0000 0.98089  0.72103  0.04720  Biso   1.000  O
  C1835    1.0000 0.98371  0.69633  0.08850  Biso   1.000  C
  O1538    1.0000 0.98093  0.72099  0.04720  Biso   1.000  O
  H3076    1.0000 0.91843  0.68639  0.06531  Biso   1.000  H
  O1539    1.0000 0.98093  0.72103  0.04720  Biso   1.000  O
  H3077    1.0000 0.90871  0.31171  0.10530  Biso   1.000  H
  O1540    1.0000 0.05139  0.30889  0.11024  Biso   1.000  O
  H3078    1.0000 0.00122  0.34189  0.08470  Biso   1.000  H
  C1836    1.0000 0.05181  0.28469  0.06820  Biso   1.000  C
  O1541    1.0000 0.05139  0.30894  0.11024  Biso   1.000  O
  H3079    1.0000 0.00122  0.34193  0.08470  Biso   1.000  H
  C1837    1.0000 0.05181  0.28473  0.06820  Biso   1.000  C
  O1542    1.0000 0.05143  0.30889  0.11024  Biso   1.000  O
  O1543    1.0000 0.05143  0.30894  0.11024  Biso   1.000  O
  O1544    1.0000 0.92209  0.28170  0.01950  Biso   1.000  O
  H3080    1.0000 0.97462  0.22042  0.01500  Biso   1.000  H
  H3081    1.0000 0.91649  0.20249  0.02709  Biso   1.000  H
  H3082    1.0000 0.91649  0.20253  0.02709  Biso   1.000  H
  O1545    1.0000 0.92213  0.28170  0.01950  Biso   1.000  O
  C1838    1.0000 0.02639  0.76228  0.05140  Biso   1.000  C
  C1839    1.0000 0.02639  0.76232  0.05140  Biso   1.000  C
  C1840    1.0000 0.02643  0.76228  0.05140  Biso   1.000  C
  C1841    1.0000 0.02643  0.76232  0.05140  Biso   1.000  C
  O1546    1.0000 0.94861  0.69111  0.11024  Biso   1.000  O
  H3083    1.0000 0.99878  0.65811  0.08470  Biso   1.000  H
  H3084    1.0000 0.99882  0.65811  0.08470  Biso   1.000  H
  C1842    1.0000 0.03169  0.73357  0.09280  Biso   1.000  C
  C1843    1.0000 0.03169  0.73362  0.09280  Biso   1.000  C
  C1844    1.0000 0.03174  0.73357  0.09280  Biso   1.000  C
  C1845    1.0000 0.03174  0.73362  0.09280  Biso   1.000  C
  H3085    1.0000 0.03022  0.31159  0.12210  Biso   1.000  H
  H3086    1.0000 0.03022  0.31163  0.12210  Biso   1.000  H
  H3087    1.0000 0.08161  0.31361  0.06531  Biso   1.000  H
  O1547    1.0000 0.07749  0.23532  0.07431  Biso   1.000  O
  O1548    1.0000 0.07753  0.23532  0.07431  Biso   1.000  O
  H3088    1.0000 0.94381  0.30729  0.01511  Biso   1.000  H
  H3089    1.0000 0.94381  0.30734  0.01511  Biso   1.000  H
  C1846    1.0000 0.06339  0.74010  0.06991  Biso   1.000  C
  H3090    1.0000 0.01010  0.79919  0.05641  Biso   1.000  H
  C1847    1.0000 0.05421  0.76788  0.02660  Biso   1.000  C
  H3091    1.0000 0.01010  0.79923  0.05641  Biso   1.000  H
  C1848    1.0000 0.05421  0.76792  0.02660  Biso   1.000  C
  C1849    1.0000 0.06343  0.74010  0.06991  Biso   1.000  C
  H3092    1.0000 0.96978  0.68841  0.12210  Biso   1.000  H
  H3093    1.0000 0.96982  0.68841  0.12210  Biso   1.000  H
  O1549    1.0000 0.06781  0.71059  0.11133  Biso   1.000  O
  H3094    1.0000 0.01738  0.77129  0.09790  Biso   1.000  H
  H3095    1.0000 0.01738  0.77133  0.09790  Biso   1.000  H
  H3096    1.0000 0.01742  0.77129  0.09790  Biso   1.000  H
  H3097    1.0000 0.01742  0.77133  0.09790  Biso   1.000  H
  C1850    1.0000 0.13730  0.23179  0.07010  Biso   1.000  C
  C1851    1.0000 0.13730  0.23183  0.07010  Biso   1.000  C
  C1852    1.0000 0.13734  0.23179  0.07010  Biso   1.000  C
  C1853    1.0000 0.13734  0.23183  0.07010  Biso   1.000  C
  O1550    1.0000 0.10952  0.77958  0.07433  Biso   1.000  O
  H3098    1.0000 0.07909  0.70281  0.06490  Biso   1.000  H
  O1551    1.0000 0.10952  0.77962  0.07433  Biso   1.000  O
  H3099    1.0000 0.07913  0.70281  0.06490  Biso   1.000  H
  O1552    1.0000 0.07791  0.71830  0.01950  Biso   1.000  O
  H3100    1.0000 0.02538  0.77958  0.01500  Biso   1.000  H
  H3101    1.0000 0.08351  0.79751  0.02709  Biso   1.000  H
  H3102    1.0000 0.02538  0.77962  0.01500  Biso   1.000  H
  H3103    1.0000 0.02542  0.77958  0.01500  Biso   1.000  H
  H3104    1.0000 0.02542  0.77962  0.01500  Biso   1.000  H
  H3105    1.0000 0.09129  0.68829  0.10530  Biso   1.000  H
  H3106    1.0000 0.09129  0.68833  0.10530  Biso   1.000  H
  H3107    1.0000 0.09133  0.68829  0.10530  Biso   1.000  H
  H3108    1.0000 0.09133  0.68833  0.10530  Biso   1.000  H
  H3109    1.0000 0.15312  0.26912  0.06540  Biso   1.000  H
  C1854    1.0000 0.16390  0.21032  0.09319  Biso   1.000  C
  C1855    1.0000 0.14879  0.18679  0.05110  Biso   1.000  C
  C1856    1.0000 0.14879  0.18683  0.05110  Biso   1.000  C
  C1857    1.0000 0.16394  0.21032  0.09319  Biso   1.000  C
  C1858    1.0000 0.14883  0.18679  0.05110  Biso   1.000  C
  C1859    1.0000 0.14883  0.18683  0.05110  Biso   1.000  C
  C1860    1.0000 0.16402  0.76102  0.06809  Biso   1.000  C
  H3110    1.0000 0.05619  0.69271  0.01511  Biso   1.000  H
  H3111    1.0000 0.05623  0.69271  0.01511  Biso   1.000  H
  O1553    1.0000 0.15619  0.25249  0.11182  Biso   1.000  O
  H3112    1.0000 0.14622  0.17391  0.09800  Biso   1.000  H
  C1861    1.0000 0.22720  0.20211  0.08910  Biso   1.000  C
  O1554    1.0000 0.15619  0.25254  0.11182  Biso   1.000  O
  O1555    1.0000 0.15624  0.25249  0.11182  Biso   1.000  O
  C1862    1.0000 0.22724  0.20211  0.08910  Biso   1.000  C
  O1556    1.0000 0.15624  0.25254  0.11182  Biso   1.000  O
  O1557    1.0000 0.20990  0.18351  0.04763  Biso   1.000  O
  H3113    1.0000 0.13481  0.14950  0.05690  Biso   1.000  H
  C1863    1.0000 0.12261  0.19908  0.02679  Biso   1.000  C
  C1864    1.0000 0.12261  0.19912  0.02679  Biso   1.000  C
  O1558    1.0000 0.18351  0.79010  0.04763  Biso   1.000  O
  C1865    1.0000 0.20211  0.77280  0.08910  Biso   1.000  C
  H3114    1.0000 0.16322  0.71960  0.06490  Biso   1.000  H
  H3115    1.0000 0.12429  0.26752  0.11040  Biso   1.000  H
  H3116    1.0000 0.12433  0.26752  0.11040  Biso   1.000  H
  O1559    1.0000 0.25089  0.17741  0.10994  Biso   1.000  O
  H3117    1.0000 0.24509  0.23961  0.08641  Biso   1.000  H
  C1866    1.0000 0.23898  0.16402  0.06809  Biso   1.000  C
  O1560    1.0000 0.25094  0.17741  0.10994  Biso   1.000  O
  H3118    1.0000 0.24513  0.23961  0.08641  Biso   1.000  H
  C1867    1.0000 0.23903  0.16402  0.06809  Biso   1.000  C
  O1561    1.0000 0.14142  0.25313  0.01870  Biso   1.000  O
  H3119    1.0000 0.13389  0.16962  0.01541  Biso   1.000  H
  H3120    1.0000 0.08102  0.19879  0.02810  Biso   1.000  H
  H3121    1.0000 0.08102  0.19883  0.02810  Biso   1.000  H
  H3122    1.0000 0.13393  0.16962  0.01541  Biso   1.000  H
  C1868    1.0000 0.18679  0.85121  0.05110  Biso   1.000  C
  C1869    1.0000 0.18683  0.85121  0.05110  Biso   1.000  C
  O1562    1.0000 0.17741  0.74911  0.10994  Biso   1.000  O
  C1870    1.0000 0.21032  0.83610  0.09319  Biso   1.000  C
  H3123    1.0000 0.23961  0.75491  0.08641  Biso   1.000  H
  H3124    1.0000 0.27552  0.19588  0.11500  Biso   1.000  H
  H3125    1.0000 0.27552  0.19593  0.11500  Biso   1.000  H
  O1563    1.0000 0.22042  0.10952  0.07433  Biso   1.000  O
  H3126    1.0000 0.28040  0.16322  0.06490  Biso   1.000  H
  H3127    1.0000 0.28044  0.16322  0.06490  Biso   1.000  H
  H3128    1.0000 0.12000  0.27000  0.00811  Biso   1.000  H
  H3129    1.0000 0.12004  0.27000  0.00811  Biso   1.000  H
  C1871    1.0000 0.23179  0.86270  0.07010  Biso   1.000  C
  H3130    1.0000 0.14950  0.86519  0.05690  Biso   1.000  H
  C1872    1.0000 0.19908  0.87739  0.02679  Biso   1.000  C
  H3131    1.0000 0.14950  0.86523  0.05690  Biso   1.000  H
  C1873    1.0000 0.23183  0.86270  0.07010  Biso   1.000  C
  C1874    1.0000 0.19912  0.87739  0.02679  Biso   1.000  C
  H3132    1.0000 0.19588  0.72448  0.11500  Biso   1.000  H
  H3133    1.0000 0.19588  0.72453  0.11500  Biso   1.000  H
  H3134    1.0000 0.19593  0.72448  0.11500  Biso   1.000  H
  H3135    1.0000 0.19593  0.72453  0.11500  Biso   1.000  H
  O1564    1.0000 0.25249  0.84381  0.11182  Biso   1.000  O
  H3136    1.0000 0.17391  0.85378  0.09800  Biso   1.000  H
  H3137    1.0000 0.17391  0.85382  0.09800  Biso   1.000  H
  O1565    1.0000 0.25254  0.84381  0.11182  Biso   1.000  O
  C1875    1.0000 0.25990  0.06339  0.06991  Biso   1.000  C
  C1876    1.0000 0.25990  0.06343  0.06991  Biso   1.000  C
  O1566    1.0000 0.23532  0.92251  0.07431  Biso   1.000  O
  H3138    1.0000 0.26912  0.84688  0.06540  Biso   1.000  H
  H3139    1.0000 0.26912  0.84692  0.06540  Biso   1.000  H
  O1567    1.0000 0.25313  0.85858  0.01870  Biso   1.000  O
  H3140    1.0000 0.16962  0.86611  0.01541  Biso   1.000  H
  H3141    1.0000 0.19879  0.91898  0.02810  Biso   1.000  H
  O1568    1.0000 0.25313  0.85862  0.01870  Biso   1.000  O
  H3142    1.0000 0.19879  0.91902  0.02810  Biso   1.000  H
  H3143    1.0000 0.19883  0.91898  0.02810  Biso   1.000  H
  H3144    1.0000 0.19883  0.91902  0.02810  Biso   1.000  H
  H3145    1.0000 0.26752  0.87571  0.11040  Biso   1.000  H
  H3146    1.0000 0.29719  0.07909  0.06490  Biso   1.000  H
  C1877    1.0000 0.26643  0.03169  0.09280  Biso   1.000  C
  C1878    1.0000 0.23772  0.02639  0.05140  Biso   1.000  C
  H3147    1.0000 0.29719  0.07913  0.06490  Biso   1.000  H
  C1879    1.0000 0.26643  0.03174  0.09280  Biso   1.000  C
  C1880    1.0000 0.23772  0.02643  0.05140  Biso   1.000  C
  H3148    1.0000 0.29723  0.07909  0.06490  Biso   1.000  H
  H3149    1.0000 0.29723  0.07913  0.06490  Biso   1.000  H
  C1881    1.0000 0.28469  0.94819  0.06820  Biso   1.000  C
  C1882    1.0000 0.28469  0.94823  0.06820  Biso   1.000  C
  C1883    1.0000 0.28473  0.94819  0.06820  Biso   1.000  C
  C1884    1.0000 0.28473  0.94823  0.06820  Biso   1.000  C
  H3150    1.0000 0.27000  0.88000  0.00811  Biso   1.000  H
  C1885    1.0000 0.30372  0.98371  0.08850  Biso   1.000  C
  O1569    1.0000 0.28941  0.06781  0.11133  Biso   1.000  O
  H3151    1.0000 0.22871  0.01738  0.09790  Biso   1.000  H
  H3152    1.0000 0.22871  0.01742  0.09790  Biso   1.000  H
  O1570    1.0000 0.27901  0.98089  0.04720  Biso   1.000  O
  O1571    1.0000 0.27901  0.98093  0.04720  Biso   1.000  O
  H3153    1.0000 0.20081  0.01010  0.05641  Biso   1.000  H
  C1886    1.0000 0.23212  0.05421  0.02660  Biso   1.000  C
  H3154    1.0000 0.31361  0.91839  0.06531  Biso   1.000  H
  H3155    1.0000 0.31361  0.91843  0.06531  Biso   1.000  H
  O1572    1.0000 0.30889  0.94861  0.11024  Biso   1.000  O
  H3156    1.0000 0.34189  0.99878  0.08470  Biso   1.000  H
  H3157    1.0000 0.34189  0.99882  0.08470  Biso   1.000  H
  O1573    1.0000 0.30894  0.94861  0.11024  Biso   1.000  O
  H3158    1.0000 0.34193  0.99878  0.08470  Biso   1.000  H
  H3159    1.0000 0.34193  0.99882  0.08470  Biso   1.000  H
  H3160    1.0000 0.31171  0.09129  0.10530  Biso   1.000  H
  H3161    1.0000 0.31171  0.09133  0.10530  Biso   1.000  H
  O1574    1.0000 0.28170  0.07791  0.01950  Biso   1.000  O
  H3162    1.0000 0.22042  0.02538  0.01500  Biso   1.000  H
  H3163    1.0000 0.20249  0.08351  0.02709  Biso   1.000  H
  H3164    1.0000 0.22042  0.02542  0.01500  Biso   1.000  H
  H3165    1.0000 0.20253  0.08351  0.02709  Biso   1.000  H
  H3166    1.0000 0.31159  0.96978  0.12210  Biso   1.000  H
  H3167    1.0000 0.31159  0.96982  0.12210  Biso   1.000  H
  H3168    1.0000 0.31163  0.96978  0.12210  Biso   1.000  H
  H3169    1.0000 0.31163  0.96982  0.12210  Biso   1.000  H
  H3170    1.0000 0.30729  0.05619  0.01511  Biso   1.000  H
  H3171    1.0000 0.30729  0.05623  0.01511  Biso   1.000  H
  H3172    1.0000 0.30734  0.05619  0.01511  Biso   1.000  H
  H3173    1.0000 0.30734  0.05623  0.01511  Biso   1.000  H
  O1575    1.0000 0.69111  0.05143  0.11024  Biso   1.000  O
  H3174    1.0000 0.68841  0.03022  0.12210  Biso   1.000  H
  C1887    1.0000 0.69628  0.01629  0.08850  Biso   1.000  C
  C1888    1.0000 0.69628  0.01633  0.08850  Biso   1.000  C
  C1889    1.0000 0.69633  0.01629  0.08850  Biso   1.000  C
  C1890    1.0000 0.69633  0.01633  0.08850  Biso   1.000  C
  H3175    1.0000 0.65811  0.00122  0.08470  Biso   1.000  H
  C1891    1.0000 0.71531  0.05181  0.06820  Biso   1.000  C
  O1576    1.0000 0.69111  0.05139  0.11024  Biso   1.000  O
  C1892    1.0000 0.73357  0.96831  0.09280  Biso   1.000  C
  C1893    1.0000 0.73362  0.96831  0.09280  Biso   1.000  C
  O1577    1.0000 0.72099  0.01911  0.04720  Biso   1.000  O
  H3176    1.0000 0.68639  0.08161  0.06531  Biso   1.000  H
  O1578    1.0000 0.72103  0.01911  0.04720  Biso   1.000  O
  O1579    1.0000 0.76468  0.07749  0.07431  Biso   1.000  O
  O1580    1.0000 0.76468  0.07753  0.07431  Biso   1.000  O
  O1581    1.0000 0.76472  0.07749  0.07431  Biso   1.000  O
  O1582    1.0000 0.76472  0.07753  0.07431  Biso   1.000  O
  O1583    1.0000 0.71059  0.93219  0.11133  Biso   1.000  O
  C1894    1.0000 0.74010  0.93661  0.06991  Biso   1.000  C
  H3177    1.0000 0.77129  0.98262  0.09790  Biso   1.000  H
  O1584    1.0000 0.71059  0.93224  0.11133  Biso   1.000  O
  H3178    1.0000 0.77133  0.98262  0.09790  Biso   1.000  H
  C1895    1.0000 0.76228  0.97361  0.05140  Biso   1.000  C
  C1896    1.0000 0.76232  0.97361  0.05140  Biso   1.000  C
  C1897    1.0000 0.76821  0.13730  0.07010  Biso   1.000  C
  C1898    1.0000 0.76821  0.13734  0.07010  Biso   1.000  C
  H3179    1.0000 0.68829  0.90871  0.10530  Biso   1.000  H
  H3180    1.0000 0.68833  0.90871  0.10530  Biso   1.000  H
  O1585    1.0000 0.77958  0.89048  0.07433  Biso   1.000  O
  H3181    1.0000 0.70281  0.92091  0.06490  Biso   1.000  H
  O1586    1.0000 0.77958  0.89053  0.07433  Biso   1.000  O
  O1587    1.0000 0.77962  0.89048  0.07433  Biso   1.000  O
  O1588    1.0000 0.77962  0.89053  0.07433  Biso   1.000  O
  H3182    1.0000 0.79919  0.98990  0.05641  Biso   1.000  H
  C1899    1.0000 0.76788  0.94579  0.02660  Biso   1.000  C
  C1900    1.0000 0.76788  0.94583  0.02660  Biso   1.000  C
  H3183    1.0000 0.79923  0.98990  0.05641  Biso   1.000  H
  C1901    1.0000 0.76792  0.94579  0.02660  Biso   1.000  C
  C1902    1.0000 0.76792  0.94583  0.02660  Biso   1.000  C
  H3184    1.0000 0.73088  0.15312  0.06540  Biso   1.000  H
  C1903    1.0000 0.81321  0.14879  0.05110  Biso   1.000  C
  H3185    1.0000 0.73092  0.15312  0.06540  Biso   1.000  H
  C1904    1.0000 0.81321  0.14883  0.05110  Biso   1.000  C
  C1905    1.0000 0.78968  0.16390  0.09319  Biso   1.000  C
  C1906    1.0000 0.78968  0.16394  0.09319  Biso   1.000  C
  C1907    1.0000 0.78972  0.16390  0.09319  Biso   1.000  C
  C1908    1.0000 0.78972  0.16394  0.09319  Biso   1.000  C
  C1909    1.0000 0.76102  0.83598  0.06809  Biso   1.000  C
  C1910    1.0000 0.76102  0.83602  0.06809  Biso   1.000  C
  O1589    1.0000 0.71830  0.92209  0.01950  Biso   1.000  O
  H3186    1.0000 0.77958  0.97462  0.01500  Biso   1.000  H
  H3187    1.0000 0.79751  0.91649  0.02709  Biso   1.000  H
  O1590    1.0000 0.71830  0.92213  0.01950  Biso   1.000  O
  H3188    1.0000 0.77962  0.97462  0.01500  Biso   1.000  H
  O1591    1.0000 0.81649  0.20990  0.04763  Biso   1.000  O
  H3189    1.0000 0.85050  0.13481  0.05690  Biso   1.000  H
  C1911    1.0000 0.80092  0.12261  0.02679  Biso   1.000  C
  O1592    1.0000 0.81653  0.20990  0.04763  Biso   1.000  O
  H3190    1.0000 0.82609  0.14622  0.09800  Biso   1.000  H
  O1593    1.0000 0.74751  0.15619  0.11182  Biso   1.000  O
  O1594    1.0000 0.74751  0.15624  0.11182  Biso   1.000  O
  H3191    1.0000 0.82613  0.14622  0.09800  Biso   1.000  H
  C1912    1.0000 0.79789  0.22720  0.08910  Biso   1.000  C
  C1913    1.0000 0.79789  0.22724  0.08910  Biso   1.000  C
  C1914    1.0000 0.79793  0.22720  0.08910  Biso   1.000  C
  C1915    1.0000 0.79793  0.22724  0.08910  Biso   1.000  C
  O1595    1.0000 0.79010  0.81649  0.04763  Biso   1.000  O
  C1916    1.0000 0.77280  0.79789  0.08910  Biso   1.000  C
  H3192    1.0000 0.71960  0.83678  0.06490  Biso   1.000  H
  O1596    1.0000 0.79010  0.81653  0.04763  Biso   1.000  O
  C1917    1.0000 0.77280  0.79793  0.08910  Biso   1.000  C
  H3193    1.0000 0.71960  0.83682  0.06490  Biso   1.000  H
  H3194    1.0000 0.69271  0.94381  0.01511  Biso   1.000  H
  C1918    1.0000 0.83598  0.23898  0.06809  Biso   1.000  C
  C1919    1.0000 0.83598  0.23903  0.06809  Biso   1.000  C
  C1920    1.0000 0.83602  0.23898  0.06809  Biso   1.000  C
  C1921    1.0000 0.83602  0.23903  0.06809  Biso   1.000  C
  O1597    1.0000 0.74687  0.14142  0.01870  Biso   1.000  O
  H3195    1.0000 0.80121  0.08102  0.02810  Biso   1.000  H
  O1598    1.0000 0.74692  0.14142  0.01870  Biso   1.000  O
  H3196    1.0000 0.83038  0.13389  0.01541  Biso   1.000  H
  H3197    1.0000 0.83038  0.13393  0.01541  Biso   1.000  H
  H3198    1.0000 0.83042  0.13389  0.01541  Biso   1.000  H
  H3199    1.0000 0.83042  0.13393  0.01541  Biso   1.000  H
  H3200    1.0000 0.73248  0.12429  0.11040  Biso   1.000  H
  H3201    1.0000 0.73248  0.12433  0.11040  Biso   1.000  H
  H3202    1.0000 0.73252  0.12429  0.11040  Biso   1.000  H
  H3203    1.0000 0.73252  0.12433  0.11040  Biso   1.000  H
  O1599    1.0000 0.82259  0.25089  0.10994  Biso   1.000  O
  O1600    1.0000 0.82259  0.25094  0.10994  Biso   1.000  O
  H3204    1.0000 0.76039  0.24509  0.08641  Biso   1.000  H
  H3205    1.0000 0.76039  0.24513  0.08641  Biso   1.000  H
  H3206    1.0000 0.76043  0.24509  0.08641  Biso   1.000  H
  H3207    1.0000 0.76043  0.24513  0.08641  Biso   1.000  H
  C1922    1.0000 0.85121  0.81321  0.05110  Biso   1.000  C
  O1601    1.0000 0.74911  0.82259  0.10994  Biso   1.000  O
  C1923    1.0000 0.83610  0.78968  0.09319  Biso   1.000  C
  H3208    1.0000 0.75491  0.76039  0.08641  Biso   1.000  H
  C1924    1.0000 0.83610  0.78972  0.09319  Biso   1.000  C
  H3209    1.0000 0.75491  0.76043  0.08641  Biso   1.000  H
  O1602    1.0000 0.89048  0.22042  0.07433  Biso   1.000  O
  O1603    1.0000 0.89053  0.22042  0.07433  Biso   1.000  O
  H3210    1.0000 0.83678  0.28040  0.06490  Biso   1.000  H
  H3211    1.0000 0.83678  0.28044  0.06490  Biso   1.000  H
  H3212    1.0000 0.83682  0.28040  0.06490  Biso   1.000  H
  H3213    1.0000 0.83682  0.28044  0.06490  Biso   1.000  H
  H3214    1.0000 0.73000  0.12000  0.00811  Biso   1.000  H
  H3215    1.0000 0.73000  0.12004  0.00811  Biso   1.000  H
  H3216    1.0000 0.80412  0.27552  0.11500  Biso   1.000  H
  C1925    1.0000 0.86270  0.76821  0.07010  Biso   1.000  C
  H3217    1.0000 0.86519  0.85050  0.05690  Biso   1.000  H
  C1926    1.0000 0.87739  0.80092  0.02679  Biso   1.000  C
  H3218    1.0000 0.86523  0.85050  0.05690  Biso   1.000  H
  H3219    1.0000 0.72448  0.80412  0.11500  Biso   1.000  H
  H3220    1.0000 0.72453  0.80412  0.11500  Biso   1.000  H
  O1604    1.0000 0.84381  0.74751  0.11182  Biso   1.000  O
  H3221    1.0000 0.85378  0.82609  0.09800  Biso   1.000  H
  H3222    1.0000 0.85378  0.82613  0.09800  Biso   1.000  H
  H3223    1.0000 0.85382  0.82609  0.09800  Biso   1.000  H
  H3224    1.0000 0.85382  0.82613  0.09800  Biso   1.000  H
  C1927    1.0000 0.93661  0.25990  0.06991  Biso   1.000  C
  O1605    1.0000 0.92251  0.76468  0.07431  Biso   1.000  O
  H3225    1.0000 0.84688  0.73088  0.06540  Biso   1.000  H
  O1606    1.0000 0.92251  0.76472  0.07431  Biso   1.000  O
  H3226    1.0000 0.84688  0.73092  0.06540  Biso   1.000  H
  H3227    1.0000 0.84692  0.73088  0.06540  Biso   1.000  H
  H3228    1.0000 0.84692  0.73092  0.06540  Biso   1.000  H
  O1607    1.0000 0.85858  0.74687  0.01870  Biso   1.000  O
  H3229    1.0000 0.86611  0.83038  0.01541  Biso   1.000  H
  H3230    1.0000 0.91898  0.80121  0.02810  Biso   1.000  H
  O1608    1.0000 0.85858  0.74692  0.01870  Biso   1.000  O
  H3231    1.0000 0.86611  0.83042  0.01541  Biso   1.000  H
  O1609    1.0000 0.85862  0.74687  0.01870  Biso   1.000  O
  H3232    1.0000 0.91902  0.80121  0.02810  Biso   1.000  H
  O1610    1.0000 0.85862  0.74692  0.01870  Biso   1.000  O
  H3233    1.0000 0.87571  0.73248  0.11040  Biso   1.000  H
  H3234    1.0000 0.87571  0.73252  0.11040  Biso   1.000  H
  C1928    1.0000 0.96831  0.26643  0.09280  Biso   1.000  C
  C1929    1.0000 0.97361  0.23772  0.05140  Biso   1.000  C
  H3235    1.0000 0.92091  0.29719  0.06490  Biso   1.000  H
  H3236    1.0000 0.92091  0.29723  0.06490  Biso   1.000  H
  C1930    1.0000 0.94819  0.71531  0.06820  Biso   1.000  C
  C1931    1.0000 0.94823  0.71531  0.06820  Biso   1.000  C
  H3237    1.0000 0.88000  0.73000  0.00811  Biso   1.000  H
  O1611    1.0000 0.93219  0.28941  0.11133  Biso   1.000  O
  H3238    1.0000 0.98262  0.22871  0.09790  Biso   1.000  H
  O1612    1.0000 0.93224  0.28941  0.11133  Biso   1.000  O
  C1932    1.0000 0.01629  0.30372  0.08850  Biso   1.000  C
  C1933    1.0000 0.01633  0.30372  0.08850  Biso   1.000  C
  H3239    1.0000 0.98990  0.20081  0.05641  Biso   1.000  H
  C1934    1.0000 0.94579  0.23212  0.02660  Biso   1.000  C
  C1935    1.0000 0.94583  0.23212  0.02660  Biso   1.000  C
  O1613    1.0000 0.01911  0.27901  0.04720  Biso   1.000  O
  O1614    1.0000 0.98089  0.72099  0.04720  Biso   1.000  O
  C1936    1.0000 0.98371  0.69628  0.08850  Biso   1.000  C
  H3240    1.0000 0.91839  0.68639  0.06531  Biso   1.000  H
  O1615    1.0000 0.98089  0.72103  0.04720  Biso   1.000  O
  C1937    1.0000 0.98371  0.69633  0.08850  Biso   1.000  C
  O1616    1.0000 0.98093  0.72099  0.04720  Biso   1.000  O
  H3241    1.0000 0.91843  0.68639  0.06531  Biso   1.000  H
  O1617    1.0000 0.98093  0.72103  0.04720  Biso   1.000  O
  H3242    1.0000 0.90871  0.31171  0.10530  Biso   1.000  H
  O1618    1.0000 0.05139  0.30889  0.11024  Biso   1.000  O
  H3243    1.0000 0.00122  0.34189  0.08470  Biso   1.000  H
  C1938    1.0000 0.05181  0.28469  0.06820  Biso   1.000  C
  O1619    1.0000 0.05139  0.30894  0.11024  Biso   1.000  O
  H3244    1.0000 0.00122  0.34193  0.08470  Biso   1.000  H
  C1939    1.0000 0.05181  0.28473  0.06820  Biso   1.000  C
  O1620    1.0000 0.05143  0.30889  0.11024  Biso   1.000  O
  O1621    1.0000 0.05143  0.30894  0.11024  Biso   1.000  O
  O1622    1.0000 0.92209  0.28170  0.01950  Biso   1.000  O
  H3245    1.0000 0.97462  0.22042  0.01500  Biso   1.000  H
  H3246    1.0000 0.91649  0.20249  0.02709  Biso   1.000  H
  O1623    1.0000 0.92213  0.28170  0.01950  Biso   1.000  O
  H3247    1.0000 0.91649  0.20253  0.02709  Biso   1.000  H
  C1940    1.0000 0.02639  0.76228  0.05140  Biso   1.000  C
  C1941    1.0000 0.02639  0.76232  0.05140  Biso   1.000  C
  C1942    1.0000 0.02643  0.76228  0.05140  Biso   1.000  C
  C1943    1.0000 0.02643  0.76232  0.05140  Biso   1.000  C
  O1624    1.0000 0.94861  0.69111  0.11024  Biso   1.000  O
  H3248    1.0000 0.99878  0.65811  0.08470  Biso   1.000  H
  H3249    1.0000 0.99882  0.65811  0.08470  Biso   1.000  H
  C1944    1.0000 0.03169  0.73357  0.09280  Biso   1.000  C
  C1945    1.0000 0.03169  0.73362  0.09280  Biso   1.000  C
  C1946    1.0000 0.03174  0.73357  0.09280  Biso   1.000  C
  C1947    1.0000 0.03174  0.73362  0.09280  Biso   1.000  C
  H3250    1.0000 0.03022  0.31159  0.12210  Biso   1.000  H
  H3251    1.0000 0.03022  0.31163  0.12210  Biso   1.000  H
  H3252    1.0000 0.08161  0.31361  0.06531  Biso   1.000  H
  O1625    1.0000 0.07749  0.23532  0.07431  Biso   1.000  O
  O1626    1.0000 0.07753  0.23532  0.07431  Biso   1.000  O
  H3253    1.0000 0.94381  0.30729  0.01511  Biso   1.000  H
  H3254    1.0000 0.94381  0.30734  0.01511  Biso   1.000  H
  C1948    1.0000 0.06339  0.74010  0.06991  Biso   1.000  C
  H3255    1.0000 0.01010  0.79919  0.05641  Biso   1.000  H
  C1949    1.0000 0.05421  0.76788  0.02660  Biso   1.000  C
  H3256    1.0000 0.01010  0.79923  0.05641  Biso   1.000  H
  C1950    1.0000 0.05421  0.76792  0.02660  Biso   1.000  C
  C1951    1.0000 0.06343  0.74010  0.06991  Biso   1.000  C
  H3257    1.0000 0.96978  0.68841  0.12210  Biso   1.000  H
  H3258    1.0000 0.96982  0.68841  0.12210  Biso   1.000  H
  O1627    1.0000 0.06781  0.71059  0.11133  Biso   1.000  O
  H3259    1.0000 0.01738  0.77129  0.09790  Biso   1.000  H
  H3260    1.0000 0.01738  0.77133  0.09790  Biso   1.000  H
  H3261    1.0000 0.01742  0.77129  0.09790  Biso   1.000  H
  H3262    1.0000 0.01742  0.77133  0.09790  Biso   1.000  H
  C1952    1.0000 0.13730  0.23179  0.07010  Biso   1.000  C
  C1953    1.0000 0.13730  0.23183  0.07010  Biso   1.000  C
  C1954    1.0000 0.13734  0.23179  0.07010  Biso   1.000  C
  C1955    1.0000 0.13734  0.23183  0.07010  Biso   1.000  C
  O1628    1.0000 0.10952  0.77958  0.07433  Biso   1.000  O
  H3263    1.0000 0.07909  0.70281  0.06490  Biso   1.000  H
  O1629    1.0000 0.10952  0.77962  0.07433  Biso   1.000  O
  H3264    1.0000 0.07913  0.70281  0.06490  Biso   1.000  H
  O1630    1.0000 0.07791  0.71830  0.01950  Biso   1.000  O
  H3265    1.0000 0.02538  0.77958  0.01500  Biso   1.000  H
  H3266    1.0000 0.08351  0.79751  0.02709  Biso   1.000  H
  H3267    1.0000 0.02538  0.77962  0.01500  Biso   1.000  H
  H3268    1.0000 0.02542  0.77958  0.01500  Biso   1.000  H
  H3269    1.0000 0.02542  0.77962  0.01500  Biso   1.000  H
  H3270    1.0000 0.09129  0.68829  0.10530  Biso   1.000  H
  H3271    1.0000 0.09129  0.68833  0.10530  Biso   1.000  H
  H3272    1.0000 0.09133  0.68829  0.10530  Biso   1.000  H
  H3273    1.0000 0.09133  0.68833  0.10530  Biso   1.000  H
  H3274    1.0000 0.15312  0.26912  0.06540  Biso   1.000  H
  C1956    1.0000 0.16390  0.21032  0.09319  Biso   1.000  C
  C1957    1.0000 0.14879  0.18679  0.05110  Biso   1.000  C
  C1958    1.0000 0.14879  0.18683  0.05110  Biso   1.000  C
  C1959    1.0000 0.16394  0.21032  0.09319  Biso   1.000  C
  C1960    1.0000 0.14883  0.18679  0.05110  Biso   1.000  C
  C1961    1.0000 0.14883  0.18683  0.05110  Biso   1.000  C
  C1962    1.0000 0.16402  0.76102  0.06809  Biso   1.000  C
  H3275    1.0000 0.05619  0.69271  0.01511  Biso   1.000  H
  H3276    1.0000 0.05623  0.69271  0.01511  Biso   1.000  H
  O1631    1.0000 0.15619  0.25249  0.11182  Biso   1.000  O
  H3277    1.0000 0.14622  0.17391  0.09800  Biso   1.000  H
  C1963    1.0000 0.22720  0.20211  0.08910  Biso   1.000  C
  O1632    1.0000 0.15619  0.25254  0.11182  Biso   1.000  O
  O1633    1.0000 0.15624  0.25249  0.11182  Biso   1.000  O
  C1964    1.0000 0.22724  0.20211  0.08910  Biso   1.000  C
  O1634    1.0000 0.15624  0.25254  0.11182  Biso   1.000  O
  O1635    1.0000 0.20990  0.18351  0.04763  Biso   1.000  O
  H3278    1.0000 0.13481  0.14950  0.05690  Biso   1.000  H
  C1965    1.0000 0.12261  0.19908  0.02679  Biso   1.000  C
  C1966    1.0000 0.12261  0.19912  0.02679  Biso   1.000  C
  O1636    1.0000 0.18351  0.79010  0.04763  Biso   1.000  O
  C1967    1.0000 0.20211  0.77280  0.08910  Biso   1.000  C
  H3279    1.0000 0.16322  0.71960  0.06490  Biso   1.000  H
  H3280    1.0000 0.12429  0.26752  0.11040  Biso   1.000  H
  H3281    1.0000 0.12433  0.26752  0.11040  Biso   1.000  H
  O1637    1.0000 0.25089  0.17741  0.10994  Biso   1.000  O
  H3282    1.0000 0.24509  0.23961  0.08641  Biso   1.000  H
  C1968    1.0000 0.23898  0.16402  0.06809  Biso   1.000  C
  O1638    1.0000 0.25094  0.17741  0.10994  Biso   1.000  O
  H3283    1.0000 0.24513  0.23961  0.08641  Biso   1.000  H
  C1969    1.0000 0.23903  0.16402  0.06809  Biso   1.000  C
  O1639    1.0000 0.14142  0.25313  0.01870  Biso   1.000  O
  H3284    1.0000 0.13389  0.16962  0.01541  Biso   1.000  H
  H3285    1.0000 0.08102  0.19879  0.02810  Biso   1.000  H
  H3286    1.0000 0.08102  0.19883  0.02810  Biso   1.000  H
  H3287    1.0000 0.13393  0.16962  0.01541  Biso   1.000  H
  C1970    1.0000 0.18679  0.85121  0.05110  Biso   1.000  C
  C1971    1.0000 0.18683  0.85121  0.05110  Biso   1.000  C
  O1640    1.0000 0.17741  0.74911  0.10994  Biso   1.000  O
  C1972    1.0000 0.21032  0.83610  0.09319  Biso   1.000  C
  H3288    1.0000 0.23961  0.75491  0.08641  Biso   1.000  H
  H3289    1.0000 0.27552  0.19588  0.11500  Biso   1.000  H
  H3290    1.0000 0.27552  0.19593  0.11500  Biso   1.000  H
  O1641    1.0000 0.22042  0.10952  0.07433  Biso   1.000  O
  H3291    1.0000 0.28040  0.16322  0.06490  Biso   1.000  H
  H3292    1.0000 0.28044  0.16322  0.06490  Biso   1.000  H
  H3293    1.0000 0.12000  0.27000  0.00811  Biso   1.000  H
  H3294    1.0000 0.12004  0.27000  0.00811  Biso   1.000  H
  C1973    1.0000 0.23179  0.86270  0.07010  Biso   1.000  C
  H3295    1.0000 0.14950  0.86519  0.05690  Biso   1.000  H
  C1974    1.0000 0.19908  0.87739  0.02679  Biso   1.000  C
  H3296    1.0000 0.14950  0.86523  0.05690  Biso   1.000  H
  C1975    1.0000 0.23183  0.86270  0.07010  Biso   1.000  C
  C1976    1.0000 0.19912  0.87739  0.02679  Biso   1.000  C
  H3297    1.0000 0.19588  0.72448  0.11500  Biso   1.000  H
  H3298    1.0000 0.19588  0.72453  0.11500  Biso   1.000  H
  H3299    1.0000 0.19593  0.72448  0.11500  Biso   1.000  H
  H3300    1.0000 0.19593  0.72453  0.11500  Biso   1.000  H
  O1642    1.0000 0.25249  0.84381  0.11182  Biso   1.000  O
  H3301    1.0000 0.17391  0.85378  0.09800  Biso   1.000  H
  H3302    1.0000 0.17391  0.85382  0.09800  Biso   1.000  H
  O1643    1.0000 0.25254  0.84381  0.11182  Biso   1.000  O
  C1977    1.0000 0.25990  0.06339  0.06991  Biso   1.000  C
  C1978    1.0000 0.25990  0.06343  0.06991  Biso   1.000  C
  O1644    1.0000 0.23532  0.92251  0.07431  Biso   1.000  O
  H3303    1.0000 0.26912  0.84688  0.06540  Biso   1.000  H
  H3304    1.0000 0.26912  0.84692  0.06540  Biso   1.000  H
  O1645    1.0000 0.25313  0.85858  0.01870  Biso   1.000  O
  H3305    1.0000 0.16962  0.86611  0.01541  Biso   1.000  H
  H3306    1.0000 0.19879  0.91898  0.02810  Biso   1.000  H
  O1646    1.0000 0.25313  0.85862  0.01870  Biso   1.000  O
  H3307    1.0000 0.19879  0.91902  0.02810  Biso   1.000  H
  H3308    1.0000 0.19883  0.91898  0.02810  Biso   1.000  H
  H3309    1.0000 0.19883  0.91902  0.02810  Biso   1.000  H
  H3310    1.0000 0.26752  0.87571  0.11040  Biso   1.000  H
  H3311    1.0000 0.29719  0.07909  0.06490  Biso   1.000  H
  C1979    1.0000 0.26643  0.03169  0.09280  Biso   1.000  C
  C1980    1.0000 0.23772  0.02639  0.05140  Biso   1.000  C
  H3312    1.0000 0.29719  0.07913  0.06490  Biso   1.000  H
  C1981    1.0000 0.26643  0.03174  0.09280  Biso   1.000  C
  C1982    1.0000 0.23772  0.02643  0.05140  Biso   1.000  C
  H3313    1.0000 0.29723  0.07909  0.06490  Biso   1.000  H
  H3314    1.0000 0.29723  0.07913  0.06490  Biso   1.000  H
  C1983    1.0000 0.28469  0.94819  0.06820  Biso   1.000  C
  C1984    1.0000 0.28469  0.94823  0.06820  Biso   1.000  C
  C1985    1.0000 0.28473  0.94819  0.06820  Biso   1.000  C
  C1986    1.0000 0.28473  0.94823  0.06820  Biso   1.000  C
  H3315    1.0000 0.27000  0.88000  0.00811  Biso   1.000  H
  C1987    1.0000 0.30372  0.98371  0.08850  Biso   1.000  C
  O1647    1.0000 0.28941  0.06781  0.11133  Biso   1.000  O
  H3316    1.0000 0.22871  0.01738  0.09790  Biso   1.000  H
  H3317    1.0000 0.22871  0.01742  0.09790  Biso   1.000  H
  O1648    1.0000 0.27901  0.98089  0.04720  Biso   1.000  O
  O1649    1.0000 0.27901  0.98093  0.04720  Biso   1.000  O
  H3318    1.0000 0.20081  0.01010  0.05641  Biso   1.000  H
  C1988    1.0000 0.23212  0.05421  0.02660  Biso   1.000  C
  H3319    1.0000 0.31361  0.91839  0.06531  Biso   1.000  H
  H3320    1.0000 0.31361  0.91843  0.06531  Biso   1.000  H
  O1650    1.0000 0.30889  0.94861  0.11024  Biso   1.000  O
  H3321    1.0000 0.34189  0.99878  0.08470  Biso   1.000  H
  H3322    1.0000 0.34189  0.99882  0.08470  Biso   1.000  H
  O1651    1.0000 0.30894  0.94861  0.11024  Biso   1.000  O
  H3323    1.0000 0.34193  0.99878  0.08470  Biso   1.000  H
  H3324    1.0000 0.34193  0.99882  0.08470  Biso   1.000  H
  H3325    1.0000 0.31171  0.09129  0.10530  Biso   1.000  H
  H3326    1.0000 0.31171  0.09133  0.10530  Biso   1.000  H
  O1652    1.0000 0.28170  0.07791  0.01950  Biso   1.000  O
  H3327    1.0000 0.22042  0.02538  0.01500  Biso   1.000  H
  H3328    1.0000 0.20249  0.08351  0.02709  Biso   1.000  H
  H3329    1.0000 0.22042  0.02542  0.01500  Biso   1.000  H
  H3330    1.0000 0.20253  0.08351  0.02709  Biso   1.000  H
  H3331    1.0000 0.31159  0.96978  0.12210  Biso   1.000  H
  H3332    1.0000 0.31159  0.96982  0.12210  Biso   1.000  H
  H3333    1.0000 0.31163  0.96978  0.12210  Biso   1.000  H
  H3334    1.0000 0.31163  0.96982  0.12210  Biso   1.000  H
  H3335    1.0000 0.30729  0.05619  0.01511  Biso   1.000  H
  H3336    1.0000 0.30729  0.05623  0.01511  Biso   1.000  H
  H3337    1.0000 0.30734  0.05619  0.01511  Biso   1.000  H
  H3338    1.0000 0.30734  0.05623  0.01511  Biso   1.000  H
  O1653    1.0000 0.69111  0.05143  0.11024  Biso   1.000  O
  C1989    1.0000 0.69628  0.01629  0.08850  Biso   1.000  C
  C1990    1.0000 0.69628  0.01633  0.08850  Biso   1.000  C
  C1991    1.0000 0.69633  0.01629  0.08850  Biso   1.000  C
  C1992    1.0000 0.69633  0.01633  0.08850  Biso   1.000  C
  H3339    1.0000 0.68841  0.03022  0.12210  Biso   1.000  H
  C1993    1.0000 0.71531  0.05181  0.06820  Biso   1.000  C
  H3340    1.0000 0.65811  0.00122  0.08470  Biso   1.000  H
  C1994    1.0000 0.73357  0.96831  0.09280  Biso   1.000  C
  C1995    1.0000 0.73362  0.96831  0.09280  Biso   1.000  C
  O1654    1.0000 0.69111  0.05139  0.11024  Biso   1.000  O
  H3341    1.0000 0.68639  0.08161  0.06531  Biso   1.000  H
  O1655    1.0000 0.76468  0.07749  0.07431  Biso   1.000  O
  O1656    1.0000 0.72099  0.01911  0.04720  Biso   1.000  O
  O1657    1.0000 0.76468  0.07753  0.07431  Biso   1.000  O
  O1658    1.0000 0.76472  0.07749  0.07431  Biso   1.000  O
  O1659    1.0000 0.72103  0.01911  0.04720  Biso   1.000  O
  O1660    1.0000 0.76472  0.07753  0.07431  Biso   1.000  O
  C1996    1.0000 0.74010  0.93661  0.06991  Biso   1.000  C
  O1661    1.0000 0.71059  0.93219  0.11133  Biso   1.000  O
  H3342    1.0000 0.77129  0.98262  0.09790  Biso   1.000  H
  O1662    1.0000 0.71059  0.93224  0.11133  Biso   1.000  O
  H3343    1.0000 0.77133  0.98262  0.09790  Biso   1.000  H
  C1997    1.0000 0.76821  0.13730  0.07010  Biso   1.000  C
  C1998    1.0000 0.76821  0.13734  0.07010  Biso   1.000  C
  C1999    1.0000 0.76228  0.97361  0.05140  Biso   1.000  C
  C2000    1.0000 0.76232  0.97361  0.05140  Biso   1.000  C
  O1663    1.0000 0.77958  0.89048  0.07433  Biso   1.000  O
  H3344    1.0000 0.70281  0.92091  0.06490  Biso   1.000  H
  O1664    1.0000 0.77958  0.89053  0.07433  Biso   1.000  O
  O1665    1.0000 0.77962  0.89048  0.07433  Biso   1.000  O
  O1666    1.0000 0.77962  0.89053  0.07433  Biso   1.000  O
  H3345    1.0000 0.68829  0.90871  0.10530  Biso   1.000  H
  H3346    1.0000 0.68833  0.90871  0.10530  Biso   1.000  H
  H3347    1.0000 0.73088  0.15312  0.06540  Biso   1.000  H
  C2001    1.0000 0.78968  0.16390  0.09319  Biso   1.000  C
  C2002    1.0000 0.81321  0.14879  0.05110  Biso   1.000  C
  C2003    1.0000 0.78968  0.16394  0.09319  Biso   1.000  C
  C2004    1.0000 0.81321  0.14883  0.05110  Biso   1.000  C
  H3348    1.0000 0.73092  0.15312  0.06540  Biso   1.000  H
  C2005    1.0000 0.78972  0.16390  0.09319  Biso   1.000  C
  C2006    1.0000 0.78972  0.16394  0.09319  Biso   1.000  C
  H3349    1.0000 0.79919  0.98990  0.05641  Biso   1.000  H
  C2007    1.0000 0.76788  0.94579  0.02660  Biso   1.000  C
  C2008    1.0000 0.76788  0.94583  0.02660  Biso   1.000  C
  H3350    1.0000 0.79923  0.98990  0.05641  Biso   1.000  H
  C2009    1.0000 0.76792  0.94579  0.02660  Biso   1.000  C
  C2010    1.0000 0.76792  0.94583  0.02660  Biso   1.000  C
  C2011    1.0000 0.76102  0.83598  0.06809  Biso   1.000  C
  C2012    1.0000 0.76102  0.83602  0.06809  Biso   1.000  C
  O1667    1.0000 0.74751  0.15619  0.11182  Biso   1.000  O
  H3351    1.0000 0.82609  0.14622  0.09800  Biso   1.000  H
  C2013    1.0000 0.79789  0.22720  0.08910  Biso   1.000  C
  O1668    1.0000 0.74751  0.15624  0.11182  Biso   1.000  O
  C2014    1.0000 0.79789  0.22724  0.08910  Biso   1.000  C
  H3352    1.0000 0.82613  0.14622  0.09800  Biso   1.000  H
  C2015    1.0000 0.79793  0.22720  0.08910  Biso   1.000  C
  C2016    1.0000 0.79793  0.22724  0.08910  Biso   1.000  C
  H3353    1.0000 0.85050  0.13481  0.05690  Biso   1.000  H
  C2017    1.0000 0.80092  0.12261  0.02679  Biso   1.000  C
  O1669    1.0000 0.81649  0.20990  0.04763  Biso   1.000  O
  O1670    1.0000 0.81653  0.20990  0.04763  Biso   1.000  O
  O1671    1.0000 0.71830  0.92209  0.01950  Biso   1.000  O
  H3354    1.0000 0.77958  0.97462  0.01500  Biso   1.000  H
  H3355    1.0000 0.79751  0.91649  0.02709  Biso   1.000  H
  O1672    1.0000 0.71830  0.92213  0.01950  Biso   1.000  O
  H3356    1.0000 0.77962  0.97462  0.01500  Biso   1.000  H
  O1673    1.0000 0.79010  0.81649  0.04763  Biso   1.000  O
  C2018    1.0000 0.77280  0.79789  0.08910  Biso   1.000  C
  H3357    1.0000 0.71960  0.83678  0.06490  Biso   1.000  H
  O1674    1.0000 0.79010  0.81653  0.04763  Biso   1.000  O
  C2019    1.0000 0.77280  0.79793  0.08910  Biso   1.000  C
  H3358    1.0000 0.71960  0.83682  0.06490  Biso   1.000  H
  H3359    1.0000 0.73248  0.12429  0.11040  Biso   1.000  H
  H3360    1.0000 0.73248  0.12433  0.11040  Biso   1.000  H
  H3361    1.0000 0.73252  0.12429  0.11040  Biso   1.000  H
  H3362    1.0000 0.73252  0.12433  0.11040  Biso   1.000  H
  O1675    1.0000 0.82259  0.25089  0.10994  Biso   1.000  O
  H3363    1.0000 0.76039  0.24509  0.08641  Biso   1.000  H
  C2020    1.0000 0.83598  0.23898  0.06809  Biso   1.000  C
  O1676    1.0000 0.82259  0.25094  0.10994  Biso   1.000  O
  H3364    1.0000 0.76039  0.24513  0.08641  Biso   1.000  H
  C2021    1.0000 0.83598  0.23903  0.06809  Biso   1.000  C
  H3365    1.0000 0.76043  0.24509  0.08641  Biso   1.000  H
  C2022    1.0000 0.83602  0.23898  0.06809  Biso   1.000  C
  H3366    1.0000 0.76043  0.24513  0.08641  Biso   1.000  H
  C2023    1.0000 0.83602  0.23903  0.06809  Biso   1.000  C
  H3367    1.0000 0.80121  0.08102  0.02810  Biso   1.000  H
  O1677    1.0000 0.74687  0.14142  0.01870  Biso   1.000  O
  H3368    1.0000 0.83038  0.13389  0.01541  Biso   1.000  H
  H3369    1.0000 0.83038  0.13393  0.01541  Biso   1.000  H
  O1678    1.0000 0.74692  0.14142  0.01870  Biso   1.000  O
  H3370    1.0000 0.83042  0.13389  0.01541  Biso   1.000  H
  H3371    1.0000 0.83042  0.13393  0.01541  Biso   1.000  H
  H3372    1.0000 0.69271  0.94381  0.01511  Biso   1.000  H
  C2024    1.0000 0.85121  0.81321  0.05110  Biso   1.000  C
  O1679    1.0000 0.74911  0.82259  0.10994  Biso   1.000  O
  C2025    1.0000 0.83610  0.78968  0.09319  Biso   1.000  C
  H3373    1.0000 0.75491  0.76039  0.08641  Biso   1.000  H
  C2026    1.0000 0.83610  0.78972  0.09319  Biso   1.000  C
  H3374    1.0000 0.75491  0.76043  0.08641  Biso   1.000  H
  H3375    1.0000 0.80412  0.27552  0.11500  Biso   1.000  H
  O1680    1.0000 0.89048  0.22042  0.07433  Biso   1.000  O
  H3376    1.0000 0.83678  0.28040  0.06490  Biso   1.000  H
  H3377    1.0000 0.83678  0.28044  0.06490  Biso   1.000  H
  O1681    1.0000 0.89053  0.22042  0.07433  Biso   1.000  O
  H3378    1.0000 0.83682  0.28040  0.06490  Biso   1.000  H
  H3379    1.0000 0.83682  0.28044  0.06490  Biso   1.000  H
  H3380    1.0000 0.73000  0.12000  0.00811  Biso   1.000  H
  H3381    1.0000 0.73000  0.12004  0.00811  Biso   1.000  H
  C2027    1.0000 0.86270  0.76821  0.07010  Biso   1.000  C
  H3382    1.0000 0.86519  0.85050  0.05690  Biso   1.000  H
  C2028    1.0000 0.87739  0.80092  0.02679  Biso   1.000  C
  H3383    1.0000 0.86523  0.85050  0.05690  Biso   1.000  H
  H3384    1.0000 0.72448  0.80412  0.11500  Biso   1.000  H
  H3385    1.0000 0.72453  0.80412  0.11500  Biso   1.000  H
  O1682    1.0000 0.84381  0.74751  0.11182  Biso   1.000  O
  H3386    1.0000 0.85378  0.82609  0.09800  Biso   1.000  H
  H3387    1.0000 0.85378  0.82613  0.09800  Biso   1.000  H
  H3388    1.0000 0.85382  0.82609  0.09800  Biso   1.000  H
  H3389    1.0000 0.85382  0.82613  0.09800  Biso   1.000  H
  C2029    1.0000 0.93661  0.25990  0.06991  Biso   1.000  C
  O1683    1.0000 0.92251  0.76468  0.07431  Biso   1.000  O
  H3390    1.0000 0.84688  0.73088  0.06540  Biso   1.000  H
  O1684    1.0000 0.92251  0.76472  0.07431  Biso   1.000  O
  H3391    1.0000 0.84688  0.73092  0.06540  Biso   1.000  H
  H3392    1.0000 0.84692  0.73088  0.06540  Biso   1.000  H
  H3393    1.0000 0.84692  0.73092  0.06540  Biso   1.000  H
  O1685    1.0000 0.85858  0.74687  0.01870  Biso   1.000  O
  H3394    1.0000 0.86611  0.83038  0.01541  Biso   1.000  H
  H3395    1.0000 0.91898  0.80121  0.02810  Biso   1.000  H
  O1686    1.0000 0.85858  0.74692  0.01870  Biso   1.000  O
  H3396    1.0000 0.86611  0.83042  0.01541  Biso   1.000  H
  O1687    1.0000 0.85862  0.74687  0.01870  Biso   1.000  O
  H3397    1.0000 0.91902  0.80121  0.02810  Biso   1.000  H
  O1688    1.0000 0.85862  0.74692  0.01870  Biso   1.000  O
  H3398    1.0000 0.87571  0.73248  0.11040  Biso   1.000  H
  H3399    1.0000 0.87571  0.73252  0.11040  Biso   1.000  H
  C2030    1.0000 0.96831  0.26643  0.09280  Biso   1.000  C
  C2031    1.0000 0.97361  0.23772  0.05140  Biso   1.000  C
  H3400    1.0000 0.92091  0.29719  0.06490  Biso   1.000  H
  H3401    1.0000 0.92091  0.29723  0.06490  Biso   1.000  H
  C2032    1.0000 0.94819  0.71531  0.06820  Biso   1.000  C
  C2033    1.0000 0.94823  0.71531  0.06820  Biso   1.000  C
  H3402    1.0000 0.88000  0.73000  0.00811  Biso   1.000  H
  H3403    1.0000 0.98262  0.22871  0.09790  Biso   1.000  H
  O1689    1.0000 0.93219  0.28941  0.11133  Biso   1.000  O
  O1690    1.0000 0.93224  0.28941  0.11133  Biso   1.000  O
  C2034    1.0000 0.01629  0.30372  0.08850  Biso   1.000  C
  C2035    1.0000 0.01633  0.30372  0.08850  Biso   1.000  C
  H3404    1.0000 0.98990  0.20081  0.05641  Biso   1.000  H
  C2036    1.0000 0.94579  0.23212  0.02660  Biso   1.000  C
  C2037    1.0000 0.94583  0.23212  0.02660  Biso   1.000  C
  O1691    1.0000 0.01911  0.27901  0.04720  Biso   1.000  O
  O1692    1.0000 0.98089  0.72099  0.04720  Biso   1.000  O
  C2038    1.0000 0.98371  0.69628  0.08850  Biso   1.000  C
  H3405    1.0000 0.91839  0.68639  0.06531  Biso   1.000  H
  O1693    1.0000 0.98089  0.72103  0.04720  Biso   1.000  O
  C2039    1.0000 0.98371  0.69633  0.08850  Biso   1.000  C
  O1694    1.0000 0.98093  0.72099  0.04720  Biso   1.000  O
  H3406    1.0000 0.91843  0.68639  0.06531  Biso   1.000  H
  O1695    1.0000 0.98093  0.72103  0.04720  Biso   1.000  O
  H3407    1.0000 0.90871  0.31171  0.10530  Biso   1.000  H
  O1696    1.0000 0.05139  0.30889  0.11024  Biso   1.000  O
  H3408    1.0000 0.00122  0.34189  0.08470  Biso   1.000  H
  C2040    1.0000 0.05181  0.28469  0.06820  Biso   1.000  C
  O1697    1.0000 0.05139  0.30894  0.11024  Biso   1.000  O
  H3409    1.0000 0.00122  0.34193  0.08470  Biso   1.000  H
  C2041    1.0000 0.05181  0.28473  0.06820  Biso   1.000  C
  O1698    1.0000 0.05143  0.30889  0.11024  Biso   1.000  O
  O1699    1.0000 0.05143  0.30894  0.11024  Biso   1.000  O
  H3410    1.0000 0.97462  0.22042  0.01500  Biso   1.000  H
  O1700    1.0000 0.92209  0.28170  0.01950  Biso   1.000  O
  H3411    1.0000 0.91649  0.20249  0.02709  Biso   1.000  H
  H3412    1.0000 0.91649  0.20253  0.02709  Biso   1.000  H
  O1701    1.0000 0.92213  0.28170  0.01950  Biso   1.000  O
  C2042    1.0000 0.02639  0.76228  0.05140  Biso   1.000  C
  C2043    1.0000 0.02639  0.76232  0.05140  Biso   1.000  C
  C2044    1.0000 0.02643  0.76228  0.05140  Biso   1.000  C
  C2045    1.0000 0.02643  0.76232  0.05140  Biso   1.000  C
  O1702    1.0000 0.94861  0.69111  0.11024  Biso   1.000  O
  H3413    1.0000 0.99878  0.65811  0.08470  Biso   1.000  H
  H3414    1.0000 0.99882  0.65811  0.08470  Biso   1.000  H
  C2046    1.0000 0.03169  0.73357  0.09280  Biso   1.000  C
  C2047    1.0000 0.03169  0.73362  0.09280  Biso   1.000  C
  C2048    1.0000 0.03174  0.73357  0.09280  Biso   1.000  C
  C2049    1.0000 0.03174  0.73362  0.09280  Biso   1.000  C
  H3415    1.0000 0.03022  0.31159  0.12210  Biso   1.000  H
  H3416    1.0000 0.03022  0.31163  0.12210  Biso   1.000  H
  H3417    1.0000 0.08161  0.31361  0.06531  Biso   1.000  H
  O1703    1.0000 0.07749  0.23532  0.07431  Biso   1.000  O
  O1704    1.0000 0.07753  0.23532  0.07431  Biso   1.000  O
  H3418    1.0000 0.94381  0.30729  0.01511  Biso   1.000  H
  H3419    1.0000 0.94381  0.30734  0.01511  Biso   1.000  H
  C2050    1.0000 0.06339  0.74010  0.06991  Biso   1.000  C
  H3420    1.0000 0.01010  0.79919  0.05641  Biso   1.000  H
  C2051    1.0000 0.05421  0.76788  0.02660  Biso   1.000  C
  H3421    1.0000 0.01010  0.79923  0.05641  Biso   1.000  H
  C2052    1.0000 0.05421  0.76792  0.02660  Biso   1.000  C
  C2053    1.0000 0.06343  0.74010  0.06991  Biso   1.000  C
  H3422    1.0000 0.96978  0.68841  0.12210  Biso   1.000  H
  H3423    1.0000 0.96982  0.68841  0.12210  Biso   1.000  H
  O1705    1.0000 0.06781  0.71059  0.11133  Biso   1.000  O
  H3424    1.0000 0.01738  0.77129  0.09790  Biso   1.000  H
  H3425    1.0000 0.01738  0.77133  0.09790  Biso   1.000  H
  H3426    1.0000 0.01742  0.77129  0.09790  Biso   1.000  H
  H3427    1.0000 0.01742  0.77133  0.09790  Biso   1.000  H
  C2054    1.0000 0.13730  0.23179  0.07010  Biso   1.000  C
  C2055    1.0000 0.13730  0.23183  0.07010  Biso   1.000  C
  C2056    1.0000 0.13734  0.23179  0.07010  Biso   1.000  C
  C2057    1.0000 0.13734  0.23183  0.07010  Biso   1.000  C
  O1706    1.0000 0.10952  0.77958  0.07433  Biso   1.000  O
  H3428    1.0000 0.07909  0.70281  0.06490  Biso   1.000  H
  O1707    1.0000 0.10952  0.77962  0.07433  Biso   1.000  O
  H3429    1.0000 0.07913  0.70281  0.06490  Biso   1.000  H
  O1708    1.0000 0.07791  0.71830  0.01950  Biso   1.000  O
  H3430    1.0000 0.02538  0.77958  0.01500  Biso   1.000  H
  H3431    1.0000 0.08351  0.79751  0.02709  Biso   1.000  H
  H3432    1.0000 0.02538  0.77962  0.01500  Biso   1.000  H
  H3433    1.0000 0.02542  0.77958  0.01500  Biso   1.000  H
  H3434    1.0000 0.02542  0.77962  0.01500  Biso   1.000  H
  H3435    1.0000 0.09129  0.68829  0.10530  Biso   1.000  H
  H3436    1.0000 0.09129  0.68833  0.10530  Biso   1.000  H
  H3437    1.0000 0.09133  0.68829  0.10530  Biso   1.000  H
  H3438    1.0000 0.09133  0.68833  0.10530  Biso   1.000  H
  H3439    1.0000 0.15312  0.26912  0.06540  Biso   1.000  H
  C2058    1.0000 0.16390  0.21032  0.09319  Biso   1.000  C
  C2059    1.0000 0.14879  0.18679  0.05110  Biso   1.000  C
  C2060    1.0000 0.14879  0.18683  0.05110  Biso   1.000  C
  C2061    1.0000 0.16394  0.21032  0.09319  Biso   1.000  C
  C2062    1.0000 0.14883  0.18679  0.05110  Biso   1.000  C
  C2063    1.0000 0.14883  0.18683  0.05110  Biso   1.000  C
  C2064    1.0000 0.16402  0.76102  0.06809  Biso   1.000  C
  H3440    1.0000 0.05619  0.69271  0.01511  Biso   1.000  H
  H3441    1.0000 0.05623  0.69271  0.01511  Biso   1.000  H
  O1709    1.0000 0.15619  0.25249  0.11182  Biso   1.000  O
  H3442    1.0000 0.14622  0.17391  0.09800  Biso   1.000  H
  C2065    1.0000 0.22720  0.20211  0.08910  Biso   1.000  C
  O1710    1.0000 0.15619  0.25254  0.11182  Biso   1.000  O
  O1711    1.0000 0.15624  0.25249  0.11182  Biso   1.000  O
  C2066    1.0000 0.22724  0.20211  0.08910  Biso   1.000  C
  O1712    1.0000 0.15624  0.25254  0.11182  Biso   1.000  O
  O1713    1.0000 0.20990  0.18351  0.04763  Biso   1.000  O
  H3443    1.0000 0.13481  0.14950  0.05690  Biso   1.000  H
  C2067    1.0000 0.12261  0.19908  0.02679  Biso   1.000  C
  C2068    1.0000 0.12261  0.19912  0.02679  Biso   1.000  C
  O1714    1.0000 0.18351  0.79010  0.04763  Biso   1.000  O
  C2069    1.0000 0.20211  0.77280  0.08910  Biso   1.000  C
  H3444    1.0000 0.16322  0.71960  0.06490  Biso   1.000  H
  H3445    1.0000 0.12429  0.26752  0.11040  Biso   1.000  H
  H3446    1.0000 0.12433  0.26752  0.11040  Biso   1.000  H
  O1715    1.0000 0.25089  0.17741  0.10994  Biso   1.000  O
  H3447    1.0000 0.24509  0.23961  0.08641  Biso   1.000  H
  C2070    1.0000 0.23898  0.16402  0.06809  Biso   1.000  C
  O1716    1.0000 0.25094  0.17741  0.10994  Biso   1.000  O
  H3448    1.0000 0.24513  0.23961  0.08641  Biso   1.000  H
  C2071    1.0000 0.23903  0.16402  0.06809  Biso   1.000  C
  O1717    1.0000 0.14142  0.25313  0.01870  Biso   1.000  O
  H3449    1.0000 0.13389  0.16962  0.01541  Biso   1.000  H
  H3450    1.0000 0.08102  0.19879  0.02810  Biso   1.000  H
  H3451    1.0000 0.08102  0.19883  0.02810  Biso   1.000  H
  H3452    1.0000 0.13393  0.16962  0.01541  Biso   1.000  H
  C2072    1.0000 0.18679  0.85121  0.05110  Biso   1.000  C
  C2073    1.0000 0.18683  0.85121  0.05110  Biso   1.000  C
  O1718    1.0000 0.17741  0.74911  0.10994  Biso   1.000  O
  C2074    1.0000 0.21032  0.83610  0.09319  Biso   1.000  C
  H3453    1.0000 0.23961  0.75491  0.08641  Biso   1.000  H
  H3454    1.0000 0.27552  0.19588  0.11500  Biso   1.000  H
  H3455    1.0000 0.27552  0.19593  0.11500  Biso   1.000  H
  O1719    1.0000 0.22042  0.10952  0.07433  Biso   1.000  O
  H3456    1.0000 0.28040  0.16322  0.06490  Biso   1.000  H
  H3457    1.0000 0.28044  0.16322  0.06490  Biso   1.000  H
  H3458    1.0000 0.12000  0.27000  0.00811  Biso   1.000  H
  H3459    1.0000 0.12004  0.27000  0.00811  Biso   1.000  H
  C2075    1.0000 0.23179  0.86270  0.07010  Biso   1.000  C
  H3460    1.0000 0.14950  0.86519  0.05690  Biso   1.000  H
  C2076    1.0000 0.19908  0.87739  0.02679  Biso   1.000  C
  H3461    1.0000 0.14950  0.86523  0.05690  Biso   1.000  H
  C2077    1.0000 0.23183  0.86270  0.07010  Biso   1.000  C
  C2078    1.0000 0.19912  0.87739  0.02679  Biso   1.000  C
  H3462    1.0000 0.19588  0.72448  0.11500  Biso   1.000  H
  H3463    1.0000 0.19588  0.72453  0.11500  Biso   1.000  H
  H3464    1.0000 0.19593  0.72448  0.11500  Biso   1.000  H
  H3465    1.0000 0.19593  0.72453  0.11500  Biso   1.000  H
  O1720    1.0000 0.25249  0.84381  0.11182  Biso   1.000  O
  H3466    1.0000 0.17391  0.85378  0.09800  Biso   1.000  H
  H3467    1.0000 0.17391  0.85382  0.09800  Biso   1.000  H
  O1721    1.0000 0.25254  0.84381  0.11182  Biso   1.000  O
  C2079    1.0000 0.25990  0.06339  0.06991  Biso   1.000  C
  C2080    1.0000 0.25990  0.06343  0.06991  Biso   1.000  C
  O1722    1.0000 0.23532  0.92251  0.07431  Biso   1.000  O
  H3468    1.0000 0.26912  0.84688  0.06540  Biso   1.000  H
  H3469    1.0000 0.26912  0.84692  0.06540  Biso   1.000  H
  O1723    1.0000 0.25313  0.85858  0.01870  Biso   1.000  O
  H3470    1.0000 0.16962  0.86611  0.01541  Biso   1.000  H
  H3471    1.0000 0.19879  0.91898  0.02810  Biso   1.000  H
  O1724    1.0000 0.25313  0.85862  0.01870  Biso   1.000  O
  H3472    1.0000 0.19879  0.91902  0.02810  Biso   1.000  H
  H3473    1.0000 0.19883  0.91898  0.02810  Biso   1.000  H
  H3474    1.0000 0.19883  0.91902  0.02810  Biso   1.000  H
  H3475    1.0000 0.26752  0.87571  0.11040  Biso   1.000  H
  H3476    1.0000 0.29719  0.07909  0.06490  Biso   1.000  H
  C2081    1.0000 0.26643  0.03169  0.09280  Biso   1.000  C
  C2082    1.0000 0.23772  0.02639  0.05140  Biso   1.000  C
  H3477    1.0000 0.29719  0.07913  0.06490  Biso   1.000  H
  C2083    1.0000 0.26643  0.03174  0.09280  Biso   1.000  C
  C2084    1.0000 0.23772  0.02643  0.05140  Biso   1.000  C
  H3478    1.0000 0.29723  0.07909  0.06490  Biso   1.000  H
  H3479    1.0000 0.29723  0.07913  0.06490  Biso   1.000  H
  C2085    1.0000 0.28469  0.94819  0.06820  Biso   1.000  C
  C2086    1.0000 0.28469  0.94823  0.06820  Biso   1.000  C
  C2087    1.0000 0.28473  0.94819  0.06820  Biso   1.000  C
  C2088    1.0000 0.28473  0.94823  0.06820  Biso   1.000  C
  H3480    1.0000 0.27000  0.88000  0.00811  Biso   1.000  H
  C2089    1.0000 0.30372  0.98371  0.08850  Biso   1.000  C
  O1725    1.0000 0.28941  0.06781  0.11133  Biso   1.000  O
  H3481    1.0000 0.22871  0.01738  0.09790  Biso   1.000  H
  H3482    1.0000 0.22871  0.01742  0.09790  Biso   1.000  H
  O1726    1.0000 0.27901  0.98089  0.04720  Biso   1.000  O
  O1727    1.0000 0.27901  0.98093  0.04720  Biso   1.000  O
  H3483    1.0000 0.20081  0.01010  0.05641  Biso   1.000  H
  C2090    1.0000 0.23212  0.05421  0.02660  Biso   1.000  C
  H3484    1.0000 0.31361  0.91839  0.06531  Biso   1.000  H
  H3485    1.0000 0.31361  0.91843  0.06531  Biso   1.000  H
  O1728    1.0000 0.30889  0.94861  0.11024  Biso   1.000  O
  H3486    1.0000 0.34189  0.99878  0.08470  Biso   1.000  H
  H3487    1.0000 0.34189  0.99882  0.08470  Biso   1.000  H
  O1729    1.0000 0.30894  0.94861  0.11024  Biso   1.000  O
  H3488    1.0000 0.34193  0.99878  0.08470  Biso   1.000  H
  H3489    1.0000 0.34193  0.99882  0.08470  Biso   1.000  H
  H3490    1.0000 0.31171  0.09129  0.10530  Biso   1.000  H
  H3491    1.0000 0.31171  0.09133  0.10530  Biso   1.000  H
  O1730    1.0000 0.28170  0.07791  0.01950  Biso   1.000  O
  H3492    1.0000 0.22042  0.02538  0.01500  Biso   1.000  H
  H3493    1.0000 0.20249  0.08351  0.02709  Biso   1.000  H
  H3494    1.0000 0.22042  0.02542  0.01500  Biso   1.000  H
  H3495    1.0000 0.20253  0.08351  0.02709  Biso   1.000  H
  H3496    1.0000 0.31159  0.96978  0.12210  Biso   1.000  H
  H3497    1.0000 0.31159  0.96982  0.12210  Biso   1.000  H
  H3498    1.0000 0.31163  0.96978  0.12210  Biso   1.000  H
  H3499    1.0000 0.31163  0.96982  0.12210  Biso   1.000  H
  H3500    1.0000 0.30729  0.05619  0.01511  Biso   1.000  H
  H3501    1.0000 0.30729  0.05623  0.01511  Biso   1.000  H
  H3502    1.0000 0.30734  0.05619  0.01511  Biso   1.000  H
  H3503    1.0000 0.30734  0.05623  0.01511  Biso   1.000  H
  O1731    1.0000 0.69111  0.05143  0.11024  Biso   1.000  O
  C2091    1.0000 0.69628  0.01629  0.08850  Biso   1.000  C
  C2092    1.0000 0.69628  0.01633  0.08850  Biso   1.000  C
  C2093    1.0000 0.69633  0.01629  0.08850  Biso   1.000  C
  C2094    1.0000 0.69633  0.01633  0.08850  Biso   1.000  C
  H3504    1.0000 0.68841  0.03022  0.12210  Biso   1.000  H
  C2095    1.0000 0.71531  0.05181  0.06820  Biso   1.000  C
  H3505    1.0000 0.65811  0.00122  0.08470  Biso   1.000  H
  C2096    1.0000 0.73357  0.96831  0.09280  Biso   1.000  C
  C2097    1.0000 0.73362  0.96831  0.09280  Biso   1.000  C
  O1732    1.0000 0.69111  0.05139  0.11024  Biso   1.000  O
  H3506    1.0000 0.68639  0.08161  0.06531  Biso   1.000  H
  O1733    1.0000 0.76468  0.07749  0.07431  Biso   1.000  O
  O1734    1.0000 0.72099  0.01911  0.04720  Biso   1.000  O
  O1735    1.0000 0.76468  0.07753  0.07431  Biso   1.000  O
  O1736    1.0000 0.76472  0.07749  0.07431  Biso   1.000  O
  O1737    1.0000 0.72103  0.01911  0.04720  Biso   1.000  O
  O1738    1.0000 0.76472  0.07753  0.07431  Biso   1.000  O
  C2098    1.0000 0.74010  0.93661  0.06991  Biso   1.000  C
  O1739    1.0000 0.71059  0.93219  0.11133  Biso   1.000  O
  H3507    1.0000 0.77129  0.98262  0.09790  Biso   1.000  H
  O1740    1.0000 0.71059  0.93224  0.11133  Biso   1.000  O
  H3508    1.0000 0.77133  0.98262  0.09790  Biso   1.000  H
  C2099    1.0000 0.76821  0.13730  0.07010  Biso   1.000  C
  C2100    1.0000 0.76821  0.13734  0.07010  Biso   1.000  C
  C2101    1.0000 0.76228  0.97361  0.05140  Biso   1.000  C
  C2102    1.0000 0.76232  0.97361  0.05140  Biso   1.000  C
  O1741    1.0000 0.77958  0.89048  0.07433  Biso   1.000  O
  H3509    1.0000 0.70281  0.92091  0.06490  Biso   1.000  H
  O1742    1.0000 0.77958  0.89053  0.07433  Biso   1.000  O
  O1743    1.0000 0.77962  0.89048  0.07433  Biso   1.000  O
  O1744    1.0000 0.77962  0.89053  0.07433  Biso   1.000  O
  H3510    1.0000 0.68829  0.90871  0.10530  Biso   1.000  H
  H3511    1.0000 0.68833  0.90871  0.10530  Biso   1.000  H
  H3512    1.0000 0.73088  0.15312  0.06540  Biso   1.000  H
  C2103    1.0000 0.78968  0.16390  0.09319  Biso   1.000  C
  C2104    1.0000 0.81321  0.14879  0.05110  Biso   1.000  C
  C2105    1.0000 0.78968  0.16394  0.09319  Biso   1.000  C
  C2106    1.0000 0.81321  0.14883  0.05110  Biso   1.000  C
  H3513    1.0000 0.73092  0.15312  0.06540  Biso   1.000  H
  C2107    1.0000 0.78972  0.16390  0.09319  Biso   1.000  C
  C2108    1.0000 0.78972  0.16394  0.09319  Biso   1.000  C
  H3514    1.0000 0.79919  0.98990  0.05641  Biso   1.000  H
  C2109    1.0000 0.76788  0.94579  0.02660  Biso   1.000  C
  C2110    1.0000 0.76788  0.94583  0.02660  Biso   1.000  C
  H3515    1.0000 0.79923  0.98990  0.05641  Biso   1.000  H
  C2111    1.0000 0.76792  0.94579  0.02660  Biso   1.000  C
  C2112    1.0000 0.76792  0.94583  0.02660  Biso   1.000  C
  C2113    1.0000 0.76102  0.83598  0.06809  Biso   1.000  C
  C2114    1.0000 0.76102  0.83602  0.06809  Biso   1.000  C
  O1745    1.0000 0.74751  0.15619  0.11182  Biso   1.000  O
  H3516    1.0000 0.82609  0.14622  0.09800  Biso   1.000  H
  C2115    1.0000 0.79789  0.22720  0.08910  Biso   1.000  C
  O1746    1.0000 0.74751  0.15624  0.11182  Biso   1.000  O
  C2116    1.0000 0.79789  0.22724  0.08910  Biso   1.000  C
  H3517    1.0000 0.82613  0.14622  0.09800  Biso   1.000  H
  C2117    1.0000 0.79793  0.22720  0.08910  Biso   1.000  C
  C2118    1.0000 0.79793  0.22724  0.08910  Biso   1.000  C
  H3518    1.0000 0.85050  0.13481  0.05690  Biso   1.000  H
  C2119    1.0000 0.80092  0.12261  0.02679  Biso   1.000  C
  O1747    1.0000 0.81649  0.20990  0.04763  Biso   1.000  O
  O1748    1.0000 0.81653  0.20990  0.04763  Biso   1.000  O
  O1749    1.0000 0.71830  0.92209  0.01950  Biso   1.000  O
  H3519    1.0000 0.77958  0.97462  0.01500  Biso   1.000  H
  H3520    1.0000 0.79751  0.91649  0.02709  Biso   1.000  H
  O1750    1.0000 0.71830  0.92213  0.01950  Biso   1.000  O
  H3521    1.0000 0.77962  0.97462  0.01500  Biso   1.000  H
  O1751    1.0000 0.79010  0.81649  0.04763  Biso   1.000  O
  C2120    1.0000 0.77280  0.79789  0.08910  Biso   1.000  C
  H3522    1.0000 0.71960  0.83678  0.06490  Biso   1.000  H
  O1752    1.0000 0.79010  0.81653  0.04763  Biso   1.000  O
  C2121    1.0000 0.77280  0.79793  0.08910  Biso   1.000  C
  H3523    1.0000 0.71960  0.83682  0.06490  Biso   1.000  H
  H3524    1.0000 0.73248  0.12429  0.11040  Biso   1.000  H
  H3525    1.0000 0.73248  0.12433  0.11040  Biso   1.000  H
  H3526    1.0000 0.73252  0.12429  0.11040  Biso   1.000  H
  H3527    1.0000 0.73252  0.12433  0.11040  Biso   1.000  H
  O1753    1.0000 0.82259  0.25089  0.10994  Biso   1.000  O
  H3528    1.0000 0.76039  0.24509  0.08641  Biso   1.000  H
  C2122    1.0000 0.83598  0.23898  0.06809  Biso   1.000  C
  O1754    1.0000 0.82259  0.25094  0.10994  Biso   1.000  O
  H3529    1.0000 0.76039  0.24513  0.08641  Biso   1.000  H
  C2123    1.0000 0.83598  0.23903  0.06809  Biso   1.000  C
  H3530    1.0000 0.76043  0.24509  0.08641  Biso   1.000  H
  C2124    1.0000 0.83602  0.23898  0.06809  Biso   1.000  C
  H3531    1.0000 0.76043  0.24513  0.08641  Biso   1.000  H
  C2125    1.0000 0.83602  0.23903  0.06809  Biso   1.000  C
  H3532    1.0000 0.80121  0.08102  0.02810  Biso   1.000  H
  O1755    1.0000 0.74687  0.14142  0.01870  Biso   1.000  O
  H3533    1.0000 0.83038  0.13389  0.01541  Biso   1.000  H
  H3534    1.0000 0.83038  0.13393  0.01541  Biso   1.000  H
  O1756    1.0000 0.74692  0.14142  0.01870  Biso   1.000  O
  H3535    1.0000 0.83042  0.13389  0.01541  Biso   1.000  H
  H3536    1.0000 0.83042  0.13393  0.01541  Biso   1.000  H
  H3537    1.0000 0.69271  0.94381  0.01511  Biso   1.000  H
  C2126    1.0000 0.85121  0.81321  0.05110  Biso   1.000  C
  O1757    1.0000 0.74911  0.82259  0.10994  Biso   1.000  O
  C2127    1.0000 0.83610  0.78968  0.09319  Biso   1.000  C
  H3538    1.0000 0.75491  0.76039  0.08641  Biso   1.000  H
  C2128    1.0000 0.83610  0.78972  0.09319  Biso   1.000  C
  H3539    1.0000 0.75491  0.76043  0.08641  Biso   1.000  H
  H3540    1.0000 0.80412  0.27552  0.11500  Biso   1.000  H
  O1758    1.0000 0.89048  0.22042  0.07433  Biso   1.000  O
  H3541    1.0000 0.83678  0.28040  0.06490  Biso   1.000  H
  H3542    1.0000 0.83678  0.28044  0.06490  Biso   1.000  H
  O1759    1.0000 0.89053  0.22042  0.07433  Biso   1.000  O
  H3543    1.0000 0.83682  0.28040  0.06490  Biso   1.000  H
  H3544    1.0000 0.83682  0.28044  0.06490  Biso   1.000  H
  H3545    1.0000 0.73000  0.12000  0.00811  Biso   1.000  H
  H3546    1.0000 0.73000  0.12004  0.00811  Biso   1.000  H
  C2129    1.0000 0.86270  0.76821  0.07010  Biso   1.000  C
  H3547    1.0000 0.86519  0.85050  0.05690  Biso   1.000  H
  C2130    1.0000 0.87739  0.80092  0.02679  Biso   1.000  C
  H3548    1.0000 0.86523  0.85050  0.05690  Biso   1.000  H
  H3549    1.0000 0.72448  0.80412  0.11500  Biso   1.000  H
  H3550    1.0000 0.72453  0.80412  0.11500  Biso   1.000  H
  O1760    1.0000 0.84381  0.74751  0.11182  Biso   1.000  O
  H3551    1.0000 0.85378  0.82609  0.09800  Biso   1.000  H
  H3552    1.0000 0.85378  0.82613  0.09800  Biso   1.000  H
  H3553    1.0000 0.85382  0.82609  0.09800  Biso   1.000  H
  H3554    1.0000 0.85382  0.82613  0.09800  Biso   1.000  H
  C2131    1.0000 0.93661  0.25990  0.06991  Biso   1.000  C
  O1761    1.0000 0.92251  0.76468  0.07431  Biso   1.000  O
  H3555    1.0000 0.84688  0.73088  0.06540  Biso   1.000  H
  O1762    1.0000 0.92251  0.76472  0.07431  Biso   1.000  O
  H3556    1.0000 0.84688  0.73092  0.06540  Biso   1.000  H
  H3557    1.0000 0.84692  0.73088  0.06540  Biso   1.000  H
  H3558    1.0000 0.84692  0.73092  0.06540  Biso   1.000  H
  O1763    1.0000 0.85858  0.74687  0.01870  Biso   1.000  O
  H3559    1.0000 0.86611  0.83038  0.01541  Biso   1.000  H
  H3560    1.0000 0.91898  0.80121  0.02810  Biso   1.000  H
  O1764    1.0000 0.85858  0.74692  0.01870  Biso   1.000  O
  H3561    1.0000 0.86611  0.83042  0.01541  Biso   1.000  H
  O1765    1.0000 0.85862  0.74687  0.01870  Biso   1.000  O
  H3562    1.0000 0.91902  0.80121  0.02810  Biso   1.000  H
  O1766    1.0000 0.85862  0.74692  0.01870  Biso   1.000  O
  H3563    1.0000 0.87571  0.73248  0.11040  Biso   1.000  H
  H3564    1.0000 0.87571  0.73252  0.11040  Biso   1.000  H
  C2132    1.0000 0.96831  0.26643  0.09280  Biso   1.000  C
  C2133    1.0000 0.97361  0.23772  0.05140  Biso   1.000  C
  H3565    1.0000 0.92091  0.29719  0.06490  Biso   1.000  H
  H3566    1.0000 0.92091  0.29723  0.06490  Biso   1.000  H
  C2134    1.0000 0.94819  0.71531  0.06820  Biso   1.000  C
  C2135    1.0000 0.94823  0.71531  0.06820  Biso   1.000  C
  H3567    1.0000 0.88000  0.73000  0.00811  Biso   1.000  H
  H3568    1.0000 0.98262  0.22871  0.09790  Biso   1.000  H
  O1767    1.0000 0.93219  0.28941  0.11133  Biso   1.000  O
  O1768    1.0000 0.93224  0.28941  0.11133  Biso   1.000  O
  C2136    1.0000 0.01629  0.30372  0.08850  Biso   1.000  C
  C2137    1.0000 0.01633  0.30372  0.08850  Biso   1.000  C
  H3569    1.0000 0.98990  0.20081  0.05641  Biso   1.000  H
  C2138    1.0000 0.94579  0.23212  0.02660  Biso   1.000  C
  C2139    1.0000 0.94583  0.23212  0.02660  Biso   1.000  C
  O1769    1.0000 0.01911  0.27901  0.04720  Biso   1.000  O
  O1770    1.0000 0.98089  0.72099  0.04720  Biso   1.000  O
  C2140    1.0000 0.98371  0.69628  0.08850  Biso   1.000  C
  H3570    1.0000 0.91839  0.68639  0.06531  Biso   1.000  H
  O1771    1.0000 0.98089  0.72103  0.04720  Biso   1.000  O
  C2141    1.0000 0.98371  0.69633  0.08850  Biso   1.000  C
  O1772    1.0000 0.98093  0.72099  0.04720  Biso   1.000  O
  H3571    1.0000 0.91843  0.68639  0.06531  Biso   1.000  H
  O1773    1.0000 0.98093  0.72103  0.04720  Biso   1.000  O
  H3572    1.0000 0.90871  0.31171  0.10530  Biso   1.000  H
  O1774    1.0000 0.05139  0.30889  0.11024  Biso   1.000  O
  H3573    1.0000 0.00122  0.34189  0.08470  Biso   1.000  H
  C2142    1.0000 0.05181  0.28469  0.06820  Biso   1.000  C
  O1775    1.0000 0.05139  0.30894  0.11024  Biso   1.000  O
  H3574    1.0000 0.00122  0.34193  0.08470  Biso   1.000  H
  C2143    1.0000 0.05181  0.28473  0.06820  Biso   1.000  C
  O1776    1.0000 0.05143  0.30889  0.11024  Biso   1.000  O
  O1777    1.0000 0.05143  0.30894  0.11024  Biso   1.000  O
  H3575    1.0000 0.97462  0.22042  0.01500  Biso   1.000  H
  O1778    1.0000 0.92209  0.28170  0.01950  Biso   1.000  O
  H3576    1.0000 0.91649  0.20249  0.02709  Biso   1.000  H
  H3577    1.0000 0.91649  0.20253  0.02709  Biso   1.000  H
  O1779    1.0000 0.92213  0.28170  0.01950  Biso   1.000  O
  C2144    1.0000 0.02639  0.76228  0.05140  Biso   1.000  C
  C2145    1.0000 0.02639  0.76232  0.05140  Biso   1.000  C
  C2146    1.0000 0.02643  0.76228  0.05140  Biso   1.000  C
  C2147    1.0000 0.02643  0.76232  0.05140  Biso   1.000  C
  O1780    1.0000 0.94861  0.69111  0.11024  Biso   1.000  O
  H3578    1.0000 0.99878  0.65811  0.08470  Biso   1.000  H
  H3579    1.0000 0.99882  0.65811  0.08470  Biso   1.000  H
  C2148    1.0000 0.03169  0.73357  0.09280  Biso   1.000  C
  C2149    1.0000 0.03169  0.73362  0.09280  Biso   1.000  C
  C2150    1.0000 0.03174  0.73357  0.09280  Biso   1.000  C
  C2151    1.0000 0.03174  0.73362  0.09280  Biso   1.000  C
  H3580    1.0000 0.03022  0.31159  0.12210  Biso   1.000  H
  H3581    1.0000 0.03022  0.31163  0.12210  Biso   1.000  H
  H3582    1.0000 0.08161  0.31361  0.06531  Biso   1.000  H
  O1781    1.0000 0.07749  0.23532  0.07431  Biso   1.000  O
  O1782    1.0000 0.07753  0.23532  0.07431  Biso   1.000  O
  H3583    1.0000 0.94381  0.30729  0.01511  Biso   1.000  H
  H3584    1.0000 0.94381  0.30734  0.01511  Biso   1.000  H
  C2152    1.0000 0.06339  0.74010  0.06991  Biso   1.000  C
  H3585    1.0000 0.01010  0.79919  0.05641  Biso   1.000  H
  C2153    1.0000 0.05421  0.76788  0.02660  Biso   1.000  C
  H3586    1.0000 0.01010  0.79923  0.05641  Biso   1.000  H
  C2154    1.0000 0.05421  0.76792  0.02660  Biso   1.000  C
  C2155    1.0000 0.06343  0.74010  0.06991  Biso   1.000  C
  H3587    1.0000 0.96978  0.68841  0.12210  Biso   1.000  H
  H3588    1.0000 0.96982  0.68841  0.12210  Biso   1.000  H
  O1783    1.0000 0.06781  0.71059  0.11133  Biso   1.000  O
  H3589    1.0000 0.01738  0.77129  0.09790  Biso   1.000  H
  H3590    1.0000 0.01738  0.77133  0.09790  Biso   1.000  H
  H3591    1.0000 0.01742  0.77129  0.09790  Biso   1.000  H
  H3592    1.0000 0.01742  0.77133  0.09790  Biso   1.000  H
  C2156    1.0000 0.13730  0.23179  0.07010  Biso   1.000  C
  C2157    1.0000 0.13730  0.23183  0.07010  Biso   1.000  C
  C2158    1.0000 0.13734  0.23179  0.07010  Biso   1.000  C
  C2159    1.0000 0.13734  0.23183  0.07010  Biso   1.000  C
  O1784    1.0000 0.10952  0.77958  0.07433  Biso   1.000  O
  H3593    1.0000 0.07909  0.70281  0.06490  Biso   1.000  H
  O1785    1.0000 0.10952  0.77962  0.07433  Biso   1.000  O
  H3594    1.0000 0.07913  0.70281  0.06490  Biso   1.000  H
  O1786    1.0000 0.07791  0.71830  0.01950  Biso   1.000  O
  H3595    1.0000 0.02538  0.77958  0.01500  Biso   1.000  H
  H3596    1.0000 0.08351  0.79751  0.02709  Biso   1.000  H
  H3597    1.0000 0.02538  0.77962  0.01500  Biso   1.000  H
  H3598    1.0000 0.02542  0.77958  0.01500  Biso   1.000  H
  H3599    1.0000 0.02542  0.77962  0.01500  Biso   1.000  H
  H3600    1.0000 0.09129  0.68829  0.10530  Biso   1.000  H
  H3601    1.0000 0.09129  0.68833  0.10530  Biso   1.000  H
  H3602    1.0000 0.09133  0.68829  0.10530  Biso   1.000  H
  H3603    1.0000 0.09133  0.68833  0.10530  Biso   1.000  H
  H3604    1.0000 0.15312  0.26912  0.06540  Biso   1.000  H
  C2160    1.0000 0.16390  0.21032  0.09319  Biso   1.000  C
  C2161    1.0000 0.14879  0.18679  0.05110  Biso   1.000  C
  C2162    1.0000 0.14879  0.18683  0.05110  Biso   1.000  C
  C2163    1.0000 0.16394  0.21032  0.09319  Biso   1.000  C
  C2164    1.0000 0.14883  0.18679  0.05110  Biso   1.000  C
  C2165    1.0000 0.14883  0.18683  0.05110  Biso   1.000  C
  C2166    1.0000 0.16402  0.76102  0.06809  Biso   1.000  C
  H3605    1.0000 0.05619  0.69271  0.01511  Biso   1.000  H
  H3606    1.0000 0.05623  0.69271  0.01511  Biso   1.000  H
  O1787    1.0000 0.15619  0.25249  0.11182  Biso   1.000  O
  H3607    1.0000 0.14622  0.17391  0.09800  Biso   1.000  H
  C2167    1.0000 0.22720  0.20211  0.08910  Biso   1.000  C
  O1788    1.0000 0.15619  0.25254  0.11182  Biso   1.000  O
  O1789    1.0000 0.15624  0.25249  0.11182  Biso   1.000  O
  C2168    1.0000 0.22724  0.20211  0.08910  Biso   1.000  C
  O1790    1.0000 0.15624  0.25254  0.11182  Biso   1.000  O
  O1791    1.0000 0.20990  0.18351  0.04763  Biso   1.000  O
  H3608    1.0000 0.13481  0.14950  0.05690  Biso   1.000  H
  C2169    1.0000 0.12261  0.19908  0.02679  Biso   1.000  C
  C2170    1.0000 0.12261  0.19912  0.02679  Biso   1.000  C
  O1792    1.0000 0.18351  0.79010  0.04763  Biso   1.000  O
  C2171    1.0000 0.20211  0.77280  0.08910  Biso   1.000  C
  H3609    1.0000 0.16322  0.71960  0.06490  Biso   1.000  H
  H3610    1.0000 0.12429  0.26752  0.11040  Biso   1.000  H
  H3611    1.0000 0.12433  0.26752  0.11040  Biso   1.000  H
  O1793    1.0000 0.25089  0.17741  0.10994  Biso   1.000  O
  H3612    1.0000 0.24509  0.23961  0.08641  Biso   1.000  H
  C2172    1.0000 0.23898  0.16402  0.06809  Biso   1.000  C
  O1794    1.0000 0.25094  0.17741  0.10994  Biso   1.000  O
  H3613    1.0000 0.24513  0.23961  0.08641  Biso   1.000  H
  C2173    1.0000 0.23903  0.16402  0.06809  Biso   1.000  C
  O1795    1.0000 0.14142  0.25313  0.01870  Biso   1.000  O
  H3614    1.0000 0.13389  0.16962  0.01541  Biso   1.000  H
  H3615    1.0000 0.08102  0.19879  0.02810  Biso   1.000  H
  H3616    1.0000 0.08102  0.19883  0.02810  Biso   1.000  H
  H3617    1.0000 0.13393  0.16962  0.01541  Biso   1.000  H
  C2174    1.0000 0.18679  0.85121  0.05110  Biso   1.000  C
  C2175    1.0000 0.18683  0.85121  0.05110  Biso   1.000  C
  O1796    1.0000 0.17741  0.74911  0.10994  Biso   1.000  O
  C2176    1.0000 0.21032  0.83610  0.09319  Biso   1.000  C
  H3618    1.0000 0.23961  0.75491  0.08641  Biso   1.000  H
  H3619    1.0000 0.27552  0.19588  0.11500  Biso   1.000  H
  H3620    1.0000 0.27552  0.19593  0.11500  Biso   1.000  H
  O1797    1.0000 0.22042  0.10952  0.07433  Biso   1.000  O
  H3621    1.0000 0.28040  0.16322  0.06490  Biso   1.000  H
  H3622    1.0000 0.28044  0.16322  0.06490  Biso   1.000  H
  H3623    1.0000 0.12000  0.27000  0.00811  Biso   1.000  H
  H3624    1.0000 0.12004  0.27000  0.00811  Biso   1.000  H
  C2177    1.0000 0.23179  0.86270  0.07010  Biso   1.000  C
  H3625    1.0000 0.14950  0.86519  0.05690  Biso   1.000  H
  C2178    1.0000 0.19908  0.87739  0.02679  Biso   1.000  C
  H3626    1.0000 0.14950  0.86523  0.05690  Biso   1.000  H
  C2179    1.0000 0.23183  0.86270  0.07010  Biso   1.000  C
  C2180    1.0000 0.19912  0.87739  0.02679  Biso   1.000  C
  H3627    1.0000 0.19588  0.72448  0.11500  Biso   1.000  H
  H3628    1.0000 0.19588  0.72453  0.11500  Biso   1.000  H
  H3629    1.0000 0.19593  0.72448  0.11500  Biso   1.000  H
  H3630    1.0000 0.19593  0.72453  0.11500  Biso   1.000  H
  O1798    1.0000 0.25249  0.84381  0.11182  Biso   1.000  O
  H3631    1.0000 0.17391  0.85378  0.09800  Biso   1.000  H
  H3632    1.0000 0.17391  0.85382  0.09800  Biso   1.000  H
  O1799    1.0000 0.25254  0.84381  0.11182  Biso   1.000  O
  C2181    1.0000 0.25990  0.06339  0.06991  Biso   1.000  C
  C2182    1.0000 0.25990  0.06343  0.06991  Biso   1.000  C
  O1800    1.0000 0.23532  0.92251  0.07431  Biso   1.000  O
  H3633    1.0000 0.26912  0.84688  0.06540  Biso   1.000  H
  H3634    1.0000 0.26912  0.84692  0.06540  Biso   1.000  H
  O1801    1.0000 0.25313  0.85858  0.01870  Biso   1.000  O
  H3635    1.0000 0.16962  0.86611  0.01541  Biso   1.000  H
  H3636    1.0000 0.19879  0.91898  0.02810  Biso   1.000  H
  O1802    1.0000 0.25313  0.85862  0.01870  Biso   1.000  O
  H3637    1.0000 0.19879  0.91902  0.02810  Biso   1.000  H
  H3638    1.0000 0.19883  0.91898  0.02810  Biso   1.000  H
  H3639    1.0000 0.19883  0.91902  0.02810  Biso   1.000  H
  H3640    1.0000 0.26752  0.87571  0.11040  Biso   1.000  H
  H3641    1.0000 0.29719  0.07909  0.06490  Biso   1.000  H
  C2183    1.0000 0.26643  0.03169  0.09280  Biso   1.000  C
  C2184    1.0000 0.23772  0.02639  0.05140  Biso   1.000  C
  H3642    1.0000 0.29719  0.07913  0.06490  Biso   1.000  H
  C2185    1.0000 0.26643  0.03174  0.09280  Biso   1.000  C
  C2186    1.0000 0.23772  0.02643  0.05140  Biso   1.000  C
  H3643    1.0000 0.29723  0.07909  0.06490  Biso   1.000  H
  H3644    1.0000 0.29723  0.07913  0.06490  Biso   1.000  H
  C2187    1.0000 0.28469  0.94819  0.06820  Biso   1.000  C
  C2188    1.0000 0.28469  0.94823  0.06820  Biso   1.000  C
  C2189    1.0000 0.28473  0.94819  0.06820  Biso   1.000  C
  C2190    1.0000 0.28473  0.94823  0.06820  Biso   1.000  C
  H3645    1.0000 0.27000  0.88000  0.00811  Biso   1.000  H
  C2191    1.0000 0.30372  0.98371  0.08850  Biso   1.000  C
  O1803    1.0000 0.28941  0.06781  0.11133  Biso   1.000  O
  H3646    1.0000 0.22871  0.01738  0.09790  Biso   1.000  H
  H3647    1.0000 0.22871  0.01742  0.09790  Biso   1.000  H
  O1804    1.0000 0.27901  0.98089  0.04720  Biso   1.000  O
  O1805    1.0000 0.27901  0.98093  0.04720  Biso   1.000  O
  H3648    1.0000 0.20081  0.01010  0.05641  Biso   1.000  H
  C2192    1.0000 0.23212  0.05421  0.02660  Biso   1.000  C
  H3649    1.0000 0.31361  0.91839  0.06531  Biso   1.000  H
  H3650    1.0000 0.31361  0.91843  0.06531  Biso   1.000  H
  O1806    1.0000 0.30889  0.94861  0.11024  Biso   1.000  O
  H3651    1.0000 0.34189  0.99878  0.08470  Biso   1.000  H
  H3652    1.0000 0.34189  0.99882  0.08470  Biso   1.000  H
  O1807    1.0000 0.30894  0.94861  0.11024  Biso   1.000  O
  H3653    1.0000 0.34193  0.99878  0.08470  Biso   1.000  H
  H3654    1.0000 0.34193  0.99882  0.08470  Biso   1.000  H
  H3655    1.0000 0.31171  0.09129  0.10530  Biso   1.000  H
  H3656    1.0000 0.31171  0.09133  0.10530  Biso   1.000  H
  O1808    1.0000 0.28170  0.07791  0.01950  Biso   1.000  O
  H3657    1.0000 0.22042  0.02538  0.01500  Biso   1.000  H
  H3658    1.0000 0.20249  0.08351  0.02709  Biso   1.000  H
  H3659    1.0000 0.22042  0.02542  0.01500  Biso   1.000  H
  H3660    1.0000 0.20253  0.08351  0.02709  Biso   1.000  H
  H3661    1.0000 0.31159  0.96978  0.12210  Biso   1.000  H
  H3662    1.0000 0.31159  0.96982  0.12210  Biso   1.000  H
  H3663    1.0000 0.31163  0.96978  0.12210  Biso   1.000  H
  H3664    1.0000 0.31163  0.96982  0.12210  Biso   1.000  H
  H3665    1.0000 0.30729  0.05619  0.01511  Biso   1.000  H
  H3666    1.0000 0.30729  0.05623  0.01511  Biso   1.000  H
  H3667    1.0000 0.30734  0.05619  0.01511  Biso   1.000  H
  H3668    1.0000 0.30734  0.05623  0.01511  Biso   1.000  H
  O1809    1.0000 0.05143  0.69111  0.88976  Biso   1.000  O
  H3669    1.0000 0.03022  0.68841  0.87790  Biso   1.000  H
  C2193    1.0000 0.01629  0.69628  0.91150  Biso   1.000  C
  C2194    1.0000 0.01629  0.69633  0.91150  Biso   1.000  C
  C2195    1.0000 0.01633  0.69628  0.91150  Biso   1.000  C
  C2196    1.0000 0.01633  0.69633  0.91150  Biso   1.000  C
  O1810    1.0000 0.05139  0.69111  0.88976  Biso   1.000  O
  H3670    1.0000 0.00122  0.65811  0.91530  Biso   1.000  H
  C2197    1.0000 0.05181  0.71531  0.93180  Biso   1.000  C
  C2198    1.0000 0.96831  0.73357  0.90720  Biso   1.000  C
  C2199    1.0000 0.96831  0.73362  0.90720  Biso   1.000  C
  O1811    1.0000 0.01911  0.72099  0.95280  Biso   1.000  O
  H3671    1.0000 0.08161  0.68639  0.93469  Biso   1.000  H
  O1812    1.0000 0.07749  0.76468  0.92569  Biso   1.000  O
  O1813    1.0000 0.01911  0.72103  0.95280  Biso   1.000  O
  O1814    1.0000 0.07749  0.76472  0.92569  Biso   1.000  O
  O1815    1.0000 0.07753  0.76468  0.92569  Biso   1.000  O
  O1816    1.0000 0.07753  0.76472  0.92569  Biso   1.000  O
  O1817    1.0000 0.93219  0.71059  0.88867  Biso   1.000  O
  C2200    1.0000 0.93661  0.74010  0.93009  Biso   1.000  C
  H3672    1.0000 0.98262  0.77129  0.90210  Biso   1.000  H
  H3673    1.0000 0.98262  0.77133  0.90210  Biso   1.000  H
  O1818    1.0000 0.93224  0.71059  0.88867  Biso   1.000  O
  C2201    1.0000 0.97361  0.76228  0.94860  Biso   1.000  C
  C2202    1.0000 0.97361  0.76232  0.94860  Biso   1.000  C
  C2203    1.0000 0.13730  0.76821  0.92990  Biso   1.000  C
  C2204    1.0000 0.13734  0.76821  0.92990  Biso   1.000  C
  H3674    1.0000 0.90871  0.68829  0.89470  Biso   1.000  H
  H3675    1.0000 0.90871  0.68833  0.89470  Biso   1.000  H
  O1819    1.0000 0.89048  0.77958  0.92567  Biso   1.000  O
  H3676    1.0000 0.92091  0.70281  0.93510  Biso   1.000  H
  O1820    1.0000 0.89048  0.77962  0.92567  Biso   1.000  O
  O1821    1.0000 0.89053  0.77958  0.92567  Biso   1.000  O
  O1822    1.0000 0.89053  0.77962  0.92567  Biso   1.000  O
  H3677    1.0000 0.98990  0.79919  0.94359  Biso   1.000  H
  C2205    1.0000 0.94579  0.76788  0.97340  Biso   1.000  C
  H3678    1.0000 0.98990  0.79923  0.94359  Biso   1.000  H
  C2206    1.0000 0.94579  0.76792  0.97340  Biso   1.000  C
  C2207    1.0000 0.94583  0.76788  0.97340  Biso   1.000  C
  C2208    1.0000 0.94583  0.76792  0.97340  Biso   1.000  C
  H3679    1.0000 0.15312  0.73088  0.93460  Biso   1.000  H
  C2209    1.0000 0.16390  0.78968  0.90681  Biso   1.000  C
  C2210    1.0000 0.14879  0.81321  0.94890  Biso   1.000  C
  H3680    1.0000 0.15312  0.73092  0.93460  Biso   1.000  H
  C2211    1.0000 0.16390  0.78972  0.90681  Biso   1.000  C
  C2212    1.0000 0.16394  0.78968  0.90681  Biso   1.000  C
  C2213    1.0000 0.14883  0.81321  0.94890  Biso   1.000  C
  C2214    1.0000 0.16394  0.78972  0.90681  Biso   1.000  C
  C2215    1.0000 0.83598  0.76102  0.93191  Biso   1.000  C
  C2216    1.0000 0.83602  0.76102  0.93191  Biso   1.000  C
  O1823    1.0000 0.92209  0.71830  0.98050  Biso   1.000  O
  H3681    1.0000 0.97462  0.77958  0.98500  Biso   1.000  H
  H3682    1.0000 0.91649  0.79751  0.97291  Biso   1.000  H
  H3683    1.0000 0.97462  0.77962  0.98500  Biso   1.000  H
  O1824    1.0000 0.92213  0.71830  0.98050  Biso   1.000  O
  O1825    1.0000 0.15619  0.74751  0.88818  Biso   1.000  O
  H3684    1.0000 0.14622  0.82609  0.90200  Biso   1.000  H
  C2217    1.0000 0.22720  0.79789  0.91090  Biso   1.000  C
  H3685    1.0000 0.14622  0.82613  0.90200  Biso   1.000  H
  C2218    1.0000 0.22720  0.79793  0.91090  Biso   1.000  C
  O1826    1.0000 0.15624  0.74751  0.88818  Biso   1.000  O
  C2219    1.0000 0.22724  0.79789  0.91090  Biso   1.000  C
  C2220    1.0000 0.22724  0.79793  0.91090  Biso   1.000  C
  O1827    1.0000 0.20990  0.81649  0.95237  Biso   1.000  O
  H3686    1.0000 0.13481  0.85050  0.94310  Biso   1.000  H
  C2221    1.0000 0.12261  0.80092  0.97321  Biso   1.000  C
  O1828    1.0000 0.20990  0.81653  0.95237  Biso   1.000  O
  O1829    1.0000 0.81649  0.79010  0.95237  Biso   1.000  O
  C2222    1.0000 0.79789  0.77280  0.91090  Biso   1.000  C
  H3687    1.0000 0.83678  0.71960  0.93510  Biso   1.000  H
  O1830    1.0000 0.81653  0.79010  0.95237  Biso   1.000  O
  C2223    1.0000 0.79793  0.77280  0.91090  Biso   1.000  C
  H3688    1.0000 0.83682  0.71960  0.93510  Biso   1.000  H
  H3689    1.0000 0.94381  0.69271  0.98489  Biso   1.000  H
  H3690    1.0000 0.12429  0.73248  0.88960  Biso   1.000  H
  H3691    1.0000 0.12429  0.73252  0.88960  Biso   1.000  H
  H3692    1.0000 0.12433  0.73248  0.88960  Biso   1.000  H
  H3693    1.0000 0.12433  0.73252  0.88960  Biso   1.000  H
  O1831    1.0000 0.25089  0.82259  0.89006  Biso   1.000  O
  H3694    1.0000 0.24509  0.76039  0.91359  Biso   1.000  H
  C2224    1.0000 0.23898  0.83598  0.93191  Biso   1.000  C
  H3695    1.0000 0.24509  0.76043  0.91359  Biso   1.000  H
  C2225    1.0000 0.23898  0.83602  0.93191  Biso   1.000  C
  O1832    1.0000 0.25094  0.82259  0.89006  Biso   1.000  O
  H3696    1.0000 0.24513  0.76039  0.91359  Biso   1.000  H
  C2226    1.0000 0.23903  0.83598  0.93191  Biso   1.000  C
  H3697    1.0000 0.24513  0.76043  0.91359  Biso   1.000  H
  C2227    1.0000 0.23903  0.83602  0.93191  Biso   1.000  C
  O1833    1.0000 0.14142  0.74687  0.98130  Biso   1.000  O
  H3698    1.0000 0.13389  0.83038  0.98459  Biso   1.000  H
  H3699    1.0000 0.08102  0.80121  0.97190  Biso   1.000  H
  O1834    1.0000 0.14142  0.74692  0.98130  Biso   1.000  O
  H3700    1.0000 0.13389  0.83042  0.98459  Biso   1.000  H
  H3701    1.0000 0.13393  0.83038  0.98459  Biso   1.000  H
  H3702    1.0000 0.13393  0.83042  0.98459  Biso   1.000  H
  C2228    1.0000 0.81321  0.85121  0.94890  Biso   1.000  C
  O1835    1.0000 0.82259  0.74911  0.89006  Biso   1.000  O
  C2229    1.0000 0.78968  0.83610  0.90681  Biso   1.000  C
  H3703    1.0000 0.76039  0.75491  0.91359  Biso   1.000  H
  C2230    1.0000 0.78972  0.83610  0.90681  Biso   1.000  C
  H3704    1.0000 0.76043  0.75491  0.91359  Biso   1.000  H
  H3705    1.0000 0.27552  0.80412  0.88500  Biso   1.000  H
  O1836    1.0000 0.22042  0.89048  0.92567  Biso   1.000  O
  H3706    1.0000 0.28040  0.83678  0.93510  Biso   1.000  H
  O1837    1.0000 0.22042  0.89053  0.92567  Biso   1.000  O
  H3707    1.0000 0.28040  0.83682  0.93510  Biso   1.000  H
  H3708    1.0000 0.28044  0.83678  0.93510  Biso   1.000  H
  H3709    1.0000 0.28044  0.83682  0.93510  Biso   1.000  H
  H3710    1.0000 0.12000  0.73000  0.99189  Biso   1.000  H
  H3711    1.0000 0.12004  0.73000  0.99189  Biso   1.000  H
  C2231    1.0000 0.76821  0.86270  0.92990  Biso   1.000  C
  H3712    1.0000 0.85050  0.86519  0.94310  Biso   1.000  H
  C2232    1.0000 0.80092  0.87739  0.97321  Biso   1.000  C
  H3713    1.0000 0.85050  0.86523  0.94310  Biso   1.000  H
  H3714    1.0000 0.80412  0.72448  0.88500  Biso   1.000  H
  H3715    1.0000 0.80412  0.72453  0.88500  Biso   1.000  H
  O1838    1.0000 0.74751  0.84381  0.88818  Biso   1.000  O
  H3716    1.0000 0.82609  0.85378  0.90200  Biso   1.000  H
  H3717    1.0000 0.82609  0.85382  0.90200  Biso   1.000  H
  H3718    1.0000 0.82613  0.85378  0.90200  Biso   1.000  H
  H3719    1.0000 0.82613  0.85382  0.90200  Biso   1.000  H
  C2233    1.0000 0.25990  0.93661  0.93009  Biso   1.000  C
  O1839    1.0000 0.76468  0.92251  0.92569  Biso   1.000  O
  H3720    1.0000 0.73088  0.84688  0.93460  Biso   1.000  H
  H3721    1.0000 0.73088  0.84692  0.93460  Biso   1.000  H
  O1840    1.0000 0.76472  0.92251  0.92569  Biso   1.000  O
  H3722    1.0000 0.73092  0.84688  0.93460  Biso   1.000  H
  H3723    1.0000 0.73092  0.84692  0.93460  Biso   1.000  H
  O1841    1.0000 0.74687  0.85858  0.98130  Biso   1.000  O
  H3724    1.0000 0.83038  0.86611  0.98459  Biso   1.000  H
  H3725    1.0000 0.80121  0.91898  0.97190  Biso   1.000  H
  O1842    1.0000 0.74687  0.85862  0.98130  Biso   1.000  O
  H3726    1.0000 0.80121  0.91902  0.97190  Biso   1.000  H
  O1843    1.0000 0.74692  0.85858  0.98130  Biso   1.000  O
  H3727    1.0000 0.83042  0.86611  0.98459  Biso   1.000  H
  O1844    1.0000 0.74692  0.85862  0.98130  Biso   1.000  O
  H3728    1.0000 0.73248  0.87571  0.88960  Biso   1.000  H
  H3729    1.0000 0.73252  0.87571  0.88960  Biso   1.000  H
  H3730    1.0000 0.29719  0.92091  0.93510  Biso   1.000  H
  C2234    1.0000 0.26643  0.96831  0.90720  Biso   1.000  C
  C2235    1.0000 0.23772  0.97361  0.94860  Biso   1.000  C
  H3731    1.0000 0.29723  0.92091  0.93510  Biso   1.000  H
  C2236    1.0000 0.71531  0.94819  0.93180  Biso   1.000  C
  C2237    1.0000 0.71531  0.94823  0.93180  Biso   1.000  C
  H3732    1.0000 0.73000  0.88000  0.99189  Biso   1.000  H
  O1845    1.0000 0.28941  0.93219  0.88867  Biso   1.000  O
  H3733    1.0000 0.22871  0.98262  0.90210  Biso   1.000  H
  O1846    1.0000 0.28941  0.93224  0.88867  Biso   1.000  O
  C2238    1.0000 0.30372  0.01629  0.91150  Biso   1.000  C
  C2239    1.0000 0.30372  0.01633  0.91150  Biso   1.000  C
  H3734    1.0000 0.20081  0.98990  0.94359  Biso   1.000  H
  C2240    1.0000 0.23212  0.94579  0.97340  Biso   1.000  C
  C2241    1.0000 0.23212  0.94583  0.97340  Biso   1.000  C
  O1847    1.0000 0.27901  0.01911  0.95280  Biso   1.000  O
  O1848    1.0000 0.72099  0.98089  0.95280  Biso   1.000  O
  C2242    1.0000 0.69628  0.98371  0.91150  Biso   1.000  C
  H3735    1.0000 0.68639  0.91839  0.93469  Biso   1.000  H
  O1849    1.0000 0.72099  0.98093  0.95280  Biso   1.000  O
  H3736    1.0000 0.68639  0.91843  0.93469  Biso   1.000  H
  O1850    1.0000 0.72103  0.98089  0.95280  Biso   1.000  O
  C2243    1.0000 0.69633  0.98371  0.91150  Biso   1.000  C
  O1851    1.0000 0.72103  0.98093  0.95280  Biso   1.000  O
  H3737    1.0000 0.31171  0.90871  0.89470  Biso   1.000  H
  O1852    1.0000 0.30889  0.05139  0.88976  Biso   1.000  O
  H3738    1.0000 0.34189  0.00122  0.91530  Biso   1.000  H
  C2244    1.0000 0.28469  0.05181  0.93180  Biso   1.000  C
  O1853    1.0000 0.30889  0.05143  0.88976  Biso   1.000  O
  O1854    1.0000 0.30894  0.05139  0.88976  Biso   1.000  O
  H3739    1.0000 0.34193  0.00122  0.91530  Biso   1.000  H
  C2245    1.0000 0.28473  0.05181  0.93180  Biso   1.000  C
  O1855    1.0000 0.30894  0.05143  0.88976  Biso   1.000  O
  O1856    1.0000 0.28170  0.92209  0.98050  Biso   1.000  O
  H3740    1.0000 0.22042  0.97462  0.98500  Biso   1.000  H
  H3741    1.0000 0.20249  0.91649  0.97291  Biso   1.000  H
  O1857    1.0000 0.28170  0.92213  0.98050  Biso   1.000  O
  H3742    1.0000 0.20253  0.91649  0.97291  Biso   1.000  H
  C2246    1.0000 0.76228  0.02639  0.94860  Biso   1.000  C
  C2247    1.0000 0.76228  0.02643  0.94860  Biso   1.000  C
  C2248    1.0000 0.76232  0.02639  0.94860  Biso   1.000  C
  C2249    1.0000 0.76232  0.02643  0.94860  Biso   1.000  C
  O1858    1.0000 0.69111  0.94861  0.88976  Biso   1.000  O
  H3743    1.0000 0.65811  0.99878  0.91530  Biso   1.000  H
  H3744    1.0000 0.65811  0.99882  0.91530  Biso   1.000  H
  C2250    1.0000 0.73357  0.03169  0.90720  Biso   1.000  C
  C2251    1.0000 0.73357  0.03174  0.90720  Biso   1.000  C
  C2252    1.0000 0.73362  0.03169  0.90720  Biso   1.000  C
  C2253    1.0000 0.73362  0.03174  0.90720  Biso   1.000  C
  H3745    1.0000 0.31159  0.03022  0.87790  Biso   1.000  H
  H3746    1.0000 0.31163  0.03022  0.87790  Biso   1.000  H
  H3747    1.0000 0.31361  0.08161  0.93469  Biso   1.000  H
  O1859    1.0000 0.23532  0.07749  0.92569  Biso   1.000  O
  O1860    1.0000 0.23532  0.07753  0.92569  Biso   1.000  O
  H3748    1.0000 0.30729  0.94381  0.98489  Biso   1.000  H
  H3749    1.0000 0.30734  0.94381  0.98489  Biso   1.000  H
  C2254    1.0000 0.74010  0.06339  0.93009  Biso   1.000  C
  H3750    1.0000 0.79919  0.01010  0.94359  Biso   1.000  H
  C2255    1.0000 0.76788  0.05421  0.97340  Biso   1.000  C
  C2256    1.0000 0.74010  0.06343  0.93009  Biso   1.000  C
  H3751    1.0000 0.79923  0.01010  0.94359  Biso   1.000  H
  C2257    1.0000 0.76792  0.05421  0.97340  Biso   1.000  C
  H3752    1.0000 0.68841  0.96978  0.87790  Biso   1.000  H
  H3753    1.0000 0.68841  0.96982  0.87790  Biso   1.000  H
  O1861    1.0000 0.71059  0.06781  0.88867  Biso   1.000  O
  H3754    1.0000 0.77129  0.01738  0.90210  Biso   1.000  H
  H3755    1.0000 0.77129  0.01742  0.90210  Biso   1.000  H
  H3756    1.0000 0.77133  0.01738  0.90210  Biso   1.000  H
  H3757    1.0000 0.77133  0.01742  0.90210  Biso   1.000  H
  C2258    1.0000 0.23179  0.13730  0.92990  Biso   1.000  C
  C2259    1.0000 0.23179  0.13734  0.92990  Biso   1.000  C
  C2260    1.0000 0.23183  0.13730  0.92990  Biso   1.000  C
  C2261    1.0000 0.23183  0.13734  0.92990  Biso   1.000  C
  O1862    1.0000 0.77958  0.10952  0.92567  Biso   1.000  O
  H3758    1.0000 0.70281  0.07909  0.93510  Biso   1.000  H
  H3759    1.0000 0.70281  0.07913  0.93510  Biso   1.000  H
  O1863    1.0000 0.77962  0.10952  0.92567  Biso   1.000  O
  O1864    1.0000 0.71830  0.07791  0.98050  Biso   1.000  O
  H3760    1.0000 0.77958  0.02538  0.98500  Biso   1.000  H
  H3761    1.0000 0.79751  0.08351  0.97291  Biso   1.000  H
  H3762    1.0000 0.77958  0.02542  0.98500  Biso   1.000  H
  H3763    1.0000 0.77962  0.02538  0.98500  Biso   1.000  H
  H3764    1.0000 0.77962  0.02542  0.98500  Biso   1.000  H
  H3765    1.0000 0.68829  0.09129  0.89470  Biso   1.000  H
  H3766    1.0000 0.68829  0.09133  0.89470  Biso   1.000  H
  H3767    1.0000 0.68833  0.09129  0.89470  Biso   1.000  H
  H3768    1.0000 0.68833  0.09133  0.89470  Biso   1.000  H
  H3769    1.0000 0.26912  0.15312  0.93460  Biso   1.000  H
  C2262    1.0000 0.21032  0.16390  0.90681  Biso   1.000  C
  C2263    1.0000 0.18679  0.14879  0.94890  Biso   1.000  C
  C2264    1.0000 0.21032  0.16394  0.90681  Biso   1.000  C
  C2265    1.0000 0.18679  0.14883  0.94890  Biso   1.000  C
  C2266    1.0000 0.18683  0.14879  0.94890  Biso   1.000  C
  C2267    1.0000 0.18683  0.14883  0.94890  Biso   1.000  C
  C2268    1.0000 0.76102  0.16402  0.93191  Biso   1.000  C
  H3770    1.0000 0.69271  0.05619  0.98489  Biso   1.000  H
  H3771    1.0000 0.69271  0.05623  0.98489  Biso   1.000  H
  O1865    1.0000 0.25249  0.15619  0.88818  Biso   1.000  O
  H3772    1.0000 0.17391  0.14622  0.90200  Biso   1.000  H
  C2269    1.0000 0.20211  0.22720  0.91090  Biso   1.000  C
  O1866    1.0000 0.25249  0.15624  0.88818  Biso   1.000  O
  C2270    1.0000 0.20211  0.22724  0.91090  Biso   1.000  C
  O1867    1.0000 0.25254  0.15619  0.88818  Biso   1.000  O
  O1868    1.0000 0.25254  0.15624  0.88818  Biso   1.000  O
  O1869    1.0000 0.18351  0.20990  0.95237  Biso   1.000  O
  H3773    1.0000 0.14950  0.13481  0.94310  Biso   1.000  H
  C2271    1.0000 0.19908  0.12261  0.97321  Biso   1.000  C
  C2272    1.0000 0.19912  0.12261  0.97321  Biso   1.000  C
  O1870    1.0000 0.79010  0.18351  0.95237  Biso   1.000  O
  C2273    1.0000 0.77280  0.20211  0.91090  Biso   1.000  C
  H3774    1.0000 0.71960  0.16322  0.93510  Biso   1.000  H
  H3775    1.0000 0.26752  0.12429  0.88960  Biso   1.000  H
  H3776    1.0000 0.26752  0.12433  0.88960  Biso   1.000  H
  O1871    1.0000 0.17741  0.25089  0.89006  Biso   1.000  O
  H3777    1.0000 0.23961  0.24509  0.91359  Biso   1.000  H
  C2274    1.0000 0.16402  0.23898  0.93191  Biso   1.000  C
  O1872    1.0000 0.17741  0.25094  0.89006  Biso   1.000  O
  H3778    1.0000 0.23961  0.24513  0.91359  Biso   1.000  H
  C2275    1.0000 0.16402  0.23903  0.93191  Biso   1.000  C
  O1873    1.0000 0.25313  0.14142  0.98130  Biso   1.000  O
  H3779    1.0000 0.16962  0.13389  0.98459  Biso   1.000  H
  H3780    1.0000 0.19879  0.08102  0.97190  Biso   1.000  H
  H3781    1.0000 0.16962  0.13393  0.98459  Biso   1.000  H
  H3782    1.0000 0.19883  0.08102  0.97190  Biso   1.000  H
  C2276    1.0000 0.85121  0.18679  0.94890  Biso   1.000  C
  C2277    1.0000 0.85121  0.18683  0.94890  Biso   1.000  C
  O1874    1.0000 0.74911  0.17741  0.89006  Biso   1.000  O
  C2278    1.0000 0.83610  0.21032  0.90681  Biso   1.000  C
  H3783    1.0000 0.75491  0.23961  0.91359  Biso   1.000  H
  H3784    1.0000 0.19588  0.27552  0.88500  Biso   1.000  H
  H3785    1.0000 0.19593  0.27552  0.88500  Biso   1.000  H
  O1875    1.0000 0.10952  0.22042  0.92567  Biso   1.000  O
  H3786    1.0000 0.16322  0.28040  0.93510  Biso   1.000  H
  H3787    1.0000 0.16322  0.28044  0.93510  Biso   1.000  H
  H3788    1.0000 0.27000  0.12000  0.99189  Biso   1.000  H
  H3789    1.0000 0.27000  0.12004  0.99189  Biso   1.000  H
  C2279    1.0000 0.86270  0.23179  0.92990  Biso   1.000  C
  H3790    1.0000 0.86519  0.14950  0.94310  Biso   1.000  H
  C2280    1.0000 0.87739  0.19908  0.97321  Biso   1.000  C
  C2281    1.0000 0.86270  0.23183  0.92990  Biso   1.000  C
  C2282    1.0000 0.87739  0.19912  0.97321  Biso   1.000  C
  H3791    1.0000 0.86523  0.14950  0.94310  Biso   1.000  H
  H3792    1.0000 0.72448  0.19588  0.88500  Biso   1.000  H
  H3793    1.0000 0.72448  0.19593  0.88500  Biso   1.000  H
  H3794    1.0000 0.72453  0.19588  0.88500  Biso   1.000  H
  H3795    1.0000 0.72453  0.19593  0.88500  Biso   1.000  H
  O1876    1.0000 0.84381  0.25249  0.88818  Biso   1.000  O
  H3796    1.0000 0.85378  0.17391  0.90200  Biso   1.000  H
  O1877    1.0000 0.84381  0.25254  0.88818  Biso   1.000  O
  H3797    1.0000 0.85382  0.17391  0.90200  Biso   1.000  H
  C2283    1.0000 0.06339  0.25990  0.93009  Biso   1.000  C
  C2284    1.0000 0.06343  0.25990  0.93009  Biso   1.000  C
  O1878    1.0000 0.92251  0.23532  0.92569  Biso   1.000  O
  H3798    1.0000 0.84688  0.26912  0.93460  Biso   1.000  H
  H3799    1.0000 0.84692  0.26912  0.93460  Biso   1.000  H
  O1879    1.0000 0.85858  0.25313  0.98130  Biso   1.000  O
  H3800    1.0000 0.86611  0.16962  0.98459  Biso   1.000  H
  H3801    1.0000 0.91898  0.19879  0.97190  Biso   1.000  H
  H3802    1.0000 0.91898  0.19883  0.97190  Biso   1.000  H
  O1880    1.0000 0.85862  0.25313  0.98130  Biso   1.000  O
  H3803    1.0000 0.91902  0.19879  0.97190  Biso   1.000  H
  H3804    1.0000 0.91902  0.19883  0.97190  Biso   1.000  H
  H3805    1.0000 0.87571  0.26752  0.88960  Biso   1.000  H
  H3806    1.0000 0.07909  0.29719  0.93510  Biso   1.000  H
  C2285    1.0000 0.03169  0.26643  0.90720  Biso   1.000  C
  C2286    1.0000 0.02639  0.23772  0.94860  Biso   1.000  C
  H3807    1.0000 0.07909  0.29723  0.93510  Biso   1.000  H
  H3808    1.0000 0.07913  0.29719  0.93510  Biso   1.000  H
  C2287    1.0000 0.03174  0.26643  0.90720  Biso   1.000  C
  C2288    1.0000 0.02643  0.23772  0.94860  Biso   1.000  C
  H3809    1.0000 0.07913  0.29723  0.93510  Biso   1.000  H
  C2289    1.0000 0.94819  0.28469  0.93180  Biso   1.000  C
  C2290    1.0000 0.94819  0.28473  0.93180  Biso   1.000  C
  C2291    1.0000 0.94823  0.28469  0.93180  Biso   1.000  C
  C2292    1.0000 0.94823  0.28473  0.93180  Biso   1.000  C
  H3810    1.0000 0.88000  0.27000  0.99189  Biso   1.000  H
  C2293    1.0000 0.98371  0.30372  0.91150  Biso   1.000  C
  O1881    1.0000 0.06781  0.28941  0.88867  Biso   1.000  O
  H3811    1.0000 0.01738  0.22871  0.90210  Biso   1.000  H
  H3812    1.0000 0.01742  0.22871  0.90210  Biso   1.000  H
  O1882    1.0000 0.98089  0.27901  0.95280  Biso   1.000  O
  O1883    1.0000 0.98093  0.27901  0.95280  Biso   1.000  O
  H3813    1.0000 0.01010  0.20081  0.94359  Biso   1.000  H
  C2294    1.0000 0.05421  0.23212  0.97340  Biso   1.000  C
  H3814    1.0000 0.91839  0.31361  0.93469  Biso   1.000  H
  H3815    1.0000 0.91843  0.31361  0.93469  Biso   1.000  H
  O1884    1.0000 0.94861  0.30889  0.88976  Biso   1.000  O
  H3816    1.0000 0.99878  0.34189  0.91530  Biso   1.000  H
  O1885    1.0000 0.94861  0.30894  0.88976  Biso   1.000  O
  H3817    1.0000 0.99878  0.34193  0.91530  Biso   1.000  H
  H3818    1.0000 0.99882  0.34189  0.91530  Biso   1.000  H
  H3819    1.0000 0.99882  0.34193  0.91530  Biso   1.000  H
  H3820    1.0000 0.09129  0.31171  0.89470  Biso   1.000  H
  H3821    1.0000 0.09133  0.31171  0.89470  Biso   1.000  H
  O1886    1.0000 0.07791  0.28170  0.98050  Biso   1.000  O
  H3822    1.0000 0.02538  0.22042  0.98500  Biso   1.000  H
  H3823    1.0000 0.08351  0.20249  0.97291  Biso   1.000  H
  H3824    1.0000 0.08351  0.20253  0.97291  Biso   1.000  H
  H3825    1.0000 0.02542  0.22042  0.98500  Biso   1.000  H
  H3826    1.0000 0.96978  0.31159  0.87790  Biso   1.000  H
  H3827    1.0000 0.96978  0.31163  0.87790  Biso   1.000  H
  H3828    1.0000 0.96982  0.31159  0.87790  Biso   1.000  H
  H3829    1.0000 0.96982  0.31163  0.87790  Biso   1.000  H
  H3830    1.0000 0.05619  0.30729  0.98489  Biso   1.000  H
  H3831    1.0000 0.05619  0.30734  0.98489  Biso   1.000  H
  H3832    1.0000 0.05623  0.30729  0.98489  Biso   1.000  H
  H3833    1.0000 0.05623  0.30734  0.98489  Biso   1.000  H
  O1887    1.0000 0.05143  0.69111  0.88976  Biso   1.000  O
  H3834    1.0000 0.03022  0.68841  0.87790  Biso   1.000  H
  C2295    1.0000 0.01629  0.69628  0.91150  Biso   1.000  C
  C2296    1.0000 0.01629  0.69633  0.91150  Biso   1.000  C
  C2297    1.0000 0.01633  0.69628  0.91150  Biso   1.000  C
  C2298    1.0000 0.01633  0.69633  0.91150  Biso   1.000  C
  O1888    1.0000 0.05139  0.69111  0.88976  Biso   1.000  O
  H3835    1.0000 0.00122  0.65811  0.91530  Biso   1.000  H
  C2299    1.0000 0.05181  0.71531  0.93180  Biso   1.000  C
  C2300    1.0000 0.96831  0.73357  0.90720  Biso   1.000  C
  C2301    1.0000 0.96831  0.73362  0.90720  Biso   1.000  C
  H3836    1.0000 0.08161  0.68639  0.93469  Biso   1.000  H
  O1889    1.0000 0.01911  0.72099  0.95280  Biso   1.000  O
  O1890    1.0000 0.01911  0.72103  0.95280  Biso   1.000  O
  O1891    1.0000 0.07749  0.76468  0.92569  Biso   1.000  O
  O1892    1.0000 0.07749  0.76472  0.92569  Biso   1.000  O
  O1893    1.0000 0.07753  0.76468  0.92569  Biso   1.000  O
  O1894    1.0000 0.07753  0.76472  0.92569  Biso   1.000  O
  O1895    1.0000 0.93219  0.71059  0.88867  Biso   1.000  O
  C2302    1.0000 0.93661  0.74010  0.93009  Biso   1.000  C
  H3837    1.0000 0.98262  0.77129  0.90210  Biso   1.000  H
  H3838    1.0000 0.98262  0.77133  0.90210  Biso   1.000  H
  O1896    1.0000 0.93224  0.71059  0.88867  Biso   1.000  O
  C2303    1.0000 0.97361  0.76228  0.94860  Biso   1.000  C
  C2304    1.0000 0.97361  0.76232  0.94860  Biso   1.000  C
  C2305    1.0000 0.13730  0.76821  0.92990  Biso   1.000  C
  C2306    1.0000 0.13734  0.76821  0.92990  Biso   1.000  C
  H3839    1.0000 0.90871  0.68829  0.89470  Biso   1.000  H
  H3840    1.0000 0.90871  0.68833  0.89470  Biso   1.000  H
  O1897    1.0000 0.89048  0.77958  0.92567  Biso   1.000  O
  H3841    1.0000 0.92091  0.70281  0.93510  Biso   1.000  H
  O1898    1.0000 0.89048  0.77962  0.92567  Biso   1.000  O
  O1899    1.0000 0.89053  0.77958  0.92567  Biso   1.000  O
  O1900    1.0000 0.89053  0.77962  0.92567  Biso   1.000  O
  H3842    1.0000 0.98990  0.79919  0.94359  Biso   1.000  H
  C2307    1.0000 0.94579  0.76788  0.97340  Biso   1.000  C
  H3843    1.0000 0.98990  0.79923  0.94359  Biso   1.000  H
  C2308    1.0000 0.94579  0.76792  0.97340  Biso   1.000  C
  C2309    1.0000 0.94583  0.76788  0.97340  Biso   1.000  C
  C2310    1.0000 0.94583  0.76792  0.97340  Biso   1.000  C
  C2311    1.0000 0.14879  0.81321  0.94890  Biso   1.000  C
  H3844    1.0000 0.15312  0.73088  0.93460  Biso   1.000  H
  H3845    1.0000 0.15312  0.73092  0.93460  Biso   1.000  H
  C2312    1.0000 0.14883  0.81321  0.94890  Biso   1.000  C
  C2313    1.0000 0.16390  0.78968  0.90681  Biso   1.000  C
  C2314    1.0000 0.16390  0.78972  0.90681  Biso   1.000  C
  C2315    1.0000 0.16394  0.78968  0.90681  Biso   1.000  C
  C2316    1.0000 0.16394  0.78972  0.90681  Biso   1.000  C
  C2317    1.0000 0.83598  0.76102  0.93191  Biso   1.000  C
  C2318    1.0000 0.83602  0.76102  0.93191  Biso   1.000  C
  O1901    1.0000 0.92209  0.71830  0.98050  Biso   1.000  O
  H3846    1.0000 0.97462  0.77958  0.98500  Biso   1.000  H
  H3847    1.0000 0.91649  0.79751  0.97291  Biso   1.000  H
  H3848    1.0000 0.97462  0.77962  0.98500  Biso   1.000  H
  O1902    1.0000 0.92213  0.71830  0.98050  Biso   1.000  O
  H3849    1.0000 0.13481  0.85050  0.94310  Biso   1.000  H
  C2319    1.0000 0.12261  0.80092  0.97321  Biso   1.000  C
  O1903    1.0000 0.20990  0.81649  0.95237  Biso   1.000  O
  O1904    1.0000 0.20990  0.81653  0.95237  Biso   1.000  O
  O1905    1.0000 0.15619  0.74751  0.88818  Biso   1.000  O
  H3850    1.0000 0.14622  0.82609  0.90200  Biso   1.000  H
  O1906    1.0000 0.15624  0.74751  0.88818  Biso   1.000  O
  H3851    1.0000 0.14622  0.82613  0.90200  Biso   1.000  H
  C2320    1.0000 0.22720  0.79789  0.91090  Biso   1.000  C
  C2321    1.0000 0.22720  0.79793  0.91090  Biso   1.000  C
  C2322    1.0000 0.22724  0.79789  0.91090  Biso   1.000  C
  C2323    1.0000 0.22724  0.79793  0.91090  Biso   1.000  C
  O1907    1.0000 0.81649  0.79010  0.95237  Biso   1.000  O
  C2324    1.0000 0.79789  0.77280  0.91090  Biso   1.000  C
  H3852    1.0000 0.83678  0.71960  0.93510  Biso   1.000  H
  O1908    1.0000 0.81653  0.79010  0.95237  Biso   1.000  O
  C2325    1.0000 0.79793  0.77280  0.91090  Biso   1.000  C
  H3853    1.0000 0.83682  0.71960  0.93510  Biso   1.000  H
  H3854    1.0000 0.94381  0.69271  0.98489  Biso   1.000  H
  H3855    1.0000 0.08102  0.80121  0.97190  Biso   1.000  H
  O1909    1.0000 0.14142  0.74687  0.98130  Biso   1.000  O
  O1910    1.0000 0.14142  0.74692  0.98130  Biso   1.000  O
  H3856    1.0000 0.13389  0.83038  0.98459  Biso   1.000  H
  H3857    1.0000 0.13389  0.83042  0.98459  Biso   1.000  H
  H3858    1.0000 0.13393  0.83038  0.98459  Biso   1.000  H
  H3859    1.0000 0.13393  0.83042  0.98459  Biso   1.000  H
  C2326    1.0000 0.23898  0.83598  0.93191  Biso   1.000  C
  C2327    1.0000 0.23898  0.83602  0.93191  Biso   1.000  C
  C2328    1.0000 0.23903  0.83598  0.93191  Biso   1.000  C
  C2329    1.0000 0.23903  0.83602  0.93191  Biso   1.000  C
  H3860    1.0000 0.12429  0.73248  0.88960  Biso   1.000  H
  H3861    1.0000 0.12429  0.73252  0.88960  Biso   1.000  H
  H3862    1.0000 0.12433  0.73248  0.88960  Biso   1.000  H
  H3863    1.0000 0.12433  0.73252  0.88960  Biso   1.000  H
  O1911    1.0000 0.25089  0.82259  0.89006  Biso   1.000  O
  O1912    1.0000 0.25094  0.82259  0.89006  Biso   1.000  O
  H3864    1.0000 0.24509  0.76039  0.91359  Biso   1.000  H
  H3865    1.0000 0.24509  0.76043  0.91359  Biso   1.000  H
  H3866    1.0000 0.24513  0.76039  0.91359  Biso   1.000  H
  H3867    1.0000 0.24513  0.76043  0.91359  Biso   1.000  H
  C2330    1.0000 0.81321  0.85121  0.94890  Biso   1.000  C
  O1913    1.0000 0.82259  0.74911  0.89006  Biso   1.000  O
  C2331    1.0000 0.78968  0.83610  0.90681  Biso   1.000  C
  H3868    1.0000 0.76039  0.75491  0.91359  Biso   1.000  H
  C2332    1.0000 0.78972  0.83610  0.90681  Biso   1.000  C
  H3869    1.0000 0.76043  0.75491  0.91359  Biso   1.000  H
  H3870    1.0000 0.12000  0.73000  0.99189  Biso   1.000  H
  H3871    1.0000 0.12004  0.73000  0.99189  Biso   1.000  H
  O1914    1.0000 0.22042  0.89048  0.92567  Biso   1.000  O
  O1915    1.0000 0.22042  0.89053  0.92567  Biso   1.000  O
  H3872    1.0000 0.28040  0.83678  0.93510  Biso   1.000  H
  H3873    1.0000 0.28040  0.83682  0.93510  Biso   1.000  H
  H3874    1.0000 0.28044  0.83678  0.93510  Biso   1.000  H
  H3875    1.0000 0.28044  0.83682  0.93510  Biso   1.000  H
  H3876    1.0000 0.27552  0.80412  0.88500  Biso   1.000  H
  C2333    1.0000 0.76821  0.86270  0.92990  Biso   1.000  C
  H3877    1.0000 0.85050  0.86519  0.94310  Biso   1.000  H
  C2334    1.0000 0.80092  0.87739  0.97321  Biso   1.000  C
  H3878    1.0000 0.85050  0.86523  0.94310  Biso   1.000  H
  H3879    1.0000 0.80412  0.72448  0.88500  Biso   1.000  H
  H3880    1.0000 0.80412  0.72453  0.88500  Biso   1.000  H
  O1916    1.0000 0.74751  0.84381  0.88818  Biso   1.000  O
  H3881    1.0000 0.82609  0.85378  0.90200  Biso   1.000  H
  H3882    1.0000 0.82609  0.85382  0.90200  Biso   1.000  H
  H3883    1.0000 0.82613  0.85378  0.90200  Biso   1.000  H
  H3884    1.0000 0.82613  0.85382  0.90200  Biso   1.000  H
  C2335    1.0000 0.25990  0.93661  0.93009  Biso   1.000  C
  O1917    1.0000 0.76468  0.92251  0.92569  Biso   1.000  O
  H3885    1.0000 0.73088  0.84688  0.93460  Biso   1.000  H
  H3886    1.0000 0.73088  0.84692  0.93460  Biso   1.000  H
  O1918    1.0000 0.76472  0.92251  0.92569  Biso   1.000  O
  H3887    1.0000 0.73092  0.84688  0.93460  Biso   1.000  H
  H3888    1.0000 0.73092  0.84692  0.93460  Biso   1.000  H
  O1919    1.0000 0.74687  0.85858  0.98130  Biso   1.000  O
  H3889    1.0000 0.83038  0.86611  0.98459  Biso   1.000  H
  H3890    1.0000 0.80121  0.91898  0.97190  Biso   1.000  H
  O1920    1.0000 0.74687  0.85862  0.98130  Biso   1.000  O
  H3891    1.0000 0.80121  0.91902  0.97190  Biso   1.000  H
  O1921    1.0000 0.74692  0.85858  0.98130  Biso   1.000  O
  H3892    1.0000 0.83042  0.86611  0.98459  Biso   1.000  H
  O1922    1.0000 0.74692  0.85862  0.98130  Biso   1.000  O
  H3893    1.0000 0.73248  0.87571  0.88960  Biso   1.000  H
  H3894    1.0000 0.73252  0.87571  0.88960  Biso   1.000  H
  H3895    1.0000 0.29719  0.92091  0.93510  Biso   1.000  H
  C2336    1.0000 0.26643  0.96831  0.90720  Biso   1.000  C
  C2337    1.0000 0.23772  0.97361  0.94860  Biso   1.000  C
  H3896    1.0000 0.29723  0.92091  0.93510  Biso   1.000  H
  C2338    1.0000 0.71531  0.94819  0.93180  Biso   1.000  C
  C2339    1.0000 0.71531  0.94823  0.93180  Biso   1.000  C
  H3897    1.0000 0.73000  0.88000  0.99189  Biso   1.000  H
  H3898    1.0000 0.22871  0.98262  0.90210  Biso   1.000  H
  O1923    1.0000 0.28941  0.93219  0.88867  Biso   1.000  O
  O1924    1.0000 0.28941  0.93224  0.88867  Biso   1.000  O
  C2340    1.0000 0.30372  0.01629  0.91150  Biso   1.000  C
  C2341    1.0000 0.30372  0.01633  0.91150  Biso   1.000  C
  H3899    1.0000 0.20081  0.98990  0.94359  Biso   1.000  H
  C2342    1.0000 0.23212  0.94579  0.97340  Biso   1.000  C
  C2343    1.0000 0.23212  0.94583  0.97340  Biso   1.000  C
  O1925    1.0000 0.27901  0.01911  0.95280  Biso   1.000  O
  O1926    1.0000 0.72099  0.98089  0.95280  Biso   1.000  O
  C2344    1.0000 0.69628  0.98371  0.91150  Biso   1.000  C
  H3900    1.0000 0.68639  0.91839  0.93469  Biso   1.000  H
  O1927    1.0000 0.72099  0.98093  0.95280  Biso   1.000  O
  H3901    1.0000 0.68639  0.91843  0.93469  Biso   1.000  H
  O1928    1.0000 0.72103  0.98089  0.95280  Biso   1.000  O
  C2345    1.0000 0.69633  0.98371  0.91150  Biso   1.000  C
  O1929    1.0000 0.72103  0.98093  0.95280  Biso   1.000  O
  H3902    1.0000 0.31171  0.90871  0.89470  Biso   1.000  H
  O1930    1.0000 0.30889  0.05139  0.88976  Biso   1.000  O
  H3903    1.0000 0.34189  0.00122  0.91530  Biso   1.000  H
  C2346    1.0000 0.28469  0.05181  0.93180  Biso   1.000  C
  O1931    1.0000 0.30889  0.05143  0.88976  Biso   1.000  O
  O1932    1.0000 0.30894  0.05139  0.88976  Biso   1.000  O
  H3904    1.0000 0.34193  0.00122  0.91530  Biso   1.000  H
  C2347    1.0000 0.28473  0.05181  0.93180  Biso   1.000  C
  O1933    1.0000 0.30894  0.05143  0.88976  Biso   1.000  O
  H3905    1.0000 0.22042  0.97462  0.98500  Biso   1.000  H
  H3906    1.0000 0.20249  0.91649  0.97291  Biso   1.000  H
  O1934    1.0000 0.28170  0.92209  0.98050  Biso   1.000  O
  O1935    1.0000 0.28170  0.92213  0.98050  Biso   1.000  O
  H3907    1.0000 0.20253  0.91649  0.97291  Biso   1.000  H
  C2348    1.0000 0.76228  0.02639  0.94860  Biso   1.000  C
  C2349    1.0000 0.76228  0.02643  0.94860  Biso   1.000  C
  C2350    1.0000 0.76232  0.02639  0.94860  Biso   1.000  C
  C2351    1.0000 0.76232  0.02643  0.94860  Biso   1.000  C
  O1936    1.0000 0.69111  0.94861  0.88976  Biso   1.000  O
  H3908    1.0000 0.65811  0.99878  0.91530  Biso   1.000  H
  H3909    1.0000 0.65811  0.99882  0.91530  Biso   1.000  H
  C2352    1.0000 0.73357  0.03169  0.90720  Biso   1.000  C
  C2353    1.0000 0.73357  0.03174  0.90720  Biso   1.000  C
  C2354    1.0000 0.73362  0.03169  0.90720  Biso   1.000  C
  C2355    1.0000 0.73362  0.03174  0.90720  Biso   1.000  C
  H3910    1.0000 0.31159  0.03022  0.87790  Biso   1.000  H
  H3911    1.0000 0.31163  0.03022  0.87790  Biso   1.000  H
  H3912    1.0000 0.31361  0.08161  0.93469  Biso   1.000  H
  O1937    1.0000 0.23532  0.07749  0.92569  Biso   1.000  O
  O1938    1.0000 0.23532  0.07753  0.92569  Biso   1.000  O
  H3913    1.0000 0.30729  0.94381  0.98489  Biso   1.000  H
  H3914    1.0000 0.30734  0.94381  0.98489  Biso   1.000  H
  C2356    1.0000 0.74010  0.06339  0.93009  Biso   1.000  C
  H3915    1.0000 0.79919  0.01010  0.94359  Biso   1.000  H
  C2357    1.0000 0.76788  0.05421  0.97340  Biso   1.000  C
  C2358    1.0000 0.74010  0.06343  0.93009  Biso   1.000  C
  H3916    1.0000 0.79923  0.01010  0.94359  Biso   1.000  H
  C2359    1.0000 0.76792  0.05421  0.97340  Biso   1.000  C
  H3917    1.0000 0.68841  0.96978  0.87790  Biso   1.000  H
  H3918    1.0000 0.68841  0.96982  0.87790  Biso   1.000  H
  O1939    1.0000 0.71059  0.06781  0.88867  Biso   1.000  O
  H3919    1.0000 0.77129  0.01738  0.90210  Biso   1.000  H
  H3920    1.0000 0.77129  0.01742  0.90210  Biso   1.000  H
  H3921    1.0000 0.77133  0.01738  0.90210  Biso   1.000  H
  H3922    1.0000 0.77133  0.01742  0.90210  Biso   1.000  H
  C2360    1.0000 0.23179  0.13730  0.92990  Biso   1.000  C
  C2361    1.0000 0.23179  0.13734  0.92990  Biso   1.000  C
  C2362    1.0000 0.23183  0.13730  0.92990  Biso   1.000  C
  C2363    1.0000 0.23183  0.13734  0.92990  Biso   1.000  C
  O1940    1.0000 0.77958  0.10952  0.92567  Biso   1.000  O
  H3923    1.0000 0.70281  0.07909  0.93510  Biso   1.000  H
  H3924    1.0000 0.70281  0.07913  0.93510  Biso   1.000  H
  O1941    1.0000 0.77962  0.10952  0.92567  Biso   1.000  O
  O1942    1.0000 0.71830  0.07791  0.98050  Biso   1.000  O
  H3925    1.0000 0.77958  0.02538  0.98500  Biso   1.000  H
  H3926    1.0000 0.79751  0.08351  0.97291  Biso   1.000  H
  H3927    1.0000 0.77958  0.02542  0.98500  Biso   1.000  H
  H3928    1.0000 0.77962  0.02538  0.98500  Biso   1.000  H
  H3929    1.0000 0.77962  0.02542  0.98500  Biso   1.000  H
  H3930    1.0000 0.68829  0.09129  0.89470  Biso   1.000  H
  H3931    1.0000 0.68829  0.09133  0.89470  Biso   1.000  H
  H3932    1.0000 0.68833  0.09129  0.89470  Biso   1.000  H
  H3933    1.0000 0.68833  0.09133  0.89470  Biso   1.000  H
  H3934    1.0000 0.26912  0.15312  0.93460  Biso   1.000  H
  C2364    1.0000 0.21032  0.16390  0.90681  Biso   1.000  C
  C2365    1.0000 0.18679  0.14879  0.94890  Biso   1.000  C
  C2366    1.0000 0.21032  0.16394  0.90681  Biso   1.000  C
  C2367    1.0000 0.18679  0.14883  0.94890  Biso   1.000  C
  C2368    1.0000 0.18683  0.14879  0.94890  Biso   1.000  C
  C2369    1.0000 0.18683  0.14883  0.94890  Biso   1.000  C
  C2370    1.0000 0.76102  0.16402  0.93191  Biso   1.000  C
  H3935    1.0000 0.69271  0.05619  0.98489  Biso   1.000  H
  H3936    1.0000 0.69271  0.05623  0.98489  Biso   1.000  H
  O1943    1.0000 0.25249  0.15619  0.88818  Biso   1.000  O
  H3937    1.0000 0.17391  0.14622  0.90200  Biso   1.000  H
  C2371    1.0000 0.20211  0.22720  0.91090  Biso   1.000  C
  O1944    1.0000 0.25249  0.15624  0.88818  Biso   1.000  O
  C2372    1.0000 0.20211  0.22724  0.91090  Biso   1.000  C
  O1945    1.0000 0.25254  0.15619  0.88818  Biso   1.000  O
  O1946    1.0000 0.25254  0.15624  0.88818  Biso   1.000  O
  O1947    1.0000 0.18351  0.20990  0.95237  Biso   1.000  O
  H3938    1.0000 0.14950  0.13481  0.94310  Biso   1.000  H
  C2373    1.0000 0.19908  0.12261  0.97321  Biso   1.000  C
  C2374    1.0000 0.19912  0.12261  0.97321  Biso   1.000  C
  O1948    1.0000 0.79010  0.18351  0.95237  Biso   1.000  O
  C2375    1.0000 0.77280  0.20211  0.91090  Biso   1.000  C
  H3939    1.0000 0.71960  0.16322  0.93510  Biso   1.000  H
  H3940    1.0000 0.26752  0.12429  0.88960  Biso   1.000  H
  H3941    1.0000 0.26752  0.12433  0.88960  Biso   1.000  H
  O1949    1.0000 0.17741  0.25089  0.89006  Biso   1.000  O
  H3942    1.0000 0.23961  0.24509  0.91359  Biso   1.000  H
  C2376    1.0000 0.16402  0.23898  0.93191  Biso   1.000  C
  O1950    1.0000 0.17741  0.25094  0.89006  Biso   1.000  O
  H3943    1.0000 0.23961  0.24513  0.91359  Biso   1.000  H
  C2377    1.0000 0.16402  0.23903  0.93191  Biso   1.000  C
  O1951    1.0000 0.25313  0.14142  0.98130  Biso   1.000  O
  H3944    1.0000 0.16962  0.13389  0.98459  Biso   1.000  H
  H3945    1.0000 0.19879  0.08102  0.97190  Biso   1.000  H
  H3946    1.0000 0.16962  0.13393  0.98459  Biso   1.000  H
  H3947    1.0000 0.19883  0.08102  0.97190  Biso   1.000  H
  C2378    1.0000 0.85121  0.18679  0.94890  Biso   1.000  C
  C2379    1.0000 0.85121  0.18683  0.94890  Biso   1.000  C
  O1952    1.0000 0.74911  0.17741  0.89006  Biso   1.000  O
  C2380    1.0000 0.83610  0.21032  0.90681  Biso   1.000  C
  H3948    1.0000 0.75491  0.23961  0.91359  Biso   1.000  H
  H3949    1.0000 0.19588  0.27552  0.88500  Biso   1.000  H
  H3950    1.0000 0.19593  0.27552  0.88500  Biso   1.000  H
  O1953    1.0000 0.10952  0.22042  0.92567  Biso   1.000  O
  H3951    1.0000 0.16322  0.28040  0.93510  Biso   1.000  H
  H3952    1.0000 0.16322  0.28044  0.93510  Biso   1.000  H
  H3953    1.0000 0.27000  0.12000  0.99189  Biso   1.000  H
  H3954    1.0000 0.27000  0.12004  0.99189  Biso   1.000  H
  C2381    1.0000 0.86270  0.23179  0.92990  Biso   1.000  C
  H3955    1.0000 0.86519  0.14950  0.94310  Biso   1.000  H
  C2382    1.0000 0.87739  0.19908  0.97321  Biso   1.000  C
  C2383    1.0000 0.86270  0.23183  0.92990  Biso   1.000  C
  C2384    1.0000 0.87739  0.19912  0.97321  Biso   1.000  C
  H3956    1.0000 0.86523  0.14950  0.94310  Biso   1.000  H
  H3957    1.0000 0.72448  0.19588  0.88500  Biso   1.000  H
  H3958    1.0000 0.72448  0.19593  0.88500  Biso   1.000  H
  H3959    1.0000 0.72453  0.19588  0.88500  Biso   1.000  H
  H3960    1.0000 0.72453  0.19593  0.88500  Biso   1.000  H
  O1954    1.0000 0.84381  0.25249  0.88818  Biso   1.000  O
  H3961    1.0000 0.85378  0.17391  0.90200  Biso   1.000  H
  O1955    1.0000 0.84381  0.25254  0.88818  Biso   1.000  O
  H3962    1.0000 0.85382  0.17391  0.90200  Biso   1.000  H
  C2385    1.0000 0.06339  0.25990  0.93009  Biso   1.000  C
  C2386    1.0000 0.06343  0.25990  0.93009  Biso   1.000  C
  O1956    1.0000 0.92251  0.23532  0.92569  Biso   1.000  O
  H3963    1.0000 0.84688  0.26912  0.93460  Biso   1.000  H
  H3964    1.0000 0.84692  0.26912  0.93460  Biso   1.000  H
  O1957    1.0000 0.85858  0.25313  0.98130  Biso   1.000  O
  H3965    1.0000 0.86611  0.16962  0.98459  Biso   1.000  H
  H3966    1.0000 0.91898  0.19879  0.97190  Biso   1.000  H
  H3967    1.0000 0.91898  0.19883  0.97190  Biso   1.000  H
  O1958    1.0000 0.85862  0.25313  0.98130  Biso   1.000  O
  H3968    1.0000 0.91902  0.19879  0.97190  Biso   1.000  H
  H3969    1.0000 0.91902  0.19883  0.97190  Biso   1.000  H
  H3970    1.0000 0.87571  0.26752  0.88960  Biso   1.000  H
  H3971    1.0000 0.07909  0.29719  0.93510  Biso   1.000  H
  C2387    1.0000 0.03169  0.26643  0.90720  Biso   1.000  C
  C2388    1.0000 0.02639  0.23772  0.94860  Biso   1.000  C
  H3972    1.0000 0.07909  0.29723  0.93510  Biso   1.000  H
  H3973    1.0000 0.07913  0.29719  0.93510  Biso   1.000  H
  C2389    1.0000 0.03174  0.26643  0.90720  Biso   1.000  C
  C2390    1.0000 0.02643  0.23772  0.94860  Biso   1.000  C
  H3974    1.0000 0.07913  0.29723  0.93510  Biso   1.000  H
  C2391    1.0000 0.94819  0.28469  0.93180  Biso   1.000  C
  C2392    1.0000 0.94819  0.28473  0.93180  Biso   1.000  C
  C2393    1.0000 0.94823  0.28469  0.93180  Biso   1.000  C
  C2394    1.0000 0.94823  0.28473  0.93180  Biso   1.000  C
  H3975    1.0000 0.88000  0.27000  0.99189  Biso   1.000  H
  C2395    1.0000 0.98371  0.30372  0.91150  Biso   1.000  C
  O1959    1.0000 0.06781  0.28941  0.88867  Biso   1.000  O
  H3976    1.0000 0.01738  0.22871  0.90210  Biso   1.000  H
  H3977    1.0000 0.01742  0.22871  0.90210  Biso   1.000  H
  O1960    1.0000 0.98089  0.27901  0.95280  Biso   1.000  O
  O1961    1.0000 0.98093  0.27901  0.95280  Biso   1.000  O
  H3978    1.0000 0.01010  0.20081  0.94359  Biso   1.000  H
  C2396    1.0000 0.05421  0.23212  0.97340  Biso   1.000  C
  H3979    1.0000 0.91839  0.31361  0.93469  Biso   1.000  H
  H3980    1.0000 0.91843  0.31361  0.93469  Biso   1.000  H
  O1962    1.0000 0.94861  0.30889  0.88976  Biso   1.000  O
  H3981    1.0000 0.99878  0.34189  0.91530  Biso   1.000  H
  O1963    1.0000 0.94861  0.30894  0.88976  Biso   1.000  O
  H3982    1.0000 0.99878  0.34193  0.91530  Biso   1.000  H
  H3983    1.0000 0.99882  0.34189  0.91530  Biso   1.000  H
  H3984    1.0000 0.99882  0.34193  0.91530  Biso   1.000  H
  H3985    1.0000 0.09129  0.31171  0.89470  Biso   1.000  H
  H3986    1.0000 0.09133  0.31171  0.89470  Biso   1.000  H
  O1964    1.0000 0.07791  0.28170  0.98050  Biso   1.000  O
  H3987    1.0000 0.02538  0.22042  0.98500  Biso   1.000  H
  H3988    1.0000 0.08351  0.20249  0.97291  Biso   1.000  H
  H3989    1.0000 0.08351  0.20253  0.97291  Biso   1.000  H
  H3990    1.0000 0.02542  0.22042  0.98500  Biso   1.000  H
  H3991    1.0000 0.96978  0.31159  0.87790  Biso   1.000  H
  H3992    1.0000 0.96978  0.31163  0.87790  Biso   1.000  H
  H3993    1.0000 0.96982  0.31159  0.87790  Biso   1.000  H
  H3994    1.0000 0.96982  0.31163  0.87790  Biso   1.000  H
  H3995    1.0000 0.05619  0.30729  0.98489  Biso   1.000  H
  H3996    1.0000 0.05619  0.30734  0.98489  Biso   1.000  H
  H3997    1.0000 0.05623  0.30729  0.98489  Biso   1.000  H
  H3998    1.0000 0.05623  0.30734  0.98489  Biso   1.000  H
  O1965    1.0000 0.05143  0.69111  0.88976  Biso   1.000  O
  C2397    1.0000 0.01629  0.69628  0.91150  Biso   1.000  C
  C2398    1.0000 0.01629  0.69633  0.91150  Biso   1.000  C
  C2399    1.0000 0.01633  0.69628  0.91150  Biso   1.000  C
  C2400    1.0000 0.01633  0.69633  0.91150  Biso   1.000  C
  H3999    1.0000 0.03022  0.68841  0.87790  Biso   1.000  H
  C2401    1.0000 0.05181  0.71531  0.93180  Biso   1.000  C
  H4000    1.0000 0.00122  0.65811  0.91530  Biso   1.000  H
  C2402    1.0000 0.96831  0.73357  0.90720  Biso   1.000  C
  C2403    1.0000 0.96831  0.73362  0.90720  Biso   1.000  C
  O1966    1.0000 0.05139  0.69111  0.88976  Biso   1.000  O
  H4001    1.0000 0.08161  0.68639  0.93469  Biso   1.000  H
  O1967    1.0000 0.01911  0.72099  0.95280  Biso   1.000  O
  O1968    1.0000 0.07749  0.76468  0.92569  Biso   1.000  O
  O1969    1.0000 0.01911  0.72103  0.95280  Biso   1.000  O
  O1970    1.0000 0.07749  0.76472  0.92569  Biso   1.000  O
  O1971    1.0000 0.07753  0.76468  0.92569  Biso   1.000  O
  O1972    1.0000 0.07753  0.76472  0.92569  Biso   1.000  O
  C2404    1.0000 0.93661  0.74010  0.93009  Biso   1.000  C
  O1973    1.0000 0.93219  0.71059  0.88867  Biso   1.000  O
  H4002    1.0000 0.98262  0.77129  0.90210  Biso   1.000  H
  H4003    1.0000 0.98262  0.77133  0.90210  Biso   1.000  H
  O1974    1.0000 0.93224  0.71059  0.88867  Biso   1.000  O
  C2405    1.0000 0.97361  0.76228  0.94860  Biso   1.000  C
  C2406    1.0000 0.97361  0.76232  0.94860  Biso   1.000  C
  C2407    1.0000 0.13730  0.76821  0.92990  Biso   1.000  C
  C2408    1.0000 0.13734  0.76821  0.92990  Biso   1.000  C
  O1975    1.0000 0.89048  0.77958  0.92567  Biso   1.000  O
  H4004    1.0000 0.92091  0.70281  0.93510  Biso   1.000  H
  O1976    1.0000 0.89048  0.77962  0.92567  Biso   1.000  O
  O1977    1.0000 0.89053  0.77958  0.92567  Biso   1.000  O
  O1978    1.0000 0.89053  0.77962  0.92567  Biso   1.000  O
  H4005    1.0000 0.90871  0.68829  0.89470  Biso   1.000  H
  H4006    1.0000 0.90871  0.68833  0.89470  Biso   1.000  H
  H4007    1.0000 0.98990  0.79919  0.94359  Biso   1.000  H
  C2409    1.0000 0.94579  0.76788  0.97340  Biso   1.000  C
  H4008    1.0000 0.98990  0.79923  0.94359  Biso   1.000  H
  C2410    1.0000 0.94579  0.76792  0.97340  Biso   1.000  C
  C2411    1.0000 0.94583  0.76788  0.97340  Biso   1.000  C
  C2412    1.0000 0.94583  0.76792  0.97340  Biso   1.000  C
  H4009    1.0000 0.15312  0.73088  0.93460  Biso   1.000  H
  C2413    1.0000 0.16390  0.78968  0.90681  Biso   1.000  C
  C2414    1.0000 0.14879  0.81321  0.94890  Biso   1.000  C
  H4010    1.0000 0.15312  0.73092  0.93460  Biso   1.000  H
  C2415    1.0000 0.16390  0.78972  0.90681  Biso   1.000  C
  C2416    1.0000 0.16394  0.78968  0.90681  Biso   1.000  C
  C2417    1.0000 0.14883  0.81321  0.94890  Biso   1.000  C
  C2418    1.0000 0.16394  0.78972  0.90681  Biso   1.000  C
  C2419    1.0000 0.83598  0.76102  0.93191  Biso   1.000  C
  C2420    1.0000 0.83602  0.76102  0.93191  Biso   1.000  C
  O1979    1.0000 0.92209  0.71830  0.98050  Biso   1.000  O
  H4011    1.0000 0.97462  0.77958  0.98500  Biso   1.000  H
  H4012    1.0000 0.91649  0.79751  0.97291  Biso   1.000  H
  H4013    1.0000 0.97462  0.77962  0.98500  Biso   1.000  H
  O1980    1.0000 0.92213  0.71830  0.98050  Biso   1.000  O
  O1981    1.0000 0.15619  0.74751  0.88818  Biso   1.000  O
  H4014    1.0000 0.14622  0.82609  0.90200  Biso   1.000  H
  C2421    1.0000 0.22720  0.79789  0.91090  Biso   1.000  C
  H4015    1.0000 0.14622  0.82613  0.90200  Biso   1.000  H
  C2422    1.0000 0.22720  0.79793  0.91090  Biso   1.000  C
  O1982    1.0000 0.15624  0.74751  0.88818  Biso   1.000  O
  C2423    1.0000 0.22724  0.79789  0.91090  Biso   1.000  C
  C2424    1.0000 0.22724  0.79793  0.91090  Biso   1.000  C
  H4016    1.0000 0.13481  0.85050  0.94310  Biso   1.000  H
  C2425    1.0000 0.12261  0.80092  0.97321  Biso   1.000  C
  O1983    1.0000 0.20990  0.81649  0.95237  Biso   1.000  O
  O1984    1.0000 0.20990  0.81653  0.95237  Biso   1.000  O
  O1985    1.0000 0.81649  0.79010  0.95237  Biso   1.000  O
  C2426    1.0000 0.79789  0.77280  0.91090  Biso   1.000  C
  H4017    1.0000 0.83678  0.71960  0.93510  Biso   1.000  H
  O1986    1.0000 0.81653  0.79010  0.95237  Biso   1.000  O
  C2427    1.0000 0.79793  0.77280  0.91090  Biso   1.000  C
  H4018    1.0000 0.83682  0.71960  0.93510  Biso   1.000  H
  H4019    1.0000 0.94381  0.69271  0.98489  Biso   1.000  H
  H4020    1.0000 0.12429  0.73248  0.88960  Biso   1.000  H
  H4021    1.0000 0.12429  0.73252  0.88960  Biso   1.000  H
  H4022    1.0000 0.12433  0.73248  0.88960  Biso   1.000  H
  H4023    1.0000 0.12433  0.73252  0.88960  Biso   1.000  H
  O1987    1.0000 0.25089  0.82259  0.89006  Biso   1.000  O
  H4024    1.0000 0.24509  0.76039  0.91359  Biso   1.000  H
  C2428    1.0000 0.23898  0.83598  0.93191  Biso   1.000  C
  H4025    1.0000 0.24509  0.76043  0.91359  Biso   1.000  H
  C2429    1.0000 0.23898  0.83602  0.93191  Biso   1.000  C
  O1988    1.0000 0.25094  0.82259  0.89006  Biso   1.000  O
  H4026    1.0000 0.24513  0.76039  0.91359  Biso   1.000  H
  C2430    1.0000 0.23903  0.83598  0.93191  Biso   1.000  C
  H4027    1.0000 0.24513  0.76043  0.91359  Biso   1.000  H
  C2431    1.0000 0.23903  0.83602  0.93191  Biso   1.000  C
  H4028    1.0000 0.08102  0.80121  0.97190  Biso   1.000  H
  O1989    1.0000 0.14142  0.74687  0.98130  Biso   1.000  O
  H4029    1.0000 0.13389  0.83038  0.98459  Biso   1.000  H
  O1990    1.0000 0.14142  0.74692  0.98130  Biso   1.000  O
  H4030    1.0000 0.13389  0.83042  0.98459  Biso   1.000  H
  H4031    1.0000 0.13393  0.83038  0.98459  Biso   1.000  H
  H4032    1.0000 0.13393  0.83042  0.98459  Biso   1.000  H
  C2432    1.0000 0.81321  0.85121  0.94890  Biso   1.000  C
  O1991    1.0000 0.82259  0.74911  0.89006  Biso   1.000  O
  C2433    1.0000 0.78968  0.83610  0.90681  Biso   1.000  C
  H4033    1.0000 0.76039  0.75491  0.91359  Biso   1.000  H
  C2434    1.0000 0.78972  0.83610  0.90681  Biso   1.000  C
  H4034    1.0000 0.76043  0.75491  0.91359  Biso   1.000  H
  H4035    1.0000 0.27552  0.80412  0.88500  Biso   1.000  H
  O1992    1.0000 0.22042  0.89048  0.92567  Biso   1.000  O
  H4036    1.0000 0.28040  0.83678  0.93510  Biso   1.000  H
  O1993    1.0000 0.22042  0.89053  0.92567  Biso   1.000  O
  H4037    1.0000 0.28040  0.83682  0.93510  Biso   1.000  H
  H4038    1.0000 0.28044  0.83678  0.93510  Biso   1.000  H
  H4039    1.0000 0.28044  0.83682  0.93510  Biso   1.000  H
  H4040    1.0000 0.12000  0.73000  0.99189  Biso   1.000  H
  H4041    1.0000 0.12004  0.73000  0.99189  Biso   1.000  H
  C2435    1.0000 0.76821  0.86270  0.92990  Biso   1.000  C
  H4042    1.0000 0.85050  0.86519  0.94310  Biso   1.000  H
  C2436    1.0000 0.80092  0.87739  0.97321  Biso   1.000  C
  H4043    1.0000 0.85050  0.86523  0.94310  Biso   1.000  H
  H4044    1.0000 0.80412  0.72448  0.88500  Biso   1.000  H
  H4045    1.0000 0.80412  0.72453  0.88500  Biso   1.000  H
  O1994    1.0000 0.74751  0.84381  0.88818  Biso   1.000  O
  H4046    1.0000 0.82609  0.85378  0.90200  Biso   1.000  H
  H4047    1.0000 0.82609  0.85382  0.90200  Biso   1.000  H
  H4048    1.0000 0.82613  0.85378  0.90200  Biso   1.000  H
  H4049    1.0000 0.82613  0.85382  0.90200  Biso   1.000  H
  C2437    1.0000 0.25990  0.93661  0.93009  Biso   1.000  C
  O1995    1.0000 0.76468  0.92251  0.92569  Biso   1.000  O
  H4050    1.0000 0.73088  0.84688  0.93460  Biso   1.000  H
  H4051    1.0000 0.73088  0.84692  0.93460  Biso   1.000  H
  O1996    1.0000 0.76472  0.92251  0.92569  Biso   1.000  O
  H4052    1.0000 0.73092  0.84688  0.93460  Biso   1.000  H
  H4053    1.0000 0.73092  0.84692  0.93460  Biso   1.000  H
  O1997    1.0000 0.74687  0.85858  0.98130  Biso   1.000  O
  H4054    1.0000 0.83038  0.86611  0.98459  Biso   1.000  H
  H4055    1.0000 0.80121  0.91898  0.97190  Biso   1.000  H
  O1998    1.0000 0.74687  0.85862  0.98130  Biso   1.000  O
  H4056    1.0000 0.80121  0.91902  0.97190  Biso   1.000  H
  O1999    1.0000 0.74692  0.85858  0.98130  Biso   1.000  O
  H4057    1.0000 0.83042  0.86611  0.98459  Biso   1.000  H
  O2000    1.0000 0.74692  0.85862  0.98130  Biso   1.000  O
  H4058    1.0000 0.73248  0.87571  0.88960  Biso   1.000  H
  H4059    1.0000 0.73252  0.87571  0.88960  Biso   1.000  H
  C2438    1.0000 0.26643  0.96831  0.90720  Biso   1.000  C
  C2439    1.0000 0.23772  0.97361  0.94860  Biso   1.000  C
  H4060    1.0000 0.29719  0.92091  0.93510  Biso   1.000  H
  H4061    1.0000 0.29723  0.92091  0.93510  Biso   1.000  H
  C2440    1.0000 0.71531  0.94819  0.93180  Biso   1.000  C
  C2441    1.0000 0.71531  0.94823  0.93180  Biso   1.000  C
  H4062    1.0000 0.73000  0.88000  0.99189  Biso   1.000  H
  H4063    1.0000 0.22871  0.98262  0.90210  Biso   1.000  H
  O2001    1.0000 0.28941  0.93219  0.88867  Biso   1.000  O
  O2002    1.0000 0.28941  0.93224  0.88867  Biso   1.000  O
  C2442    1.0000 0.30372  0.01629  0.91150  Biso   1.000  C
  C2443    1.0000 0.30372  0.01633  0.91150  Biso   1.000  C
  H4064    1.0000 0.20081  0.98990  0.94359  Biso   1.000  H
  C2444    1.0000 0.23212  0.94579  0.97340  Biso   1.000  C
  C2445    1.0000 0.23212  0.94583  0.97340  Biso   1.000  C
  O2003    1.0000 0.27901  0.01911  0.95280  Biso   1.000  O
  O2004    1.0000 0.72099  0.98089  0.95280  Biso   1.000  O
  C2446    1.0000 0.69628  0.98371  0.91150  Biso   1.000  C
  H4065    1.0000 0.68639  0.91839  0.93469  Biso   1.000  H
  O2005    1.0000 0.72099  0.98093  0.95280  Biso   1.000  O
  H4066    1.0000 0.68639  0.91843  0.93469  Biso   1.000  H
  O2006    1.0000 0.72103  0.98089  0.95280  Biso   1.000  O
  C2447    1.0000 0.69633  0.98371  0.91150  Biso   1.000  C
  O2007    1.0000 0.72103  0.98093  0.95280  Biso   1.000  O
  H4067    1.0000 0.31171  0.90871  0.89470  Biso   1.000  H
  O2008    1.0000 0.30889  0.05139  0.88976  Biso   1.000  O
  H4068    1.0000 0.34189  0.00122  0.91530  Biso   1.000  H
  C2448    1.0000 0.28469  0.05181  0.93180  Biso   1.000  C
  O2009    1.0000 0.30889  0.05143  0.88976  Biso   1.000  O
  O2010    1.0000 0.30894  0.05139  0.88976  Biso   1.000  O
  H4069    1.0000 0.34193  0.00122  0.91530  Biso   1.000  H
  C2449    1.0000 0.28473  0.05181  0.93180  Biso   1.000  C
  O2011    1.0000 0.30894  0.05143  0.88976  Biso   1.000  O
  H4070    1.0000 0.22042  0.97462  0.98500  Biso   1.000  H
  O2012    1.0000 0.28170  0.92209  0.98050  Biso   1.000  O
  H4071    1.0000 0.20249  0.91649  0.97291  Biso   1.000  H
  O2013    1.0000 0.28170  0.92213  0.98050  Biso   1.000  O
  H4072    1.0000 0.20253  0.91649  0.97291  Biso   1.000  H
  C2450    1.0000 0.76228  0.02639  0.94860  Biso   1.000  C
  C2451    1.0000 0.76228  0.02643  0.94860  Biso   1.000  C
  C2452    1.0000 0.76232  0.02639  0.94860  Biso   1.000  C
  C2453    1.0000 0.76232  0.02643  0.94860  Biso   1.000  C
  O2014    1.0000 0.69111  0.94861  0.88976  Biso   1.000  O
  H4073    1.0000 0.65811  0.99878  0.91530  Biso   1.000  H
  H4074    1.0000 0.65811  0.99882  0.91530  Biso   1.000  H
  C2454    1.0000 0.73357  0.03169  0.90720  Biso   1.000  C
  C2455    1.0000 0.73357  0.03174  0.90720  Biso   1.000  C
  C2456    1.0000 0.73362  0.03169  0.90720  Biso   1.000  C
  C2457    1.0000 0.73362  0.03174  0.90720  Biso   1.000  C
  H4075    1.0000 0.31159  0.03022  0.87790  Biso   1.000  H
  H4076    1.0000 0.31163  0.03022  0.87790  Biso   1.000  H
  H4077    1.0000 0.31361  0.08161  0.93469  Biso   1.000  H
  O2015    1.0000 0.23532  0.07749  0.92569  Biso   1.000  O
  O2016    1.0000 0.23532  0.07753  0.92569  Biso   1.000  O
  H4078    1.0000 0.30729  0.94381  0.98489  Biso   1.000  H
  H4079    1.0000 0.30734  0.94381  0.98489  Biso   1.000  H
  C2458    1.0000 0.74010  0.06339  0.93009  Biso   1.000  C
  H4080    1.0000 0.79919  0.01010  0.94359  Biso   1.000  H
  C2459    1.0000 0.76788  0.05421  0.97340  Biso   1.000  C
  C2460    1.0000 0.74010  0.06343  0.93009  Biso   1.000  C
  H4081    1.0000 0.79923  0.01010  0.94359  Biso   1.000  H
  C2461    1.0000 0.76792  0.05421  0.97340  Biso   1.000  C
  H4082    1.0000 0.68841  0.96978  0.87790  Biso   1.000  H
  H4083    1.0000 0.68841  0.96982  0.87790  Biso   1.000  H
  O2017    1.0000 0.71059  0.06781  0.88867  Biso   1.000  O
  H4084    1.0000 0.77129  0.01738  0.90210  Biso   1.000  H
  H4085    1.0000 0.77129  0.01742  0.90210  Biso   1.000  H
  H4086    1.0000 0.77133  0.01738  0.90210  Biso   1.000  H
  H4087    1.0000 0.77133  0.01742  0.90210  Biso   1.000  H
  C2462    1.0000 0.23179  0.13730  0.92990  Biso   1.000  C
  C2463    1.0000 0.23179  0.13734  0.92990  Biso   1.000  C
  C2464    1.0000 0.23183  0.13730  0.92990  Biso   1.000  C
  C2465    1.0000 0.23183  0.13734  0.92990  Biso   1.000  C
  O2018    1.0000 0.77958  0.10952  0.92567  Biso   1.000  O
  H4088    1.0000 0.70281  0.07909  0.93510  Biso   1.000  H
  H4089    1.0000 0.70281  0.07913  0.93510  Biso   1.000  H
  O2019    1.0000 0.77962  0.10952  0.92567  Biso   1.000  O
  O2020    1.0000 0.71830  0.07791  0.98050  Biso   1.000  O
  H4090    1.0000 0.77958  0.02538  0.98500  Biso   1.000  H
  H4091    1.0000 0.79751  0.08351  0.97291  Biso   1.000  H
  H4092    1.0000 0.77958  0.02542  0.98500  Biso   1.000  H
  H4093    1.0000 0.77962  0.02538  0.98500  Biso   1.000  H
  H4094    1.0000 0.77962  0.02542  0.98500  Biso   1.000  H
  H4095    1.0000 0.68829  0.09129  0.89470  Biso   1.000  H
  H4096    1.0000 0.68829  0.09133  0.89470  Biso   1.000  H
  H4097    1.0000 0.68833  0.09129  0.89470  Biso   1.000  H
  H4098    1.0000 0.68833  0.09133  0.89470  Biso   1.000  H
  H4099    1.0000 0.26912  0.15312  0.93460  Biso   1.000  H
  C2466    1.0000 0.21032  0.16390  0.90681  Biso   1.000  C
  C2467    1.0000 0.18679  0.14879  0.94890  Biso   1.000  C
  C2468    1.0000 0.21032  0.16394  0.90681  Biso   1.000  C
  C2469    1.0000 0.18679  0.14883  0.94890  Biso   1.000  C
  C2470    1.0000 0.18683  0.14879  0.94890  Biso   1.000  C
  C2471    1.0000 0.18683  0.14883  0.94890  Biso   1.000  C
  C2472    1.0000 0.76102  0.16402  0.93191  Biso   1.000  C
  H4100    1.0000 0.69271  0.05619  0.98489  Biso   1.000  H
  H4101    1.0000 0.69271  0.05623  0.98489  Biso   1.000  H
  O2021    1.0000 0.25249  0.15619  0.88818  Biso   1.000  O
  H4102    1.0000 0.17391  0.14622  0.90200  Biso   1.000  H
  C2473    1.0000 0.20211  0.22720  0.91090  Biso   1.000  C
  O2022    1.0000 0.25249  0.15624  0.88818  Biso   1.000  O
  C2474    1.0000 0.20211  0.22724  0.91090  Biso   1.000  C
  O2023    1.0000 0.25254  0.15619  0.88818  Biso   1.000  O
  O2024    1.0000 0.25254  0.15624  0.88818  Biso   1.000  O
  O2025    1.0000 0.18351  0.20990  0.95237  Biso   1.000  O
  H4103    1.0000 0.14950  0.13481  0.94310  Biso   1.000  H
  C2475    1.0000 0.19908  0.12261  0.97321  Biso   1.000  C
  C2476    1.0000 0.19912  0.12261  0.97321  Biso   1.000  C
  O2026    1.0000 0.79010  0.18351  0.95237  Biso   1.000  O
  C2477    1.0000 0.77280  0.20211  0.91090  Biso   1.000  C
  H4104    1.0000 0.71960  0.16322  0.93510  Biso   1.000  H
  H4105    1.0000 0.26752  0.12429  0.88960  Biso   1.000  H
  H4106    1.0000 0.26752  0.12433  0.88960  Biso   1.000  H
  O2027    1.0000 0.17741  0.25089  0.89006  Biso   1.000  O
  H4107    1.0000 0.23961  0.24509  0.91359  Biso   1.000  H
  C2478    1.0000 0.16402  0.23898  0.93191  Biso   1.000  C
  O2028    1.0000 0.17741  0.25094  0.89006  Biso   1.000  O
  H4108    1.0000 0.23961  0.24513  0.91359  Biso   1.000  H
  C2479    1.0000 0.16402  0.23903  0.93191  Biso   1.000  C
  O2029    1.0000 0.25313  0.14142  0.98130  Biso   1.000  O
  H4109    1.0000 0.16962  0.13389  0.98459  Biso   1.000  H
  H4110    1.0000 0.19879  0.08102  0.97190  Biso   1.000  H
  H4111    1.0000 0.16962  0.13393  0.98459  Biso   1.000  H
  H4112    1.0000 0.19883  0.08102  0.97190  Biso   1.000  H
  C2480    1.0000 0.85121  0.18679  0.94890  Biso   1.000  C
  C2481    1.0000 0.85121  0.18683  0.94890  Biso   1.000  C
  O2030    1.0000 0.74911  0.17741  0.89006  Biso   1.000  O
  C2482    1.0000 0.83610  0.21032  0.90681  Biso   1.000  C
  H4113    1.0000 0.75491  0.23961  0.91359  Biso   1.000  H
  H4114    1.0000 0.19588  0.27552  0.88500  Biso   1.000  H
  H4115    1.0000 0.19593  0.27552  0.88500  Biso   1.000  H
  O2031    1.0000 0.10952  0.22042  0.92567  Biso   1.000  O
  H4116    1.0000 0.16322  0.28040  0.93510  Biso   1.000  H
  H4117    1.0000 0.16322  0.28044  0.93510  Biso   1.000  H
  H4118    1.0000 0.27000  0.12000  0.99189  Biso   1.000  H
  H4119    1.0000 0.27000  0.12004  0.99189  Biso   1.000  H
  C2483    1.0000 0.86270  0.23179  0.92990  Biso   1.000  C
  H4120    1.0000 0.86519  0.14950  0.94310  Biso   1.000  H
  C2484    1.0000 0.87739  0.19908  0.97321  Biso   1.000  C
  C2485    1.0000 0.86270  0.23183  0.92990  Biso   1.000  C
  C2486    1.0000 0.87739  0.19912  0.97321  Biso   1.000  C
  H4121    1.0000 0.86523  0.14950  0.94310  Biso   1.000  H
  H4122    1.0000 0.72448  0.19588  0.88500  Biso   1.000  H
  H4123    1.0000 0.72448  0.19593  0.88500  Biso   1.000  H
  H4124    1.0000 0.72453  0.19588  0.88500  Biso   1.000  H
  H4125    1.0000 0.72453  0.19593  0.88500  Biso   1.000  H
  O2032    1.0000 0.84381  0.25249  0.88818  Biso   1.000  O
  H4126    1.0000 0.85378  0.17391  0.90200  Biso   1.000  H
  O2033    1.0000 0.84381  0.25254  0.88818  Biso   1.000  O
  H4127    1.0000 0.85382  0.17391  0.90200  Biso   1.000  H
  C2487    1.0000 0.06339  0.25990  0.93009  Biso   1.000  C
  C2488    1.0000 0.06343  0.25990  0.93009  Biso   1.000  C
  O2034    1.0000 0.92251  0.23532  0.92569  Biso   1.000  O
  H4128    1.0000 0.84688  0.26912  0.93460  Biso   1.000  H
  H4129    1.0000 0.84692  0.26912  0.93460  Biso   1.000  H
  O2035    1.0000 0.85858  0.25313  0.98130  Biso   1.000  O
  H4130    1.0000 0.86611  0.16962  0.98459  Biso   1.000  H
  H4131    1.0000 0.91898  0.19879  0.97190  Biso   1.000  H
  H4132    1.0000 0.91898  0.19883  0.97190  Biso   1.000  H
  O2036    1.0000 0.85862  0.25313  0.98130  Biso   1.000  O
  H4133    1.0000 0.91902  0.19879  0.97190  Biso   1.000  H
  H4134    1.0000 0.91902  0.19883  0.97190  Biso   1.000  H
  H4135    1.0000 0.87571  0.26752  0.88960  Biso   1.000  H
  H4136    1.0000 0.07909  0.29719  0.93510  Biso   1.000  H
  C2489    1.0000 0.03169  0.26643  0.90720  Biso   1.000  C
  C2490    1.0000 0.02639  0.23772  0.94860  Biso   1.000  C
  H4137    1.0000 0.07909  0.29723  0.93510  Biso   1.000  H
  H4138    1.0000 0.07913  0.29719  0.93510  Biso   1.000  H
  C2491    1.0000 0.03174  0.26643  0.90720  Biso   1.000  C
  C2492    1.0000 0.02643  0.23772  0.94860  Biso   1.000  C
  H4139    1.0000 0.07913  0.29723  0.93510  Biso   1.000  H
  C2493    1.0000 0.94819  0.28469  0.93180  Biso   1.000  C
  C2494    1.0000 0.94819  0.28473  0.93180  Biso   1.000  C
  C2495    1.0000 0.94823  0.28469  0.93180  Biso   1.000  C
  C2496    1.0000 0.94823  0.28473  0.93180  Biso   1.000  C
  H4140    1.0000 0.88000  0.27000  0.99189  Biso   1.000  H
  C2497    1.0000 0.98371  0.30372  0.91150  Biso   1.000  C
  O2037    1.0000 0.06781  0.28941  0.88867  Biso   1.000  O
  H4141    1.0000 0.01738  0.22871  0.90210  Biso   1.000  H
  H4142    1.0000 0.01742  0.22871  0.90210  Biso   1.000  H
  O2038    1.0000 0.98089  0.27901  0.95280  Biso   1.000  O
  O2039    1.0000 0.98093  0.27901  0.95280  Biso   1.000  O
  H4143    1.0000 0.01010  0.20081  0.94359  Biso   1.000  H
  C2498    1.0000 0.05421  0.23212  0.97340  Biso   1.000  C
  H4144    1.0000 0.91839  0.31361  0.93469  Biso   1.000  H
  H4145    1.0000 0.91843  0.31361  0.93469  Biso   1.000  H
  O2040    1.0000 0.94861  0.30889  0.88976  Biso   1.000  O
  H4146    1.0000 0.99878  0.34189  0.91530  Biso   1.000  H
  O2041    1.0000 0.94861  0.30894  0.88976  Biso   1.000  O
  H4147    1.0000 0.99878  0.34193  0.91530  Biso   1.000  H
  H4148    1.0000 0.99882  0.34189  0.91530  Biso   1.000  H
  H4149    1.0000 0.99882  0.34193  0.91530  Biso   1.000  H
  H4150    1.0000 0.09129  0.31171  0.89470  Biso   1.000  H
  H4151    1.0000 0.09133  0.31171  0.89470  Biso   1.000  H
  O2042    1.0000 0.07791  0.28170  0.98050  Biso   1.000  O
  H4152    1.0000 0.02538  0.22042  0.98500  Biso   1.000  H
  H4153    1.0000 0.08351  0.20249  0.97291  Biso   1.000  H
  H4154    1.0000 0.08351  0.20253  0.97291  Biso   1.000  H
  H4155    1.0000 0.02542  0.22042  0.98500  Biso   1.000  H
  H4156    1.0000 0.96978  0.31159  0.87790  Biso   1.000  H
  H4157    1.0000 0.96978  0.31163  0.87790  Biso   1.000  H
  H4158    1.0000 0.96982  0.31159  0.87790  Biso   1.000  H
  H4159    1.0000 0.96982  0.31163  0.87790  Biso   1.000  H
  H4160    1.0000 0.05619  0.30729  0.98489  Biso   1.000  H
  H4161    1.0000 0.05619  0.30734  0.98489  Biso   1.000  H
  H4162    1.0000 0.05623  0.30729  0.98489  Biso   1.000  H
  H4163    1.0000 0.05623  0.30734  0.98489  Biso   1.000  H
  O2043    1.0000 0.05143  0.69111  0.88976  Biso   1.000  O
  C2499    1.0000 0.01629  0.69628  0.91150  Biso   1.000  C
  C2500    1.0000 0.01629  0.69633  0.91150  Biso   1.000  C
  C2501    1.0000 0.01633  0.69628  0.91150  Biso   1.000  C
  C2502    1.0000 0.01633  0.69633  0.91150  Biso   1.000  C
  H4164    1.0000 0.03022  0.68841  0.87790  Biso   1.000  H
  C2503    1.0000 0.05181  0.71531  0.93180  Biso   1.000  C
  H4165    1.0000 0.00122  0.65811  0.91530  Biso   1.000  H
  C2504    1.0000 0.96831  0.73357  0.90720  Biso   1.000  C
  C2505    1.0000 0.96831  0.73362  0.90720  Biso   1.000  C
  O2044    1.0000 0.05139  0.69111  0.88976  Biso   1.000  O
  H4166    1.0000 0.08161  0.68639  0.93469  Biso   1.000  H
  O2045    1.0000 0.01911  0.72099  0.95280  Biso   1.000  O
  O2046    1.0000 0.07749  0.76468  0.92569  Biso   1.000  O
  O2047    1.0000 0.01911  0.72103  0.95280  Biso   1.000  O
  O2048    1.0000 0.07749  0.76472  0.92569  Biso   1.000  O
  O2049    1.0000 0.07753  0.76468  0.92569  Biso   1.000  O
  O2050    1.0000 0.07753  0.76472  0.92569  Biso   1.000  O
  C2506    1.0000 0.93661  0.74010  0.93009  Biso   1.000  C
  O2051    1.0000 0.93219  0.71059  0.88867  Biso   1.000  O
  H4167    1.0000 0.98262  0.77129  0.90210  Biso   1.000  H
  H4168    1.0000 0.98262  0.77133  0.90210  Biso   1.000  H
  O2052    1.0000 0.93224  0.71059  0.88867  Biso   1.000  O
  C2507    1.0000 0.97361  0.76228  0.94860  Biso   1.000  C
  C2508    1.0000 0.97361  0.76232  0.94860  Biso   1.000  C
  C2509    1.0000 0.13730  0.76821  0.92990  Biso   1.000  C
  C2510    1.0000 0.13734  0.76821  0.92990  Biso   1.000  C
  O2053    1.0000 0.89048  0.77958  0.92567  Biso   1.000  O
  H4169    1.0000 0.92091  0.70281  0.93510  Biso   1.000  H
  O2054    1.0000 0.89048  0.77962  0.92567  Biso   1.000  O
  O2055    1.0000 0.89053  0.77958  0.92567  Biso   1.000  O
  O2056    1.0000 0.89053  0.77962  0.92567  Biso   1.000  O
  H4170    1.0000 0.90871  0.68829  0.89470  Biso   1.000  H
  H4171    1.0000 0.90871  0.68833  0.89470  Biso   1.000  H
  H4172    1.0000 0.98990  0.79919  0.94359  Biso   1.000  H
  C2511    1.0000 0.94579  0.76788  0.97340  Biso   1.000  C
  H4173    1.0000 0.98990  0.79923  0.94359  Biso   1.000  H
  C2512    1.0000 0.94579  0.76792  0.97340  Biso   1.000  C
  C2513    1.0000 0.94583  0.76788  0.97340  Biso   1.000  C
  C2514    1.0000 0.94583  0.76792  0.97340  Biso   1.000  C
  H4174    1.0000 0.15312  0.73088  0.93460  Biso   1.000  H
  C2515    1.0000 0.16390  0.78968  0.90681  Biso   1.000  C
  C2516    1.0000 0.14879  0.81321  0.94890  Biso   1.000  C
  H4175    1.0000 0.15312  0.73092  0.93460  Biso   1.000  H
  C2517    1.0000 0.16390  0.78972  0.90681  Biso   1.000  C
  C2518    1.0000 0.16394  0.78968  0.90681  Biso   1.000  C
  C2519    1.0000 0.14883  0.81321  0.94890  Biso   1.000  C
  C2520    1.0000 0.16394  0.78972  0.90681  Biso   1.000  C
  C2521    1.0000 0.83598  0.76102  0.93191  Biso   1.000  C
  C2522    1.0000 0.83602  0.76102  0.93191  Biso   1.000  C
  O2057    1.0000 0.92209  0.71830  0.98050  Biso   1.000  O
  H4176    1.0000 0.97462  0.77958  0.98500  Biso   1.000  H
  H4177    1.0000 0.91649  0.79751  0.97291  Biso   1.000  H
  H4178    1.0000 0.97462  0.77962  0.98500  Biso   1.000  H
  O2058    1.0000 0.92213  0.71830  0.98050  Biso   1.000  O
  O2059    1.0000 0.15619  0.74751  0.88818  Biso   1.000  O
  H4179    1.0000 0.14622  0.82609  0.90200  Biso   1.000  H
  C2523    1.0000 0.22720  0.79789  0.91090  Biso   1.000  C
  H4180    1.0000 0.14622  0.82613  0.90200  Biso   1.000  H
  C2524    1.0000 0.22720  0.79793  0.91090  Biso   1.000  C
  O2060    1.0000 0.15624  0.74751  0.88818  Biso   1.000  O
  C2525    1.0000 0.22724  0.79789  0.91090  Biso   1.000  C
  C2526    1.0000 0.22724  0.79793  0.91090  Biso   1.000  C
  H4181    1.0000 0.13481  0.85050  0.94310  Biso   1.000  H
  C2527    1.0000 0.12261  0.80092  0.97321  Biso   1.000  C
  O2061    1.0000 0.20990  0.81649  0.95237  Biso   1.000  O
  O2062    1.0000 0.20990  0.81653  0.95237  Biso   1.000  O
  O2063    1.0000 0.81649  0.79010  0.95237  Biso   1.000  O
  C2528    1.0000 0.79789  0.77280  0.91090  Biso   1.000  C
  H4182    1.0000 0.83678  0.71960  0.93510  Biso   1.000  H
  O2064    1.0000 0.81653  0.79010  0.95237  Biso   1.000  O
  C2529    1.0000 0.79793  0.77280  0.91090  Biso   1.000  C
  H4183    1.0000 0.83682  0.71960  0.93510  Biso   1.000  H
  H4184    1.0000 0.94381  0.69271  0.98489  Biso   1.000  H
  H4185    1.0000 0.12429  0.73248  0.88960  Biso   1.000  H
  H4186    1.0000 0.12429  0.73252  0.88960  Biso   1.000  H
  H4187    1.0000 0.12433  0.73248  0.88960  Biso   1.000  H
  H4188    1.0000 0.12433  0.73252  0.88960  Biso   1.000  H
  O2065    1.0000 0.25089  0.82259  0.89006  Biso   1.000  O
  H4189    1.0000 0.24509  0.76039  0.91359  Biso   1.000  H
  C2530    1.0000 0.23898  0.83598  0.93191  Biso   1.000  C
  H4190    1.0000 0.24509  0.76043  0.91359  Biso   1.000  H
  C2531    1.0000 0.23898  0.83602  0.93191  Biso   1.000  C
  O2066    1.0000 0.25094  0.82259  0.89006  Biso   1.000  O
  H4191    1.0000 0.24513  0.76039  0.91359  Biso   1.000  H
  C2532    1.0000 0.23903  0.83598  0.93191  Biso   1.000  C
  H4192    1.0000 0.24513  0.76043  0.91359  Biso   1.000  H
  C2533    1.0000 0.23903  0.83602  0.93191  Biso   1.000  C
  H4193    1.0000 0.08102  0.80121  0.97190  Biso   1.000  H
  O2067    1.0000 0.14142  0.74687  0.98130  Biso   1.000  O
  H4194    1.0000 0.13389  0.83038  0.98459  Biso   1.000  H
  O2068    1.0000 0.14142  0.74692  0.98130  Biso   1.000  O
  H4195    1.0000 0.13389  0.83042  0.98459  Biso   1.000  H
  H4196    1.0000 0.13393  0.83038  0.98459  Biso   1.000  H
  H4197    1.0000 0.13393  0.83042  0.98459  Biso   1.000  H
  C2534    1.0000 0.81321  0.85121  0.94890  Biso   1.000  C
  O2069    1.0000 0.82259  0.74911  0.89006  Biso   1.000  O
  C2535    1.0000 0.78968  0.83610  0.90681  Biso   1.000  C
  H4198    1.0000 0.76039  0.75491  0.91359  Biso   1.000  H
  C2536    1.0000 0.78972  0.83610  0.90681  Biso   1.000  C
  H4199    1.0000 0.76043  0.75491  0.91359  Biso   1.000  H
  H4200    1.0000 0.27552  0.80412  0.88500  Biso   1.000  H
  O2070    1.0000 0.22042  0.89048  0.92567  Biso   1.000  O
  H4201    1.0000 0.28040  0.83678  0.93510  Biso   1.000  H
  O2071    1.0000 0.22042  0.89053  0.92567  Biso   1.000  O
  H4202    1.0000 0.28040  0.83682  0.93510  Biso   1.000  H
  H4203    1.0000 0.28044  0.83678  0.93510  Biso   1.000  H
  H4204    1.0000 0.28044  0.83682  0.93510  Biso   1.000  H
  H4205    1.0000 0.12000  0.73000  0.99189  Biso   1.000  H
  H4206    1.0000 0.12004  0.73000  0.99189  Biso   1.000  H
  C2537    1.0000 0.76821  0.86270  0.92990  Biso   1.000  C
  H4207    1.0000 0.85050  0.86519  0.94310  Biso   1.000  H
  C2538    1.0000 0.80092  0.87739  0.97321  Biso   1.000  C
  H4208    1.0000 0.85050  0.86523  0.94310  Biso   1.000  H
  H4209    1.0000 0.80412  0.72448  0.88500  Biso   1.000  H
  H4210    1.0000 0.80412  0.72453  0.88500  Biso   1.000  H
  O2072    1.0000 0.74751  0.84381  0.88818  Biso   1.000  O
  H4211    1.0000 0.82609  0.85378  0.90200  Biso   1.000  H
  H4212    1.0000 0.82609  0.85382  0.90200  Biso   1.000  H
  H4213    1.0000 0.82613  0.85378  0.90200  Biso   1.000  H
  H4214    1.0000 0.82613  0.85382  0.90200  Biso   1.000  H
  C2539    1.0000 0.25990  0.93661  0.93009  Biso   1.000  C
  O2073    1.0000 0.76468  0.92251  0.92569  Biso   1.000  O
  H4215    1.0000 0.73088  0.84688  0.93460  Biso   1.000  H
  H4216    1.0000 0.73088  0.84692  0.93460  Biso   1.000  H
  O2074    1.0000 0.76472  0.92251  0.92569  Biso   1.000  O
  H4217    1.0000 0.73092  0.84688  0.93460  Biso   1.000  H
  H4218    1.0000 0.73092  0.84692  0.93460  Biso   1.000  H
  O2075    1.0000 0.74687  0.85858  0.98130  Biso   1.000  O
  H4219    1.0000 0.83038  0.86611  0.98459  Biso   1.000  H
  H4220    1.0000 0.80121  0.91898  0.97190  Biso   1.000  H
  O2076    1.0000 0.74687  0.85862  0.98130  Biso   1.000  O
  H4221    1.0000 0.80121  0.91902  0.97190  Biso   1.000  H
  O2077    1.0000 0.74692  0.85858  0.98130  Biso   1.000  O
  H4222    1.0000 0.83042  0.86611  0.98459  Biso   1.000  H
  O2078    1.0000 0.74692  0.85862  0.98130  Biso   1.000  O
  H4223    1.0000 0.73248  0.87571  0.88960  Biso   1.000  H
  H4224    1.0000 0.73252  0.87571  0.88960  Biso   1.000  H
  C2540    1.0000 0.26643  0.96831  0.90720  Biso   1.000  C
  C2541    1.0000 0.23772  0.97361  0.94860  Biso   1.000  C
  H4225    1.0000 0.29719  0.92091  0.93510  Biso   1.000  H
  H4226    1.0000 0.29723  0.92091  0.93510  Biso   1.000  H
  C2542    1.0000 0.71531  0.94819  0.93180  Biso   1.000  C
  C2543    1.0000 0.71531  0.94823  0.93180  Biso   1.000  C
  H4227    1.0000 0.73000  0.88000  0.99189  Biso   1.000  H
  H4228    1.0000 0.22871  0.98262  0.90210  Biso   1.000  H
  O2079    1.0000 0.28941  0.93219  0.88867  Biso   1.000  O
  O2080    1.0000 0.28941  0.93224  0.88867  Biso   1.000  O
  C2544    1.0000 0.30372  0.01629  0.91150  Biso   1.000  C
  C2545    1.0000 0.30372  0.01633  0.91150  Biso   1.000  C
  H4229    1.0000 0.20081  0.98990  0.94359  Biso   1.000  H
  C2546    1.0000 0.23212  0.94579  0.97340  Biso   1.000  C
  C2547    1.0000 0.23212  0.94583  0.97340  Biso   1.000  C
  O2081    1.0000 0.27901  0.01911  0.95280  Biso   1.000  O
  O2082    1.0000 0.72099  0.98089  0.95280  Biso   1.000  O
  C2548    1.0000 0.69628  0.98371  0.91150  Biso   1.000  C
  H4230    1.0000 0.68639  0.91839  0.93469  Biso   1.000  H
  O2083    1.0000 0.72099  0.98093  0.95280  Biso   1.000  O
  H4231    1.0000 0.68639  0.91843  0.93469  Biso   1.000  H
  O2084    1.0000 0.72103  0.98089  0.95280  Biso   1.000  O
  C2549    1.0000 0.69633  0.98371  0.91150  Biso   1.000  C
  O2085    1.0000 0.72103  0.98093  0.95280  Biso   1.000  O
  H4232    1.0000 0.31171  0.90871  0.89470  Biso   1.000  H
  O2086    1.0000 0.30889  0.05139  0.88976  Biso   1.000  O
  H4233    1.0000 0.34189  0.00122  0.91530  Biso   1.000  H
  C2550    1.0000 0.28469  0.05181  0.93180  Biso   1.000  C
  O2087    1.0000 0.30889  0.05143  0.88976  Biso   1.000  O
  O2088    1.0000 0.30894  0.05139  0.88976  Biso   1.000  O
  H4234    1.0000 0.34193  0.00122  0.91530  Biso   1.000  H
  C2551    1.0000 0.28473  0.05181  0.93180  Biso   1.000  C
  O2089    1.0000 0.30894  0.05143  0.88976  Biso   1.000  O
  H4235    1.0000 0.22042  0.97462  0.98500  Biso   1.000  H
  O2090    1.0000 0.28170  0.92209  0.98050  Biso   1.000  O
  H4236    1.0000 0.20249  0.91649  0.97291  Biso   1.000  H
  O2091    1.0000 0.28170  0.92213  0.98050  Biso   1.000  O
  H4237    1.0000 0.20253  0.91649  0.97291  Biso   1.000  H
  C2552    1.0000 0.76228  0.02639  0.94860  Biso   1.000  C
  C2553    1.0000 0.76228  0.02643  0.94860  Biso   1.000  C
  C2554    1.0000 0.76232  0.02639  0.94860  Biso   1.000  C
  C2555    1.0000 0.76232  0.02643  0.94860  Biso   1.000  C
  O2092    1.0000 0.69111  0.94861  0.88976  Biso   1.000  O
  H4238    1.0000 0.65811  0.99878  0.91530  Biso   1.000  H
  H4239    1.0000 0.65811  0.99882  0.91530  Biso   1.000  H
  C2556    1.0000 0.73357  0.03169  0.90720  Biso   1.000  C
  C2557    1.0000 0.73357  0.03174  0.90720  Biso   1.000  C
  C2558    1.0000 0.73362  0.03169  0.90720  Biso   1.000  C
  C2559    1.0000 0.73362  0.03174  0.90720  Biso   1.000  C
  H4240    1.0000 0.31159  0.03022  0.87790  Biso   1.000  H
  H4241    1.0000 0.31163  0.03022  0.87790  Biso   1.000  H
  H4242    1.0000 0.31361  0.08161  0.93469  Biso   1.000  H
  O2093    1.0000 0.23532  0.07749  0.92569  Biso   1.000  O
  O2094    1.0000 0.23532  0.07753  0.92569  Biso   1.000  O
  H4243    1.0000 0.30729  0.94381  0.98489  Biso   1.000  H
  H4244    1.0000 0.30734  0.94381  0.98489  Biso   1.000  H
  C2560    1.0000 0.74010  0.06339  0.93009  Biso   1.000  C
  H4245    1.0000 0.79919  0.01010  0.94359  Biso   1.000  H
  C2561    1.0000 0.76788  0.05421  0.97340  Biso   1.000  C
  C2562    1.0000 0.74010  0.06343  0.93009  Biso   1.000  C
  H4246    1.0000 0.79923  0.01010  0.94359  Biso   1.000  H
  C2563    1.0000 0.76792  0.05421  0.97340  Biso   1.000  C
  H4247    1.0000 0.68841  0.96978  0.87790  Biso   1.000  H
  H4248    1.0000 0.68841  0.96982  0.87790  Biso   1.000  H
  O2095    1.0000 0.71059  0.06781  0.88867  Biso   1.000  O
  H4249    1.0000 0.77129  0.01738  0.90210  Biso   1.000  H
  H4250    1.0000 0.77129  0.01742  0.90210  Biso   1.000  H
  H4251    1.0000 0.77133  0.01738  0.90210  Biso   1.000  H
  H4252    1.0000 0.77133  0.01742  0.90210  Biso   1.000  H
  C2564    1.0000 0.23179  0.13730  0.92990  Biso   1.000  C
  C2565    1.0000 0.23179  0.13734  0.92990  Biso   1.000  C
  C2566    1.0000 0.23183  0.13730  0.92990  Biso   1.000  C
  C2567    1.0000 0.23183  0.13734  0.92990  Biso   1.000  C
  O2096    1.0000 0.77958  0.10952  0.92567  Biso   1.000  O
  H4253    1.0000 0.70281  0.07909  0.93510  Biso   1.000  H
  H4254    1.0000 0.70281  0.07913  0.93510  Biso   1.000  H
  O2097    1.0000 0.77962  0.10952  0.92567  Biso   1.000  O
  O2098    1.0000 0.71830  0.07791  0.98050  Biso   1.000  O
  H4255    1.0000 0.77958  0.02538  0.98500  Biso   1.000  H
  H4256    1.0000 0.79751  0.08351  0.97291  Biso   1.000  H
  H4257    1.0000 0.77958  0.02542  0.98500  Biso   1.000  H
  H4258    1.0000 0.77962  0.02538  0.98500  Biso   1.000  H
  H4259    1.0000 0.77962  0.02542  0.98500  Biso   1.000  H
  H4260    1.0000 0.68829  0.09129  0.89470  Biso   1.000  H
  H4261    1.0000 0.68829  0.09133  0.89470  Biso   1.000  H
  H4262    1.0000 0.68833  0.09129  0.89470  Biso   1.000  H
  H4263    1.0000 0.68833  0.09133  0.89470  Biso   1.000  H
  H4264    1.0000 0.26912  0.15312  0.93460  Biso   1.000  H
  C2568    1.0000 0.21032  0.16390  0.90681  Biso   1.000  C
  C2569    1.0000 0.18679  0.14879  0.94890  Biso   1.000  C
  C2570    1.0000 0.21032  0.16394  0.90681  Biso   1.000  C
  C2571    1.0000 0.18679  0.14883  0.94890  Biso   1.000  C
  C2572    1.0000 0.18683  0.14879  0.94890  Biso   1.000  C
  C2573    1.0000 0.18683  0.14883  0.94890  Biso   1.000  C
  C2574    1.0000 0.76102  0.16402  0.93191  Biso   1.000  C
  H4265    1.0000 0.69271  0.05619  0.98489  Biso   1.000  H
  H4266    1.0000 0.69271  0.05623  0.98489  Biso   1.000  H
  O2099    1.0000 0.25249  0.15619  0.88818  Biso   1.000  O
  H4267    1.0000 0.17391  0.14622  0.90200  Biso   1.000  H
  C2575    1.0000 0.20211  0.22720  0.91090  Biso   1.000  C
  O2100    1.0000 0.25249  0.15624  0.88818  Biso   1.000  O
  C2576    1.0000 0.20211  0.22724  0.91090  Biso   1.000  C
  O2101    1.0000 0.25254  0.15619  0.88818  Biso   1.000  O
  O2102    1.0000 0.25254  0.15624  0.88818  Biso   1.000  O
  O2103    1.0000 0.18351  0.20990  0.95237  Biso   1.000  O
  H4268    1.0000 0.14950  0.13481  0.94310  Biso   1.000  H
  C2577    1.0000 0.19908  0.12261  0.97321  Biso   1.000  C
  C2578    1.0000 0.19912  0.12261  0.97321  Biso   1.000  C
  O2104    1.0000 0.79010  0.18351  0.95237  Biso   1.000  O
  C2579    1.0000 0.77280  0.20211  0.91090  Biso   1.000  C
  H4269    1.0000 0.71960  0.16322  0.93510  Biso   1.000  H
  H4270    1.0000 0.26752  0.12429  0.88960  Biso   1.000  H
  H4271    1.0000 0.26752  0.12433  0.88960  Biso   1.000  H
  O2105    1.0000 0.17741  0.25089  0.89006  Biso   1.000  O
  H4272    1.0000 0.23961  0.24509  0.91359  Biso   1.000  H
  C2580    1.0000 0.16402  0.23898  0.93191  Biso   1.000  C
  O2106    1.0000 0.17741  0.25094  0.89006  Biso   1.000  O
  H4273    1.0000 0.23961  0.24513  0.91359  Biso   1.000  H
  C2581    1.0000 0.16402  0.23903  0.93191  Biso   1.000  C
  O2107    1.0000 0.25313  0.14142  0.98130  Biso   1.000  O
  H4274    1.0000 0.16962  0.13389  0.98459  Biso   1.000  H
  H4275    1.0000 0.19879  0.08102  0.97190  Biso   1.000  H
  H4276    1.0000 0.16962  0.13393  0.98459  Biso   1.000  H
  H4277    1.0000 0.19883  0.08102  0.97190  Biso   1.000  H
  C2582    1.0000 0.85121  0.18679  0.94890  Biso   1.000  C
  C2583    1.0000 0.85121  0.18683  0.94890  Biso   1.000  C
  O2108    1.0000 0.74911  0.17741  0.89006  Biso   1.000  O
  C2584    1.0000 0.83610  0.21032  0.90681  Biso   1.000  C
  H4278    1.0000 0.75491  0.23961  0.91359  Biso   1.000  H
  H4279    1.0000 0.19588  0.27552  0.88500  Biso   1.000  H
  H4280    1.0000 0.19593  0.27552  0.88500  Biso   1.000  H
  O2109    1.0000 0.10952  0.22042  0.92567  Biso   1.000  O
  H4281    1.0000 0.16322  0.28040  0.93510  Biso   1.000  H
  H4282    1.0000 0.16322  0.28044  0.93510  Biso   1.000  H
  H4283    1.0000 0.27000  0.12000  0.99189  Biso   1.000  H
  H4284    1.0000 0.27000  0.12004  0.99189  Biso   1.000  H
  C2585    1.0000 0.86270  0.23179  0.92990  Biso   1.000  C
  H4285    1.0000 0.86519  0.14950  0.94310  Biso   1.000  H
  C2586    1.0000 0.87739  0.19908  0.97321  Biso   1.000  C
  C2587    1.0000 0.86270  0.23183  0.92990  Biso   1.000  C
  C2588    1.0000 0.87739  0.19912  0.97321  Biso   1.000  C
  H4286    1.0000 0.86523  0.14950  0.94310  Biso   1.000  H
  H4287    1.0000 0.72448  0.19588  0.88500  Biso   1.000  H
  H4288    1.0000 0.72448  0.19593  0.88500  Biso   1.000  H
  H4289    1.0000 0.72453  0.19588  0.88500  Biso   1.000  H
  H4290    1.0000 0.72453  0.19593  0.88500  Biso   1.000  H
  O2110    1.0000 0.84381  0.25249  0.88818  Biso   1.000  O
  H4291    1.0000 0.85378  0.17391  0.90200  Biso   1.000  H
  O2111    1.0000 0.84381  0.25254  0.88818  Biso   1.000  O
  H4292    1.0000 0.85382  0.17391  0.90200  Biso   1.000  H
  C2589    1.0000 0.06339  0.25990  0.93009  Biso   1.000  C
  C2590    1.0000 0.06343  0.25990  0.93009  Biso   1.000  C
  O2112    1.0000 0.92251  0.23532  0.92569  Biso   1.000  O
  H4293    1.0000 0.84688  0.26912  0.93460  Biso   1.000  H
  H4294    1.0000 0.84692  0.26912  0.93460  Biso   1.000  H
  O2113    1.0000 0.85858  0.25313  0.98130  Biso   1.000  O
  H4295    1.0000 0.86611  0.16962  0.98459  Biso   1.000  H
  H4296    1.0000 0.91898  0.19879  0.97190  Biso   1.000  H
  H4297    1.0000 0.91898  0.19883  0.97190  Biso   1.000  H
  O2114    1.0000 0.85862  0.25313  0.98130  Biso   1.000  O
  H4298    1.0000 0.91902  0.19879  0.97190  Biso   1.000  H
  H4299    1.0000 0.91902  0.19883  0.97190  Biso   1.000  H
  H4300    1.0000 0.87571  0.26752  0.88960  Biso   1.000  H
  H4301    1.0000 0.07909  0.29719  0.93510  Biso   1.000  H
  C2591    1.0000 0.03169  0.26643  0.90720  Biso   1.000  C
  C2592    1.0000 0.02639  0.23772  0.94860  Biso   1.000  C
  H4302    1.0000 0.07909  0.29723  0.93510  Biso   1.000  H
  H4303    1.0000 0.07913  0.29719  0.93510  Biso   1.000  H
  C2593    1.0000 0.03174  0.26643  0.90720  Biso   1.000  C
  C2594    1.0000 0.02643  0.23772  0.94860  Biso   1.000  C
  H4304    1.0000 0.07913  0.29723  0.93510  Biso   1.000  H
  C2595    1.0000 0.94819  0.28469  0.93180  Biso   1.000  C
  C2596    1.0000 0.94819  0.28473  0.93180  Biso   1.000  C
  C2597    1.0000 0.94823  0.28469  0.93180  Biso   1.000  C
  C2598    1.0000 0.94823  0.28473  0.93180  Biso   1.000  C
  H4305    1.0000 0.88000  0.27000  0.99189  Biso   1.000  H
  C2599    1.0000 0.98371  0.30372  0.91150  Biso   1.000  C
  O2115    1.0000 0.06781  0.28941  0.88867  Biso   1.000  O
  H4306    1.0000 0.01738  0.22871  0.90210  Biso   1.000  H
  H4307    1.0000 0.01742  0.22871  0.90210  Biso   1.000  H
  O2116    1.0000 0.98089  0.27901  0.95280  Biso   1.000  O
  O2117    1.0000 0.98093  0.27901  0.95280  Biso   1.000  O
  H4308    1.0000 0.01010  0.20081  0.94359  Biso   1.000  H
  C2600    1.0000 0.05421  0.23212  0.97340  Biso   1.000  C
  H4309    1.0000 0.91839  0.31361  0.93469  Biso   1.000  H
  H4310    1.0000 0.91843  0.31361  0.93469  Biso   1.000  H
  O2118    1.0000 0.94861  0.30889  0.88976  Biso   1.000  O
  H4311    1.0000 0.99878  0.34189  0.91530  Biso   1.000  H
  O2119    1.0000 0.94861  0.30894  0.88976  Biso   1.000  O
  H4312    1.0000 0.99878  0.34193  0.91530  Biso   1.000  H
  H4313    1.0000 0.99882  0.34189  0.91530  Biso   1.000  H
  H4314    1.0000 0.99882  0.34193  0.91530  Biso   1.000  H
  H4315    1.0000 0.09129  0.31171  0.89470  Biso   1.000  H
  H4316    1.0000 0.09133  0.31171  0.89470  Biso   1.000  H
  O2120    1.0000 0.07791  0.28170  0.98050  Biso   1.000  O
  H4317    1.0000 0.02538  0.22042  0.98500  Biso   1.000  H
  H4318    1.0000 0.08351  0.20249  0.97291  Biso   1.000  H
  H4319    1.0000 0.08351  0.20253  0.97291  Biso   1.000  H
  H4320    1.0000 0.02542  0.22042  0.98500  Biso   1.000  H
  H4321    1.0000 0.96978  0.31159  0.87790  Biso   1.000  H
  H4322    1.0000 0.96978  0.31163  0.87790  Biso   1.000  H
  H4323    1.0000 0.96982  0.31159  0.87790  Biso   1.000  H
  H4324    1.0000 0.96982  0.31163  0.87790  Biso   1.000  H
  H4325    1.0000 0.05619  0.30729  0.98489  Biso   1.000  H
  H4326    1.0000 0.05619  0.30734  0.98489  Biso   1.000  H
  H4327    1.0000 0.05623  0.30729  0.98489  Biso   1.000  H
  H4328    1.0000 0.05623  0.30734  0.98489  Biso   1.000  H
