data_image0
_cell_length_a       11.779
_cell_length_b       15.463
_cell_length_c       15.181
_cell_angle_alpha    90
_cell_angle_beta     90
_cell_angle_gamma    90

_symmetry_space_group_name_H-M    "P 1"
_symmetry_int_tables_number       1

loop_
  _symmetry_equiv_pos_as_xyz
  'x, y, z'

loop_
  _atom_site_label
  _atom_site_occupancy
  _atom_site_fract_x
  _atom_site_fract_y
  _atom_site_fract_z
  _atom_site_thermal_displace_type
  _atom_site_B_iso_or_equiv
  _atom_site_type_symbol
  O1       1.0000 0.76305  0.40878  0.24307  Biso   1.000  O
  C1       1.0000 0.84922  0.43860  0.27791  Biso   1.000  C
  C2       1.0000 0.84922  0.43860  0.27785  Biso   1.000  C
  C3       1.0000 0.84481  0.46809  0.28108  Biso   1.000  C
  O2       1.0000 0.76297  0.40878  0.24307  Biso   1.000  O
  N1       1.0000 0.87393  0.52377  0.28977  Biso   1.000  N
  N2       1.0000 0.93633  0.39067  0.31151  Biso   1.000  N
  N3       1.0000 0.93633  0.39067  0.31144  Biso   1.000  N
  N4       1.0000 0.93497  0.41596  0.30301  Biso   1.000  N
  O3       1.0000 0.75567  0.44138  0.24788  Biso   1.000  O
  N5       1.0000 0.87232  0.55048  0.30077  Biso   1.000  N
  C4       1.0000 0.97521  0.53560  0.34161  Biso   1.000  C
  C5       1.0000 0.97521  0.53560  0.34155  Biso   1.000  C
  C6       1.0000 0.79047  0.58908  0.27376  Biso   1.000  C
  C7       1.0000 0.97767  0.55591  0.34688  Biso   1.000  C
  C8       1.0000 0.94448  0.30027  0.29682  Biso   1.000  C
  C9       1.0000 0.94448  0.30027  0.29675  Biso   1.000  C
  C10      1.0000 0.94456  0.30027  0.29682  Biso   1.000  C
  C11      1.0000 0.94456  0.30027  0.29675  Biso   1.000  C
  C12      1.0000 0.93497  0.32717  0.28219  Biso   1.000  C
  C13      1.0000 0.02479  0.46440  0.34161  Biso   1.000  C
  C14      1.0000 0.02479  0.46440  0.34155  Biso   1.000  C
  C15      1.0000 0.02487  0.46440  0.34161  Biso   1.000  C
  C16      1.0000 0.02487  0.46440  0.34155  Biso   1.000  C
  C17      1.0000 0.02241  0.44409  0.34688  Biso   1.000  C
  C18      1.0000 0.79107  0.61928  0.29201  Biso   1.000  C
  C19      1.0000 0.79107  0.61928  0.29194  Biso   1.000  C
  C20      1.0000 0.79115  0.61928  0.29201  Biso   1.000  C
  C21      1.0000 0.79115  0.61928  0.29194  Biso   1.000  C
  H1       1.0000 0.95636  0.55765  0.39892  Biso   1.000  H
  H2       1.0000 0.95636  0.55765  0.39885  Biso   1.000  H
  H3       1.0000 0.95645  0.55765  0.39892  Biso   1.000  H
  H4       1.0000 0.95645  0.55765  0.39885  Biso   1.000  H
  H5       1.0000 0.96417  0.57188  0.40709  Biso   1.000  H
  N6       1.0000 0.06367  0.60926  0.31151  Biso   1.000  N
  N7       1.0000 0.06367  0.60926  0.31144  Biso   1.000  N
  N8       1.0000 0.06376  0.60926  0.31151  Biso   1.000  N
  N9       1.0000 0.06376  0.60926  0.31144  Biso   1.000  N
  N10      1.0000 0.06512  0.58397  0.30301  Biso   1.000  N
  N11      1.0000 0.80457  0.67438  0.21678  Biso   1.000  N
  H6       1.0000 0.71627  0.59458  0.29049  Biso   1.000  H
  N12      1.0000 0.80465  0.67438  0.21678  Biso   1.000  N
  H7       1.0000 0.71636  0.59458  0.29049  Biso   1.000  H
  N13      1.0000 0.80873  0.64819  0.20321  Biso   1.000  N
  H8       1.0000 0.78385  0.62226  0.32699  Biso   1.000  H
  H9       1.0000 0.71882  0.56108  0.26421  Biso   1.000  H
  H10      1.0000 0.98302  0.27627  0.34688  Biso   1.000  H
  H11      1.0000 0.86909  0.27679  0.29629  Biso   1.000  H
  H12      1.0000 0.85763  0.30887  0.27521  Biso   1.000  H
  H13      1.0000 0.96468  0.29742  0.33272  Biso   1.000  H
  N14      1.0000 0.99762  0.29697  0.20789  Biso   1.000  N
  N15      1.0000 0.00204  0.27078  0.21981  Biso   1.000  N
  N16      1.0000 0.00204  0.27078  0.21975  Biso   1.000  N
  N17      1.0000 0.12607  0.47617  0.28977  Biso   1.000  N
  H14      1.0000 0.04364  0.44228  0.39892  Biso   1.000  H
  H15      1.0000 0.04364  0.44228  0.39885  Biso   1.000  H
  N18      1.0000 0.12616  0.47617  0.28977  Biso   1.000  N
  N19      1.0000 0.12768  0.44946  0.30077  Biso   1.000  N
  H16      1.0000 0.03583  0.42805  0.40709  Biso   1.000  H
  H17      1.0000 0.79608  0.65447  0.34398  Biso   1.000  H
  H18      1.0000 0.79616  0.65447  0.34398  Biso   1.000  H
  C22      1.0000 0.15078  0.56140  0.27791  Biso   1.000  C
  C23      1.0000 0.05552  0.69967  0.29682  Biso   1.000  C
  C24      1.0000 0.15078  0.56140  0.27785  Biso   1.000  C
  C25      1.0000 0.05552  0.69967  0.29675  Biso   1.000  C
  C26      1.0000 0.15086  0.56140  0.27791  Biso   1.000  C
  C27      1.0000 0.15086  0.56140  0.27785  Biso   1.000  C
  C28      1.0000 0.15519  0.53191  0.28108  Biso   1.000  C
  C29      1.0000 0.06503  0.67277  0.28219  Biso   1.000  C
  C30      1.0000 0.88013  0.74559  0.21211  Biso   1.000  C
  C31      1.0000 0.74658  0.66365  0.14070  Biso   1.000  C
  C32      1.0000 0.88013  0.74559  0.21204  Biso   1.000  C
  C33      1.0000 0.74667  0.66365  0.14070  Biso   1.000  C
  C34      1.0000 0.74888  0.64606  0.12707  Biso   1.000  C
  C35      1.0000 0.88386  0.72075  0.20690  Biso   1.000  C
  C36      1.0000 0.94762  0.24969  0.14413  Biso   1.000  C
  C37      1.0000 0.94762  0.24969  0.14406  Biso   1.000  C
  C38      1.0000 0.94465  0.26761  0.13392  Biso   1.000  C
  C39      1.0000 0.11987  0.25441  0.21211  Biso   1.000  C
  C40      1.0000 0.11987  0.25441  0.21204  Biso   1.000  C
  C41      1.0000 0.11996  0.25441  0.21211  Biso   1.000  C
  C42      1.0000 0.11996  0.25441  0.21204  Biso   1.000  C
  C43      1.0000 0.11614  0.27918  0.20690  Biso   1.000  C
  C44      1.0000 0.20953  0.41092  0.27376  Biso   1.000  C
  C45      1.0000 0.20893  0.38072  0.29201  Biso   1.000  C
  C46      1.0000 0.20893  0.38072  0.29194  Biso   1.000  C
  O4       1.0000 0.23703  0.59115  0.24307  Biso   1.000  O
  O5       1.0000 0.24442  0.55856  0.24788  Biso   1.000  O
  N20      1.0000 0.99796  0.72916  0.21981  Biso   1.000  N
  N21      1.0000 0.99796  0.72916  0.21975  Biso   1.000  N
  N22      1.0000 0.99805  0.72916  0.21981  Biso   1.000  N
  N23      1.0000 0.99805  0.72916  0.21975  Biso   1.000  N
  H19      1.0000 0.01698  0.72366  0.34688  Biso   1.000  H
  H20      1.0000 0.13091  0.72315  0.29629  Biso   1.000  H
  H21      1.0000 0.01706  0.72366  0.34688  Biso   1.000  H
  N24      1.0000 0.00238  0.70297  0.20789  Biso   1.000  N
  H22      1.0000 0.14246  0.69107  0.27521  Biso   1.000  H
  H23      1.0000 0.03532  0.70258  0.33272  Biso   1.000  H
  C47      1.0000 0.86162  0.78154  0.11943  Biso   1.000  C
  H24      1.0000 0.85873  0.78769  0.25558  Biso   1.000  H
  C48      1.0000 0.86162  0.78154  0.11936  Biso   1.000  C
  C49      1.0000 0.86535  0.76635  0.11923  Biso   1.000  C
  H25      1.0000 0.86408  0.75755  0.25539  Biso   1.000  H
  N25      1.0000 0.77808  0.72619  0.08208  Biso   1.000  N
  O6       1.0000 0.67697  0.60551  0.12562  Biso   1.000  O
  O7       1.0000 0.67697  0.60551  0.12555  Biso   1.000  O
  N26      1.0000 0.77816  0.72619  0.08208  Biso   1.000  N
  O8       1.0000 0.67705  0.60551  0.12562  Biso   1.000  O
  O9       1.0000 0.67705  0.60551  0.12555  Biso   1.000  O
  O10      1.0000 0.68257  0.58831  0.10388  Biso   1.000  O
  N27      1.0000 0.78156  0.71448  0.07720  Biso   1.000  N
  O11      1.0000 0.84337  0.25590  0.13220  Biso   1.000  O
  O12      1.0000 0.84337  0.25590  0.13214  Biso   1.000  O
  O13      1.0000 0.84345  0.25590  0.13220  Biso   1.000  O
  O14      1.0000 0.84345  0.25590  0.13214  Biso   1.000  O
  O15      1.0000 0.84294  0.27776  0.11633  Biso   1.000  O
  N28      1.0000 0.02530  0.22538  0.08300  Biso   1.000  N
  N29      1.0000 0.02454  0.23611  0.07793  Biso   1.000  N
  C50      1.0000 0.13838  0.21839  0.11943  Biso   1.000  C
  H26      1.0000 0.14127  0.21231  0.25558  Biso   1.000  H
  N30      1.0000 0.19543  0.32562  0.21678  Biso   1.000  N
  C51      1.0000 0.13838  0.21839  0.11936  Biso   1.000  C
  C52      1.0000 0.13847  0.21839  0.11943  Biso   1.000  C
  H27      1.0000 0.14135  0.21231  0.25558  Biso   1.000  H
  C53      1.0000 0.13847  0.21839  0.11936  Biso   1.000  C
  C54      1.0000 0.13465  0.23359  0.11923  Biso   1.000  C
  N31      1.0000 0.19136  0.35181  0.20321  Biso   1.000  N
  H28      1.0000 0.13592  0.24239  0.25539  Biso   1.000  H
  H29      1.0000 0.28373  0.40535  0.29049  Biso   1.000  H
  H30      1.0000 0.21615  0.37768  0.32699  Biso   1.000  H
  H31      1.0000 0.28126  0.43885  0.26421  Biso   1.000  H
  H32      1.0000 0.20392  0.34547  0.34398  Biso   1.000  H
  C55      1.0000 0.05238  0.75031  0.14413  Biso   1.000  C
  C56      1.0000 0.05238  0.75031  0.14406  Biso   1.000  C
  C57      1.0000 0.05247  0.75031  0.14413  Biso   1.000  C
  C58      1.0000 0.05247  0.75031  0.14406  Biso   1.000  C
  C59      1.0000 0.05544  0.73239  0.13392  Biso   1.000  C
  N32      1.0000 0.97470  0.77456  0.08300  Biso   1.000  N
  H33      1.0000 0.83632  0.84059  0.12022  Biso   1.000  H
  H34      1.0000 0.83632  0.84059  0.12015  Biso   1.000  H
  N33      1.0000 0.97546  0.76389  0.07793  Biso   1.000  N
  H35      1.0000 0.84005  0.82500  0.12628  Biso   1.000  H
  C60      1.0000 0.72239  0.74009  0.00000  Biso   1.000  C
  C61      1.0000 0.99338  0.19000  0.00000  Biso   1.000  C
  C62      1.0000 0.99346  0.19000  0.00000  Biso   1.000  C
  H36      1.0000 0.16368  0.15941  0.12022  Biso   1.000  H
  N34      1.0000 0.22192  0.27381  0.08208  Biso   1.000  N
  H37      1.0000 0.16368  0.15941  0.12015  Biso   1.000  H
  H38      1.0000 0.16377  0.15941  0.12022  Biso   1.000  H
  H39      1.0000 0.16377  0.15941  0.12015  Biso   1.000  H
  H40      1.0000 0.16003  0.17500  0.12628  Biso   1.000  H
  N35      1.0000 0.21844  0.28552  0.07720  Biso   1.000  N
  C63      1.0000 0.25342  0.33629  0.14070  Biso   1.000  C
  C64      1.0000 0.25112  0.35388  0.12707  Biso   1.000  C
  O16      1.0000 0.15663  0.74410  0.13220  Biso   1.000  O
  O17      1.0000 0.15663  0.74410  0.13214  Biso   1.000  O
  O18      1.0000 0.15714  0.72218  0.11633  Biso   1.000  O
  C65      1.0000 0.00662  0.81000  0.00000  Biso   1.000  C
  H41      1.0000 0.69386  0.79816  0.00000  Biso   1.000  H
  H42      1.0000 0.65727  0.70277  0.00000  Biso   1.000  H
  H43      1.0000 0.69395  0.79816  0.00000  Biso   1.000  H
  H44      1.0000 0.65736  0.70277  0.00000  Biso   1.000  H
  N36      1.0000 0.77808  0.72619  0.91792  Biso   1.000  N
  N37      1.0000 0.77808  0.72619  0.91786  Biso   1.000  N
  N38      1.0000 0.77816  0.72619  0.91792  Biso   1.000  N
  N39      1.0000 0.77816  0.72619  0.91786  Biso   1.000  N
  N40      1.0000 0.78156  0.71448  0.92280  Biso   1.000  N
  H45      1.0000 0.91188  0.18832  0.00000  Biso   1.000  H
  H46      1.0000 0.91196  0.18832  0.00000  Biso   1.000  H
  N41      1.0000 0.02530  0.22538  0.91700  Biso   1.000  N
  N42      1.0000 0.02454  0.23611  0.92207  Biso   1.000  N
  H47      1.0000 0.01842  0.13089  0.00000  Biso   1.000  H
  C66      1.0000 0.27761  0.25991  0.00000  Biso   1.000  C
  O19      1.0000 0.32303  0.39449  0.12562  Biso   1.000  O
  O20      1.0000 0.32303  0.39449  0.12555  Biso   1.000  O
  O21      1.0000 0.31743  0.41169  0.10388  Biso   1.000  O
  H48      1.0000 0.98158  0.86904  0.00000  Biso   1.000  H
  H49      1.0000 0.98166  0.86904  0.00000  Biso   1.000  H
  N43      1.0000 0.97470  0.77456  0.91700  Biso   1.000  N
  N44      1.0000 0.97546  0.76389  0.92207  Biso   1.000  N
  H50      1.0000 0.08812  0.81168  0.00000  Biso   1.000  H
  C67      1.0000 0.86162  0.78154  0.88057  Biso   1.000  C
  C68      1.0000 0.74658  0.66365  0.85930  Biso   1.000  C
  C69      1.0000 0.74667  0.66365  0.85930  Biso   1.000  C
  C70      1.0000 0.74888  0.64606  0.87287  Biso   1.000  C
  C71      1.0000 0.86535  0.76635  0.88077  Biso   1.000  C
  C72      1.0000 0.94762  0.24969  0.85587  Biso   1.000  C
  C73      1.0000 0.94465  0.26761  0.86608  Biso   1.000  C
  C74      1.0000 0.13838  0.21839  0.88057  Biso   1.000  C
  C75      1.0000 0.13847  0.21839  0.88057  Biso   1.000  C
  C76      1.0000 0.13465  0.23359  0.88077  Biso   1.000  C
  N45      1.0000 0.22192  0.27381  0.91792  Biso   1.000  N
  N46      1.0000 0.22192  0.27381  0.91786  Biso   1.000  N
  N47      1.0000 0.21844  0.28552  0.92280  Biso   1.000  N
  H51      1.0000 0.30614  0.20177  0.00000  Biso   1.000  H
  H52      1.0000 0.34273  0.29716  0.00000  Biso   1.000  H
  C77      1.0000 0.05238  0.75031  0.85587  Biso   1.000  C
  C78      1.0000 0.05247  0.75031  0.85587  Biso   1.000  C
  C79      1.0000 0.05544  0.73239  0.86608  Biso   1.000  C
  H53      1.0000 0.83632  0.84059  0.87978  Biso   1.000  H
  C80      1.0000 0.88013  0.74559  0.78789  Biso   1.000  C
  C81      1.0000 0.88386  0.72075  0.79310  Biso   1.000  C
  H54      1.0000 0.84005  0.82500  0.87366  Biso   1.000  H
  N48      1.0000 0.80457  0.67438  0.78322  Biso   1.000  N
  O22      1.0000 0.67697  0.60551  0.87438  Biso   1.000  O
  N49      1.0000 0.80457  0.67438  0.78315  Biso   1.000  N
  N50      1.0000 0.80465  0.67438  0.78322  Biso   1.000  N
  O23      1.0000 0.67705  0.60551  0.87438  Biso   1.000  O
  N51      1.0000 0.80465  0.67438  0.78315  Biso   1.000  N
  O24      1.0000 0.68257  0.58831  0.89605  Biso   1.000  O
  N52      1.0000 0.80873  0.64819  0.79679  Biso   1.000  N
  O25      1.0000 0.84337  0.25590  0.86780  Biso   1.000  O
  O26      1.0000 0.84345  0.25590  0.86780  Biso   1.000  O
  O27      1.0000 0.84294  0.27776  0.88367  Biso   1.000  O
  N53      1.0000 0.99762  0.29697  0.79211  Biso   1.000  N
  N54      1.0000 0.00204  0.27078  0.78019  Biso   1.000  N
  H55      1.0000 0.16368  0.15941  0.87978  Biso   1.000  H
  C82      1.0000 0.11987  0.25441  0.78789  Biso   1.000  C
  H56      1.0000 0.16377  0.15941  0.87978  Biso   1.000  H
  C83      1.0000 0.11996  0.25441  0.78789  Biso   1.000  C
  H57      1.0000 0.16003  0.17500  0.87366  Biso   1.000  H
  C84      1.0000 0.11614  0.27918  0.79310  Biso   1.000  C
  C85      1.0000 0.25342  0.33629  0.85930  Biso   1.000  C
  C86      1.0000 0.25112  0.35388  0.87287  Biso   1.000  C
  N55      1.0000 0.99796  0.72916  0.78019  Biso   1.000  N
  N56      1.0000 0.99805  0.72916  0.78019  Biso   1.000  N
  O28      1.0000 0.15663  0.74410  0.86780  Biso   1.000  O
  O29      1.0000 0.15714  0.72218  0.88367  Biso   1.000  O
  N57      1.0000 0.00238  0.70297  0.79211  Biso   1.000  N
  H58      1.0000 0.85873  0.78769  0.74442  Biso   1.000  H
  H59      1.0000 0.85873  0.78769  0.74435  Biso   1.000  H
  H60      1.0000 0.86408  0.75755  0.74455  Biso   1.000  H
  C87      1.0000 0.79107  0.61928  0.70799  Biso   1.000  C
  C88      1.0000 0.79115  0.61928  0.70799  Biso   1.000  C
  C89      1.0000 0.79047  0.58908  0.72617  Biso   1.000  C
  C90      1.0000 0.94448  0.30027  0.70318  Biso   1.000  C
  C91      1.0000 0.94456  0.30027  0.70318  Biso   1.000  C
  C92      1.0000 0.93497  0.32717  0.71781  Biso   1.000  C
  H61      1.0000 0.14127  0.21231  0.74442  Biso   1.000  H
  N58      1.0000 0.19543  0.32562  0.78322  Biso   1.000  N
  H62      1.0000 0.14127  0.21231  0.74435  Biso   1.000  H
  N59      1.0000 0.19543  0.32562  0.78315  Biso   1.000  N
  H63      1.0000 0.14135  0.21231  0.74442  Biso   1.000  H
  H64      1.0000 0.14135  0.21231  0.74435  Biso   1.000  H
  N60      1.0000 0.19136  0.35181  0.79679  Biso   1.000  N
  H65      1.0000 0.13592  0.24239  0.74455  Biso   1.000  H
  O30      1.0000 0.32303  0.39449  0.87438  Biso   1.000  O
  O31      1.0000 0.31743  0.41169  0.89605  Biso   1.000  O
  C93      1.0000 0.05552  0.69967  0.70318  Biso   1.000  C
  C94      1.0000 0.06503  0.67277  0.71781  Biso   1.000  C
  H66      1.0000 0.71627  0.59458  0.70951  Biso   1.000  H
  H67      1.0000 0.79608  0.65447  0.65602  Biso   1.000  H
  H68      1.0000 0.79608  0.65447  0.65595  Biso   1.000  H
  H69      1.0000 0.71636  0.59458  0.70951  Biso   1.000  H
  H70      1.0000 0.79616  0.65447  0.65602  Biso   1.000  H
  H71      1.0000 0.79616  0.65447  0.65595  Biso   1.000  H
  H72      1.0000 0.78385  0.62226  0.67301  Biso   1.000  H
  H73      1.0000 0.71882  0.56108  0.73579  Biso   1.000  H
  N61      1.0000 0.87232  0.55048  0.69916  Biso   1.000  N
  N62      1.0000 0.87393  0.52377  0.71023  Biso   1.000  N
  N63      1.0000 0.87393  0.52377  0.71016  Biso   1.000  N
  N64      1.0000 0.93633  0.39067  0.68849  Biso   1.000  N
  H74      1.0000 0.98302  0.27627  0.65312  Biso   1.000  H
  H75      1.0000 0.86909  0.27679  0.70371  Biso   1.000  H
  H76      1.0000 0.98302  0.27627  0.65305  Biso   1.000  H
  H77      1.0000 0.85763  0.30887  0.72479  Biso   1.000  H
  H78      1.0000 0.96468  0.29742  0.66728  Biso   1.000  H
  N65      1.0000 0.93497  0.41596  0.69699  Biso   1.000  N
  C95      1.0000 0.20893  0.38072  0.70799  Biso   1.000  C
  C96      1.0000 0.20953  0.41092  0.72617  Biso   1.000  C
  N66      1.0000 0.06367  0.60926  0.68849  Biso   1.000  N
  H79      1.0000 0.01698  0.72366  0.65312  Biso   1.000  H
  H80      1.0000 0.13091  0.72315  0.70371  Biso   1.000  H
  H81      1.0000 0.01698  0.72366  0.65305  Biso   1.000  H
  N67      1.0000 0.06376  0.60926  0.68849  Biso   1.000  N
  H82      1.0000 0.01706  0.72366  0.65312  Biso   1.000  H
  H83      1.0000 0.01706  0.72366  0.65305  Biso   1.000  H
  H84      1.0000 0.14246  0.69107  0.72479  Biso   1.000  H
  H85      1.0000 0.03532  0.70258  0.66728  Biso   1.000  H
  N68      1.0000 0.06512  0.58397  0.69699  Biso   1.000  N
  C97      1.0000 0.97521  0.53560  0.65839  Biso   1.000  C
  C98      1.0000 0.97767  0.55591  0.65305  Biso   1.000  C
  C99      1.0000 0.84481  0.46809  0.71886  Biso   1.000  C
  C100     1.0000 0.84922  0.43860  0.72209  Biso   1.000  C
  C101     1.0000 0.02479  0.46440  0.65839  Biso   1.000  C
  C102     1.0000 0.02487  0.46440  0.65839  Biso   1.000  C
  C103     1.0000 0.02241  0.44409  0.65305  Biso   1.000  C
  H86      1.0000 0.28373  0.40535  0.70951  Biso   1.000  H
  H87      1.0000 0.20392  0.34547  0.65602  Biso   1.000  H
  H88      1.0000 0.20392  0.34547  0.65595  Biso   1.000  H
  N69      1.0000 0.12768  0.44946  0.69916  Biso   1.000  N
  H89      1.0000 0.21615  0.37768  0.67301  Biso   1.000  H
  H90      1.0000 0.28126  0.43885  0.73579  Biso   1.000  H
  N70      1.0000 0.12607  0.47617  0.71023  Biso   1.000  N
  N71      1.0000 0.12607  0.47617  0.71016  Biso   1.000  N
  N72      1.0000 0.12616  0.47617  0.71023  Biso   1.000  N
  N73      1.0000 0.12616  0.47617  0.71016  Biso   1.000  N
  C104     1.0000 0.15078  0.56140  0.72209  Biso   1.000  C
  C105     1.0000 0.15086  0.56140  0.72209  Biso   1.000  C
  C106     1.0000 0.15519  0.53191  0.71886  Biso   1.000  C
  H91      1.0000 0.95636  0.55765  0.60108  Biso   1.000  H
  H92      1.0000 0.95645  0.55765  0.60108  Biso   1.000  H
  H93      1.0000 0.96417  0.57188  0.59291  Biso   1.000  H
  O32      1.0000 0.76297  0.40878  0.75693  Biso   1.000  O
  O33      1.0000 0.76297  0.40878  0.75687  Biso   1.000  O
  O34      1.0000 0.76305  0.40878  0.75693  Biso   1.000  O
  O35      1.0000 0.76305  0.40878  0.75687  Biso   1.000  O
  O36      1.0000 0.75567  0.44138  0.75206  Biso   1.000  O
  H94      1.0000 0.04364  0.44228  0.60108  Biso   1.000  H
  H95      1.0000 0.03583  0.42805  0.59291  Biso   1.000  H
  O37      1.0000 0.23703  0.59115  0.75693  Biso   1.000  O
  O38      1.0000 0.23703  0.59115  0.75687  Biso   1.000  O
  O39      1.0000 0.24442  0.55856  0.75206  Biso   1.000  O
  O40      1.0000 0.76305  0.40878  0.24307  Biso   1.000  O
  C107     1.0000 0.84922  0.43860  0.27791  Biso   1.000  C
  C108     1.0000 0.84922  0.43860  0.27785  Biso   1.000  C
  C109     1.0000 0.84481  0.46809  0.28108  Biso   1.000  C
  O41      1.0000 0.76297  0.40878  0.24307  Biso   1.000  O
  N74      1.0000 0.87393  0.52377  0.28977  Biso   1.000  N
  N75      1.0000 0.93633  0.39067  0.31151  Biso   1.000  N
  N76      1.0000 0.93633  0.39067  0.31144  Biso   1.000  N
  N77      1.0000 0.93497  0.41596  0.30301  Biso   1.000  N
  O42      1.0000 0.75567  0.44138  0.24788  Biso   1.000  O
  N78      1.0000 0.87232  0.55048  0.30077  Biso   1.000  N
  C110     1.0000 0.97521  0.53560  0.34161  Biso   1.000  C
  C111     1.0000 0.97521  0.53560  0.34155  Biso   1.000  C
  C112     1.0000 0.79047  0.58908  0.27376  Biso   1.000  C
  C113     1.0000 0.97767  0.55591  0.34688  Biso   1.000  C
  C114     1.0000 0.94448  0.30027  0.29682  Biso   1.000  C
  C115     1.0000 0.94448  0.30027  0.29675  Biso   1.000  C
  C116     1.0000 0.94456  0.30027  0.29682  Biso   1.000  C
  C117     1.0000 0.94456  0.30027  0.29675  Biso   1.000  C
  C118     1.0000 0.93497  0.32717  0.28219  Biso   1.000  C
  C119     1.0000 0.02479  0.46440  0.34161  Biso   1.000  C
  C120     1.0000 0.02479  0.46440  0.34155  Biso   1.000  C
  C121     1.0000 0.02487  0.46440  0.34161  Biso   1.000  C
  C122     1.0000 0.02487  0.46440  0.34155  Biso   1.000  C
  C123     1.0000 0.02241  0.44409  0.34688  Biso   1.000  C
  C124     1.0000 0.79107  0.61928  0.29201  Biso   1.000  C
  C125     1.0000 0.79107  0.61928  0.29194  Biso   1.000  C
  C126     1.0000 0.79115  0.61928  0.29201  Biso   1.000  C
  C127     1.0000 0.79115  0.61928  0.29194  Biso   1.000  C
  H96      1.0000 0.95636  0.55765  0.39892  Biso   1.000  H
  H97      1.0000 0.95636  0.55765  0.39885  Biso   1.000  H
  H98      1.0000 0.95645  0.55765  0.39892  Biso   1.000  H
  H99      1.0000 0.95645  0.55765  0.39885  Biso   1.000  H
  H100     1.0000 0.96417  0.57188  0.40709  Biso   1.000  H
  N79      1.0000 0.06367  0.60926  0.31151  Biso   1.000  N
  N80      1.0000 0.06367  0.60926  0.31144  Biso   1.000  N
  N81      1.0000 0.06376  0.60926  0.31151  Biso   1.000  N
  N82      1.0000 0.06376  0.60926  0.31144  Biso   1.000  N
  N83      1.0000 0.06512  0.58397  0.30301  Biso   1.000  N
  N84      1.0000 0.80457  0.67438  0.21678  Biso   1.000  N
  H101     1.0000 0.71627  0.59458  0.29049  Biso   1.000  H
  N85      1.0000 0.80465  0.67438  0.21678  Biso   1.000  N
  H102     1.0000 0.71636  0.59458  0.29049  Biso   1.000  H
  N86      1.0000 0.80873  0.64819  0.20321  Biso   1.000  N
  H103     1.0000 0.78385  0.62226  0.32699  Biso   1.000  H
  H104     1.0000 0.71882  0.56108  0.26421  Biso   1.000  H
  H105     1.0000 0.98302  0.27627  0.34688  Biso   1.000  H
  H106     1.0000 0.86909  0.27679  0.29629  Biso   1.000  H
  H107     1.0000 0.85763  0.30887  0.27521  Biso   1.000  H
  H108     1.0000 0.96468  0.29742  0.33272  Biso   1.000  H
  N87      1.0000 0.99762  0.29697  0.20789  Biso   1.000  N
  N88      1.0000 0.00204  0.27078  0.21981  Biso   1.000  N
  N89      1.0000 0.00204  0.27078  0.21975  Biso   1.000  N
  N90      1.0000 0.12607  0.47617  0.28977  Biso   1.000  N
  H109     1.0000 0.04364  0.44228  0.39892  Biso   1.000  H
  H110     1.0000 0.04364  0.44228  0.39885  Biso   1.000  H
  N91      1.0000 0.12616  0.47617  0.28977  Biso   1.000  N
  N92      1.0000 0.12768  0.44946  0.30077  Biso   1.000  N
  H111     1.0000 0.03583  0.42805  0.40709  Biso   1.000  H
  H112     1.0000 0.79608  0.65447  0.34398  Biso   1.000  H
  H113     1.0000 0.79616  0.65447  0.34398  Biso   1.000  H
  C128     1.0000 0.15078  0.56140  0.27791  Biso   1.000  C
  C129     1.0000 0.05552  0.69967  0.29682  Biso   1.000  C
  C130     1.0000 0.15078  0.56140  0.27785  Biso   1.000  C
  C131     1.0000 0.05552  0.69967  0.29675  Biso   1.000  C
  C132     1.0000 0.15086  0.56140  0.27791  Biso   1.000  C
  C133     1.0000 0.15086  0.56140  0.27785  Biso   1.000  C
  C134     1.0000 0.15519  0.53191  0.28108  Biso   1.000  C
  C135     1.0000 0.06503  0.67277  0.28219  Biso   1.000  C
  C136     1.0000 0.74658  0.66365  0.14070  Biso   1.000  C
  C137     1.0000 0.88013  0.74559  0.21211  Biso   1.000  C
  C138     1.0000 0.88013  0.74559  0.21204  Biso   1.000  C
  C139     1.0000 0.74667  0.66365  0.14070  Biso   1.000  C
  C140     1.0000 0.74888  0.64606  0.12707  Biso   1.000  C
  C141     1.0000 0.88386  0.72075  0.20690  Biso   1.000  C
  C142     1.0000 0.94762  0.24969  0.14413  Biso   1.000  C
  C143     1.0000 0.94762  0.24969  0.14406  Biso   1.000  C
  C144     1.0000 0.94465  0.26761  0.13392  Biso   1.000  C
  C145     1.0000 0.11987  0.25441  0.21211  Biso   1.000  C
  C146     1.0000 0.11987  0.25441  0.21204  Biso   1.000  C
  C147     1.0000 0.11996  0.25441  0.21211  Biso   1.000  C
  C148     1.0000 0.11996  0.25441  0.21204  Biso   1.000  C
  C149     1.0000 0.11614  0.27918  0.20690  Biso   1.000  C
  C150     1.0000 0.20953  0.41092  0.27376  Biso   1.000  C
  C151     1.0000 0.20893  0.38072  0.29201  Biso   1.000  C
  C152     1.0000 0.20893  0.38072  0.29194  Biso   1.000  C
  O43      1.0000 0.23703  0.59115  0.24307  Biso   1.000  O
  O44      1.0000 0.24442  0.55856  0.24788  Biso   1.000  O
  N93      1.0000 0.99796  0.72916  0.21981  Biso   1.000  N
  N94      1.0000 0.99796  0.72916  0.21975  Biso   1.000  N
  N95      1.0000 0.99805  0.72916  0.21981  Biso   1.000  N
  N96      1.0000 0.99805  0.72916  0.21975  Biso   1.000  N
  H114     1.0000 0.01698  0.72366  0.34688  Biso   1.000  H
  H115     1.0000 0.13091  0.72315  0.29629  Biso   1.000  H
  H116     1.0000 0.01706  0.72366  0.34688  Biso   1.000  H
  N97      1.0000 0.00238  0.70297  0.20789  Biso   1.000  N
  H117     1.0000 0.14246  0.69107  0.27521  Biso   1.000  H
  H118     1.0000 0.03532  0.70258  0.33272  Biso   1.000  H
  N98      1.0000 0.77808  0.72619  0.08208  Biso   1.000  N
  N99      1.0000 0.77816  0.72619  0.08208  Biso   1.000  N
  O45      1.0000 0.67697  0.60551  0.12562  Biso   1.000  O
  O46      1.0000 0.67697  0.60551  0.12555  Biso   1.000  O
  O47      1.0000 0.67705  0.60551  0.12562  Biso   1.000  O
  O48      1.0000 0.67705  0.60551  0.12555  Biso   1.000  O
  O49      1.0000 0.68257  0.58831  0.10388  Biso   1.000  O
  N100     1.0000 0.78156  0.71448  0.07720  Biso   1.000  N
  H119     1.0000 0.85873  0.78769  0.25558  Biso   1.000  H
  C153     1.0000 0.86162  0.78154  0.11943  Biso   1.000  C
  C154     1.0000 0.86162  0.78154  0.11936  Biso   1.000  C
  C155     1.0000 0.86535  0.76635  0.11923  Biso   1.000  C
  H120     1.0000 0.86408  0.75755  0.25539  Biso   1.000  H
  O50      1.0000 0.84337  0.25590  0.13220  Biso   1.000  O
  O51      1.0000 0.84337  0.25590  0.13214  Biso   1.000  O
  O52      1.0000 0.84345  0.25590  0.13220  Biso   1.000  O
  O53      1.0000 0.84345  0.25590  0.13214  Biso   1.000  O
  O54      1.0000 0.84294  0.27776  0.11633  Biso   1.000  O
  N101     1.0000 0.02530  0.22538  0.08300  Biso   1.000  N
  N102     1.0000 0.02454  0.23611  0.07793  Biso   1.000  N
  C156     1.0000 0.13838  0.21839  0.11943  Biso   1.000  C
  H121     1.0000 0.14127  0.21231  0.25558  Biso   1.000  H
  N103     1.0000 0.19543  0.32562  0.21678  Biso   1.000  N
  C157     1.0000 0.13838  0.21839  0.11936  Biso   1.000  C
  C158     1.0000 0.13847  0.21839  0.11943  Biso   1.000  C
  H122     1.0000 0.14135  0.21231  0.25558  Biso   1.000  H
  C159     1.0000 0.13847  0.21839  0.11936  Biso   1.000  C
  C160     1.0000 0.13465  0.23359  0.11923  Biso   1.000  C
  N104     1.0000 0.19136  0.35181  0.20321  Biso   1.000  N
  H123     1.0000 0.13592  0.24239  0.25539  Biso   1.000  H
  H124     1.0000 0.28373  0.40535  0.29049  Biso   1.000  H
  H125     1.0000 0.21615  0.37768  0.32699  Biso   1.000  H
  H126     1.0000 0.28126  0.43885  0.26421  Biso   1.000  H
  H127     1.0000 0.20392  0.34547  0.34398  Biso   1.000  H
  C161     1.0000 0.05238  0.75031  0.14413  Biso   1.000  C
  C162     1.0000 0.05238  0.75031  0.14406  Biso   1.000  C
  C163     1.0000 0.05247  0.75031  0.14413  Biso   1.000  C
  C164     1.0000 0.05247  0.75031  0.14406  Biso   1.000  C
  C165     1.0000 0.05544  0.73239  0.13392  Biso   1.000  C
  C166     1.0000 0.72239  0.74009  0.00000  Biso   1.000  C
  N105     1.0000 0.97470  0.77456  0.08300  Biso   1.000  N
  H128     1.0000 0.83632  0.84059  0.12022  Biso   1.000  H
  H129     1.0000 0.83632  0.84059  0.12015  Biso   1.000  H
  N106     1.0000 0.97546  0.76389  0.07793  Biso   1.000  N
  H130     1.0000 0.84005  0.82500  0.12628  Biso   1.000  H
  C167     1.0000 0.99338  0.19000  0.00000  Biso   1.000  C
  C168     1.0000 0.99346  0.19000  0.00000  Biso   1.000  C
  H131     1.0000 0.16368  0.15941  0.12022  Biso   1.000  H
  N107     1.0000 0.22192  0.27381  0.08208  Biso   1.000  N
  H132     1.0000 0.16368  0.15941  0.12015  Biso   1.000  H
  H133     1.0000 0.16377  0.15941  0.12022  Biso   1.000  H
  H134     1.0000 0.16377  0.15941  0.12015  Biso   1.000  H
  H135     1.0000 0.16003  0.17500  0.12628  Biso   1.000  H
  N108     1.0000 0.21844  0.28552  0.07720  Biso   1.000  N
  C169     1.0000 0.25342  0.33629  0.14070  Biso   1.000  C
  C170     1.0000 0.25112  0.35388  0.12707  Biso   1.000  C
  O55      1.0000 0.15663  0.74410  0.13220  Biso   1.000  O
  O56      1.0000 0.15663  0.74410  0.13214  Biso   1.000  O
  O57      1.0000 0.15714  0.72218  0.11633  Biso   1.000  O
  H136     1.0000 0.69386  0.79816  0.00000  Biso   1.000  H
  H137     1.0000 0.65727  0.70277  0.00000  Biso   1.000  H
  H138     1.0000 0.69395  0.79816  0.00000  Biso   1.000  H
  H139     1.0000 0.65736  0.70277  0.00000  Biso   1.000  H
  N109     1.0000 0.77808  0.72619  0.91792  Biso   1.000  N
  N110     1.0000 0.77808  0.72619  0.91786  Biso   1.000  N
  N111     1.0000 0.77816  0.72619  0.91792  Biso   1.000  N
  N112     1.0000 0.77816  0.72619  0.91786  Biso   1.000  N
  N113     1.0000 0.78156  0.71448  0.92280  Biso   1.000  N
  C171     1.0000 0.00662  0.81000  0.00000  Biso   1.000  C
  H140     1.0000 0.91188  0.18832  0.00000  Biso   1.000  H
  H141     1.0000 0.91196  0.18832  0.00000  Biso   1.000  H
  N114     1.0000 0.02530  0.22538  0.91700  Biso   1.000  N
  N115     1.0000 0.02454  0.23611  0.92207  Biso   1.000  N
  H142     1.0000 0.01842  0.13089  0.00000  Biso   1.000  H
  C172     1.0000 0.27761  0.25991  0.00000  Biso   1.000  C
  O58      1.0000 0.32303  0.39449  0.12562  Biso   1.000  O
  O59      1.0000 0.32303  0.39449  0.12555  Biso   1.000  O
  O60      1.0000 0.31743  0.41169  0.10388  Biso   1.000  O
  C173     1.0000 0.86162  0.78154  0.88057  Biso   1.000  C
  C174     1.0000 0.74658  0.66365  0.85930  Biso   1.000  C
  C175     1.0000 0.74667  0.66365  0.85930  Biso   1.000  C
  C176     1.0000 0.74888  0.64606  0.87287  Biso   1.000  C
  C177     1.0000 0.86535  0.76635  0.88077  Biso   1.000  C
  H143     1.0000 0.98158  0.86904  0.00000  Biso   1.000  H
  H144     1.0000 0.98166  0.86904  0.00000  Biso   1.000  H
  N116     1.0000 0.97470  0.77456  0.91700  Biso   1.000  N
  N117     1.0000 0.97546  0.76389  0.92207  Biso   1.000  N
  H145     1.0000 0.08812  0.81168  0.00000  Biso   1.000  H
  C178     1.0000 0.94762  0.24969  0.85587  Biso   1.000  C
  C179     1.0000 0.94465  0.26761  0.86608  Biso   1.000  C
  C180     1.0000 0.13838  0.21839  0.88057  Biso   1.000  C
  C181     1.0000 0.13847  0.21839  0.88057  Biso   1.000  C
  C182     1.0000 0.13465  0.23359  0.88077  Biso   1.000  C
  N118     1.0000 0.22192  0.27381  0.91792  Biso   1.000  N
  N119     1.0000 0.22192  0.27381  0.91786  Biso   1.000  N
  N120     1.0000 0.21844  0.28552  0.92280  Biso   1.000  N
  H146     1.0000 0.30614  0.20177  0.00000  Biso   1.000  H
  H147     1.0000 0.34273  0.29716  0.00000  Biso   1.000  H
  H148     1.0000 0.83632  0.84059  0.87978  Biso   1.000  H
  C183     1.0000 0.88013  0.74559  0.78789  Biso   1.000  C
  C184     1.0000 0.88386  0.72075  0.79310  Biso   1.000  C
  H149     1.0000 0.84005  0.82500  0.87366  Biso   1.000  H
  N121     1.0000 0.80457  0.67438  0.78322  Biso   1.000  N
  O61      1.0000 0.67697  0.60551  0.87438  Biso   1.000  O
  N122     1.0000 0.80457  0.67438  0.78315  Biso   1.000  N
  N123     1.0000 0.80465  0.67438  0.78322  Biso   1.000  N
  O62      1.0000 0.67705  0.60551  0.87438  Biso   1.000  O
  N124     1.0000 0.80465  0.67438  0.78315  Biso   1.000  N
  O63      1.0000 0.68257  0.58831  0.89605  Biso   1.000  O
  N125     1.0000 0.80873  0.64819  0.79679  Biso   1.000  N
  C185     1.0000 0.05238  0.75031  0.85587  Biso   1.000  C
  C186     1.0000 0.05247  0.75031  0.85587  Biso   1.000  C
  C187     1.0000 0.05544  0.73239  0.86608  Biso   1.000  C
  O64      1.0000 0.84337  0.25590  0.86780  Biso   1.000  O
  O65      1.0000 0.84345  0.25590  0.86780  Biso   1.000  O
  O66      1.0000 0.84294  0.27776  0.88367  Biso   1.000  O
  N126     1.0000 0.99762  0.29697  0.79211  Biso   1.000  N
  N127     1.0000 0.00204  0.27078  0.78019  Biso   1.000  N
  H150     1.0000 0.16368  0.15941  0.87978  Biso   1.000  H
  C188     1.0000 0.11987  0.25441  0.78789  Biso   1.000  C
  H151     1.0000 0.16377  0.15941  0.87978  Biso   1.000  H
  C189     1.0000 0.11996  0.25441  0.78789  Biso   1.000  C
  H152     1.0000 0.16003  0.17500  0.87366  Biso   1.000  H
  C190     1.0000 0.11614  0.27918  0.79310  Biso   1.000  C
  C191     1.0000 0.25342  0.33629  0.85930  Biso   1.000  C
  C192     1.0000 0.25112  0.35388  0.87287  Biso   1.000  C
  H153     1.0000 0.85873  0.78769  0.74442  Biso   1.000  H
  N128     1.0000 0.99796  0.72916  0.78019  Biso   1.000  N
  H154     1.0000 0.85873  0.78769  0.74435  Biso   1.000  H
  N129     1.0000 0.99805  0.72916  0.78019  Biso   1.000  N
  H155     1.0000 0.86408  0.75755  0.74455  Biso   1.000  H
  N130     1.0000 0.00238  0.70297  0.79211  Biso   1.000  N
  C193     1.0000 0.79107  0.61928  0.70799  Biso   1.000  C
  C194     1.0000 0.79115  0.61928  0.70799  Biso   1.000  C
  C195     1.0000 0.79047  0.58908  0.72617  Biso   1.000  C
  O67      1.0000 0.15663  0.74410  0.86780  Biso   1.000  O
  O68      1.0000 0.15714  0.72218  0.88367  Biso   1.000  O
  C196     1.0000 0.94448  0.30027  0.70318  Biso   1.000  C
  C197     1.0000 0.94456  0.30027  0.70318  Biso   1.000  C
  C198     1.0000 0.93497  0.32717  0.71781  Biso   1.000  C
  H156     1.0000 0.14127  0.21231  0.74442  Biso   1.000  H
  N131     1.0000 0.19543  0.32562  0.78322  Biso   1.000  N
  H157     1.0000 0.14127  0.21231  0.74435  Biso   1.000  H
  N132     1.0000 0.19543  0.32562  0.78315  Biso   1.000  N
  H158     1.0000 0.14135  0.21231  0.74442  Biso   1.000  H
  H159     1.0000 0.14135  0.21231  0.74435  Biso   1.000  H
  N133     1.0000 0.19136  0.35181  0.79679  Biso   1.000  N
  H160     1.0000 0.13592  0.24239  0.74455  Biso   1.000  H
  O69      1.0000 0.32303  0.39449  0.87438  Biso   1.000  O
  O70      1.0000 0.31743  0.41169  0.89605  Biso   1.000  O
  C199     1.0000 0.05552  0.69967  0.70318  Biso   1.000  C
  C200     1.0000 0.06503  0.67277  0.71781  Biso   1.000  C
  H161     1.0000 0.71627  0.59458  0.70951  Biso   1.000  H
  H162     1.0000 0.79608  0.65447  0.65602  Biso   1.000  H
  H163     1.0000 0.79608  0.65447  0.65595  Biso   1.000  H
  H164     1.0000 0.71636  0.59458  0.70951  Biso   1.000  H
  H165     1.0000 0.79616  0.65447  0.65602  Biso   1.000  H
  H166     1.0000 0.79616  0.65447  0.65595  Biso   1.000  H
  H167     1.0000 0.78385  0.62226  0.67301  Biso   1.000  H
  H168     1.0000 0.71882  0.56108  0.73579  Biso   1.000  H
  N134     1.0000 0.87232  0.55048  0.69916  Biso   1.000  N
  N135     1.0000 0.87393  0.52377  0.71023  Biso   1.000  N
  N136     1.0000 0.87393  0.52377  0.71016  Biso   1.000  N
  N137     1.0000 0.93633  0.39067  0.68849  Biso   1.000  N
  H169     1.0000 0.98302  0.27627  0.65312  Biso   1.000  H
  H170     1.0000 0.86909  0.27679  0.70371  Biso   1.000  H
  H171     1.0000 0.98302  0.27627  0.65305  Biso   1.000  H
  H172     1.0000 0.85763  0.30887  0.72479  Biso   1.000  H
  H173     1.0000 0.96468  0.29742  0.66728  Biso   1.000  H
  N138     1.0000 0.93497  0.41596  0.69699  Biso   1.000  N
  C201     1.0000 0.20893  0.38072  0.70799  Biso   1.000  C
  C202     1.0000 0.20953  0.41092  0.72617  Biso   1.000  C
  N139     1.0000 0.06367  0.60926  0.68849  Biso   1.000  N
  H174     1.0000 0.01698  0.72366  0.65312  Biso   1.000  H
  H175     1.0000 0.13091  0.72315  0.70371  Biso   1.000  H
  H176     1.0000 0.01698  0.72366  0.65305  Biso   1.000  H
  N140     1.0000 0.06376  0.60926  0.68849  Biso   1.000  N
  H177     1.0000 0.01706  0.72366  0.65312  Biso   1.000  H
  H178     1.0000 0.01706  0.72366  0.65305  Biso   1.000  H
  H179     1.0000 0.14246  0.69107  0.72479  Biso   1.000  H
  H180     1.0000 0.03532  0.70258  0.66728  Biso   1.000  H
  N141     1.0000 0.06512  0.58397  0.69699  Biso   1.000  N
  C203     1.0000 0.97521  0.53560  0.65839  Biso   1.000  C
  C204     1.0000 0.97767  0.55591  0.65305  Biso   1.000  C
  C205     1.0000 0.84481  0.46809  0.71886  Biso   1.000  C
  C206     1.0000 0.84922  0.43860  0.72209  Biso   1.000  C
  C207     1.0000 0.02479  0.46440  0.65839  Biso   1.000  C
  C208     1.0000 0.02487  0.46440  0.65839  Biso   1.000  C
  C209     1.0000 0.02241  0.44409  0.65305  Biso   1.000  C
  H181     1.0000 0.28373  0.40535  0.70951  Biso   1.000  H
  H182     1.0000 0.20392  0.34547  0.65602  Biso   1.000  H
  H183     1.0000 0.20392  0.34547  0.65595  Biso   1.000  H
  N142     1.0000 0.12768  0.44946  0.69916  Biso   1.000  N
  H184     1.0000 0.21615  0.37768  0.67301  Biso   1.000  H
  H185     1.0000 0.28126  0.43885  0.73579  Biso   1.000  H
  N143     1.0000 0.12607  0.47617  0.71023  Biso   1.000  N
  N144     1.0000 0.12607  0.47617  0.71016  Biso   1.000  N
  N145     1.0000 0.12616  0.47617  0.71023  Biso   1.000  N
  N146     1.0000 0.12616  0.47617  0.71016  Biso   1.000  N
  C210     1.0000 0.15078  0.56140  0.72209  Biso   1.000  C
  C211     1.0000 0.15086  0.56140  0.72209  Biso   1.000  C
  C212     1.0000 0.15519  0.53191  0.71886  Biso   1.000  C
  H186     1.0000 0.95636  0.55765  0.60108  Biso   1.000  H
  H187     1.0000 0.95645  0.55765  0.60108  Biso   1.000  H
  H188     1.0000 0.96417  0.57188  0.59291  Biso   1.000  H
  O71      1.0000 0.76297  0.40878  0.75693  Biso   1.000  O
  O72      1.0000 0.76297  0.40878  0.75687  Biso   1.000  O
  O73      1.0000 0.76305  0.40878  0.75693  Biso   1.000  O
  O74      1.0000 0.76305  0.40878  0.75687  Biso   1.000  O
  O75      1.0000 0.75567  0.44138  0.75206  Biso   1.000  O
  H189     1.0000 0.04364  0.44228  0.60108  Biso   1.000  H
  H190     1.0000 0.03583  0.42805  0.59291  Biso   1.000  H
  O76      1.0000 0.23703  0.59115  0.75693  Biso   1.000  O
  O77      1.0000 0.23703  0.59115  0.75687  Biso   1.000  O
  O78      1.0000 0.24442  0.55856  0.75206  Biso   1.000  O
  O79      1.0000 0.76305  0.40878  0.24307  Biso   1.000  O
  C213     1.0000 0.84922  0.43860  0.27791  Biso   1.000  C
  C214     1.0000 0.84922  0.43860  0.27785  Biso   1.000  C
  C215     1.0000 0.84481  0.46809  0.28108  Biso   1.000  C
  N147     1.0000 0.87393  0.52377  0.28977  Biso   1.000  N
  N148     1.0000 0.93633  0.39067  0.31151  Biso   1.000  N
  O80      1.0000 0.76297  0.40878  0.24307  Biso   1.000  O
  N149     1.0000 0.93633  0.39067  0.31144  Biso   1.000  N
  N150     1.0000 0.93497  0.41596  0.30301  Biso   1.000  N
  O81      1.0000 0.75567  0.44138  0.24788  Biso   1.000  O
  N151     1.0000 0.87232  0.55048  0.30077  Biso   1.000  N
  C216     1.0000 0.97521  0.53560  0.34161  Biso   1.000  C
  C217     1.0000 0.97521  0.53560  0.34155  Biso   1.000  C
  C218     1.0000 0.79047  0.58908  0.27376  Biso   1.000  C
  C219     1.0000 0.97767  0.55591  0.34688  Biso   1.000  C
  C220     1.0000 0.02479  0.46440  0.34161  Biso   1.000  C
  C221     1.0000 0.02479  0.46440  0.34155  Biso   1.000  C
  C222     1.0000 0.02487  0.46440  0.34161  Biso   1.000  C
  C223     1.0000 0.02487  0.46440  0.34155  Biso   1.000  C
  C224     1.0000 0.02241  0.44409  0.34688  Biso   1.000  C
  C225     1.0000 0.94448  0.30027  0.29682  Biso   1.000  C
  C226     1.0000 0.94448  0.30027  0.29675  Biso   1.000  C
  C227     1.0000 0.94456  0.30027  0.29682  Biso   1.000  C
  C228     1.0000 0.94456  0.30027  0.29675  Biso   1.000  C
  C229     1.0000 0.93497  0.32717  0.28219  Biso   1.000  C
  C230     1.0000 0.79107  0.61928  0.29201  Biso   1.000  C
  C231     1.0000 0.79107  0.61928  0.29194  Biso   1.000  C
  C232     1.0000 0.79115  0.61928  0.29201  Biso   1.000  C
  C233     1.0000 0.79115  0.61928  0.29194  Biso   1.000  C
  H191     1.0000 0.95636  0.55765  0.39892  Biso   1.000  H
  H192     1.0000 0.95636  0.55765  0.39885  Biso   1.000  H
  H193     1.0000 0.95645  0.55765  0.39892  Biso   1.000  H
  H194     1.0000 0.95645  0.55765  0.39885  Biso   1.000  H
  H195     1.0000 0.96417  0.57188  0.40709  Biso   1.000  H
  N152     1.0000 0.06367  0.60926  0.31151  Biso   1.000  N
  N153     1.0000 0.06367  0.60926  0.31144  Biso   1.000  N
  N154     1.0000 0.06376  0.60926  0.31151  Biso   1.000  N
  N155     1.0000 0.06376  0.60926  0.31144  Biso   1.000  N
  N156     1.0000 0.06512  0.58397  0.30301  Biso   1.000  N
  N157     1.0000 0.80457  0.67438  0.21678  Biso   1.000  N
  H196     1.0000 0.71627  0.59458  0.29049  Biso   1.000  H
  N158     1.0000 0.80465  0.67438  0.21678  Biso   1.000  N
  H197     1.0000 0.71636  0.59458  0.29049  Biso   1.000  H
  N159     1.0000 0.80873  0.64819  0.20321  Biso   1.000  N
  H198     1.0000 0.78385  0.62226  0.32699  Biso   1.000  H
  H199     1.0000 0.71882  0.56108  0.26421  Biso   1.000  H
  N160     1.0000 0.12607  0.47617  0.28977  Biso   1.000  N
  H200     1.0000 0.04364  0.44228  0.39892  Biso   1.000  H
  H201     1.0000 0.04364  0.44228  0.39885  Biso   1.000  H
  N161     1.0000 0.12616  0.47617  0.28977  Biso   1.000  N
  N162     1.0000 0.12768  0.44946  0.30077  Biso   1.000  N
  H202     1.0000 0.03583  0.42805  0.40709  Biso   1.000  H
  H203     1.0000 0.98302  0.27627  0.34688  Biso   1.000  H
  H204     1.0000 0.86909  0.27679  0.29629  Biso   1.000  H
  H205     1.0000 0.85763  0.30887  0.27521  Biso   1.000  H
  H206     1.0000 0.96468  0.29742  0.33272  Biso   1.000  H
  N163     1.0000 0.99762  0.29697  0.20789  Biso   1.000  N
  N164     1.0000 0.00204  0.27078  0.21981  Biso   1.000  N
  N165     1.0000 0.00204  0.27078  0.21975  Biso   1.000  N
  H207     1.0000 0.79608  0.65447  0.34398  Biso   1.000  H
  H208     1.0000 0.79616  0.65447  0.34398  Biso   1.000  H
  C234     1.0000 0.15078  0.56140  0.27791  Biso   1.000  C
  C235     1.0000 0.05552  0.69967  0.29682  Biso   1.000  C
  C236     1.0000 0.15078  0.56140  0.27785  Biso   1.000  C
  C237     1.0000 0.05552  0.69967  0.29675  Biso   1.000  C
  C238     1.0000 0.15086  0.56140  0.27791  Biso   1.000  C
  C239     1.0000 0.15086  0.56140  0.27785  Biso   1.000  C
  C240     1.0000 0.15519  0.53191  0.28108  Biso   1.000  C
  C241     1.0000 0.06503  0.67277  0.28219  Biso   1.000  C
  C242     1.0000 0.88013  0.74559  0.21211  Biso   1.000  C
  C243     1.0000 0.74658  0.66365  0.14070  Biso   1.000  C
  C244     1.0000 0.88013  0.74559  0.21204  Biso   1.000  C
  C245     1.0000 0.74667  0.66365  0.14070  Biso   1.000  C
  C246     1.0000 0.74888  0.64606  0.12707  Biso   1.000  C
  C247     1.0000 0.88386  0.72075  0.20690  Biso   1.000  C
  C248     1.0000 0.20953  0.41092  0.27376  Biso   1.000  C
  C249     1.0000 0.20893  0.38072  0.29201  Biso   1.000  C
  C250     1.0000 0.20893  0.38072  0.29194  Biso   1.000  C
  C251     1.0000 0.94762  0.24969  0.14413  Biso   1.000  C
  C252     1.0000 0.94762  0.24969  0.14406  Biso   1.000  C
  C253     1.0000 0.94465  0.26761  0.13392  Biso   1.000  C
  C254     1.0000 0.11987  0.25441  0.21211  Biso   1.000  C
  C255     1.0000 0.11987  0.25441  0.21204  Biso   1.000  C
  C256     1.0000 0.11996  0.25441  0.21211  Biso   1.000  C
  C257     1.0000 0.11996  0.25441  0.21204  Biso   1.000  C
  C258     1.0000 0.11614  0.27918  0.20690  Biso   1.000  C
  O82      1.0000 0.23703  0.59115  0.24307  Biso   1.000  O
  O83      1.0000 0.24442  0.55856  0.24788  Biso   1.000  O
  N166     1.0000 0.99796  0.72916  0.21981  Biso   1.000  N
  N167     1.0000 0.99796  0.72916  0.21975  Biso   1.000  N
  N168     1.0000 0.99805  0.72916  0.21981  Biso   1.000  N
  N169     1.0000 0.99805  0.72916  0.21975  Biso   1.000  N
  H209     1.0000 0.01698  0.72366  0.34688  Biso   1.000  H
  H210     1.0000 0.13091  0.72315  0.29629  Biso   1.000  H
  H211     1.0000 0.01706  0.72366  0.34688  Biso   1.000  H
  N170     1.0000 0.00238  0.70297  0.20789  Biso   1.000  N
  H212     1.0000 0.14246  0.69107  0.27521  Biso   1.000  H
  H213     1.0000 0.03532  0.70258  0.33272  Biso   1.000  H
  H214     1.0000 0.85873  0.78769  0.25558  Biso   1.000  H
  C259     1.0000 0.86162  0.78154  0.11943  Biso   1.000  C
  C260     1.0000 0.86162  0.78154  0.11936  Biso   1.000  C
  C261     1.0000 0.86535  0.76635  0.11923  Biso   1.000  C
  H215     1.0000 0.86408  0.75755  0.25539  Biso   1.000  H
  N171     1.0000 0.77808  0.72619  0.08208  Biso   1.000  N
  O84      1.0000 0.67697  0.60551  0.12562  Biso   1.000  O
  O85      1.0000 0.67697  0.60551  0.12555  Biso   1.000  O
  N172     1.0000 0.77816  0.72619  0.08208  Biso   1.000  N
  O86      1.0000 0.67705  0.60551  0.12562  Biso   1.000  O
  O87      1.0000 0.67705  0.60551  0.12555  Biso   1.000  O
  O88      1.0000 0.68257  0.58831  0.10388  Biso   1.000  O
  N173     1.0000 0.78156  0.71448  0.07720  Biso   1.000  N
  N174     1.0000 0.19543  0.32562  0.21678  Biso   1.000  N
  H216     1.0000 0.28373  0.40535  0.29049  Biso   1.000  H
  N175     1.0000 0.19136  0.35181  0.20321  Biso   1.000  N
  H217     1.0000 0.21615  0.37768  0.32699  Biso   1.000  H
  H218     1.0000 0.28126  0.43885  0.26421  Biso   1.000  H
  H219     1.0000 0.20392  0.34547  0.34398  Biso   1.000  H
  O89      1.0000 0.84337  0.25590  0.13220  Biso   1.000  O
  O90      1.0000 0.84337  0.25590  0.13214  Biso   1.000  O
  O91      1.0000 0.84345  0.25590  0.13220  Biso   1.000  O
  O92      1.0000 0.84345  0.25590  0.13214  Biso   1.000  O
  O93      1.0000 0.84294  0.27776  0.11633  Biso   1.000  O
  N176     1.0000 0.02530  0.22538  0.08300  Biso   1.000  N
  N177     1.0000 0.02454  0.23611  0.07793  Biso   1.000  N
  C262     1.0000 0.13838  0.21839  0.11943  Biso   1.000  C
  H220     1.0000 0.14127  0.21231  0.25558  Biso   1.000  H
  C263     1.0000 0.13838  0.21839  0.11936  Biso   1.000  C
  C264     1.0000 0.13847  0.21839  0.11943  Biso   1.000  C
  H221     1.0000 0.14135  0.21231  0.25558  Biso   1.000  H
  C265     1.0000 0.13847  0.21839  0.11936  Biso   1.000  C
  C266     1.0000 0.13465  0.23359  0.11923  Biso   1.000  C
  H222     1.0000 0.13592  0.24239  0.25539  Biso   1.000  H
  C267     1.0000 0.05238  0.75031  0.14413  Biso   1.000  C
  C268     1.0000 0.05238  0.75031  0.14406  Biso   1.000  C
  C269     1.0000 0.05247  0.75031  0.14413  Biso   1.000  C
  C270     1.0000 0.05247  0.75031  0.14406  Biso   1.000  C
  C271     1.0000 0.05544  0.73239  0.13392  Biso   1.000  C
  N178     1.0000 0.97470  0.77456  0.08300  Biso   1.000  N
  H223     1.0000 0.83632  0.84059  0.12022  Biso   1.000  H
  H224     1.0000 0.83632  0.84059  0.12015  Biso   1.000  H
  N179     1.0000 0.97546  0.76389  0.07793  Biso   1.000  N
  H225     1.0000 0.84005  0.82500  0.12628  Biso   1.000  H
  C272     1.0000 0.72239  0.74009  0.00000  Biso   1.000  C
  C273     1.0000 0.25342  0.33629  0.14070  Biso   1.000  C
  C274     1.0000 0.25112  0.35388  0.12707  Biso   1.000  C
  C275     1.0000 0.99338  0.19000  0.00000  Biso   1.000  C
  C276     1.0000 0.99346  0.19000  0.00000  Biso   1.000  C
  H226     1.0000 0.16368  0.15941  0.12022  Biso   1.000  H
  N180     1.0000 0.22192  0.27381  0.08208  Biso   1.000  N
  H227     1.0000 0.16368  0.15941  0.12015  Biso   1.000  H
  H228     1.0000 0.16377  0.15941  0.12022  Biso   1.000  H
  H229     1.0000 0.16377  0.15941  0.12015  Biso   1.000  H
  H230     1.0000 0.16003  0.17500  0.12628  Biso   1.000  H
  N181     1.0000 0.21844  0.28552  0.07720  Biso   1.000  N
  O94      1.0000 0.15663  0.74410  0.13220  Biso   1.000  O
  O95      1.0000 0.15663  0.74410  0.13214  Biso   1.000  O
  O96      1.0000 0.15714  0.72218  0.11633  Biso   1.000  O
  C277     1.0000 0.00662  0.81000  0.00000  Biso   1.000  C
  N182     1.0000 0.77808  0.72619  0.91792  Biso   1.000  N
  N183     1.0000 0.77808  0.72619  0.91786  Biso   1.000  N
  N184     1.0000 0.77816  0.72619  0.91792  Biso   1.000  N
  N185     1.0000 0.77816  0.72619  0.91786  Biso   1.000  N
  N186     1.0000 0.78156  0.71448  0.92280  Biso   1.000  N
  H231     1.0000 0.69386  0.79816  0.00000  Biso   1.000  H
  H232     1.0000 0.65727  0.70277  0.00000  Biso   1.000  H
  H233     1.0000 0.69395  0.79816  0.00000  Biso   1.000  H
  H234     1.0000 0.65736  0.70277  0.00000  Biso   1.000  H
  O97      1.0000 0.32303  0.39449  0.12562  Biso   1.000  O
  O98      1.0000 0.32303  0.39449  0.12555  Biso   1.000  O
  O99      1.0000 0.31743  0.41169  0.10388  Biso   1.000  O
  H235     1.0000 0.91188  0.18832  0.00000  Biso   1.000  H
  H236     1.0000 0.91196  0.18832  0.00000  Biso   1.000  H
  N187     1.0000 0.02530  0.22538  0.91700  Biso   1.000  N
  N188     1.0000 0.02454  0.23611  0.92207  Biso   1.000  N
  H237     1.0000 0.01842  0.13089  0.00000  Biso   1.000  H
  C278     1.0000 0.27761  0.25991  0.00000  Biso   1.000  C
  N189     1.0000 0.97470  0.77456  0.91700  Biso   1.000  N
  N190     1.0000 0.97546  0.76389  0.92207  Biso   1.000  N
  H238     1.0000 0.98158  0.86904  0.00000  Biso   1.000  H
  H239     1.0000 0.98166  0.86904  0.00000  Biso   1.000  H
  H240     1.0000 0.08812  0.81168  0.00000  Biso   1.000  H
  C279     1.0000 0.86162  0.78154  0.88057  Biso   1.000  C
  C280     1.0000 0.74658  0.66365  0.85930  Biso   1.000  C
  C281     1.0000 0.74667  0.66365  0.85930  Biso   1.000  C
  C282     1.0000 0.74888  0.64606  0.87287  Biso   1.000  C
  C283     1.0000 0.86535  0.76635  0.88077  Biso   1.000  C
  C284     1.0000 0.94762  0.24969  0.85587  Biso   1.000  C
  C285     1.0000 0.94465  0.26761  0.86608  Biso   1.000  C
  C286     1.0000 0.13838  0.21839  0.88057  Biso   1.000  C
  C287     1.0000 0.13847  0.21839  0.88057  Biso   1.000  C
  C288     1.0000 0.13465  0.23359  0.88077  Biso   1.000  C
  N191     1.0000 0.22192  0.27381  0.91792  Biso   1.000  N
  N192     1.0000 0.22192  0.27381  0.91786  Biso   1.000  N
  N193     1.0000 0.21844  0.28552  0.92280  Biso   1.000  N
  H241     1.0000 0.30614  0.20177  0.00000  Biso   1.000  H
  H242     1.0000 0.34273  0.29716  0.00000  Biso   1.000  H
  C289     1.0000 0.05238  0.75031  0.85587  Biso   1.000  C
  C290     1.0000 0.05247  0.75031  0.85587  Biso   1.000  C
  C291     1.0000 0.05544  0.73239  0.86608  Biso   1.000  C
  H243     1.0000 0.83632  0.84059  0.87978  Biso   1.000  H
  C292     1.0000 0.88013  0.74559  0.78789  Biso   1.000  C
  C293     1.0000 0.88386  0.72075  0.79310  Biso   1.000  C
  H244     1.0000 0.84005  0.82500  0.87366  Biso   1.000  H
  N194     1.0000 0.80457  0.67438  0.78322  Biso   1.000  N
  O100     1.0000 0.67697  0.60551  0.87438  Biso   1.000  O
  N195     1.0000 0.80457  0.67438  0.78315  Biso   1.000  N
  N196     1.0000 0.80465  0.67438  0.78322  Biso   1.000  N
  O101     1.0000 0.67705  0.60551  0.87438  Biso   1.000  O
  N197     1.0000 0.80465  0.67438  0.78315  Biso   1.000  N
  O102     1.0000 0.68257  0.58831  0.89605  Biso   1.000  O
  N198     1.0000 0.80873  0.64819  0.79679  Biso   1.000  N
  O103     1.0000 0.84337  0.25590  0.86780  Biso   1.000  O
  O104     1.0000 0.84345  0.25590  0.86780  Biso   1.000  O
  O105     1.0000 0.84294  0.27776  0.88367  Biso   1.000  O
  N199     1.0000 0.99762  0.29697  0.79211  Biso   1.000  N
  N200     1.0000 0.00204  0.27078  0.78019  Biso   1.000  N
  H245     1.0000 0.16368  0.15941  0.87978  Biso   1.000  H
  C294     1.0000 0.11987  0.25441  0.78789  Biso   1.000  C
  H246     1.0000 0.16377  0.15941  0.87978  Biso   1.000  H
  C295     1.0000 0.11996  0.25441  0.78789  Biso   1.000  C
  H247     1.0000 0.16003  0.17500  0.87366  Biso   1.000  H
  C296     1.0000 0.11614  0.27918  0.79310  Biso   1.000  C
  C297     1.0000 0.25342  0.33629  0.85930  Biso   1.000  C
  C298     1.0000 0.25112  0.35388  0.87287  Biso   1.000  C
  N201     1.0000 0.99796  0.72916  0.78019  Biso   1.000  N
  N202     1.0000 0.99805  0.72916  0.78019  Biso   1.000  N
  O106     1.0000 0.15663  0.74410  0.86780  Biso   1.000  O
  O107     1.0000 0.15714  0.72218  0.88367  Biso   1.000  O
  N203     1.0000 0.00238  0.70297  0.79211  Biso   1.000  N
  H248     1.0000 0.85873  0.78769  0.74442  Biso   1.000  H
  H249     1.0000 0.85873  0.78769  0.74435  Biso   1.000  H
  H250     1.0000 0.86408  0.75755  0.74455  Biso   1.000  H
  C299     1.0000 0.79107  0.61928  0.70799  Biso   1.000  C
  C300     1.0000 0.79115  0.61928  0.70799  Biso   1.000  C
  C301     1.0000 0.79047  0.58908  0.72617  Biso   1.000  C
  C302     1.0000 0.94448  0.30027  0.70318  Biso   1.000  C
  C303     1.0000 0.94456  0.30027  0.70318  Biso   1.000  C
  C304     1.0000 0.93497  0.32717  0.71781  Biso   1.000  C
  H251     1.0000 0.14127  0.21231  0.74442  Biso   1.000  H
  N204     1.0000 0.19543  0.32562  0.78322  Biso   1.000  N
  H252     1.0000 0.14127  0.21231  0.74435  Biso   1.000  H
  N205     1.0000 0.19543  0.32562  0.78315  Biso   1.000  N
  H253     1.0000 0.14135  0.21231  0.74442  Biso   1.000  H
  H254     1.0000 0.14135  0.21231  0.74435  Biso   1.000  H
  N206     1.0000 0.19136  0.35181  0.79679  Biso   1.000  N
  H255     1.0000 0.13592  0.24239  0.74455  Biso   1.000  H
  O108     1.0000 0.32303  0.39449  0.87438  Biso   1.000  O
  O109     1.0000 0.31743  0.41169  0.89605  Biso   1.000  O
  C305     1.0000 0.05552  0.69967  0.70318  Biso   1.000  C
  C306     1.0000 0.06503  0.67277  0.71781  Biso   1.000  C
  H256     1.0000 0.71627  0.59458  0.70951  Biso   1.000  H
  H257     1.0000 0.79608  0.65447  0.65602  Biso   1.000  H
  H258     1.0000 0.79608  0.65447  0.65595  Biso   1.000  H
  H259     1.0000 0.71636  0.59458  0.70951  Biso   1.000  H
  H260     1.0000 0.79616  0.65447  0.65602  Biso   1.000  H
  H261     1.0000 0.79616  0.65447  0.65595  Biso   1.000  H
  H262     1.0000 0.78385  0.62226  0.67301  Biso   1.000  H
  H263     1.0000 0.71882  0.56108  0.73579  Biso   1.000  H
  N207     1.0000 0.87232  0.55048  0.69916  Biso   1.000  N
  N208     1.0000 0.87393  0.52377  0.71023  Biso   1.000  N
  N209     1.0000 0.87393  0.52377  0.71016  Biso   1.000  N
  N210     1.0000 0.93633  0.39067  0.68849  Biso   1.000  N
  H264     1.0000 0.98302  0.27627  0.65312  Biso   1.000  H
  H265     1.0000 0.86909  0.27679  0.70371  Biso   1.000  H
  H266     1.0000 0.98302  0.27627  0.65305  Biso   1.000  H
  H267     1.0000 0.85763  0.30887  0.72479  Biso   1.000  H
  H268     1.0000 0.96468  0.29742  0.66728  Biso   1.000  H
  N211     1.0000 0.93497  0.41596  0.69699  Biso   1.000  N
  C307     1.0000 0.20893  0.38072  0.70799  Biso   1.000  C
  C308     1.0000 0.20953  0.41092  0.72617  Biso   1.000  C
  N212     1.0000 0.06367  0.60926  0.68849  Biso   1.000  N
  H269     1.0000 0.01698  0.72366  0.65312  Biso   1.000  H
  H270     1.0000 0.13091  0.72315  0.70371  Biso   1.000  H
  H271     1.0000 0.01698  0.72366  0.65305  Biso   1.000  H
  N213     1.0000 0.06376  0.60926  0.68849  Biso   1.000  N
  H272     1.0000 0.01706  0.72366  0.65312  Biso   1.000  H
  H273     1.0000 0.01706  0.72366  0.65305  Biso   1.000  H
  H274     1.0000 0.14246  0.69107  0.72479  Biso   1.000  H
  H275     1.0000 0.03532  0.70258  0.66728  Biso   1.000  H
  N214     1.0000 0.06512  0.58397  0.69699  Biso   1.000  N
  C309     1.0000 0.97521  0.53560  0.65839  Biso   1.000  C
  C310     1.0000 0.97767  0.55591  0.65305  Biso   1.000  C
  C311     1.0000 0.84481  0.46809  0.71886  Biso   1.000  C
  C312     1.0000 0.84922  0.43860  0.72209  Biso   1.000  C
  C313     1.0000 0.02479  0.46440  0.65839  Biso   1.000  C
  C314     1.0000 0.02487  0.46440  0.65839  Biso   1.000  C
  C315     1.0000 0.02241  0.44409  0.65305  Biso   1.000  C
  H276     1.0000 0.28373  0.40535  0.70951  Biso   1.000  H
  H277     1.0000 0.20392  0.34547  0.65602  Biso   1.000  H
  H278     1.0000 0.20392  0.34547  0.65595  Biso   1.000  H
  N215     1.0000 0.12768  0.44946  0.69916  Biso   1.000  N
  H279     1.0000 0.21615  0.37768  0.67301  Biso   1.000  H
  H280     1.0000 0.28126  0.43885  0.73579  Biso   1.000  H
  N216     1.0000 0.12607  0.47617  0.71023  Biso   1.000  N
  N217     1.0000 0.12607  0.47617  0.71016  Biso   1.000  N
  N218     1.0000 0.12616  0.47617  0.71023  Biso   1.000  N
  N219     1.0000 0.12616  0.47617  0.71016  Biso   1.000  N
  C316     1.0000 0.15078  0.56140  0.72209  Biso   1.000  C
  C317     1.0000 0.15086  0.56140  0.72209  Biso   1.000  C
  C318     1.0000 0.15519  0.53191  0.71886  Biso   1.000  C
  H281     1.0000 0.95636  0.55765  0.60108  Biso   1.000  H
  H282     1.0000 0.95645  0.55765  0.60108  Biso   1.000  H
  H283     1.0000 0.96417  0.57188  0.59291  Biso   1.000  H
  O110     1.0000 0.76297  0.40878  0.75693  Biso   1.000  O
  O111     1.0000 0.76297  0.40878  0.75687  Biso   1.000  O
  O112     1.0000 0.76305  0.40878  0.75693  Biso   1.000  O
  O113     1.0000 0.76305  0.40878  0.75687  Biso   1.000  O
  O114     1.0000 0.75567  0.44138  0.75206  Biso   1.000  O
  H284     1.0000 0.04364  0.44228  0.60108  Biso   1.000  H
  H285     1.0000 0.03583  0.42805  0.59291  Biso   1.000  H
  O115     1.0000 0.23703  0.59115  0.75693  Biso   1.000  O
  O116     1.0000 0.23703  0.59115  0.75687  Biso   1.000  O
  O117     1.0000 0.24442  0.55856  0.75206  Biso   1.000  O
  O118     1.0000 0.76305  0.40878  0.24307  Biso   1.000  O
  C319     1.0000 0.84922  0.43860  0.27791  Biso   1.000  C
  C320     1.0000 0.84922  0.43860  0.27785  Biso   1.000  C
  C321     1.0000 0.84481  0.46809  0.28108  Biso   1.000  C
  N220     1.0000 0.87393  0.52377  0.28977  Biso   1.000  N
  N221     1.0000 0.93633  0.39067  0.31151  Biso   1.000  N
  O119     1.0000 0.76297  0.40878  0.24307  Biso   1.000  O
  N222     1.0000 0.93633  0.39067  0.31144  Biso   1.000  N
  N223     1.0000 0.93497  0.41596  0.30301  Biso   1.000  N
  O120     1.0000 0.75567  0.44138  0.24788  Biso   1.000  O
  N224     1.0000 0.87232  0.55048  0.30077  Biso   1.000  N
  C322     1.0000 0.97521  0.53560  0.34161  Biso   1.000  C
  C323     1.0000 0.97521  0.53560  0.34155  Biso   1.000  C
  C324     1.0000 0.79047  0.58908  0.27376  Biso   1.000  C
  C325     1.0000 0.97767  0.55591  0.34688  Biso   1.000  C
  C326     1.0000 0.02479  0.46440  0.34161  Biso   1.000  C
  C327     1.0000 0.02479  0.46440  0.34155  Biso   1.000  C
  C328     1.0000 0.02487  0.46440  0.34161  Biso   1.000  C
  C329     1.0000 0.02487  0.46440  0.34155  Biso   1.000  C
  C330     1.0000 0.02241  0.44409  0.34688  Biso   1.000  C
  C331     1.0000 0.94448  0.30027  0.29682  Biso   1.000  C
  C332     1.0000 0.94448  0.30027  0.29675  Biso   1.000  C
  C333     1.0000 0.94456  0.30027  0.29682  Biso   1.000  C
  C334     1.0000 0.94456  0.30027  0.29675  Biso   1.000  C
  C335     1.0000 0.93497  0.32717  0.28219  Biso   1.000  C
  C336     1.0000 0.79107  0.61928  0.29201  Biso   1.000  C
  C337     1.0000 0.79107  0.61928  0.29194  Biso   1.000  C
  C338     1.0000 0.79115  0.61928  0.29201  Biso   1.000  C
  C339     1.0000 0.79115  0.61928  0.29194  Biso   1.000  C
  H286     1.0000 0.95636  0.55765  0.39892  Biso   1.000  H
  H287     1.0000 0.95636  0.55765  0.39885  Biso   1.000  H
  H288     1.0000 0.95645  0.55765  0.39892  Biso   1.000  H
  H289     1.0000 0.95645  0.55765  0.39885  Biso   1.000  H
  H290     1.0000 0.96417  0.57188  0.40709  Biso   1.000  H
  N225     1.0000 0.06367  0.60926  0.31151  Biso   1.000  N
  N226     1.0000 0.06367  0.60926  0.31144  Biso   1.000  N
  N227     1.0000 0.06376  0.60926  0.31151  Biso   1.000  N
  N228     1.0000 0.06376  0.60926  0.31144  Biso   1.000  N
  N229     1.0000 0.06512  0.58397  0.30301  Biso   1.000  N
  N230     1.0000 0.80457  0.67438  0.21678  Biso   1.000  N
  H291     1.0000 0.71627  0.59458  0.29049  Biso   1.000  H
  N231     1.0000 0.80465  0.67438  0.21678  Biso   1.000  N
  H292     1.0000 0.71636  0.59458  0.29049  Biso   1.000  H
  N232     1.0000 0.80873  0.64819  0.20321  Biso   1.000  N
  H293     1.0000 0.78385  0.62226  0.32699  Biso   1.000  H
  H294     1.0000 0.71882  0.56108  0.26421  Biso   1.000  H
  N233     1.0000 0.12607  0.47617  0.28977  Biso   1.000  N
  H295     1.0000 0.04364  0.44228  0.39892  Biso   1.000  H
  H296     1.0000 0.04364  0.44228  0.39885  Biso   1.000  H
  N234     1.0000 0.12616  0.47617  0.28977  Biso   1.000  N
  N235     1.0000 0.12768  0.44946  0.30077  Biso   1.000  N
  H297     1.0000 0.03583  0.42805  0.40709  Biso   1.000  H
  H298     1.0000 0.98302  0.27627  0.34688  Biso   1.000  H
  H299     1.0000 0.86909  0.27679  0.29629  Biso   1.000  H
  H300     1.0000 0.85763  0.30887  0.27521  Biso   1.000  H
  H301     1.0000 0.96468  0.29742  0.33272  Biso   1.000  H
  N236     1.0000 0.99762  0.29697  0.20789  Biso   1.000  N
  N237     1.0000 0.00204  0.27078  0.21981  Biso   1.000  N
  N238     1.0000 0.00204  0.27078  0.21975  Biso   1.000  N
  H302     1.0000 0.79608  0.65447  0.34398  Biso   1.000  H
  H303     1.0000 0.79616  0.65447  0.34398  Biso   1.000  H
  C340     1.0000 0.15078  0.56140  0.27791  Biso   1.000  C
  C341     1.0000 0.05552  0.69967  0.29682  Biso   1.000  C
  C342     1.0000 0.15078  0.56140  0.27785  Biso   1.000  C
  C343     1.0000 0.05552  0.69967  0.29675  Biso   1.000  C
  C344     1.0000 0.15086  0.56140  0.27791  Biso   1.000  C
  C345     1.0000 0.15086  0.56140  0.27785  Biso   1.000  C
  C346     1.0000 0.15519  0.53191  0.28108  Biso   1.000  C
  C347     1.0000 0.06503  0.67277  0.28219  Biso   1.000  C
  C348     1.0000 0.88013  0.74559  0.21211  Biso   1.000  C
  C349     1.0000 0.74658  0.66365  0.14070  Biso   1.000  C
  C350     1.0000 0.88013  0.74559  0.21204  Biso   1.000  C
  C351     1.0000 0.74667  0.66365  0.14070  Biso   1.000  C
  C352     1.0000 0.74888  0.64606  0.12707  Biso   1.000  C
  C353     1.0000 0.88386  0.72075  0.20690  Biso   1.000  C
  C354     1.0000 0.20953  0.41092  0.27376  Biso   1.000  C
  C355     1.0000 0.20893  0.38072  0.29201  Biso   1.000  C
  C356     1.0000 0.20893  0.38072  0.29194  Biso   1.000  C
  C357     1.0000 0.94762  0.24969  0.14413  Biso   1.000  C
  C358     1.0000 0.94762  0.24969  0.14406  Biso   1.000  C
  C359     1.0000 0.94465  0.26761  0.13392  Biso   1.000  C
  C360     1.0000 0.11987  0.25441  0.21211  Biso   1.000  C
  C361     1.0000 0.11987  0.25441  0.21204  Biso   1.000  C
  C362     1.0000 0.11996  0.25441  0.21211  Biso   1.000  C
  C363     1.0000 0.11996  0.25441  0.21204  Biso   1.000  C
  C364     1.0000 0.11614  0.27918  0.20690  Biso   1.000  C
  O121     1.0000 0.23703  0.59115  0.24307  Biso   1.000  O
  O122     1.0000 0.24442  0.55856  0.24788  Biso   1.000  O
  N239     1.0000 0.99796  0.72916  0.21981  Biso   1.000  N
  N240     1.0000 0.99796  0.72916  0.21975  Biso   1.000  N
  N241     1.0000 0.99805  0.72916  0.21981  Biso   1.000  N
  N242     1.0000 0.99805  0.72916  0.21975  Biso   1.000  N
  H304     1.0000 0.01698  0.72366  0.34688  Biso   1.000  H
  H305     1.0000 0.13091  0.72315  0.29629  Biso   1.000  H
  H306     1.0000 0.01706  0.72366  0.34688  Biso   1.000  H
  N243     1.0000 0.00238  0.70297  0.20789  Biso   1.000  N
  H307     1.0000 0.14246  0.69107  0.27521  Biso   1.000  H
  H308     1.0000 0.03532  0.70258  0.33272  Biso   1.000  H
  H309     1.0000 0.85873  0.78769  0.25558  Biso   1.000  H
  C365     1.0000 0.86162  0.78154  0.11943  Biso   1.000  C
  C366     1.0000 0.86162  0.78154  0.11936  Biso   1.000  C
  C367     1.0000 0.86535  0.76635  0.11923  Biso   1.000  C
  H310     1.0000 0.86408  0.75755  0.25539  Biso   1.000  H
  N244     1.0000 0.77808  0.72619  0.08208  Biso   1.000  N
  O123     1.0000 0.67697  0.60551  0.12562  Biso   1.000  O
  O124     1.0000 0.67697  0.60551  0.12555  Biso   1.000  O
  N245     1.0000 0.77816  0.72619  0.08208  Biso   1.000  N
  O125     1.0000 0.67705  0.60551  0.12562  Biso   1.000  O
  O126     1.0000 0.67705  0.60551  0.12555  Biso   1.000  O
  O127     1.0000 0.68257  0.58831  0.10388  Biso   1.000  O
  N246     1.0000 0.78156  0.71448  0.07720  Biso   1.000  N
  N247     1.0000 0.19543  0.32562  0.21678  Biso   1.000  N
  H311     1.0000 0.28373  0.40535  0.29049  Biso   1.000  H
  N248     1.0000 0.19136  0.35181  0.20321  Biso   1.000  N
  H312     1.0000 0.21615  0.37768  0.32699  Biso   1.000  H
  H313     1.0000 0.28126  0.43885  0.26421  Biso   1.000  H
  H314     1.0000 0.20392  0.34547  0.34398  Biso   1.000  H
  O128     1.0000 0.84337  0.25590  0.13220  Biso   1.000  O
  O129     1.0000 0.84337  0.25590  0.13214  Biso   1.000  O
  O130     1.0000 0.84345  0.25590  0.13220  Biso   1.000  O
  O131     1.0000 0.84345  0.25590  0.13214  Biso   1.000  O
  O132     1.0000 0.84294  0.27776  0.11633  Biso   1.000  O
  N249     1.0000 0.02530  0.22538  0.08300  Biso   1.000  N
  N250     1.0000 0.02454  0.23611  0.07793  Biso   1.000  N
  C368     1.0000 0.13838  0.21839  0.11943  Biso   1.000  C
  H315     1.0000 0.14127  0.21231  0.25558  Biso   1.000  H
  C369     1.0000 0.13838  0.21839  0.11936  Biso   1.000  C
  C370     1.0000 0.13847  0.21839  0.11943  Biso   1.000  C
  H316     1.0000 0.14135  0.21231  0.25558  Biso   1.000  H
  C371     1.0000 0.13847  0.21839  0.11936  Biso   1.000  C
  C372     1.0000 0.13465  0.23359  0.11923  Biso   1.000  C
  H317     1.0000 0.13592  0.24239  0.25539  Biso   1.000  H
  C373     1.0000 0.05238  0.75031  0.14413  Biso   1.000  C
  C374     1.0000 0.05238  0.75031  0.14406  Biso   1.000  C
  C375     1.0000 0.05247  0.75031  0.14413  Biso   1.000  C
  C376     1.0000 0.05247  0.75031  0.14406  Biso   1.000  C
  C377     1.0000 0.05544  0.73239  0.13392  Biso   1.000  C
  N251     1.0000 0.97470  0.77456  0.08300  Biso   1.000  N
  H318     1.0000 0.83632  0.84059  0.12022  Biso   1.000  H
  H319     1.0000 0.83632  0.84059  0.12015  Biso   1.000  H
  N252     1.0000 0.97546  0.76389  0.07793  Biso   1.000  N
  H320     1.0000 0.84005  0.82500  0.12628  Biso   1.000  H
  C378     1.0000 0.72239  0.74009  0.00000  Biso   1.000  C
  C379     1.0000 0.25342  0.33629  0.14070  Biso   1.000  C
  C380     1.0000 0.25112  0.35388  0.12707  Biso   1.000  C
  C381     1.0000 0.99338  0.19000  0.00000  Biso   1.000  C
  C382     1.0000 0.99346  0.19000  0.00000  Biso   1.000  C
  H321     1.0000 0.16368  0.15941  0.12022  Biso   1.000  H
  N253     1.0000 0.22192  0.27381  0.08208  Biso   1.000  N
  H322     1.0000 0.16368  0.15941  0.12015  Biso   1.000  H
  H323     1.0000 0.16377  0.15941  0.12022  Biso   1.000  H
  H324     1.0000 0.16377  0.15941  0.12015  Biso   1.000  H
  H325     1.0000 0.16003  0.17500  0.12628  Biso   1.000  H
  N254     1.0000 0.21844  0.28552  0.07720  Biso   1.000  N
  O133     1.0000 0.15663  0.74410  0.13220  Biso   1.000  O
  O134     1.0000 0.15663  0.74410  0.13214  Biso   1.000  O
  O135     1.0000 0.15714  0.72218  0.11633  Biso   1.000  O
  C383     1.0000 0.00662  0.81000  0.00000  Biso   1.000  C
  N255     1.0000 0.77808  0.72619  0.91792  Biso   1.000  N
  N256     1.0000 0.77808  0.72619  0.91786  Biso   1.000  N
  N257     1.0000 0.77816  0.72619  0.91792  Biso   1.000  N
  N258     1.0000 0.77816  0.72619  0.91786  Biso   1.000  N
  N259     1.0000 0.78156  0.71448  0.92280  Biso   1.000  N
  H326     1.0000 0.69386  0.79816  0.00000  Biso   1.000  H
  H327     1.0000 0.65727  0.70277  0.00000  Biso   1.000  H
  H328     1.0000 0.69395  0.79816  0.00000  Biso   1.000  H
  H329     1.0000 0.65736  0.70277  0.00000  Biso   1.000  H
  O136     1.0000 0.32303  0.39449  0.12562  Biso   1.000  O
  O137     1.0000 0.32303  0.39449  0.12555  Biso   1.000  O
  O138     1.0000 0.31743  0.41169  0.10388  Biso   1.000  O
  H330     1.0000 0.91188  0.18832  0.00000  Biso   1.000  H
  H331     1.0000 0.91196  0.18832  0.00000  Biso   1.000  H
  N260     1.0000 0.02530  0.22538  0.91700  Biso   1.000  N
  N261     1.0000 0.02454  0.23611  0.92207  Biso   1.000  N
  H332     1.0000 0.01842  0.13089  0.00000  Biso   1.000  H
  C384     1.0000 0.27761  0.25991  0.00000  Biso   1.000  C
  N262     1.0000 0.97470  0.77456  0.91700  Biso   1.000  N
  N263     1.0000 0.97546  0.76389  0.92207  Biso   1.000  N
  H333     1.0000 0.98158  0.86904  0.00000  Biso   1.000  H
  H334     1.0000 0.98166  0.86904  0.00000  Biso   1.000  H
  H335     1.0000 0.08812  0.81168  0.00000  Biso   1.000  H
  C385     1.0000 0.86162  0.78154  0.88057  Biso   1.000  C
  C386     1.0000 0.74658  0.66365  0.85930  Biso   1.000  C
  C387     1.0000 0.74667  0.66365  0.85930  Biso   1.000  C
  C388     1.0000 0.74888  0.64606  0.87287  Biso   1.000  C
  C389     1.0000 0.86535  0.76635  0.88077  Biso   1.000  C
  C390     1.0000 0.94762  0.24969  0.85587  Biso   1.000  C
  C391     1.0000 0.94465  0.26761  0.86608  Biso   1.000  C
  C392     1.0000 0.13838  0.21839  0.88057  Biso   1.000  C
  C393     1.0000 0.13847  0.21839  0.88057  Biso   1.000  C
  C394     1.0000 0.13465  0.23359  0.88077  Biso   1.000  C
  N264     1.0000 0.22192  0.27381  0.91792  Biso   1.000  N
  N265     1.0000 0.22192  0.27381  0.91786  Biso   1.000  N
  N266     1.0000 0.21844  0.28552  0.92280  Biso   1.000  N
  H336     1.0000 0.30614  0.20177  0.00000  Biso   1.000  H
  H337     1.0000 0.34273  0.29716  0.00000  Biso   1.000  H
  C395     1.0000 0.05238  0.75031  0.85587  Biso   1.000  C
  C396     1.0000 0.05247  0.75031  0.85587  Biso   1.000  C
  C397     1.0000 0.05544  0.73239  0.86608  Biso   1.000  C
  H338     1.0000 0.83632  0.84059  0.87978  Biso   1.000  H
  C398     1.0000 0.88013  0.74559  0.78789  Biso   1.000  C
  C399     1.0000 0.88386  0.72075  0.79310  Biso   1.000  C
  H339     1.0000 0.84005  0.82500  0.87366  Biso   1.000  H
  N267     1.0000 0.80457  0.67438  0.78322  Biso   1.000  N
  O139     1.0000 0.67697  0.60551  0.87438  Biso   1.000  O
  N268     1.0000 0.80457  0.67438  0.78315  Biso   1.000  N
  N269     1.0000 0.80465  0.67438  0.78322  Biso   1.000  N
  O140     1.0000 0.67705  0.60551  0.87438  Biso   1.000  O
  N270     1.0000 0.80465  0.67438  0.78315  Biso   1.000  N
  O141     1.0000 0.68257  0.58831  0.89605  Biso   1.000  O
  N271     1.0000 0.80873  0.64819  0.79679  Biso   1.000  N
  O142     1.0000 0.84337  0.25590  0.86780  Biso   1.000  O
  O143     1.0000 0.84345  0.25590  0.86780  Biso   1.000  O
  O144     1.0000 0.84294  0.27776  0.88367  Biso   1.000  O
  N272     1.0000 0.99762  0.29697  0.79211  Biso   1.000  N
  N273     1.0000 0.00204  0.27078  0.78019  Biso   1.000  N
  H340     1.0000 0.16368  0.15941  0.87978  Biso   1.000  H
  C400     1.0000 0.11987  0.25441  0.78789  Biso   1.000  C
  H341     1.0000 0.16377  0.15941  0.87978  Biso   1.000  H
  C401     1.0000 0.11996  0.25441  0.78789  Biso   1.000  C
  H342     1.0000 0.16003  0.17500  0.87366  Biso   1.000  H
  C402     1.0000 0.11614  0.27918  0.79310  Biso   1.000  C
  C403     1.0000 0.25342  0.33629  0.85930  Biso   1.000  C
  C404     1.0000 0.25112  0.35388  0.87287  Biso   1.000  C
  N274     1.0000 0.99796  0.72916  0.78019  Biso   1.000  N
  N275     1.0000 0.99805  0.72916  0.78019  Biso   1.000  N
  O145     1.0000 0.15663  0.74410  0.86780  Biso   1.000  O
  O146     1.0000 0.15714  0.72218  0.88367  Biso   1.000  O
  N276     1.0000 0.00238  0.70297  0.79211  Biso   1.000  N
  H343     1.0000 0.85873  0.78769  0.74442  Biso   1.000  H
  H344     1.0000 0.85873  0.78769  0.74435  Biso   1.000  H
  H345     1.0000 0.86408  0.75755  0.74455  Biso   1.000  H
  C405     1.0000 0.79107  0.61928  0.70799  Biso   1.000  C
  C406     1.0000 0.79115  0.61928  0.70799  Biso   1.000  C
  C407     1.0000 0.79047  0.58908  0.72617  Biso   1.000  C
  C408     1.0000 0.94448  0.30027  0.70318  Biso   1.000  C
  C409     1.0000 0.94456  0.30027  0.70318  Biso   1.000  C
  C410     1.0000 0.93497  0.32717  0.71781  Biso   1.000  C
  H346     1.0000 0.14127  0.21231  0.74442  Biso   1.000  H
  N277     1.0000 0.19543  0.32562  0.78322  Biso   1.000  N
  H347     1.0000 0.14127  0.21231  0.74435  Biso   1.000  H
  N278     1.0000 0.19543  0.32562  0.78315  Biso   1.000  N
  H348     1.0000 0.14135  0.21231  0.74442  Biso   1.000  H
  H349     1.0000 0.14135  0.21231  0.74435  Biso   1.000  H
  N279     1.0000 0.19136  0.35181  0.79679  Biso   1.000  N
  H350     1.0000 0.13592  0.24239  0.74455  Biso   1.000  H
  O147     1.0000 0.32303  0.39449  0.87438  Biso   1.000  O
  O148     1.0000 0.31743  0.41169  0.89605  Biso   1.000  O
  C411     1.0000 0.05552  0.69967  0.70318  Biso   1.000  C
  C412     1.0000 0.06503  0.67277  0.71781  Biso   1.000  C
  H351     1.0000 0.71627  0.59458  0.70951  Biso   1.000  H
  H352     1.0000 0.79608  0.65447  0.65602  Biso   1.000  H
  H353     1.0000 0.79608  0.65447  0.65595  Biso   1.000  H
  H354     1.0000 0.71636  0.59458  0.70951  Biso   1.000  H
  H355     1.0000 0.79616  0.65447  0.65602  Biso   1.000  H
  H356     1.0000 0.79616  0.65447  0.65595  Biso   1.000  H
  H357     1.0000 0.78385  0.62226  0.67301  Biso   1.000  H
  H358     1.0000 0.71882  0.56108  0.73579  Biso   1.000  H
  N280     1.0000 0.87232  0.55048  0.69916  Biso   1.000  N
  N281     1.0000 0.87393  0.52377  0.71023  Biso   1.000  N
  N282     1.0000 0.87393  0.52377  0.71016  Biso   1.000  N
  N283     1.0000 0.93633  0.39067  0.68849  Biso   1.000  N
  H359     1.0000 0.98302  0.27627  0.65312  Biso   1.000  H
  H360     1.0000 0.86909  0.27679  0.70371  Biso   1.000  H
  H361     1.0000 0.98302  0.27627  0.65305  Biso   1.000  H
  H362     1.0000 0.85763  0.30887  0.72479  Biso   1.000  H
  H363     1.0000 0.96468  0.29742  0.66728  Biso   1.000  H
  N284     1.0000 0.93497  0.41596  0.69699  Biso   1.000  N
  C413     1.0000 0.20893  0.38072  0.70799  Biso   1.000  C
  C414     1.0000 0.20953  0.41092  0.72617  Biso   1.000  C
  N285     1.0000 0.06367  0.60926  0.68849  Biso   1.000  N
  H364     1.0000 0.01698  0.72366  0.65312  Biso   1.000  H
  H365     1.0000 0.13091  0.72315  0.70371  Biso   1.000  H
  H366     1.0000 0.01698  0.72366  0.65305  Biso   1.000  H
  N286     1.0000 0.06376  0.60926  0.68849  Biso   1.000  N
  H367     1.0000 0.01706  0.72366  0.65312  Biso   1.000  H
  H368     1.0000 0.01706  0.72366  0.65305  Biso   1.000  H
  H369     1.0000 0.14246  0.69107  0.72479  Biso   1.000  H
  H370     1.0000 0.03532  0.70258  0.66728  Biso   1.000  H
  N287     1.0000 0.06512  0.58397  0.69699  Biso   1.000  N
  C415     1.0000 0.97521  0.53560  0.65839  Biso   1.000  C
  C416     1.0000 0.97767  0.55591  0.65305  Biso   1.000  C
  C417     1.0000 0.84481  0.46809  0.71886  Biso   1.000  C
  C418     1.0000 0.84922  0.43860  0.72209  Biso   1.000  C
  C419     1.0000 0.02479  0.46440  0.65839  Biso   1.000  C
  C420     1.0000 0.02487  0.46440  0.65839  Biso   1.000  C
  C421     1.0000 0.02241  0.44409  0.65305  Biso   1.000  C
  H371     1.0000 0.28373  0.40535  0.70951  Biso   1.000  H
  H372     1.0000 0.20392  0.34547  0.65602  Biso   1.000  H
  H373     1.0000 0.20392  0.34547  0.65595  Biso   1.000  H
  N288     1.0000 0.12768  0.44946  0.69916  Biso   1.000  N
  H374     1.0000 0.21615  0.37768  0.67301  Biso   1.000  H
  H375     1.0000 0.28126  0.43885  0.73579  Biso   1.000  H
  N289     1.0000 0.12607  0.47617  0.71023  Biso   1.000  N
  N290     1.0000 0.12607  0.47617  0.71016  Biso   1.000  N
  N291     1.0000 0.12616  0.47617  0.71023  Biso   1.000  N
  N292     1.0000 0.12616  0.47617  0.71016  Biso   1.000  N
  C422     1.0000 0.15078  0.56140  0.72209  Biso   1.000  C
  C423     1.0000 0.15086  0.56140  0.72209  Biso   1.000  C
  C424     1.0000 0.15519  0.53191  0.71886  Biso   1.000  C
  H376     1.0000 0.95636  0.55765  0.60108  Biso   1.000  H
  H377     1.0000 0.95645  0.55765  0.60108  Biso   1.000  H
  H378     1.0000 0.96417  0.57188  0.59291  Biso   1.000  H
  O149     1.0000 0.76297  0.40878  0.75693  Biso   1.000  O
  O150     1.0000 0.76297  0.40878  0.75687  Biso   1.000  O
  O151     1.0000 0.76305  0.40878  0.75693  Biso   1.000  O
  O152     1.0000 0.76305  0.40878  0.75687  Biso   1.000  O
  O153     1.0000 0.75567  0.44138  0.75206  Biso   1.000  O
  H379     1.0000 0.04364  0.44228  0.60108  Biso   1.000  H
  H380     1.0000 0.03583  0.42805  0.59291  Biso   1.000  H
  O154     1.0000 0.23703  0.59115  0.75693  Biso   1.000  O
  O155     1.0000 0.23703  0.59115  0.75687  Biso   1.000  O
  O156     1.0000 0.24442  0.55856  0.75206  Biso   1.000  O
  C425     1.0000 0.61992  0.24562  0.28786  Biso   1.000  C
  N293     1.0000 0.50200  0.22919  0.28022  Biso   1.000  N
  N294     1.0000 0.50200  0.22926  0.28022  Biso   1.000  N
  N295     1.0000 0.49758  0.20300  0.29208  Biso   1.000  N
  C426     1.0000 0.63842  0.28158  0.38061  Biso   1.000  C
  C427     1.0000 0.63842  0.28164  0.38061  Biso   1.000  C
  C428     1.0000 0.63460  0.26644  0.38080  Biso   1.000  C
  H381     1.0000 0.64131  0.28772  0.24438  Biso   1.000  H
  N296     1.0000 0.69539  0.17442  0.28318  Biso   1.000  N
  N297     1.0000 0.69539  0.17435  0.28318  Biso   1.000  N
  N298     1.0000 0.69132  0.14822  0.29682  Biso   1.000  N
  H382     1.0000 0.63596  0.25765  0.24458  Biso   1.000  H
  C429     1.0000 0.44758  0.25027  0.35591  Biso   1.000  C
  C430     1.0000 0.44460  0.23243  0.36612  Biso   1.000  C
  C431     1.0000 0.44452  0.19970  0.20321  Biso   1.000  C
  C432     1.0000 0.61610  0.22085  0.29306  Biso   1.000  C
  C433     1.0000 0.43501  0.17280  0.21777  Biso   1.000  C
  N299     1.0000 0.52534  0.27459  0.41697  Biso   1.000  N
  N300     1.0000 0.52534  0.27466  0.41697  Biso   1.000  N
  N301     1.0000 0.52449  0.26392  0.42211  Biso   1.000  N
  H383     1.0000 0.66372  0.34062  0.37982  Biso   1.000  H
  N302     1.0000 0.72196  0.22622  0.41789  Biso   1.000  N
  N303     1.0000 0.71840  0.21451  0.42277  Biso   1.000  N
  H384     1.0000 0.65999  0.32497  0.37369  Biso   1.000  H
  C434     1.0000 0.75346  0.16368  0.35926  Biso   1.000  C
  C435     1.0000 0.75346  0.16375  0.35926  Biso   1.000  C
  C436     1.0000 0.75117  0.14616  0.37290  Biso   1.000  C
  C437     1.0000 0.70889  0.11932  0.20802  Biso   1.000  C
  C438     1.0000 0.70889  0.11925  0.20802  Biso   1.000  C
  C439     1.0000 0.70948  0.08912  0.22620  Biso   1.000  C
  O157     1.0000 0.34341  0.24413  0.36776  Biso   1.000  O
  O158     1.0000 0.34341  0.24407  0.36776  Biso   1.000  O
  O159     1.0000 0.34290  0.22221  0.38370  Biso   1.000  O
  N304     1.0000 0.43628  0.10929  0.18853  Biso   1.000  N
  H385     1.0000 0.48298  0.22370  0.15309  Biso   1.000  H
  H386     1.0000 0.36913  0.22318  0.20368  Biso   1.000  H
  N305     1.0000 0.43628  0.10936  0.18853  Biso   1.000  N
  H387     1.0000 0.36913  0.22324  0.20368  Biso   1.000  H
  H388     1.0000 0.35759  0.19110  0.22482  Biso   1.000  H
  H389     1.0000 0.46473  0.20261  0.16731  Biso   1.000  H
  N306     1.0000 0.43493  0.08401  0.19702  Biso   1.000  N
  C440     1.0000 0.49342  0.30997  0.49997  Biso   1.000  C
  C441     1.0000 0.49342  0.31003  0.49997  Biso   1.000  C
  C442     1.0000 0.77766  0.24012  0.49997  Biso   1.000  C
  O160     1.0000 0.82299  0.10548  0.37442  Biso   1.000  O
  O161     1.0000 0.82299  0.10554  0.37442  Biso   1.000  O
  O162     1.0000 0.81739  0.08834  0.39609  Biso   1.000  O
  H390     1.0000 0.78377  0.09461  0.20947  Biso   1.000  H
  H391     1.0000 0.70396  0.15450  0.15598  Biso   1.000  H
  H392     1.0000 0.71610  0.12236  0.17298  Biso   1.000  H
  H393     1.0000 0.78122  0.06111  0.23582  Biso   1.000  H
  N307     1.0000 0.62773  0.05051  0.19920  Biso   1.000  N
  N308     1.0000 0.62611  0.02380  0.21020  Biso   1.000  N
  N309     1.0000 0.62611  0.02386  0.21020  Biso   1.000  N
  C443     1.0000 0.52483  0.03557  0.15842  Biso   1.000  C
  C444     1.0000 0.34918  0.06137  0.22212  Biso   1.000  C
  C445     1.0000 0.52483  0.03563  0.15842  Biso   1.000  C
  C446     1.0000 0.34918  0.06144  0.22212  Biso   1.000  C
  C447     1.0000 0.34485  0.03195  0.21889  Biso   1.000  C
  C448     1.0000 0.52246  0.05588  0.15309  Biso   1.000  C
  H394     1.0000 0.41192  0.31171  0.49997  Biso   1.000  H
  H395     1.0000 0.51838  0.36907  0.49997  Biso   1.000  H
  N310     1.0000 0.52534  0.27459  0.58297  Biso   1.000  N
  H396     1.0000 0.51838  0.36914  0.49997  Biso   1.000  H
  N311     1.0000 0.52534  0.27466  0.58297  Biso   1.000  N
  N312     1.0000 0.52449  0.26392  0.57789  Biso   1.000  N
  H397     1.0000 0.80610  0.29820  0.49997  Biso   1.000  H
  H398     1.0000 0.84277  0.20281  0.49997  Biso   1.000  H
  N313     1.0000 0.72196  0.22622  0.58211  Biso   1.000  N
  N314     1.0000 0.71840  0.21451  0.57717  Biso   1.000  N
  C449     1.0000 0.65523  0.96812  0.21889  Biso   1.000  C
  C450     1.0000 0.65082  0.93863  0.22212  Biso   1.000  C
  C451     1.0000 0.65082  0.93856  0.22212  Biso   1.000  C
  H399     1.0000 0.54359  0.05769  0.10111  Biso   1.000  H
  H400     1.0000 0.54359  0.05775  0.10111  Biso   1.000  H
  H401     1.0000 0.53578  0.07191  0.09288  Biso   1.000  H
  C452     1.0000 0.47525  0.96437  0.15842  Biso   1.000  C
  C453     1.0000 0.47763  0.94406  0.15309  Biso   1.000  C
  O163     1.0000 0.26301  0.09119  0.25690  Biso   1.000  O
  O164     1.0000 0.26301  0.09125  0.25690  Biso   1.000  O
  O165     1.0000 0.25562  0.05866  0.25209  Biso   1.000  O
  N315     1.0000 0.37389  0.97620  0.21020  Biso   1.000  N
  N316     1.0000 0.37389  0.97614  0.21020  Biso   1.000  N
  N317     1.0000 0.37227  0.94949  0.19920  Biso   1.000  N
  C454     1.0000 0.44758  0.25027  0.64409  Biso   1.000  C
  C455     1.0000 0.63842  0.28158  0.61939  Biso   1.000  C
  C456     1.0000 0.63842  0.28164  0.61939  Biso   1.000  C
  C457     1.0000 0.44460  0.23243  0.63388  Biso   1.000  C
  C458     1.0000 0.63460  0.26644  0.61920  Biso   1.000  C
  C459     1.0000 0.75346  0.16368  0.64067  Biso   1.000  C
  C460     1.0000 0.75346  0.16375  0.64067  Biso   1.000  C
  C461     1.0000 0.75117  0.14616  0.62710  Biso   1.000  C
  N318     1.0000 0.56372  0.89071  0.18853  Biso   1.000  N
  N319     1.0000 0.56372  0.89064  0.18853  Biso   1.000  N
  N320     1.0000 0.56516  0.91599  0.19702  Biso   1.000  N
  O166     1.0000 0.73699  0.90881  0.25690  Biso   1.000  O
  O167     1.0000 0.73699  0.90875  0.25690  Biso   1.000  O
  O168     1.0000 0.74446  0.94134  0.25209  Biso   1.000  O
  H402     1.0000 0.45641  0.94231  0.10111  Biso   1.000  H
  H403     1.0000 0.45641  0.94225  0.10111  Biso   1.000  H
  H404     1.0000 0.46422  0.92809  0.09288  Biso   1.000  H
  C462     1.0000 0.29052  0.91088  0.22620  Biso   1.000  C
  C463     1.0000 0.29111  0.88062  0.20802  Biso   1.000  C
  C464     1.0000 0.29111  0.88068  0.20802  Biso   1.000  C
  N321     1.0000 0.50200  0.22919  0.71978  Biso   1.000  N
  O169     1.0000 0.34341  0.24407  0.63217  Biso   1.000  O
  N322     1.0000 0.50200  0.22926  0.71978  Biso   1.000  N
  O170     1.0000 0.34341  0.24413  0.63217  Biso   1.000  O
  O171     1.0000 0.34290  0.22221  0.61630  Biso   1.000  O
  N323     1.0000 0.49758  0.20300  0.70786  Biso   1.000  N
  H405     1.0000 0.66372  0.34062  0.62018  Biso   1.000  H
  C465     1.0000 0.61992  0.24562  0.71207  Biso   1.000  C
  H406     1.0000 0.65999  0.32497  0.62631  Biso   1.000  H
  C466     1.0000 0.61610  0.22085  0.70687  Biso   1.000  C
  N324     1.0000 0.69539  0.17442  0.71675  Biso   1.000  N
  N325     1.0000 0.69539  0.17435  0.71675  Biso   1.000  N
  N326     1.0000 0.69132  0.14822  0.70318  Biso   1.000  N
  O172     1.0000 0.82299  0.10548  0.62558  Biso   1.000  O
  O173     1.0000 0.82299  0.10554  0.62558  Biso   1.000  O
  O174     1.0000 0.81739  0.08834  0.60391  Biso   1.000  O
  C467     1.0000 0.55548  0.80030  0.20321  Biso   1.000  C
  C468     1.0000 0.56499  0.82720  0.21777  Biso   1.000  C
  N327     1.0000 0.30461  0.82558  0.28318  Biso   1.000  N
  H407     1.0000 0.21632  0.90539  0.20947  Biso   1.000  H
  N328     1.0000 0.30868  0.85178  0.29682  Biso   1.000  N
  H408     1.0000 0.28390  0.87771  0.17298  Biso   1.000  H
  H409     1.0000 0.21878  0.93889  0.23582  Biso   1.000  H
  H410     1.0000 0.29612  0.84550  0.15598  Biso   1.000  H
  C469     1.0000 0.44452  0.19970  0.79679  Biso   1.000  C
  C470     1.0000 0.43501  0.17280  0.78216  Biso   1.000  C
  H411     1.0000 0.64131  0.28772  0.75555  Biso   1.000  H
  H412     1.0000 0.63596  0.25765  0.75535  Biso   1.000  H
  C471     1.0000 0.70889  0.11932  0.79198  Biso   1.000  C
  C472     1.0000 0.70889  0.11925  0.79198  Biso   1.000  C
  C473     1.0000 0.70948  0.08912  0.77380  Biso   1.000  C
  N329     1.0000 0.49800  0.77081  0.28022  Biso   1.000  N
  H413     1.0000 0.51702  0.77630  0.15309  Biso   1.000  H
  H414     1.0000 0.63095  0.77676  0.20368  Biso   1.000  H
  N330     1.0000 0.49800  0.77074  0.28022  Biso   1.000  N
  H415     1.0000 0.64241  0.80890  0.22482  Biso   1.000  H
  H416     1.0000 0.53536  0.79739  0.16731  Biso   1.000  H
  N331     1.0000 0.50242  0.79700  0.29208  Biso   1.000  N
  C474     1.0000 0.38008  0.75438  0.28786  Biso   1.000  C
  C475     1.0000 0.24663  0.83632  0.35926  Biso   1.000  C
  C476     1.0000 0.24663  0.83625  0.35926  Biso   1.000  C
  C477     1.0000 0.24892  0.85391  0.37290  Biso   1.000  C
  C478     1.0000 0.38390  0.77921  0.29306  Biso   1.000  C
  N332     1.0000 0.43628  0.10929  0.81147  Biso   1.000  N
  H417     1.0000 0.48298  0.22370  0.84685  Biso   1.000  H
  H418     1.0000 0.36913  0.22318  0.79626  Biso   1.000  H
  N333     1.0000 0.43628  0.10936  0.81147  Biso   1.000  N
  H419     1.0000 0.36913  0.22324  0.79626  Biso   1.000  H
  H420     1.0000 0.35759  0.19110  0.77518  Biso   1.000  H
  H421     1.0000 0.46473  0.20261  0.83269  Biso   1.000  H
  N334     1.0000 0.43493  0.08401  0.80298  Biso   1.000  N
  H422     1.0000 0.78377  0.09461  0.79046  Biso   1.000  H
  H423     1.0000 0.70396  0.15450  0.84395  Biso   1.000  H
  N335     1.0000 0.62773  0.05051  0.80080  Biso   1.000  N
  H424     1.0000 0.71610  0.12236  0.82695  Biso   1.000  H
  H425     1.0000 0.78122  0.06111  0.76418  Biso   1.000  H
  N336     1.0000 0.62611  0.02380  0.78980  Biso   1.000  N
  N337     1.0000 0.62611  0.02386  0.78980  Biso   1.000  N
  C479     1.0000 0.55242  0.74973  0.35591  Biso   1.000  C
  C480     1.0000 0.55242  0.74966  0.35591  Biso   1.000  C
  C481     1.0000 0.55540  0.76764  0.36612  Biso   1.000  C
  C482     1.0000 0.36158  0.71836  0.38061  Biso   1.000  C
  H426     1.0000 0.35869  0.71228  0.24438  Biso   1.000  H
  C483     1.0000 0.36540  0.73362  0.38080  Biso   1.000  C
  H427     1.0000 0.36412  0.74235  0.24458  Biso   1.000  H
  N338     1.0000 0.27812  0.77378  0.41789  Biso   1.000  N
  O175     1.0000 0.17701  0.89452  0.37442  Biso   1.000  O
  O176     1.0000 0.17701  0.89446  0.37442  Biso   1.000  O
  O177     1.0000 0.18261  0.91172  0.39609  Biso   1.000  O
  N339     1.0000 0.28160  0.78549  0.42277  Biso   1.000  N
  C484     1.0000 0.52483  0.03557  0.84158  Biso   1.000  C
  C485     1.0000 0.34918  0.06137  0.77788  Biso   1.000  C
  C486     1.0000 0.52483  0.03563  0.84158  Biso   1.000  C
  C487     1.0000 0.34918  0.06144  0.77788  Biso   1.000  C
  C488     1.0000 0.52246  0.05588  0.84685  Biso   1.000  C
  C489     1.0000 0.34485  0.03195  0.78111  Biso   1.000  C
  C490     1.0000 0.65523  0.96812  0.78111  Biso   1.000  C
  C491     1.0000 0.65082  0.93863  0.77788  Biso   1.000  C
  C492     1.0000 0.65082  0.93856  0.77788  Biso   1.000  C
  N340     1.0000 0.47474  0.72534  0.41697  Biso   1.000  N
  O178     1.0000 0.65659  0.75593  0.36776  Biso   1.000  O
  O179     1.0000 0.65659  0.75587  0.36776  Biso   1.000  O
  N341     1.0000 0.47551  0.73608  0.42211  Biso   1.000  N
  O180     1.0000 0.65710  0.77779  0.38370  Biso   1.000  O
  H428     1.0000 0.33628  0.65932  0.37982  Biso   1.000  H
  H429     1.0000 0.33628  0.65938  0.37982  Biso   1.000  H
  H430     1.0000 0.34001  0.67497  0.37369  Biso   1.000  H
  C493     1.0000 0.22243  0.75981  0.49997  Biso   1.000  C
  C494     1.0000 0.22243  0.75988  0.49997  Biso   1.000  C
  H431     1.0000 0.54359  0.05769  0.89889  Biso   1.000  H
  H432     1.0000 0.54359  0.05775  0.89889  Biso   1.000  H
  H433     1.0000 0.53578  0.07191  0.90705  Biso   1.000  H
  C495     1.0000 0.47525  0.96437  0.84158  Biso   1.000  C
  C496     1.0000 0.47763  0.94406  0.84685  Biso   1.000  C
  O181     1.0000 0.26301  0.09119  0.74310  Biso   1.000  O
  O182     1.0000 0.26301  0.09125  0.74310  Biso   1.000  O
  O183     1.0000 0.25562  0.05866  0.74791  Biso   1.000  O
  N342     1.0000 0.37389  0.97620  0.78980  Biso   1.000  N
  N343     1.0000 0.37389  0.97614  0.78980  Biso   1.000  N
  N344     1.0000 0.37227  0.94949  0.80080  Biso   1.000  N
  N345     1.0000 0.56372  0.89071  0.81147  Biso   1.000  N
  N346     1.0000 0.56372  0.89064  0.81147  Biso   1.000  N
  N347     1.0000 0.56516  0.91599  0.80298  Biso   1.000  N
  O184     1.0000 0.73699  0.90881  0.74310  Biso   1.000  O
  O185     1.0000 0.73699  0.90875  0.74310  Biso   1.000  O
  O186     1.0000 0.74446  0.94134  0.74791  Biso   1.000  O
  C497     1.0000 0.50658  0.69003  0.49997  Biso   1.000  C
  C498     1.0000 0.50658  0.68997  0.49997  Biso   1.000  C
  H434     1.0000 0.19390  0.70180  0.49997  Biso   1.000  H
  H435     1.0000 0.15731  0.79719  0.49997  Biso   1.000  H
  N348     1.0000 0.27812  0.77378  0.58211  Biso   1.000  N
  N349     1.0000 0.28160  0.78549  0.57717  Biso   1.000  N
  H436     1.0000 0.45641  0.94231  0.89889  Biso   1.000  H
  H437     1.0000 0.45641  0.94225  0.89889  Biso   1.000  H
  H438     1.0000 0.46422  0.92809  0.90705  Biso   1.000  H
  C499     1.0000 0.29052  0.91088  0.77380  Biso   1.000  C
  C500     1.0000 0.29111  0.88062  0.79198  Biso   1.000  C
  C501     1.0000 0.29111  0.88068  0.79198  Biso   1.000  C
  C502     1.0000 0.55548  0.80030  0.79679  Biso   1.000  C
  C503     1.0000 0.56499  0.82720  0.78216  Biso   1.000  C
  H439     1.0000 0.58808  0.68829  0.49997  Biso   1.000  H
  H440     1.0000 0.48162  0.63093  0.49997  Biso   1.000  H
  N350     1.0000 0.47474  0.72534  0.58297  Biso   1.000  N
  H441     1.0000 0.48162  0.63086  0.49997  Biso   1.000  H
  N351     1.0000 0.47551  0.73608  0.57789  Biso   1.000  N
  C504     1.0000 0.24663  0.83632  0.64067  Biso   1.000  C
  C505     1.0000 0.24663  0.83625  0.64067  Biso   1.000  C
  C506     1.0000 0.24892  0.85391  0.62710  Biso   1.000  C
  C507     1.0000 0.36158  0.71836  0.61939  Biso   1.000  C
  C508     1.0000 0.36540  0.73362  0.61920  Biso   1.000  C
  N352     1.0000 0.30461  0.82558  0.71675  Biso   1.000  N
  H442     1.0000 0.21632  0.90539  0.79046  Biso   1.000  H
  N353     1.0000 0.30868  0.85178  0.70318  Biso   1.000  N
  H443     1.0000 0.28390  0.87771  0.82695  Biso   1.000  H
  H444     1.0000 0.21878  0.93889  0.76418  Biso   1.000  H
  H445     1.0000 0.29612  0.84550  0.84395  Biso   1.000  H
  N354     1.0000 0.49800  0.77081  0.71978  Biso   1.000  N
  H446     1.0000 0.51702  0.77630  0.84685  Biso   1.000  H
  H447     1.0000 0.63095  0.77676  0.79626  Biso   1.000  H
  N355     1.0000 0.49800  0.77074  0.71978  Biso   1.000  N
  N356     1.0000 0.50242  0.79700  0.70786  Biso   1.000  N
  H448     1.0000 0.64241  0.80890  0.77518  Biso   1.000  H
  H449     1.0000 0.53536  0.79739  0.83269  Biso   1.000  H
  C509     1.0000 0.55242  0.74973  0.64409  Biso   1.000  C
  C510     1.0000 0.55242  0.74966  0.64409  Biso   1.000  C
  C511     1.0000 0.55540  0.76764  0.63388  Biso   1.000  C
  O187     1.0000 0.17701  0.89452  0.62558  Biso   1.000  O
  O188     1.0000 0.17701  0.89446  0.62558  Biso   1.000  O
  O189     1.0000 0.18261  0.91172  0.60391  Biso   1.000  O
  C512     1.0000 0.38008  0.75438  0.71207  Biso   1.000  C
  C513     1.0000 0.38390  0.77921  0.70687  Biso   1.000  C
  H450     1.0000 0.33628  0.65932  0.62018  Biso   1.000  H
  H451     1.0000 0.33628  0.65938  0.62018  Biso   1.000  H
  H452     1.0000 0.34001  0.67497  0.62631  Biso   1.000  H
  O190     1.0000 0.65659  0.75593  0.63217  Biso   1.000  O
  O191     1.0000 0.65659  0.75587  0.63217  Biso   1.000  O
  O192     1.0000 0.65710  0.77779  0.61630  Biso   1.000  O
  H453     1.0000 0.35869  0.71228  0.75555  Biso   1.000  H
  H454     1.0000 0.36412  0.74235  0.75535  Biso   1.000  H
  C514     1.0000 0.61992  0.24562  0.28786  Biso   1.000  C
  N357     1.0000 0.50200  0.22919  0.28022  Biso   1.000  N
  N358     1.0000 0.50200  0.22926  0.28022  Biso   1.000  N
  N359     1.0000 0.49758  0.20300  0.29208  Biso   1.000  N
  H455     1.0000 0.64131  0.28772  0.24438  Biso   1.000  H
  C515     1.0000 0.63842  0.28158  0.38061  Biso   1.000  C
  N360     1.0000 0.69539  0.17442  0.28318  Biso   1.000  N
  C516     1.0000 0.63842  0.28164  0.38061  Biso   1.000  C
  N361     1.0000 0.69539  0.17435  0.28318  Biso   1.000  N
  C517     1.0000 0.63460  0.26644  0.38080  Biso   1.000  C
  N362     1.0000 0.69132  0.14822  0.29682  Biso   1.000  N
  H456     1.0000 0.63596  0.25765  0.24458  Biso   1.000  H
  C518     1.0000 0.44452  0.19970  0.20321  Biso   1.000  C
  C519     1.0000 0.44758  0.25027  0.35591  Biso   1.000  C
  C520     1.0000 0.44460  0.23243  0.36612  Biso   1.000  C
  C521     1.0000 0.61610  0.22085  0.29306  Biso   1.000  C
  C522     1.0000 0.43501  0.17280  0.21777  Biso   1.000  C
  N363     1.0000 0.52534  0.27459  0.41697  Biso   1.000  N
  N364     1.0000 0.52534  0.27466  0.41697  Biso   1.000  N
  N365     1.0000 0.52449  0.26392  0.42211  Biso   1.000  N
  H457     1.0000 0.66372  0.34062  0.37982  Biso   1.000  H
  N366     1.0000 0.72196  0.22622  0.41789  Biso   1.000  N
  N367     1.0000 0.71840  0.21451  0.42277  Biso   1.000  N
  H458     1.0000 0.65999  0.32497  0.37369  Biso   1.000  H
  C523     1.0000 0.75346  0.16368  0.35926  Biso   1.000  C
  C524     1.0000 0.70889  0.11932  0.20802  Biso   1.000  C
  C525     1.0000 0.75346  0.16375  0.35926  Biso   1.000  C
  C526     1.0000 0.70889  0.11925  0.20802  Biso   1.000  C
  C527     1.0000 0.75117  0.14616  0.37290  Biso   1.000  C
  C528     1.0000 0.70948  0.08912  0.22620  Biso   1.000  C
  H459     1.0000 0.48298  0.22370  0.15309  Biso   1.000  H
  N368     1.0000 0.43628  0.10929  0.18853  Biso   1.000  N
  H460     1.0000 0.36913  0.22318  0.20368  Biso   1.000  H
  N369     1.0000 0.43628  0.10936  0.18853  Biso   1.000  N
  H461     1.0000 0.36913  0.22324  0.20368  Biso   1.000  H
  H462     1.0000 0.35759  0.19110  0.22482  Biso   1.000  H
  H463     1.0000 0.46473  0.20261  0.16731  Biso   1.000  H
  O193     1.0000 0.34341  0.24407  0.36776  Biso   1.000  O
  O194     1.0000 0.34341  0.24413  0.36776  Biso   1.000  O
  O195     1.0000 0.34290  0.22221  0.38370  Biso   1.000  O
  N370     1.0000 0.43493  0.08401  0.19702  Biso   1.000  N
  C529     1.0000 0.49342  0.30997  0.49997  Biso   1.000  C
  C530     1.0000 0.49342  0.31003  0.49997  Biso   1.000  C
  C531     1.0000 0.77766  0.24012  0.49997  Biso   1.000  C
  O196     1.0000 0.82299  0.10548  0.37442  Biso   1.000  O
  O197     1.0000 0.82299  0.10554  0.37442  Biso   1.000  O
  O198     1.0000 0.81739  0.08834  0.39609  Biso   1.000  O
  N371     1.0000 0.62773  0.05051  0.19920  Biso   1.000  N
  H464     1.0000 0.78377  0.09461  0.20947  Biso   1.000  H
  H465     1.0000 0.70396  0.15450  0.15598  Biso   1.000  H
  H466     1.0000 0.71610  0.12236  0.17298  Biso   1.000  H
  H467     1.0000 0.78122  0.06111  0.23582  Biso   1.000  H
  N372     1.0000 0.62611  0.02380  0.21020  Biso   1.000  N
  N373     1.0000 0.62611  0.02386  0.21020  Biso   1.000  N
  C532     1.0000 0.52483  0.03557  0.15842  Biso   1.000  C
  C533     1.0000 0.34918  0.06137  0.22212  Biso   1.000  C
  C534     1.0000 0.52483  0.03563  0.15842  Biso   1.000  C
  C535     1.0000 0.34918  0.06144  0.22212  Biso   1.000  C
  C536     1.0000 0.34485  0.03195  0.21889  Biso   1.000  C
  C537     1.0000 0.52246  0.05588  0.15309  Biso   1.000  C
  H468     1.0000 0.41192  0.31171  0.49997  Biso   1.000  H
  H469     1.0000 0.51838  0.36907  0.49997  Biso   1.000  H
  N374     1.0000 0.52534  0.27459  0.58297  Biso   1.000  N
  H470     1.0000 0.51838  0.36914  0.49997  Biso   1.000  H
  N375     1.0000 0.52534  0.27466  0.58297  Biso   1.000  N
  N376     1.0000 0.52449  0.26392  0.57789  Biso   1.000  N
  H471     1.0000 0.80610  0.29820  0.49997  Biso   1.000  H
  H472     1.0000 0.84277  0.20281  0.49997  Biso   1.000  H
  N377     1.0000 0.72196  0.22622  0.58211  Biso   1.000  N
  N378     1.0000 0.71840  0.21451  0.57717  Biso   1.000  N
  C538     1.0000 0.65523  0.96812  0.21889  Biso   1.000  C
  C539     1.0000 0.65082  0.93863  0.22212  Biso   1.000  C
  C540     1.0000 0.65082  0.93856  0.22212  Biso   1.000  C
  C541     1.0000 0.47525  0.96437  0.15842  Biso   1.000  C
  C542     1.0000 0.47763  0.94406  0.15309  Biso   1.000  C
  H473     1.0000 0.54359  0.05769  0.10111  Biso   1.000  H
  H474     1.0000 0.54359  0.05775  0.10111  Biso   1.000  H
  H475     1.0000 0.53578  0.07191  0.09288  Biso   1.000  H
  N379     1.0000 0.37389  0.97620  0.21020  Biso   1.000  N
  N380     1.0000 0.37389  0.97614  0.21020  Biso   1.000  N
  O199     1.0000 0.26301  0.09119  0.25690  Biso   1.000  O
  O200     1.0000 0.26301  0.09125  0.25690  Biso   1.000  O
  O201     1.0000 0.25562  0.05866  0.25209  Biso   1.000  O
  N381     1.0000 0.37227  0.94949  0.19920  Biso   1.000  N
  C543     1.0000 0.44758  0.25027  0.64409  Biso   1.000  C
  C544     1.0000 0.63842  0.28158  0.61939  Biso   1.000  C
  C545     1.0000 0.63842  0.28164  0.61939  Biso   1.000  C
  C546     1.0000 0.44460  0.23243  0.63388  Biso   1.000  C
  C547     1.0000 0.63460  0.26644  0.61920  Biso   1.000  C
  C548     1.0000 0.75346  0.16368  0.64067  Biso   1.000  C
  C549     1.0000 0.75346  0.16375  0.64067  Biso   1.000  C
  C550     1.0000 0.75117  0.14616  0.62710  Biso   1.000  C
  N382     1.0000 0.56372  0.89071  0.18853  Biso   1.000  N
  N383     1.0000 0.56372  0.89064  0.18853  Biso   1.000  N
  N384     1.0000 0.56516  0.91599  0.19702  Biso   1.000  N
  O202     1.0000 0.73699  0.90881  0.25690  Biso   1.000  O
  O203     1.0000 0.73699  0.90875  0.25690  Biso   1.000  O
  O204     1.0000 0.74446  0.94134  0.25209  Biso   1.000  O
  H476     1.0000 0.45641  0.94231  0.10111  Biso   1.000  H
  H477     1.0000 0.45641  0.94225  0.10111  Biso   1.000  H
  H478     1.0000 0.46422  0.92809  0.09288  Biso   1.000  H
  C551     1.0000 0.29052  0.91088  0.22620  Biso   1.000  C
  C552     1.0000 0.29111  0.88062  0.20802  Biso   1.000  C
  C553     1.0000 0.29111  0.88068  0.20802  Biso   1.000  C
  N385     1.0000 0.50200  0.22919  0.71978  Biso   1.000  N
  O205     1.0000 0.34341  0.24407  0.63217  Biso   1.000  O
  N386     1.0000 0.50200  0.22926  0.71978  Biso   1.000  N
  O206     1.0000 0.34341  0.24413  0.63217  Biso   1.000  O
  O207     1.0000 0.34290  0.22221  0.61630  Biso   1.000  O
  N387     1.0000 0.49758  0.20300  0.70786  Biso   1.000  N
  H479     1.0000 0.66372  0.34062  0.62018  Biso   1.000  H
  C554     1.0000 0.61992  0.24562  0.71207  Biso   1.000  C
  H480     1.0000 0.65999  0.32497  0.62631  Biso   1.000  H
  C555     1.0000 0.61610  0.22085  0.70687  Biso   1.000  C
  N388     1.0000 0.69539  0.17442  0.71675  Biso   1.000  N
  N389     1.0000 0.69539  0.17435  0.71675  Biso   1.000  N
  N390     1.0000 0.69132  0.14822  0.70318  Biso   1.000  N
  O208     1.0000 0.82299  0.10548  0.62558  Biso   1.000  O
  O209     1.0000 0.82299  0.10554  0.62558  Biso   1.000  O
  O210     1.0000 0.81739  0.08834  0.60391  Biso   1.000  O
  C556     1.0000 0.55548  0.80030  0.20321  Biso   1.000  C
  C557     1.0000 0.56499  0.82720  0.21777  Biso   1.000  C
  N391     1.0000 0.30461  0.82558  0.28318  Biso   1.000  N
  H481     1.0000 0.21632  0.90539  0.20947  Biso   1.000  H
  N392     1.0000 0.30868  0.85178  0.29682  Biso   1.000  N
  H482     1.0000 0.28390  0.87771  0.17298  Biso   1.000  H
  H483     1.0000 0.21878  0.93889  0.23582  Biso   1.000  H
  H484     1.0000 0.29612  0.84550  0.15598  Biso   1.000  H
  C558     1.0000 0.44452  0.19970  0.79679  Biso   1.000  C
  C559     1.0000 0.43501  0.17280  0.78216  Biso   1.000  C
  H485     1.0000 0.64131  0.28772  0.75555  Biso   1.000  H
  H486     1.0000 0.63596  0.25765  0.75535  Biso   1.000  H
  C560     1.0000 0.70889  0.11932  0.79198  Biso   1.000  C
  C561     1.0000 0.70889  0.11925  0.79198  Biso   1.000  C
  C562     1.0000 0.70948  0.08912  0.77380  Biso   1.000  C
  N393     1.0000 0.49800  0.77081  0.28022  Biso   1.000  N
  H487     1.0000 0.51702  0.77630  0.15309  Biso   1.000  H
  H488     1.0000 0.63095  0.77676  0.20368  Biso   1.000  H
  N394     1.0000 0.49800  0.77074  0.28022  Biso   1.000  N
  H489     1.0000 0.64241  0.80890  0.22482  Biso   1.000  H
  H490     1.0000 0.53536  0.79739  0.16731  Biso   1.000  H
  N395     1.0000 0.50242  0.79700  0.29208  Biso   1.000  N
  C563     1.0000 0.38008  0.75438  0.28786  Biso   1.000  C
  C564     1.0000 0.24663  0.83632  0.35926  Biso   1.000  C
  C565     1.0000 0.24663  0.83625  0.35926  Biso   1.000  C
  C566     1.0000 0.24892  0.85391  0.37290  Biso   1.000  C
  C567     1.0000 0.38390  0.77921  0.29306  Biso   1.000  C
  H491     1.0000 0.48298  0.22370  0.84685  Biso   1.000  H
  N396     1.0000 0.43628  0.10929  0.81147  Biso   1.000  N
  H492     1.0000 0.36913  0.22318  0.79626  Biso   1.000  H
  N397     1.0000 0.43628  0.10936  0.81147  Biso   1.000  N
  H493     1.0000 0.36913  0.22324  0.79626  Biso   1.000  H
  H494     1.0000 0.35759  0.19110  0.77518  Biso   1.000  H
  H495     1.0000 0.46473  0.20261  0.83269  Biso   1.000  H
  N398     1.0000 0.43493  0.08401  0.80298  Biso   1.000  N
  H496     1.0000 0.78377  0.09461  0.79046  Biso   1.000  H
  H497     1.0000 0.70396  0.15450  0.84395  Biso   1.000  H
  N399     1.0000 0.62773  0.05051  0.80080  Biso   1.000  N
  H498     1.0000 0.71610  0.12236  0.82695  Biso   1.000  H
  H499     1.0000 0.78122  0.06111  0.76418  Biso   1.000  H
  N400     1.0000 0.62611  0.02380  0.78980  Biso   1.000  N
  N401     1.0000 0.62611  0.02386  0.78980  Biso   1.000  N
  C568     1.0000 0.55242  0.74973  0.35591  Biso   1.000  C
  C569     1.0000 0.55242  0.74966  0.35591  Biso   1.000  C
  C570     1.0000 0.55540  0.76764  0.36612  Biso   1.000  C
  C571     1.0000 0.36158  0.71836  0.38061  Biso   1.000  C
  H500     1.0000 0.35869  0.71228  0.24438  Biso   1.000  H
  C572     1.0000 0.36540  0.73362  0.38080  Biso   1.000  C
  H501     1.0000 0.36412  0.74235  0.24458  Biso   1.000  H
  N402     1.0000 0.27812  0.77378  0.41789  Biso   1.000  N
  O211     1.0000 0.17701  0.89452  0.37442  Biso   1.000  O
  O212     1.0000 0.17701  0.89446  0.37442  Biso   1.000  O
  O213     1.0000 0.18261  0.91172  0.39609  Biso   1.000  O
  N403     1.0000 0.28160  0.78549  0.42277  Biso   1.000  N
  C573     1.0000 0.52483  0.03557  0.84158  Biso   1.000  C
  C574     1.0000 0.34918  0.06137  0.77788  Biso   1.000  C
  C575     1.0000 0.52483  0.03563  0.84158  Biso   1.000  C
  C576     1.0000 0.34918  0.06144  0.77788  Biso   1.000  C
  C577     1.0000 0.52246  0.05588  0.84685  Biso   1.000  C
  C578     1.0000 0.34485  0.03195  0.78111  Biso   1.000  C
  C579     1.0000 0.65523  0.96812  0.78111  Biso   1.000  C
  C580     1.0000 0.65082  0.93863  0.77788  Biso   1.000  C
  C581     1.0000 0.65082  0.93856  0.77788  Biso   1.000  C
  N404     1.0000 0.47474  0.72534  0.41697  Biso   1.000  N
  O214     1.0000 0.65659  0.75593  0.36776  Biso   1.000  O
  O215     1.0000 0.65659  0.75587  0.36776  Biso   1.000  O
  N405     1.0000 0.47551  0.73608  0.42211  Biso   1.000  N
  O216     1.0000 0.65710  0.77779  0.38370  Biso   1.000  O
  H502     1.0000 0.33628  0.65932  0.37982  Biso   1.000  H
  H503     1.0000 0.33628  0.65938  0.37982  Biso   1.000  H
  H504     1.0000 0.34001  0.67497  0.37369  Biso   1.000  H
  C582     1.0000 0.22243  0.75981  0.49997  Biso   1.000  C
  C583     1.0000 0.22243  0.75988  0.49997  Biso   1.000  C
  C584     1.0000 0.47525  0.96437  0.84158  Biso   1.000  C
  C585     1.0000 0.47763  0.94406  0.84685  Biso   1.000  C
  H505     1.0000 0.54359  0.05769  0.89889  Biso   1.000  H
  H506     1.0000 0.54359  0.05775  0.89889  Biso   1.000  H
  H507     1.0000 0.53578  0.07191  0.90705  Biso   1.000  H
  N406     1.0000 0.37389  0.97620  0.78980  Biso   1.000  N
  N407     1.0000 0.37389  0.97614  0.78980  Biso   1.000  N
  O217     1.0000 0.26301  0.09119  0.74310  Biso   1.000  O
  O218     1.0000 0.26301  0.09125  0.74310  Biso   1.000  O
  O219     1.0000 0.25562  0.05866  0.74791  Biso   1.000  O
  N408     1.0000 0.37227  0.94949  0.80080  Biso   1.000  N
  N409     1.0000 0.56372  0.89071  0.81147  Biso   1.000  N
  N410     1.0000 0.56372  0.89064  0.81147  Biso   1.000  N
  N411     1.0000 0.56516  0.91599  0.80298  Biso   1.000  N
  O220     1.0000 0.73699  0.90881  0.74310  Biso   1.000  O
  O221     1.0000 0.73699  0.90875  0.74310  Biso   1.000  O
  O222     1.0000 0.74446  0.94134  0.74791  Biso   1.000  O
  C586     1.0000 0.50658  0.69003  0.49997  Biso   1.000  C
  C587     1.0000 0.50658  0.68997  0.49997  Biso   1.000  C
  H508     1.0000 0.19390  0.70180  0.49997  Biso   1.000  H
  H509     1.0000 0.15731  0.79719  0.49997  Biso   1.000  H
  N412     1.0000 0.27812  0.77378  0.58211  Biso   1.000  N
  N413     1.0000 0.28160  0.78549  0.57717  Biso   1.000  N
  H510     1.0000 0.45641  0.94231  0.89889  Biso   1.000  H
  H511     1.0000 0.45641  0.94225  0.89889  Biso   1.000  H
  H512     1.0000 0.46422  0.92809  0.90705  Biso   1.000  H
  C588     1.0000 0.29052  0.91088  0.77380  Biso   1.000  C
  C589     1.0000 0.29111  0.88062  0.79198  Biso   1.000  C
  C590     1.0000 0.29111  0.88068  0.79198  Biso   1.000  C
  C591     1.0000 0.55548  0.80030  0.79679  Biso   1.000  C
  C592     1.0000 0.56499  0.82720  0.78216  Biso   1.000  C
  H513     1.0000 0.58808  0.68829  0.49997  Biso   1.000  H
  H514     1.0000 0.48162  0.63093  0.49997  Biso   1.000  H
  N414     1.0000 0.47474  0.72534  0.58297  Biso   1.000  N
  H515     1.0000 0.48162  0.63086  0.49997  Biso   1.000  H
  N415     1.0000 0.47551  0.73608  0.57789  Biso   1.000  N
  C593     1.0000 0.36158  0.71836  0.61939  Biso   1.000  C
  C594     1.0000 0.24663  0.83632  0.64067  Biso   1.000  C
  C595     1.0000 0.24663  0.83625  0.64067  Biso   1.000  C
  C596     1.0000 0.24892  0.85391  0.62710  Biso   1.000  C
  C597     1.0000 0.36540  0.73362  0.61920  Biso   1.000  C
  N416     1.0000 0.30461  0.82558  0.71675  Biso   1.000  N
  N417     1.0000 0.30868  0.85178  0.70318  Biso   1.000  N
  H516     1.0000 0.21632  0.90539  0.79046  Biso   1.000  H
  H517     1.0000 0.28390  0.87771  0.82695  Biso   1.000  H
  H518     1.0000 0.21878  0.93889  0.76418  Biso   1.000  H
  H519     1.0000 0.29612  0.84550  0.84395  Biso   1.000  H
  N418     1.0000 0.49800  0.77081  0.71978  Biso   1.000  N
  N419     1.0000 0.49800  0.77074  0.71978  Biso   1.000  N
  N420     1.0000 0.50242  0.79700  0.70786  Biso   1.000  N
  H520     1.0000 0.51702  0.77630  0.84685  Biso   1.000  H
  H521     1.0000 0.63095  0.77676  0.79626  Biso   1.000  H
  H522     1.0000 0.64241  0.80890  0.77518  Biso   1.000  H
  H523     1.0000 0.53536  0.79739  0.83269  Biso   1.000  H
  C598     1.0000 0.55242  0.74973  0.64409  Biso   1.000  C
  C599     1.0000 0.55242  0.74966  0.64409  Biso   1.000  C
  C600     1.0000 0.55540  0.76764  0.63388  Biso   1.000  C
  H524     1.0000 0.33628  0.65932  0.62018  Biso   1.000  H
  C601     1.0000 0.38008  0.75438  0.71207  Biso   1.000  C
  H525     1.0000 0.33628  0.65938  0.62018  Biso   1.000  H
  C602     1.0000 0.38390  0.77921  0.70687  Biso   1.000  C
  H526     1.0000 0.34001  0.67497  0.62631  Biso   1.000  H
  O223     1.0000 0.17701  0.89452  0.62558  Biso   1.000  O
  O224     1.0000 0.17701  0.89446  0.62558  Biso   1.000  O
  O225     1.0000 0.18261  0.91172  0.60391  Biso   1.000  O
  O226     1.0000 0.65659  0.75593  0.63217  Biso   1.000  O
  O227     1.0000 0.65659  0.75587  0.63217  Biso   1.000  O
  O228     1.0000 0.65710  0.77779  0.61630  Biso   1.000  O
  H527     1.0000 0.35869  0.71228  0.75555  Biso   1.000  H
  H528     1.0000 0.36412  0.74235  0.75535  Biso   1.000  H
