data_image0
_cell_length_a       12.687
_cell_length_b       15.945
_cell_length_c       35.622
_cell_angle_alpha    86.38
_cell_angle_beta     88.63
_cell_angle_gamma    67.12

_symmetry_space_group_name_H-M    "P 1"
_symmetry_int_tables_number       1

loop_
  _symmetry_equiv_pos_as_xyz
  'x, y, z'

loop_
  _atom_site_label
  _atom_site_occupancy
  _atom_site_fract_x
  _atom_site_fract_y
  _atom_site_fract_z
  _atom_site_thermal_displace_type
  _atom_site_B_iso_or_equiv
  _atom_site_type_symbol
  O1       1.0000 0.09543  0.82716  0.39369  Biso   1.000  O
  C1       1.0000 0.17340  0.79693  0.41630  Biso   1.000  C
  C2       1.0000 0.17332  0.79693  0.41630  Biso   1.000  C
  N1       1.0000 0.18697  0.72977  0.44350  Biso   1.000  N
  N2       1.0000 0.18689  0.72977  0.44350  Biso   1.000  N
  N3       1.0000 0.26174  0.82394  0.41839  Biso   1.000  N
  C3       1.0000 0.10788  0.68437  0.44930  Biso   1.000  C
  C4       1.0000 0.10780  0.68437  0.44930  Biso   1.000  C
  C5       1.0000 0.29247  0.70655  0.46519  Biso   1.000  C
  C6       1.0000 0.29239  0.70655  0.46519  Biso   1.000  C
  C7       1.0000 0.34805  0.76848  0.44511  Biso   1.000  C
  C8       1.0000 0.34797  0.76848  0.44511  Biso   1.000  C
  C9       1.0000 0.28422  0.88677  0.39051  Biso   1.000  C
  N4       1.0000 0.03586  0.71177  0.48311  Biso   1.000  N
  N5       1.0000 0.03578  0.71177  0.48311  Biso   1.000  N
  H1       1.0000 0.05779  0.69815  0.42699  Biso   1.000  H
  H2       1.0000 0.15206  0.61769  0.45149  Biso   1.000  H
  H3       1.0000 0.05771  0.69815  0.42699  Biso   1.000  H
  H4       1.0000 0.15198  0.61769  0.45149  Biso   1.000  H
  N6       1.0000 0.27774  0.73046  0.50350  Biso   1.000  N
  H5       1.0000 0.34302  0.64078  0.46339  Biso   1.000  H
  H6       1.0000 0.42198  0.73248  0.43259  Biso   1.000  H
  N7       1.0000 0.36378  0.81707  0.47599  Biso   1.000  N
  H7       1.0000 0.42190  0.73248  0.43259  Biso   1.000  H
  N8       1.0000 0.36370  0.81707  0.47599  Biso   1.000  N
  H8       1.0000 0.23587  0.89491  0.36809  Biso   1.000  H
  H9       1.0000 0.36529  0.85925  0.38249  Biso   1.000  H
  N9       1.0000 0.26197  0.97536  0.40469  Biso   1.000  N
  H10      1.0000 0.36521  0.85925  0.38249  Biso   1.000  H
  N10      1.0000 0.26189  0.97536  0.40469  Biso   1.000  N
  C10      1.0000 0.91772  0.75607  0.47748  Biso   1.000  C
  C11      1.0000 0.06686  0.66415  0.51940  Biso   1.000  C
  C12      1.0000 0.25788  0.67316  0.53321  Biso   1.000  C
  C13      1.0000 0.25780  0.67316  0.53321  Biso   1.000  C
  C14      1.0000 0.33437  0.78635  0.51070  Biso   1.000  C
  C15      1.0000 0.43584  0.86946  0.47470  Biso   1.000  C
  C16      1.0000 0.34913  0.99467  0.42171  Biso   1.000  C
  C17      1.0000 0.17881  0.05235  0.39029  Biso   1.000  C
  C18      1.0000 0.17873  0.05235  0.39029  Biso   1.000  C
  O2       1.0000 0.87066  0.79245  0.44989  Biso   1.000  O
  N11      1.0000 0.87037  0.75208  0.51329  Biso   1.000  N
  N12      1.0000 0.87029  0.75208  0.51329  Biso   1.000  N
  C19      1.0000 0.95232  0.69868  0.54190  Biso   1.000  C
  H11      1.0000 0.09955  0.59651  0.51779  Biso   1.000  H
  N13      1.0000 0.13835  0.69502  0.54131  Biso   1.000  N
  H12      1.0000 0.09950  0.59645  0.51779  Biso   1.000  H
  N14      1.0000 0.13831  0.69495  0.54131  Biso   1.000  N
  H13      1.0000 0.29356  0.60899  0.52629  Biso   1.000  H
  H14      1.0000 0.29599  0.67858  0.55639  Biso   1.000  H
  H15      1.0000 0.29348  0.60899  0.52629  Biso   1.000  H
  H16      1.0000 0.29592  0.67858  0.55639  Biso   1.000  H
  O3       1.0000 0.34828  0.80789  0.54120  Biso   1.000  O
  O4       1.0000 0.34820  0.80789  0.54120  Biso   1.000  O
  H17      1.0000 0.46601  0.86810  0.50018  Biso   1.000  H
  H18      1.0000 0.50169  0.84073  0.45791  Biso   1.000  H
  N15      1.0000 0.37290  0.96463  0.46120  Biso   1.000  N
  H19      1.0000 0.50161  0.84073  0.45791  Biso   1.000  H
  N16      1.0000 0.37282  0.96463  0.46120  Biso   1.000  N
  H20      1.0000 0.42074  0.97445  0.40629  Biso   1.000  H
  C20      1.0000 0.29427  0.10165  0.42379  Biso   1.000  C
  N17      1.0000 0.18997  0.12552  0.40429  Biso   1.000  N
  O5       1.0000 0.10372  0.05581  0.36829  Biso   1.000  O
  O6       1.0000 0.10364  0.05581  0.36829  Biso   1.000  O
  C21      1.0000 0.74777  0.79865  0.51999  Biso   1.000  C
  H21      1.0000 0.93363  0.64699  0.55309  Biso   1.000  H
  N18      1.0000 0.97127  0.75118  0.57008  Biso   1.000  N
  N19      1.0000 0.97120  0.75118  0.57008  Biso   1.000  N
  C22      1.0000 0.08343  0.74160  0.57188  Biso   1.000  C
  C23      1.0000 0.33668  0.03533  0.48491  Biso   1.000  C
  H22      1.0000 0.34386  0.13123  0.41149  Biso   1.000  H
  N20      1.0000 0.28334  0.11367  0.46390  Biso   1.000  N
  C24      1.0000 0.10436  0.21825  0.39740  Biso   1.000  C
  H23      1.0000 0.70668  0.80766  0.49580  Biso   1.000  H
  H24      1.0000 0.72199  0.75906  0.53709  Biso   1.000  H
  N21      1.0000 0.71661  0.88649  0.53610  Biso   1.000  N
  H25      1.0000 0.70661  0.80766  0.49580  Biso   1.000  H
  H26      1.0000 0.72191  0.75906  0.53709  Biso   1.000  H
  C25      1.0000 0.89567  0.78190  0.60260  Biso   1.000  C
  C26      1.0000 0.89559  0.78190  0.60260  Biso   1.000  C
  O7       1.0000 0.12422  0.77190  0.59489  Biso   1.000  O
  O8       1.0000 0.34997  0.02678  0.51838  Biso   1.000  O
  C27      1.0000 0.25230  0.20144  0.47999  Biso   1.000  C
  C28      1.0000 0.25222  0.20144  0.47999  Biso   1.000  C
  H27      1.0000 0.05775  0.22024  0.37521  Biso   1.000  H
  H28      1.0000 0.14371  0.26045  0.39169  Biso   1.000  H
  N22      1.0000 0.02876  0.24898  0.42989  Biso   1.000  N
  H29      1.0000 0.14364  0.26045  0.39169  Biso   1.000  H
  N23      1.0000 0.02879  0.24891  0.42989  Biso   1.000  N
  C29      1.0000 0.66338  0.96475  0.51509  Biso   1.000  C
  C30      1.0000 0.70576  0.89851  0.57619  Biso   1.000  C
  C31      1.0000 0.66331  0.96475  0.51509  Biso   1.000  C
  C32      1.0000 0.70568  0.89851  0.57619  Biso   1.000  C
  N24      1.0000 0.81010  0.87457  0.59571  Biso   1.000  N
  N25      1.0000 0.81002  0.87457  0.59571  Biso   1.000  N
  H30      1.0000 0.94221  0.77991  0.62479  Biso   1.000  H
  H31      1.0000 0.85632  0.73971  0.60831  Biso   1.000  H
  N26      1.0000 0.12967  0.24807  0.48671  Biso   1.000  N
  H32      1.0000 0.29338  0.19243  0.50421  Biso   1.000  H
  H33      1.0000 0.27808  0.24103  0.46289  Biso   1.000  H
  C33      1.0000 0.91661  0.25856  0.42809  Biso   1.000  C
  C34      1.0000 0.91653  0.25856  0.42809  Biso   1.000  C
  C35      1.0000 0.04764  0.30148  0.45810  Biso   1.000  C
  C36      1.0000 0.04767  0.30141  0.45810  Biso   1.000  C
  O9       1.0000 0.65007  0.97338  0.48159  Biso   1.000  O
  O10      1.0000 0.64999  0.97338  0.48159  Biso   1.000  O
  N27      1.0000 0.62717  0.03546  0.53880  Biso   1.000  N
  H34      1.0000 0.65621  0.86885  0.58851  Biso   1.000  H
  H35      1.0000 0.65613  0.86885  0.58851  Biso   1.000  H
  C37      1.0000 0.65090  0.00549  0.57830  Biso   1.000  C
  C38      1.0000 0.65082  0.00549  0.57830  Biso   1.000  C
  C39      1.0000 0.82122  0.94781  0.60969  Biso   1.000  C
  C40      1.0000 0.08224  0.24409  0.52249  Biso   1.000  C
  C41      1.0000 0.08227  0.24402  0.52249  Biso   1.000  C
  N28      1.0000 0.86168  0.30514  0.45869  Biso   1.000  N
  O11      1.0000 0.87581  0.22826  0.40511  Biso   1.000  O
  O12      1.0000 0.87574  0.22826  0.40511  Biso   1.000  O
  C42      1.0000 0.93321  0.33593  0.48061  Biso   1.000  C
  C43      1.0000 0.93313  0.33593  0.48061  Biso   1.000  C
  H36      1.0000 0.06641  0.35317  0.44691  Biso   1.000  H
  H37      1.0000 0.06633  0.35317  0.44691  Biso   1.000  H
  C44      1.0000 0.56419  0.13069  0.52530  Biso   1.000  C
  C45      1.0000 0.56415  0.13063  0.52530  Biso   1.000  C
  H38      1.0000 0.57930  0.02570  0.59368  Biso   1.000  H
  N29      1.0000 0.73806  0.02480  0.59529  Biso   1.000  N
  H39      1.0000 0.57922  0.02570  0.59368  Biso   1.000  H
  O13      1.0000 0.89635  0.94428  0.63169  Biso   1.000  O
  N30      1.0000 0.96418  0.28838  0.51689  Biso   1.000  N
  O14      1.0000 0.12941  0.20764  0.55008  Biso   1.000  O
  O15      1.0000 0.12933  0.20764  0.55008  Biso   1.000  O
  C46      1.0000 0.74219  0.32693  0.46680  Biso   1.000  C
  H40      1.0000 0.90049  0.40364  0.48221  Biso   1.000  H
  H41      1.0000 0.53395  0.13206  0.49979  Biso   1.000  H
  H42      1.0000 0.49838  0.15936  0.54210  Biso   1.000  H
  N31      1.0000 0.63626  0.18309  0.52401  Biso   1.000  N
  N32      1.0000 0.63629  0.18302  0.52401  Biso   1.000  N
  C47      1.0000 0.71581  0.11339  0.60949  Biso   1.000  C
  C48      1.0000 0.71573  0.11339  0.60949  Biso   1.000  C
  C49      1.0000 0.89216  0.31579  0.55070  Biso   1.000  C
  N33      1.0000 0.72233  0.26963  0.49650  Biso   1.000  N
  N34      1.0000 0.72225  0.26963  0.49650  Biso   1.000  N
  H43      1.0000 0.70648  0.39117  0.47369  Biso   1.000  H
  H44      1.0000 0.70404  0.32157  0.44359  Biso   1.000  H
  H45      1.0000 0.70407  0.32151  0.44359  Biso   1.000  H
  C50      1.0000 0.65198  0.23167  0.55489  Biso   1.000  C
  C51      1.0000 0.66570  0.21374  0.48930  Biso   1.000  C
  C52      1.0000 0.66562  0.21374  0.48930  Biso   1.000  C
  H46      1.0000 0.76420  0.10517  0.63191  Biso   1.000  H
  H47      1.0000 0.63475  0.14091  0.61751  Biso   1.000  H
  N35      1.0000 0.73833  0.17615  0.58159  Biso   1.000  N
  H48      1.0000 0.76412  0.10517  0.63191  Biso   1.000  H
  H49      1.0000 0.63478  0.14084  0.61751  Biso   1.000  H
  N36      1.0000 0.73825  0.17615  0.58159  Biso   1.000  N
  N37      1.0000 0.81307  0.27038  0.55650  Biso   1.000  N
  H50      1.0000 0.94228  0.30194  0.57301  Biso   1.000  H
  H51      1.0000 0.84798  0.38247  0.54851  Biso   1.000  H
  C53      1.0000 0.70760  0.29354  0.53481  Biso   1.000  C
  H52      1.0000 0.57806  0.26768  0.56738  Biso   1.000  H
  O16      1.0000 0.65176  0.19226  0.45881  Biso   1.000  O
  C54      1.0000 0.82667  0.20315  0.58370  Biso   1.000  C
  H53      1.0000 0.65702  0.35938  0.53661  Biso   1.000  H
  H54      1.0000 0.65694  0.35938  0.53661  Biso   1.000  H
  O17      1.0000 0.90460  0.17299  0.60631  Biso   1.000  O
  O18      1.0000 0.90453  0.17299  0.60631  Biso   1.000  O
  O19      1.0000 0.09543  0.82716  0.39369  Biso   1.000  O
  C55      1.0000 0.17340  0.79693  0.41630  Biso   1.000  C
  C56      1.0000 0.17332  0.79693  0.41630  Biso   1.000  C
  N38      1.0000 0.18697  0.72977  0.44350  Biso   1.000  N
  N39      1.0000 0.18689  0.72977  0.44350  Biso   1.000  N
  N40      1.0000 0.26174  0.82394  0.41839  Biso   1.000  N
  C57      1.0000 0.10788  0.68437  0.44930  Biso   1.000  C
  C58      1.0000 0.10780  0.68437  0.44930  Biso   1.000  C
  C59      1.0000 0.29247  0.70655  0.46519  Biso   1.000  C
  C60      1.0000 0.29239  0.70655  0.46519  Biso   1.000  C
  C61      1.0000 0.34805  0.76848  0.44511  Biso   1.000  C
  C62      1.0000 0.34797  0.76848  0.44511  Biso   1.000  C
  C63      1.0000 0.28422  0.88677  0.39051  Biso   1.000  C
  N41      1.0000 0.03586  0.71177  0.48311  Biso   1.000  N
  N42      1.0000 0.03578  0.71177  0.48311  Biso   1.000  N
  H55      1.0000 0.05779  0.69815  0.42699  Biso   1.000  H
  H56      1.0000 0.15206  0.61769  0.45149  Biso   1.000  H
  H57      1.0000 0.05771  0.69815  0.42699  Biso   1.000  H
  H58      1.0000 0.15198  0.61769  0.45149  Biso   1.000  H
  N43      1.0000 0.27774  0.73046  0.50350  Biso   1.000  N
  H59      1.0000 0.34302  0.64078  0.46339  Biso   1.000  H
  H60      1.0000 0.42198  0.73248  0.43259  Biso   1.000  H
  N44      1.0000 0.36378  0.81707  0.47599  Biso   1.000  N
  H61      1.0000 0.42190  0.73248  0.43259  Biso   1.000  H
  N45      1.0000 0.36370  0.81707  0.47599  Biso   1.000  N
  H62      1.0000 0.23587  0.89491  0.36809  Biso   1.000  H
  H63      1.0000 0.36529  0.85925  0.38249  Biso   1.000  H
  N46      1.0000 0.26197  0.97536  0.40469  Biso   1.000  N
  H64      1.0000 0.36521  0.85925  0.38249  Biso   1.000  H
  N47      1.0000 0.26189  0.97536  0.40469  Biso   1.000  N
  C64      1.0000 0.91772  0.75607  0.47748  Biso   1.000  C
  C65      1.0000 0.06686  0.66415  0.51940  Biso   1.000  C
  C66      1.0000 0.25788  0.67316  0.53321  Biso   1.000  C
  C67      1.0000 0.25780  0.67316  0.53321  Biso   1.000  C
  C68      1.0000 0.33437  0.78635  0.51070  Biso   1.000  C
  C69      1.0000 0.43584  0.86946  0.47470  Biso   1.000  C
  C70      1.0000 0.34913  0.99467  0.42171  Biso   1.000  C
  C71      1.0000 0.17881  0.05235  0.39029  Biso   1.000  C
  C72      1.0000 0.17873  0.05235  0.39029  Biso   1.000  C
  O20      1.0000 0.87066  0.79245  0.44989  Biso   1.000  O
  N48      1.0000 0.87037  0.75208  0.51329  Biso   1.000  N
  N49      1.0000 0.87029  0.75208  0.51329  Biso   1.000  N
  C73      1.0000 0.95232  0.69868  0.54190  Biso   1.000  C
  H65      1.0000 0.09955  0.59651  0.51779  Biso   1.000  H
  N50      1.0000 0.13835  0.69502  0.54131  Biso   1.000  N
  H66      1.0000 0.09950  0.59645  0.51779  Biso   1.000  H
  N51      1.0000 0.13831  0.69495  0.54131  Biso   1.000  N
  H67      1.0000 0.29356  0.60899  0.52629  Biso   1.000  H
  H68      1.0000 0.29599  0.67858  0.55639  Biso   1.000  H
  H69      1.0000 0.29348  0.60899  0.52629  Biso   1.000  H
  H70      1.0000 0.29592  0.67858  0.55639  Biso   1.000  H
  O21      1.0000 0.34828  0.80789  0.54120  Biso   1.000  O
  O22      1.0000 0.34820  0.80789  0.54120  Biso   1.000  O
  H71      1.0000 0.46601  0.86810  0.50018  Biso   1.000  H
  H72      1.0000 0.50169  0.84073  0.45791  Biso   1.000  H
  N52      1.0000 0.37290  0.96463  0.46120  Biso   1.000  N
  H73      1.0000 0.50161  0.84073  0.45791  Biso   1.000  H
  N53      1.0000 0.37282  0.96463  0.46120  Biso   1.000  N
  H74      1.0000 0.42074  0.97445  0.40629  Biso   1.000  H
  C74      1.0000 0.29427  0.10165  0.42379  Biso   1.000  C
  N54      1.0000 0.18997  0.12552  0.40429  Biso   1.000  N
  O23      1.0000 0.10372  0.05581  0.36829  Biso   1.000  O
  O24      1.0000 0.10364  0.05581  0.36829  Biso   1.000  O
  C75      1.0000 0.74777  0.79865  0.51999  Biso   1.000  C
  H75      1.0000 0.93363  0.64699  0.55309  Biso   1.000  H
  N55      1.0000 0.97127  0.75118  0.57008  Biso   1.000  N
  N56      1.0000 0.97120  0.75118  0.57008  Biso   1.000  N
  C76      1.0000 0.08343  0.74160  0.57188  Biso   1.000  C
  C77      1.0000 0.33668  0.03533  0.48491  Biso   1.000  C
  H76      1.0000 0.34386  0.13123  0.41149  Biso   1.000  H
  N57      1.0000 0.28334  0.11367  0.46390  Biso   1.000  N
  C78      1.0000 0.10436  0.21825  0.39740  Biso   1.000  C
  N58      1.0000 0.71661  0.88649  0.53610  Biso   1.000  N
  H77      1.0000 0.70668  0.80766  0.49580  Biso   1.000  H
  H78      1.0000 0.72199  0.75906  0.53709  Biso   1.000  H
  H79      1.0000 0.70661  0.80766  0.49580  Biso   1.000  H
  H80      1.0000 0.72191  0.75906  0.53709  Biso   1.000  H
  C79      1.0000 0.89567  0.78190  0.60260  Biso   1.000  C
  C80      1.0000 0.89559  0.78190  0.60260  Biso   1.000  C
  O25      1.0000 0.12422  0.77190  0.59489  Biso   1.000  O
  O26      1.0000 0.34997  0.02678  0.51838  Biso   1.000  O
  C81      1.0000 0.25230  0.20144  0.47999  Biso   1.000  C
  C82      1.0000 0.25222  0.20144  0.47999  Biso   1.000  C
  H81      1.0000 0.05775  0.22024  0.37521  Biso   1.000  H
  H82      1.0000 0.14371  0.26045  0.39169  Biso   1.000  H
  N59      1.0000 0.02876  0.24898  0.42989  Biso   1.000  N
  H83      1.0000 0.14364  0.26045  0.39169  Biso   1.000  H
  N60      1.0000 0.02879  0.24891  0.42989  Biso   1.000  N
  C83      1.0000 0.66338  0.96475  0.51509  Biso   1.000  C
  C84      1.0000 0.70576  0.89851  0.57619  Biso   1.000  C
  C85      1.0000 0.66331  0.96475  0.51509  Biso   1.000  C
  C86      1.0000 0.70568  0.89851  0.57619  Biso   1.000  C
  N61      1.0000 0.81010  0.87457  0.59571  Biso   1.000  N
  N62      1.0000 0.81002  0.87457  0.59571  Biso   1.000  N
  H84      1.0000 0.94221  0.77991  0.62479  Biso   1.000  H
  H85      1.0000 0.85632  0.73971  0.60831  Biso   1.000  H
  N63      1.0000 0.12967  0.24807  0.48671  Biso   1.000  N
  H86      1.0000 0.29338  0.19243  0.50421  Biso   1.000  H
  H87      1.0000 0.27808  0.24103  0.46289  Biso   1.000  H
  C87      1.0000 0.91661  0.25856  0.42809  Biso   1.000  C
  C88      1.0000 0.91653  0.25856  0.42809  Biso   1.000  C
  C89      1.0000 0.04764  0.30148  0.45810  Biso   1.000  C
  C90      1.0000 0.04767  0.30141  0.45810  Biso   1.000  C
  O27      1.0000 0.65007  0.97338  0.48159  Biso   1.000  O
  O28      1.0000 0.64999  0.97338  0.48159  Biso   1.000  O
  N64      1.0000 0.62717  0.03546  0.53880  Biso   1.000  N
  H88      1.0000 0.65621  0.86885  0.58851  Biso   1.000  H
  H89      1.0000 0.65613  0.86885  0.58851  Biso   1.000  H
  C91      1.0000 0.65090  0.00549  0.57830  Biso   1.000  C
  C92      1.0000 0.65082  0.00549  0.57830  Biso   1.000  C
  C93      1.0000 0.82122  0.94781  0.60969  Biso   1.000  C
  C94      1.0000 0.08224  0.24409  0.52249  Biso   1.000  C
  C95      1.0000 0.08227  0.24402  0.52249  Biso   1.000  C
  N65      1.0000 0.86168  0.30514  0.45869  Biso   1.000  N
  O29      1.0000 0.87581  0.22826  0.40511  Biso   1.000  O
  O30      1.0000 0.87574  0.22826  0.40511  Biso   1.000  O
  C96      1.0000 0.93321  0.33593  0.48061  Biso   1.000  C
  C97      1.0000 0.93313  0.33593  0.48061  Biso   1.000  C
  H90      1.0000 0.06641  0.35317  0.44691  Biso   1.000  H
  H91      1.0000 0.06633  0.35317  0.44691  Biso   1.000  H
  C98      1.0000 0.56419  0.13069  0.52530  Biso   1.000  C
  C99      1.0000 0.56415  0.13063  0.52530  Biso   1.000  C
  H92      1.0000 0.57930  0.02570  0.59368  Biso   1.000  H
  N66      1.0000 0.73806  0.02480  0.59529  Biso   1.000  N
  H93      1.0000 0.57922  0.02570  0.59368  Biso   1.000  H
  O31      1.0000 0.89635  0.94428  0.63169  Biso   1.000  O
  N67      1.0000 0.96418  0.28838  0.51689  Biso   1.000  N
  O32      1.0000 0.12941  0.20764  0.55008  Biso   1.000  O
  O33      1.0000 0.12933  0.20764  0.55008  Biso   1.000  O
  C100     1.0000 0.74219  0.32693  0.46680  Biso   1.000  C
  H94      1.0000 0.90049  0.40364  0.48221  Biso   1.000  H
  H95      1.0000 0.53395  0.13206  0.49979  Biso   1.000  H
  H96      1.0000 0.49838  0.15936  0.54210  Biso   1.000  H
  N68      1.0000 0.63626  0.18309  0.52401  Biso   1.000  N
  N69      1.0000 0.63629  0.18302  0.52401  Biso   1.000  N
  C101     1.0000 0.71581  0.11339  0.60949  Biso   1.000  C
  C102     1.0000 0.71573  0.11339  0.60949  Biso   1.000  C
  C103     1.0000 0.89216  0.31579  0.55070  Biso   1.000  C
  N70      1.0000 0.72233  0.26963  0.49650  Biso   1.000  N
  N71      1.0000 0.72225  0.26963  0.49650  Biso   1.000  N
  H97      1.0000 0.70648  0.39117  0.47369  Biso   1.000  H
  H98      1.0000 0.70404  0.32157  0.44359  Biso   1.000  H
  H99      1.0000 0.70407  0.32151  0.44359  Biso   1.000  H
  C104     1.0000 0.65198  0.23167  0.55489  Biso   1.000  C
  C105     1.0000 0.66570  0.21374  0.48930  Biso   1.000  C
  C106     1.0000 0.66562  0.21374  0.48930  Biso   1.000  C
  H100     1.0000 0.76420  0.10517  0.63191  Biso   1.000  H
  H101     1.0000 0.63475  0.14091  0.61751  Biso   1.000  H
  N72      1.0000 0.73833  0.17615  0.58159  Biso   1.000  N
  H102     1.0000 0.76412  0.10517  0.63191  Biso   1.000  H
  H103     1.0000 0.63478  0.14084  0.61751  Biso   1.000  H
  N73      1.0000 0.73825  0.17615  0.58159  Biso   1.000  N
  N74      1.0000 0.81307  0.27038  0.55650  Biso   1.000  N
  H104     1.0000 0.94228  0.30194  0.57301  Biso   1.000  H
  H105     1.0000 0.84798  0.38247  0.54851  Biso   1.000  H
  C107     1.0000 0.70760  0.29354  0.53481  Biso   1.000  C
  H106     1.0000 0.57806  0.26768  0.56738  Biso   1.000  H
  O34      1.0000 0.65176  0.19226  0.45881  Biso   1.000  O
  C108     1.0000 0.82667  0.20315  0.58370  Biso   1.000  C
  H107     1.0000 0.65702  0.35938  0.53661  Biso   1.000  H
  H108     1.0000 0.65694  0.35938  0.53661  Biso   1.000  H
  O35      1.0000 0.90460  0.17299  0.60631  Biso   1.000  O
  O36      1.0000 0.90453  0.17299  0.60631  Biso   1.000  O
  O37      1.0000 0.09543  0.82716  0.39369  Biso   1.000  O
  C109     1.0000 0.17340  0.79693  0.41630  Biso   1.000  C
  C110     1.0000 0.17332  0.79693  0.41630  Biso   1.000  C
  N75      1.0000 0.18697  0.72977  0.44350  Biso   1.000  N
  N76      1.0000 0.18689  0.72977  0.44350  Biso   1.000  N
  N77      1.0000 0.26174  0.82394  0.41839  Biso   1.000  N
  C111     1.0000 0.10788  0.68437  0.44930  Biso   1.000  C
  C112     1.0000 0.10780  0.68437  0.44930  Biso   1.000  C
  C113     1.0000 0.29247  0.70655  0.46519  Biso   1.000  C
  C114     1.0000 0.29239  0.70655  0.46519  Biso   1.000  C
  C115     1.0000 0.34805  0.76848  0.44511  Biso   1.000  C
  C116     1.0000 0.34797  0.76848  0.44511  Biso   1.000  C
  C117     1.0000 0.28422  0.88677  0.39051  Biso   1.000  C
  N78      1.0000 0.03586  0.71177  0.48311  Biso   1.000  N
  N79      1.0000 0.03578  0.71177  0.48311  Biso   1.000  N
  H109     1.0000 0.05779  0.69815  0.42699  Biso   1.000  H
  H110     1.0000 0.15206  0.61769  0.45149  Biso   1.000  H
  H111     1.0000 0.05771  0.69815  0.42699  Biso   1.000  H
  H112     1.0000 0.15198  0.61769  0.45149  Biso   1.000  H
  N80      1.0000 0.27774  0.73046  0.50350  Biso   1.000  N
  H113     1.0000 0.34302  0.64078  0.46339  Biso   1.000  H
  H114     1.0000 0.42198  0.73248  0.43259  Biso   1.000  H
  N81      1.0000 0.36378  0.81707  0.47599  Biso   1.000  N
  H115     1.0000 0.42190  0.73248  0.43259  Biso   1.000  H
  N82      1.0000 0.36370  0.81707  0.47599  Biso   1.000  N
  H116     1.0000 0.23587  0.89491  0.36809  Biso   1.000  H
  H117     1.0000 0.36529  0.85925  0.38249  Biso   1.000  H
  N83      1.0000 0.26197  0.97536  0.40469  Biso   1.000  N
  H118     1.0000 0.36521  0.85925  0.38249  Biso   1.000  H
  N84      1.0000 0.26189  0.97536  0.40469  Biso   1.000  N
  C118     1.0000 0.91772  0.75607  0.47748  Biso   1.000  C
  C119     1.0000 0.06686  0.66415  0.51940  Biso   1.000  C
  C120     1.0000 0.25788  0.67316  0.53321  Biso   1.000  C
  C121     1.0000 0.25780  0.67316  0.53321  Biso   1.000  C
  C122     1.0000 0.33437  0.78635  0.51070  Biso   1.000  C
  C123     1.0000 0.43584  0.86946  0.47470  Biso   1.000  C
  C124     1.0000 0.34913  0.99467  0.42171  Biso   1.000  C
  C125     1.0000 0.17881  0.05235  0.39029  Biso   1.000  C
  C126     1.0000 0.17873  0.05235  0.39029  Biso   1.000  C
  O38      1.0000 0.87066  0.79245  0.44989  Biso   1.000  O
  N85      1.0000 0.87037  0.75208  0.51329  Biso   1.000  N
  N86      1.0000 0.87029  0.75208  0.51329  Biso   1.000  N
  C127     1.0000 0.95232  0.69868  0.54190  Biso   1.000  C
  H119     1.0000 0.09955  0.59651  0.51779  Biso   1.000  H
  N87      1.0000 0.13835  0.69502  0.54131  Biso   1.000  N
  H120     1.0000 0.09950  0.59645  0.51779  Biso   1.000  H
  N88      1.0000 0.13831  0.69495  0.54131  Biso   1.000  N
  H121     1.0000 0.29356  0.60899  0.52629  Biso   1.000  H
  H122     1.0000 0.29599  0.67858  0.55639  Biso   1.000  H
  H123     1.0000 0.29348  0.60899  0.52629  Biso   1.000  H
  H124     1.0000 0.29592  0.67858  0.55639  Biso   1.000  H
  O39      1.0000 0.34828  0.80789  0.54120  Biso   1.000  O
  O40      1.0000 0.34820  0.80789  0.54120  Biso   1.000  O
  H125     1.0000 0.46601  0.86810  0.50018  Biso   1.000  H
  H126     1.0000 0.50169  0.84073  0.45791  Biso   1.000  H
  N89      1.0000 0.37290  0.96463  0.46120  Biso   1.000  N
  H127     1.0000 0.50161  0.84073  0.45791  Biso   1.000  H
  N90      1.0000 0.37282  0.96463  0.46120  Biso   1.000  N
  H128     1.0000 0.42074  0.97445  0.40629  Biso   1.000  H
  C128     1.0000 0.29427  0.10165  0.42379  Biso   1.000  C
  N91      1.0000 0.18997  0.12552  0.40429  Biso   1.000  N
  O41      1.0000 0.10372  0.05581  0.36829  Biso   1.000  O
  O42      1.0000 0.10364  0.05581  0.36829  Biso   1.000  O
  C129     1.0000 0.74777  0.79865  0.51999  Biso   1.000  C
  H129     1.0000 0.93363  0.64699  0.55309  Biso   1.000  H
  N92      1.0000 0.97127  0.75118  0.57008  Biso   1.000  N
  N93      1.0000 0.97120  0.75118  0.57008  Biso   1.000  N
  C130     1.0000 0.08343  0.74160  0.57188  Biso   1.000  C
  C131     1.0000 0.33668  0.03533  0.48491  Biso   1.000  C
  H130     1.0000 0.34386  0.13123  0.41149  Biso   1.000  H
  N94      1.0000 0.28334  0.11367  0.46390  Biso   1.000  N
  C132     1.0000 0.10436  0.21825  0.39740  Biso   1.000  C
  N95      1.0000 0.71661  0.88649  0.53610  Biso   1.000  N
  H131     1.0000 0.70668  0.80766  0.49580  Biso   1.000  H
  H132     1.0000 0.72199  0.75906  0.53709  Biso   1.000  H
  H133     1.0000 0.70661  0.80766  0.49580  Biso   1.000  H
  H134     1.0000 0.72191  0.75906  0.53709  Biso   1.000  H
  C133     1.0000 0.89567  0.78190  0.60260  Biso   1.000  C
  C134     1.0000 0.89559  0.78190  0.60260  Biso   1.000  C
  O43      1.0000 0.12422  0.77190  0.59489  Biso   1.000  O
  O44      1.0000 0.34997  0.02678  0.51838  Biso   1.000  O
  C135     1.0000 0.25230  0.20144  0.47999  Biso   1.000  C
  C136     1.0000 0.25222  0.20144  0.47999  Biso   1.000  C
  H135     1.0000 0.05775  0.22024  0.37521  Biso   1.000  H
  H136     1.0000 0.14371  0.26045  0.39169  Biso   1.000  H
  N96      1.0000 0.02876  0.24898  0.42989  Biso   1.000  N
  H137     1.0000 0.14364  0.26045  0.39169  Biso   1.000  H
  N97      1.0000 0.02879  0.24891  0.42989  Biso   1.000  N
  C137     1.0000 0.66338  0.96475  0.51509  Biso   1.000  C
  C138     1.0000 0.70576  0.89851  0.57619  Biso   1.000  C
  C139     1.0000 0.66331  0.96475  0.51509  Biso   1.000  C
  C140     1.0000 0.70568  0.89851  0.57619  Biso   1.000  C
  N98      1.0000 0.81010  0.87457  0.59571  Biso   1.000  N
  N99      1.0000 0.81002  0.87457  0.59571  Biso   1.000  N
  H138     1.0000 0.94221  0.77991  0.62479  Biso   1.000  H
  H139     1.0000 0.85632  0.73971  0.60831  Biso   1.000  H
  N100     1.0000 0.12967  0.24807  0.48671  Biso   1.000  N
  H140     1.0000 0.29338  0.19243  0.50421  Biso   1.000  H
  H141     1.0000 0.27808  0.24103  0.46289  Biso   1.000  H
  C141     1.0000 0.91661  0.25856  0.42809  Biso   1.000  C
  C142     1.0000 0.91653  0.25856  0.42809  Biso   1.000  C
  C143     1.0000 0.04764  0.30148  0.45810  Biso   1.000  C
  C144     1.0000 0.04767  0.30141  0.45810  Biso   1.000  C
  O45      1.0000 0.65007  0.97338  0.48159  Biso   1.000  O
  O46      1.0000 0.64999  0.97338  0.48159  Biso   1.000  O
  N101     1.0000 0.62717  0.03546  0.53880  Biso   1.000  N
  H142     1.0000 0.65621  0.86885  0.58851  Biso   1.000  H
  H143     1.0000 0.65613  0.86885  0.58851  Biso   1.000  H
  C145     1.0000 0.65090  0.00549  0.57830  Biso   1.000  C
  C146     1.0000 0.65082  0.00549  0.57830  Biso   1.000  C
  C147     1.0000 0.82122  0.94781  0.60969  Biso   1.000  C
  C148     1.0000 0.08224  0.24409  0.52249  Biso   1.000  C
  C149     1.0000 0.08227  0.24402  0.52249  Biso   1.000  C
  N102     1.0000 0.86168  0.30514  0.45869  Biso   1.000  N
  O47      1.0000 0.87581  0.22826  0.40511  Biso   1.000  O
  O48      1.0000 0.87574  0.22826  0.40511  Biso   1.000  O
  C150     1.0000 0.93321  0.33593  0.48061  Biso   1.000  C
  C151     1.0000 0.93313  0.33593  0.48061  Biso   1.000  C
  H144     1.0000 0.06641  0.35317  0.44691  Biso   1.000  H
  H145     1.0000 0.06633  0.35317  0.44691  Biso   1.000  H
  C152     1.0000 0.56419  0.13069  0.52530  Biso   1.000  C
  C153     1.0000 0.56415  0.13063  0.52530  Biso   1.000  C
  H146     1.0000 0.57930  0.02570  0.59368  Biso   1.000  H
  N103     1.0000 0.73806  0.02480  0.59529  Biso   1.000  N
  H147     1.0000 0.57922  0.02570  0.59368  Biso   1.000  H
  O49      1.0000 0.89635  0.94428  0.63169  Biso   1.000  O
  N104     1.0000 0.96418  0.28838  0.51689  Biso   1.000  N
  O50      1.0000 0.12941  0.20764  0.55008  Biso   1.000  O
  O51      1.0000 0.12933  0.20764  0.55008  Biso   1.000  O
  C154     1.0000 0.74219  0.32693  0.46680  Biso   1.000  C
  H148     1.0000 0.90049  0.40364  0.48221  Biso   1.000  H
  H149     1.0000 0.53395  0.13206  0.49979  Biso   1.000  H
  H150     1.0000 0.49838  0.15936  0.54210  Biso   1.000  H
  N105     1.0000 0.63626  0.18309  0.52401  Biso   1.000  N
  N106     1.0000 0.63629  0.18302  0.52401  Biso   1.000  N
  C155     1.0000 0.71581  0.11339  0.60949  Biso   1.000  C
  C156     1.0000 0.71573  0.11339  0.60949  Biso   1.000  C
  C157     1.0000 0.89216  0.31579  0.55070  Biso   1.000  C
  N107     1.0000 0.72233  0.26963  0.49650  Biso   1.000  N
  N108     1.0000 0.72225  0.26963  0.49650  Biso   1.000  N
  H151     1.0000 0.70648  0.39117  0.47369  Biso   1.000  H
  H152     1.0000 0.70404  0.32157  0.44359  Biso   1.000  H
  H153     1.0000 0.70407  0.32151  0.44359  Biso   1.000  H
  C158     1.0000 0.65198  0.23167  0.55489  Biso   1.000  C
  C159     1.0000 0.66570  0.21374  0.48930  Biso   1.000  C
  C160     1.0000 0.66562  0.21374  0.48930  Biso   1.000  C
  H154     1.0000 0.76420  0.10517  0.63191  Biso   1.000  H
  H155     1.0000 0.63475  0.14091  0.61751  Biso   1.000  H
  N109     1.0000 0.73833  0.17615  0.58159  Biso   1.000  N
  H156     1.0000 0.76412  0.10517  0.63191  Biso   1.000  H
  H157     1.0000 0.63478  0.14084  0.61751  Biso   1.000  H
  N110     1.0000 0.73825  0.17615  0.58159  Biso   1.000  N
  N111     1.0000 0.81307  0.27038  0.55650  Biso   1.000  N
  H158     1.0000 0.94228  0.30194  0.57301  Biso   1.000  H
  H159     1.0000 0.84798  0.38247  0.54851  Biso   1.000  H
  C161     1.0000 0.70760  0.29354  0.53481  Biso   1.000  C
  H160     1.0000 0.57806  0.26768  0.56738  Biso   1.000  H
  O52      1.0000 0.65176  0.19226  0.45881  Biso   1.000  O
  C162     1.0000 0.82667  0.20315  0.58370  Biso   1.000  C
  H161     1.0000 0.65702  0.35938  0.53661  Biso   1.000  H
  H162     1.0000 0.65694  0.35938  0.53661  Biso   1.000  H
  O53      1.0000 0.90460  0.17299  0.60631  Biso   1.000  O
  O54      1.0000 0.90453  0.17299  0.60631  Biso   1.000  O
  O55      1.0000 0.09543  0.82716  0.39369  Biso   1.000  O
  C163     1.0000 0.17340  0.79693  0.41630  Biso   1.000  C
  C164     1.0000 0.17332  0.79693  0.41630  Biso   1.000  C
  N112     1.0000 0.18697  0.72977  0.44350  Biso   1.000  N
  N113     1.0000 0.18689  0.72977  0.44350  Biso   1.000  N
  N114     1.0000 0.26174  0.82394  0.41839  Biso   1.000  N
  C165     1.0000 0.10788  0.68437  0.44930  Biso   1.000  C
  C166     1.0000 0.10780  0.68437  0.44930  Biso   1.000  C
  C167     1.0000 0.29247  0.70655  0.46519  Biso   1.000  C
  C168     1.0000 0.29239  0.70655  0.46519  Biso   1.000  C
  C169     1.0000 0.34805  0.76848  0.44511  Biso   1.000  C
  C170     1.0000 0.34797  0.76848  0.44511  Biso   1.000  C
  C171     1.0000 0.28422  0.88677  0.39051  Biso   1.000  C
  N115     1.0000 0.03586  0.71177  0.48311  Biso   1.000  N
  N116     1.0000 0.03578  0.71177  0.48311  Biso   1.000  N
  H163     1.0000 0.05779  0.69815  0.42699  Biso   1.000  H
  H164     1.0000 0.15206  0.61769  0.45149  Biso   1.000  H
  H165     1.0000 0.05771  0.69815  0.42699  Biso   1.000  H
  H166     1.0000 0.15198  0.61769  0.45149  Biso   1.000  H
  N117     1.0000 0.27774  0.73046  0.50350  Biso   1.000  N
  H167     1.0000 0.34302  0.64078  0.46339  Biso   1.000  H
  H168     1.0000 0.42198  0.73248  0.43259  Biso   1.000  H
  N118     1.0000 0.36378  0.81707  0.47599  Biso   1.000  N
  H169     1.0000 0.42190  0.73248  0.43259  Biso   1.000  H
  N119     1.0000 0.36370  0.81707  0.47599  Biso   1.000  N
  H170     1.0000 0.23587  0.89491  0.36809  Biso   1.000  H
  H171     1.0000 0.36529  0.85925  0.38249  Biso   1.000  H
  N120     1.0000 0.26197  0.97536  0.40469  Biso   1.000  N
  H172     1.0000 0.36521  0.85925  0.38249  Biso   1.000  H
  N121     1.0000 0.26189  0.97536  0.40469  Biso   1.000  N
  C172     1.0000 0.91772  0.75607  0.47748  Biso   1.000  C
  C173     1.0000 0.06686  0.66415  0.51940  Biso   1.000  C
  C174     1.0000 0.25788  0.67316  0.53321  Biso   1.000  C
  C175     1.0000 0.25780  0.67316  0.53321  Biso   1.000  C
  C176     1.0000 0.33437  0.78635  0.51070  Biso   1.000  C
  C177     1.0000 0.43584  0.86946  0.47470  Biso   1.000  C
  C178     1.0000 0.34913  0.99467  0.42171  Biso   1.000  C
  C179     1.0000 0.17881  0.05235  0.39029  Biso   1.000  C
  C180     1.0000 0.17873  0.05235  0.39029  Biso   1.000  C
  O56      1.0000 0.87066  0.79245  0.44989  Biso   1.000  O
  N122     1.0000 0.87037  0.75208  0.51329  Biso   1.000  N
  N123     1.0000 0.87029  0.75208  0.51329  Biso   1.000  N
  C181     1.0000 0.95232  0.69868  0.54190  Biso   1.000  C
  H173     1.0000 0.09955  0.59651  0.51779  Biso   1.000  H
  N124     1.0000 0.13835  0.69502  0.54131  Biso   1.000  N
  H174     1.0000 0.09950  0.59645  0.51779  Biso   1.000  H
  N125     1.0000 0.13831  0.69495  0.54131  Biso   1.000  N
  H175     1.0000 0.29356  0.60899  0.52629  Biso   1.000  H
  H176     1.0000 0.29599  0.67858  0.55639  Biso   1.000  H
  H177     1.0000 0.29348  0.60899  0.52629  Biso   1.000  H
  H178     1.0000 0.29592  0.67858  0.55639  Biso   1.000  H
  O57      1.0000 0.34828  0.80789  0.54120  Biso   1.000  O
  O58      1.0000 0.34820  0.80789  0.54120  Biso   1.000  O
  H179     1.0000 0.46601  0.86810  0.50018  Biso   1.000  H
  H180     1.0000 0.50169  0.84073  0.45791  Biso   1.000  H
  N126     1.0000 0.37290  0.96463  0.46120  Biso   1.000  N
  H181     1.0000 0.50161  0.84073  0.45791  Biso   1.000  H
  N127     1.0000 0.37282  0.96463  0.46120  Biso   1.000  N
  H182     1.0000 0.42074  0.97445  0.40629  Biso   1.000  H
  C182     1.0000 0.29427  0.10165  0.42379  Biso   1.000  C
  N128     1.0000 0.18997  0.12552  0.40429  Biso   1.000  N
  O59      1.0000 0.10372  0.05581  0.36829  Biso   1.000  O
  O60      1.0000 0.10364  0.05581  0.36829  Biso   1.000  O
  C183     1.0000 0.74777  0.79865  0.51999  Biso   1.000  C
  H183     1.0000 0.93363  0.64699  0.55309  Biso   1.000  H
  N129     1.0000 0.97127  0.75118  0.57008  Biso   1.000  N
  N130     1.0000 0.97120  0.75118  0.57008  Biso   1.000  N
  C184     1.0000 0.08343  0.74160  0.57188  Biso   1.000  C
  C185     1.0000 0.33668  0.03533  0.48491  Biso   1.000  C
  H184     1.0000 0.34386  0.13123  0.41149  Biso   1.000  H
  N131     1.0000 0.28334  0.11367  0.46390  Biso   1.000  N
  C186     1.0000 0.10436  0.21825  0.39740  Biso   1.000  C
  N132     1.0000 0.71661  0.88649  0.53610  Biso   1.000  N
  H185     1.0000 0.70668  0.80766  0.49580  Biso   1.000  H
  H186     1.0000 0.72199  0.75906  0.53709  Biso   1.000  H
  H187     1.0000 0.70661  0.80766  0.49580  Biso   1.000  H
  H188     1.0000 0.72191  0.75906  0.53709  Biso   1.000  H
  C187     1.0000 0.89567  0.78190  0.60260  Biso   1.000  C
  C188     1.0000 0.89559  0.78190  0.60260  Biso   1.000  C
  O61      1.0000 0.12422  0.77190  0.59489  Biso   1.000  O
  O62      1.0000 0.34997  0.02678  0.51838  Biso   1.000  O
  C189     1.0000 0.25230  0.20144  0.47999  Biso   1.000  C
  C190     1.0000 0.25222  0.20144  0.47999  Biso   1.000  C
  H189     1.0000 0.05775  0.22024  0.37521  Biso   1.000  H
  H190     1.0000 0.14371  0.26045  0.39169  Biso   1.000  H
  N133     1.0000 0.02876  0.24898  0.42989  Biso   1.000  N
  H191     1.0000 0.14364  0.26045  0.39169  Biso   1.000  H
  N134     1.0000 0.02879  0.24891  0.42989  Biso   1.000  N
  C191     1.0000 0.66338  0.96475  0.51509  Biso   1.000  C
  C192     1.0000 0.70576  0.89851  0.57619  Biso   1.000  C
  C193     1.0000 0.66331  0.96475  0.51509  Biso   1.000  C
  C194     1.0000 0.70568  0.89851  0.57619  Biso   1.000  C
  N135     1.0000 0.81010  0.87457  0.59571  Biso   1.000  N
  N136     1.0000 0.81002  0.87457  0.59571  Biso   1.000  N
  H192     1.0000 0.94221  0.77991  0.62479  Biso   1.000  H
  H193     1.0000 0.85632  0.73971  0.60831  Biso   1.000  H
  N137     1.0000 0.12967  0.24807  0.48671  Biso   1.000  N
  H194     1.0000 0.29338  0.19243  0.50421  Biso   1.000  H
  H195     1.0000 0.27808  0.24103  0.46289  Biso   1.000  H
  C195     1.0000 0.91661  0.25856  0.42809  Biso   1.000  C
  C196     1.0000 0.91653  0.25856  0.42809  Biso   1.000  C
  C197     1.0000 0.04764  0.30148  0.45810  Biso   1.000  C
  C198     1.0000 0.04767  0.30141  0.45810  Biso   1.000  C
  O63      1.0000 0.65007  0.97338  0.48159  Biso   1.000  O
  O64      1.0000 0.64999  0.97338  0.48159  Biso   1.000  O
  N138     1.0000 0.62717  0.03546  0.53880  Biso   1.000  N
  H196     1.0000 0.65621  0.86885  0.58851  Biso   1.000  H
  H197     1.0000 0.65613  0.86885  0.58851  Biso   1.000  H
  C199     1.0000 0.65090  0.00549  0.57830  Biso   1.000  C
  C200     1.0000 0.65082  0.00549  0.57830  Biso   1.000  C
  C201     1.0000 0.82122  0.94781  0.60969  Biso   1.000  C
  C202     1.0000 0.08224  0.24409  0.52249  Biso   1.000  C
  C203     1.0000 0.08227  0.24402  0.52249  Biso   1.000  C
  N139     1.0000 0.86168  0.30514  0.45869  Biso   1.000  N
  O65      1.0000 0.87581  0.22826  0.40511  Biso   1.000  O
  O66      1.0000 0.87574  0.22826  0.40511  Biso   1.000  O
  C204     1.0000 0.93321  0.33593  0.48061  Biso   1.000  C
  C205     1.0000 0.93313  0.33593  0.48061  Biso   1.000  C
  H198     1.0000 0.06641  0.35317  0.44691  Biso   1.000  H
  H199     1.0000 0.06633  0.35317  0.44691  Biso   1.000  H
  C206     1.0000 0.56419  0.13069  0.52530  Biso   1.000  C
  C207     1.0000 0.56415  0.13063  0.52530  Biso   1.000  C
  H200     1.0000 0.57930  0.02570  0.59368  Biso   1.000  H
  N140     1.0000 0.73806  0.02480  0.59529  Biso   1.000  N
  H201     1.0000 0.57922  0.02570  0.59368  Biso   1.000  H
  O67      1.0000 0.89635  0.94428  0.63169  Biso   1.000  O
  N141     1.0000 0.96418  0.28838  0.51689  Biso   1.000  N
  O68      1.0000 0.12941  0.20764  0.55008  Biso   1.000  O
  O69      1.0000 0.12933  0.20764  0.55008  Biso   1.000  O
  C208     1.0000 0.74219  0.32693  0.46680  Biso   1.000  C
  H202     1.0000 0.90049  0.40364  0.48221  Biso   1.000  H
  H203     1.0000 0.53395  0.13206  0.49979  Biso   1.000  H
  H204     1.0000 0.49838  0.15936  0.54210  Biso   1.000  H
  N142     1.0000 0.63626  0.18309  0.52401  Biso   1.000  N
  N143     1.0000 0.63629  0.18302  0.52401  Biso   1.000  N
  C209     1.0000 0.71581  0.11339  0.60949  Biso   1.000  C
  C210     1.0000 0.71573  0.11339  0.60949  Biso   1.000  C
  C211     1.0000 0.89216  0.31579  0.55070  Biso   1.000  C
  N144     1.0000 0.72233  0.26963  0.49650  Biso   1.000  N
  N145     1.0000 0.72225  0.26963  0.49650  Biso   1.000  N
  H205     1.0000 0.70648  0.39117  0.47369  Biso   1.000  H
  H206     1.0000 0.70404  0.32157  0.44359  Biso   1.000  H
  H207     1.0000 0.70407  0.32151  0.44359  Biso   1.000  H
  C212     1.0000 0.65198  0.23167  0.55489  Biso   1.000  C
  C213     1.0000 0.66570  0.21374  0.48930  Biso   1.000  C
  C214     1.0000 0.66562  0.21374  0.48930  Biso   1.000  C
  H208     1.0000 0.76420  0.10517  0.63191  Biso   1.000  H
  H209     1.0000 0.63475  0.14091  0.61751  Biso   1.000  H
  N146     1.0000 0.73833  0.17615  0.58159  Biso   1.000  N
  H210     1.0000 0.76412  0.10517  0.63191  Biso   1.000  H
  H211     1.0000 0.63478  0.14084  0.61751  Biso   1.000  H
  N147     1.0000 0.73825  0.17615  0.58159  Biso   1.000  N
  N148     1.0000 0.81307  0.27038  0.55650  Biso   1.000  N
  H212     1.0000 0.94228  0.30194  0.57301  Biso   1.000  H
  H213     1.0000 0.84798  0.38247  0.54851  Biso   1.000  H
  C215     1.0000 0.70760  0.29354  0.53481  Biso   1.000  C
  H214     1.0000 0.57806  0.26768  0.56738  Biso   1.000  H
  O70      1.0000 0.65176  0.19226  0.45881  Biso   1.000  O
  C216     1.0000 0.82667  0.20315  0.58370  Biso   1.000  C
  H215     1.0000 0.65702  0.35938  0.53661  Biso   1.000  H
  H216     1.0000 0.65694  0.35938  0.53661  Biso   1.000  H
  O71      1.0000 0.90460  0.17299  0.60631  Biso   1.000  O
  O72      1.0000 0.90453  0.17299  0.60631  Biso   1.000  O
  O73      1.0000 0.62930  0.64267  0.32272  Biso   1.000  O
  C217     1.0000 0.65444  0.56488  0.33611  Biso   1.000  C
  N149     1.0000 0.58863  0.53514  0.36100  Biso   1.000  N
  N150     1.0000 0.75171  0.49117  0.32880  Biso   1.000  N
  C218     1.0000 0.49227  0.59948  0.38061  Biso   1.000  C
  C219     1.0000 0.65384  0.44415  0.37721  Biso   1.000  C
  C220     1.0000 0.76341  0.41168  0.35271  Biso   1.000  C
  C221     1.0000 0.84333  0.49825  0.30621  Biso   1.000  C
  N151     1.0000 0.38319  0.59947  0.37110  Biso   1.000  N
  H217     1.0000 0.49085  0.66154  0.37501  Biso   1.000  H
  H218     1.0000 0.50449  0.58539  0.40801  Biso   1.000  H
  N152     1.0000 0.60642  0.37764  0.37240  Biso   1.000  N
  H219     1.0000 0.67251  0.44563  0.40421  Biso   1.000  H
  N153     1.0000 0.75429  0.33737  0.33330  Biso   1.000  N
  H220     1.0000 0.83429  0.39045  0.36849  Biso   1.000  H
  H221     1.0000 0.83178  0.56333  0.30281  Biso   1.000  H
  H222     1.0000 0.91616  0.46587  0.31999  Biso   1.000  H
  N154     1.0000 0.85335  0.46163  0.26970  Biso   1.000  N
  C222     1.0000 0.33979  0.53315  0.38609  Biso   1.000  C
  C223     1.0000 0.30621  0.66567  0.34680  Biso   1.000  C
  C224     1.0000 0.50641  0.37549  0.39141  Biso   1.000  C
  C225     1.0000 0.66868  0.31318  0.34739  Biso   1.000  C
  C226     1.0000 0.85062  0.27488  0.31361  Biso   1.000  C
  C227     1.0000 0.91472  0.36436  0.26199  Biso   1.000  C
  C228     1.0000 0.81973  0.51586  0.23721  Biso   1.000  C
  C229     1.0000 0.22200  0.56332  0.36531  Biso   1.000  C
  N155     1.0000 0.40019  0.44158  0.37369  Biso   1.000  N
  H223     1.0000 0.33087  0.53403  0.41400  Biso   1.000  H
  N156     1.0000 0.21175  0.64483  0.34399  Biso   1.000  N
  O74      1.0000 0.32040  0.73133  0.33259  Biso   1.000  O
  H224     1.0000 0.50659  0.31339  0.39110  Biso   1.000  H
  H225     1.0000 0.50858  0.38949  0.41799  Biso   1.000  H
  O75      1.0000 0.65321  0.24644  0.34039  Biso   1.000  O
  H226     1.0000 0.92205  0.26775  0.32649  Biso   1.000  H
  H227     1.0000 0.84541  0.21443  0.31459  Biso   1.000  H
  N157     1.0000 0.85658  0.30504  0.27420  Biso   1.000  N
  C230     1.0000 0.90959  0.36525  0.21921  Biso   1.000  C
  H228     1.0000 0.99542  0.34002  0.27139  Biso   1.000  H
  N158     1.0000 0.85067  0.46104  0.20711  Biso   1.000  N
  O76      1.0000 0.77670  0.59822  0.23530  Biso   1.000  O
  N159     1.0000 0.23271  0.48722  0.34421  Biso   1.000  N
  H229     1.0000 0.15810  0.57573  0.38390  Biso   1.000  H
  C231     1.0000 0.33593  0.41384  0.35279  Biso   1.000  C
  C232     1.0000 0.11194  0.70295  0.32390  Biso   1.000  C
  C233     1.0000 0.82551  0.26952  0.24531  Biso   1.000  C
  N160     1.0000 0.84501  0.30932  0.21229  Biso   1.000  N
  H230     1.0000 0.98801  0.33905  0.20810  Biso   1.000  H
  C234     1.0000 0.82323  0.49824  0.16891  Biso   1.000  C
  C235     1.0000 0.13654  0.47614  0.32871  Biso   1.000  C
  O77      1.0000 0.36184  0.33683  0.34190  Biso   1.000  O
  N161     1.0000 0.10342  0.67005  0.28759  Biso   1.000  N
  H231     1.0000 0.04353  0.70796  0.33901  Biso   1.000  H
  H232     1.0000 0.11304  0.76461  0.32019  Biso   1.000  H
  O78      1.0000 0.78431  0.21086  0.24801  Biso   1.000  O
  C236     1.0000 0.83781  0.27575  0.17631  Biso   1.000  C
  N162     1.0000 0.72109  0.49113  0.15471  Biso   1.000  N
  H233     1.0000 0.81242  0.56328  0.16770  Biso   1.000  H
  H234     1.0000 0.88851  0.46579  0.15240  Biso   1.000  H
  N163     1.0000 0.10816  0.51427  0.29071  Biso   1.000  N
  H235     1.0000 0.15231  0.41025  0.32919  Biso   1.000  H
  H236     1.0000 0.06933  0.50516  0.34489  Biso   1.000  H
  C237     1.0000 0.04377  0.61066  0.28061  Biso   1.000  C
  C238     1.0000 0.11952  0.71162  0.25361  Biso   1.000  C
  N164     1.0000 0.73615  0.33440  0.15541  Biso   1.000  N
  H237     1.0000 0.90654  0.27072  0.16140  Biso   1.000  H
  H238     1.0000 0.83709  0.21394  0.18019  Biso   1.000  H
  C239     1.0000 0.62110  0.56532  0.14849  Biso   1.000  C
  C240     1.0000 0.72794  0.41559  0.13299  Biso   1.000  C
  C241     1.0000 0.13316  0.46227  0.26039  Biso   1.000  C
  C242     1.0000 0.03484  0.61441  0.23831  Biso   1.000  C
  H239     1.0000 0.96638  0.63285  0.29259  Biso   1.000  H
  N165     1.0000 0.08961  0.67399  0.22520  Biso   1.000  N
  O79      1.0000 0.15590  0.77192  0.25080  Biso   1.000  O
  C243     1.0000 0.64116  0.31393  0.15189  Biso   1.000  C
  N166     1.0000 0.55099  0.53938  0.12889  Biso   1.000  N
  O80      1.0000 0.60090  0.63999  0.16059  Biso   1.000  O
  C244     1.0000 0.60807  0.44851  0.11491  Biso   1.000  C
  H240     1.0000 0.78960  0.40208  0.11350  Biso   1.000  H
  O81      1.0000 0.17891  0.37996  0.26140  Biso   1.000  O
  N167     1.0000 0.09339  0.51931  0.22869  Biso   1.000  N
  H241     1.0000 0.95294  0.63924  0.23021  Biso   1.000  H
  C245     1.0000 0.09482  0.70628  0.18610  Biso   1.000  C
  N168     1.0000 0.56440  0.38164  0.12849  Biso   1.000  N
  O82      1.0000 0.62703  0.24804  0.16579  Biso   1.000  O
  C246     1.0000 0.44643  0.60637  0.11150  Biso   1.000  C
  H242     1.0000 0.61311  0.45126  0.08681  Biso   1.000  H
  C247     1.0000 0.10029  0.48494  0.19170  Biso   1.000  C
  H243     1.0000 0.09996  0.76678  0.18571  Biso   1.000  H
  H244     1.0000 0.02346  0.71377  0.17310  Biso   1.000  H
  N169     1.0000 0.19099  0.64461  0.16641  Biso   1.000  N
  C248     1.0000 0.45579  0.38273  0.11941  Biso   1.000  C
  N170     1.0000 0.34285  0.60507  0.12931  Biso   1.000  N
  H245     1.0000 0.44552  0.59419  0.08461  Biso   1.000  H
  H246     1.0000 0.44713  0.66801  0.11271  Biso   1.000  H
  H247     1.0000 0.02755  0.51952  0.17820  Biso   1.000  H
  H248     1.0000 0.10958  0.42021  0.19451  Biso   1.000  H
  N171     1.0000 0.19318  0.49161  0.16959  Biso   1.000  N
  C249     1.0000 0.18610  0.57150  0.14669  Biso   1.000  C
  C250     1.0000 0.27645  0.66980  0.15291  Biso   1.000  C
  N172     1.0000 0.35968  0.44689  0.13879  Biso   1.000  N
  H249     1.0000 0.44359  0.39661  0.09201  Biso   1.000  H
  H250     1.0000 0.45682  0.32079  0.12509  Biso   1.000  H
  C251     1.0000 0.29447  0.53921  0.12239  Biso   1.000  C
  C252     1.0000 0.29352  0.41769  0.16281  Biso   1.000  C
  H251     1.0000 0.11635  0.59341  0.13040  Biso   1.000  H
  O83      1.0000 0.29199  0.73712  0.16061  Biso   1.000  O
  H252     1.0000 0.27678  0.53932  0.09519  Biso   1.000  H
  O84      1.0000 0.31461  0.33930  0.17507  Biso   1.000  O
  O85      1.0000 0.85033  0.94150  0.12101  Biso   1.000  O
  C253     1.0000 0.78098  0.94798  0.09831  Biso   1.000  C
  C254     1.0000 0.78098  0.94799  0.09828  Biso   1.000  C
  C255     1.0000 0.78090  0.94798  0.09831  Biso   1.000  C
  C256     1.0000 0.78090  0.94799  0.09828  Biso   1.000  C
  N173     1.0000 0.77297  0.87658  0.08101  Biso   1.000  N
  N174     1.0000 0.77297  0.87658  0.08098  Biso   1.000  N
  N175     1.0000 0.77289  0.87658  0.08101  Biso   1.000  N
  N176     1.0000 0.77289  0.87658  0.08098  Biso   1.000  N
  O86      1.0000 0.85033  0.94150  0.12098  Biso   1.000  O
  O87      1.0000 0.85036  0.94144  0.12098  Biso   1.000  O
  N177     1.0000 0.70011  0.02726  0.08360  Biso   1.000  N
  N178     1.0000 0.70003  0.02726  0.08360  Biso   1.000  N
  C257     1.0000 0.85151  0.78215  0.08928  Biso   1.000  C
  C258     1.0000 0.85155  0.78221  0.08931  Biso   1.000  C
  C259     1.0000 0.67267  0.90495  0.05710  Biso   1.000  C
  C260     1.0000 0.85159  0.78215  0.08928  Biso   1.000  C
  C261     1.0000 0.85147  0.78221  0.08931  Biso   1.000  C
  C262     1.0000 0.67259  0.90495  0.05710  Biso   1.000  C
  C263     1.0000 0.61799  0.01027  0.06039  Biso   1.000  C
  C264     1.0000 0.61791  0.01027  0.06039  Biso   1.000  C
  C265     1.0000 0.67805  0.11281  0.09960  Biso   1.000  C
  C266     1.0000 0.67808  0.11274  0.09960  Biso   1.000  C
  C267     1.0000 0.67816  0.11274  0.09960  Biso   1.000  C
  H253     1.0000 0.80753  0.74268  0.09111  Biso   1.000  H
  H254     1.0000 0.88812  0.77769  0.11401  Biso   1.000  H
  N179     1.0000 0.93948  0.74938  0.06110  Biso   1.000  N
  H255     1.0000 0.80753  0.74269  0.09108  Biso   1.000  H
  N180     1.0000 0.93940  0.74938  0.06110  Biso   1.000  N
  H256     1.0000 0.61903  0.87589  0.06619  Biso   1.000  H
  N181     1.0000 0.69332  0.89610  0.01820  Biso   1.000  N
  N182     1.0000 0.69336  0.89603  0.01820  Biso   1.000  N
  H257     1.0000 0.54087  0.03011  0.07260  Biso   1.000  H
  N183     1.0000 0.61046  0.04398  0.02231  Biso   1.000  N
  H258     1.0000 0.54090  0.03005  0.07260  Biso   1.000  H
  N184     1.0000 0.61049  0.04391  0.02231  Biso   1.000  N
  H259     1.0000 0.54082  0.03005  0.07260  Biso   1.000  H
  N185     1.0000 0.61057  0.04391  0.02231  Biso   1.000  N
  H260     1.0000 0.72067  0.10118  0.12351  Biso   1.000  H
  H261     1.0000 0.59551  0.14187  0.10540  Biso   1.000  H
  N186     1.0000 0.71017  0.17579  0.07499  Biso   1.000  N
  H262     1.0000 0.72067  0.10119  0.12348  Biso   1.000  H
  N187     1.0000 0.71020  0.17572  0.07499  Biso   1.000  N
  H263     1.0000 0.59543  0.14187  0.10540  Biso   1.000  H
  H264     1.0000 0.72074  0.10119  0.12348  Biso   1.000  H
  N188     1.0000 0.71028  0.17572  0.07499  Biso   1.000  N
  C268     1.0000 0.92692  0.70440  0.02740  Biso   1.000  C
  C269     1.0000 0.92695  0.70433  0.02740  Biso   1.000  C
  C270     1.0000 0.04993  0.73820  0.06700  Biso   1.000  C
  C271     1.0000 0.04997  0.73813  0.06700  Biso   1.000  C
  C272     1.0000 0.73273  0.80820  0.00059  Biso   1.000  C
  C273     1.0000 0.73276  0.80813  0.00059  Biso   1.000  C
  C274     1.0000 0.65204  0.97738  0.99800  Biso   1.000  C
  C275     1.0000 0.65212  0.97738  0.99800  Biso   1.000  C
  C276     1.0000 0.65216  0.97731  0.99800  Biso   1.000  C
  C277     1.0000 0.55680  0.13918  0.01001  Biso   1.000  C
  C278     1.0000 0.55684  0.13912  0.00999  Biso   1.000  C
  C279     1.0000 0.55672  0.13918  0.01001  Biso   1.000  C
  C280     1.0000 0.64122  0.23285  0.04560  Biso   1.000  C
  C281     1.0000 0.80508  0.19517  0.08281  Biso   1.000  C
  C282     1.0000 0.80508  0.19517  0.08278  Biso   1.000  C
  C283     1.0000 0.64114  0.23285  0.04560  Biso   1.000  C
  C284     1.0000 0.80516  0.19517  0.08278  Biso   1.000  C
  H265     1.0000 0.90256  0.65267  0.03409  Biso   1.000  H
  H266     1.0000 0.90248  0.65267  0.03409  Biso   1.000  H
  N189     1.0000 0.85763  0.76481  0.99980  Biso   1.000  N
  N190     1.0000 0.85774  0.76474  0.99980  Biso   1.000  N
  C285     1.0000 0.05015  0.67087  0.01131  Biso   1.000  C
  C286     1.0000 0.05015  0.67088  0.01128  Biso   1.000  C
  C287     1.0000 0.05008  0.67088  0.01128  Biso   1.000  C
  N191     1.0000 0.11384  0.69536  0.03741  Biso   1.000  N
  O88      1.0000 0.08484  0.76057  0.09460  Biso   1.000  O
  N192     1.0000 0.11384  0.69536  0.03738  Biso   1.000  N
  H267     1.0000 0.70194  0.76731  0.01480  Biso   1.000  H
  H268     1.0000 0.70197  0.76725  0.01480  Biso   1.000  H
  H269     1.0000 0.70189  0.76725  0.01480  Biso   1.000  H
  H270     1.0000 0.70289  0.81814  0.97460  Biso   1.000  H
  H271     1.0000 0.70297  0.81814  0.97460  Biso   1.000  H
  O89      1.0000 0.64946  0.98804  0.96360  Biso   1.000  O
  O90      1.0000 0.64954  0.98804  0.96360  Biso   1.000  O
  H272     1.0000 0.53213  0.14444  0.98349  Biso   1.000  H
  H273     1.0000 0.53205  0.14444  0.98349  Biso   1.000  H
  H274     1.0000 0.53209  0.14437  0.98349  Biso   1.000  H
  N193     1.0000 0.63359  0.18777  0.01300  Biso   1.000  N
  H275     1.0000 0.48769  0.16864  0.02551  Biso   1.000  H
  N194     1.0000 0.63363  0.18771  0.01300  Biso   1.000  N
  H276     1.0000 0.48769  0.16865  0.02548  Biso   1.000  H
  N195     1.0000 0.63351  0.18777  0.01300  Biso   1.000  N
  H277     1.0000 0.56349  0.27127  0.05499  Biso   1.000  H
  C288     1.0000 0.70640  0.29276  0.03111  Biso   1.000  C
  C289     1.0000 0.70640  0.29276  0.03108  Biso   1.000  C
  H278     1.0000 0.56341  0.27127  0.05499  Biso   1.000  H
  C290     1.0000 0.70632  0.29276  0.03111  Biso   1.000  C
  N196     1.0000 0.80347  0.26318  0.05679  Biso   1.000  N
  O91      1.0000 0.87297  0.16198  0.10810  Biso   1.000  O
  N197     1.0000 0.80350  0.26312  0.05679  Biso   1.000  N
  N198     1.0000 0.80358  0.26312  0.05679  Biso   1.000  N
  O92      1.0000 0.87304  0.16198  0.10810  Biso   1.000  O
  C291     1.0000 0.91674  0.76880  0.96729  Biso   1.000  C
  C292     1.0000 0.91685  0.76874  0.96729  Biso   1.000  C
  C293     1.0000 0.91677  0.76874  0.96729  Biso   1.000  C
  N199     1.0000 0.03304  0.72335  0.97581  Biso   1.000  N
  N200     1.0000 0.03312  0.72335  0.97578  Biso   1.000  N
  N201     1.0000 0.03312  0.72335  0.97581  Biso   1.000  N
  H279     1.0000 0.08263  0.60376  0.00790  Biso   1.000  H
  C294     1.0000 0.23589  0.67307  0.03471  Biso   1.000  C
  C295     1.0000 0.23581  0.67308  0.03468  Biso   1.000  C
  C296     1.0000 0.23581  0.67307  0.03471  Biso   1.000  C
  C297     1.0000 0.67599  0.21973  0.98250  Biso   1.000  C
  C298     1.0000 0.67602  0.21966  0.98250  Biso   1.000  C
  N202     1.0000 0.73193  0.27016  0.99269  Biso   1.000  N
  N203     1.0000 0.73196  0.27009  0.99269  Biso   1.000  N
  N204     1.0000 0.73188  0.27009  0.99269  Biso   1.000  N
  H280     1.0000 0.65811  0.35908  0.03291  Biso   1.000  H
  H281     1.0000 0.65814  0.35901  0.03288  Biso   1.000  H
  H282     1.0000 0.65803  0.35908  0.03291  Biso   1.000  H
  C299     1.0000 0.88743  0.30324  0.05609  Biso   1.000  C
  C300     1.0000 0.88735  0.30324  0.05609  Biso   1.000  C
  O93      1.0000 0.87635  0.80733  0.93750  Biso   1.000  O
  O94      1.0000 0.87642  0.80733  0.93750  Biso   1.000  O
  C301     1.0000 0.11251  0.69690  0.94391  Biso   1.000  C
  C302     1.0000 0.11262  0.69683  0.94388  Biso   1.000  C
  C303     1.0000 0.11259  0.69690  0.94391  Biso   1.000  C
  H283     1.0000 0.26454  0.67811  0.05969  Biso   1.000  H
  H284     1.0000 0.27413  0.60880  0.02810  Biso   1.000  H
  N205     1.0000 0.26814  0.73005  0.00731  Biso   1.000  N
  H285     1.0000 0.26458  0.67804  0.05969  Biso   1.000  H
  N206     1.0000 0.26814  0.73005  0.00729  Biso   1.000  N
  H286     1.0000 0.26450  0.67804  0.05969  Biso   1.000  H
  H287     1.0000 0.27416  0.60873  0.02810  Biso   1.000  H
  O95      1.0000 0.66468  0.20303  0.94951  Biso   1.000  O
  O96      1.0000 0.66472  0.20297  0.94948  Biso   1.000  O
  C304     1.0000 0.76417  0.32714  0.96529  Biso   1.000  C
  C305     1.0000 0.76420  0.32707  0.96529  Biso   1.000  C
  H288     1.0000 0.93161  0.28491  0.07980  Biso   1.000  H
  H289     1.0000 0.84749  0.37048  0.05479  Biso   1.000  H
  N207     1.0000 0.96689  0.27679  0.02419  Biso   1.000  N
  H290     1.0000 0.93156  0.28484  0.07980  Biso   1.000  H
  H291     1.0000 0.84753  0.37041  0.05479  Biso   1.000  H
  N208     1.0000 0.96693  0.27672  0.02419  Biso   1.000  N
  H292     1.0000 0.84741  0.37048  0.05479  Biso   1.000  H
  N209     1.0000 0.96682  0.27679  0.02419  Biso   1.000  N
  H293     1.0000 0.93164  0.28484  0.07980  Biso   1.000  H
  H294     1.0000 0.06833  0.71523  0.92020  Biso   1.000  H
  H295     1.0000 0.15245  0.62966  0.94521  Biso   1.000  H
  N210     1.0000 0.19647  0.73696  0.94321  Biso   1.000  N
  H296     1.0000 0.06841  0.71523  0.92020  Biso   1.000  H
  H297     1.0000 0.15253  0.62966  0.94521  Biso   1.000  H
  N211     1.0000 0.19655  0.73696  0.94318  Biso   1.000  N
  N212     1.0000 0.19647  0.73696  0.94318  Biso   1.000  N
  C306     1.0000 0.29354  0.70738  0.96889  Biso   1.000  C
  C307     1.0000 0.29362  0.70738  0.96889  Biso   1.000  C
  C308     1.0000 0.29365  0.70731  0.96889  Biso   1.000  C
  C309     1.0000 0.32408  0.78048  0.01750  Biso   1.000  C
  C310     1.0000 0.32400  0.78048  0.01750  Biso   1.000  C
  H298     1.0000 0.73552  0.32210  0.94031  Biso   1.000  H
  H299     1.0000 0.72593  0.39141  0.97190  Biso   1.000  H
  N213     1.0000 0.88622  0.30485  0.96259  Biso   1.000  N
  H300     1.0000 0.73552  0.32210  0.94028  Biso   1.000  H
  N214     1.0000 0.88625  0.30478  0.96259  Biso   1.000  N
  H301     1.0000 0.72586  0.39141  0.97190  Biso   1.000  H
  N215     1.0000 0.88618  0.30478  0.96259  Biso   1.000  N
  H302     1.0000 0.73544  0.32210  0.94028  Biso   1.000  H
  C311     1.0000 0.94991  0.32933  0.98869  Biso   1.000  C
  C312     1.0000 0.94986  0.32927  0.98869  Biso   1.000  C
  C313     1.0000 0.08320  0.23134  0.03271  Biso   1.000  C
  C314     1.0000 0.08320  0.23134  0.03269  Biso   1.000  C
  C315     1.0000 0.19486  0.80497  0.91719  Biso   1.000  C
  C316     1.0000 0.19494  0.80497  0.91719  Biso   1.000  C
  C317     1.0000 0.19489  0.80490  0.91719  Biso   1.000  C
  C318     1.0000 0.35872  0.76730  0.95440  Biso   1.000  C
  H303     1.0000 0.34183  0.64106  0.96709  Biso   1.000  H
  C319     1.0000 0.35883  0.76723  0.95440  Biso   1.000  C
  H304     1.0000 0.34191  0.64106  0.96709  Biso   1.000  H
  C320     1.0000 0.35879  0.76730  0.95440  Biso   1.000  C
  N216     1.0000 0.36635  0.81237  0.98700  Biso   1.000  N
  N217     1.0000 0.36643  0.81237  0.98700  Biso   1.000  N
  O97      1.0000 0.33538  0.79718  0.05049  Biso   1.000  O
  O98      1.0000 0.33530  0.79718  0.05049  Biso   1.000  O
  C321     1.0000 0.95013  0.26201  0.93300  Biso   1.000  C
  C322     1.0000 0.95005  0.26201  0.93300  Biso   1.000  C
  H305     1.0000 0.91744  0.39645  0.99210  Biso   1.000  H
  H306     1.0000 0.91739  0.39638  0.99210  Biso   1.000  H
  H307     1.0000 0.91736  0.39645  0.99210  Biso   1.000  H
  C323     1.0000 0.07315  0.29581  0.97260  Biso   1.000  C
  C324     1.0000 0.07307  0.29581  0.97260  Biso   1.000  C
  N218     1.0000 0.14231  0.23533  0.00020  Biso   1.000  N
  O99      1.0000 0.12359  0.19281  0.06250  Biso   1.000  O
  O100     1.0000 0.12363  0.19274  0.06250  Biso   1.000  O
  N219     1.0000 0.14223  0.23533  0.00020  Biso   1.000  N
  O101     1.0000 0.12355  0.19274  0.06250  Biso   1.000  O
  N220     1.0000 0.28977  0.82435  0.92501  Biso   1.000  N
  O102     1.0000 0.12697  0.83817  0.89190  Biso   1.000  O
  N221     1.0000 0.28985  0.82436  0.92498  Biso   1.000  N
  O103     1.0000 0.12705  0.83817  0.89190  Biso   1.000  O
  N222     1.0000 0.28977  0.82436  0.92498  Biso   1.000  N
  O104     1.0000 0.12701  0.83810  0.89190  Biso   1.000  O
  H308     1.0000 0.43645  0.72887  0.94501  Biso   1.000  H
  H309     1.0000 0.43653  0.72888  0.94498  Biso   1.000  H
  H310     1.0000 0.43653  0.72887  0.94501  Biso   1.000  H
  H311     1.0000 0.43645  0.72888  0.94498  Biso   1.000  H
  C325     1.0000 0.44314  0.86096  0.98999  Biso   1.000  C
  C326     1.0000 0.44322  0.86096  0.98999  Biso   1.000  C
  O105     1.0000 0.91522  0.23964  0.90540  Biso   1.000  O
  O106     1.0000 0.91526  0.23957  0.90540  Biso   1.000  O
  O107     1.0000 0.91518  0.23957  0.90540  Biso   1.000  O
  N223     1.0000 0.06058  0.25082  0.93890  Biso   1.000  N
  N224     1.0000 0.06062  0.25076  0.93890  Biso   1.000  N
  H312     1.0000 0.09750  0.34754  0.96591  Biso   1.000  H
  H313     1.0000 0.09754  0.34747  0.96588  Biso   1.000  H
  H314     1.0000 0.09746  0.34747  0.96588  Biso   1.000  H
  C327     1.0000 0.26733  0.19201  0.99941  Biso   1.000  C
  C328     1.0000 0.26733  0.19202  0.99938  Biso   1.000  C
  C329     1.0000 0.26726  0.19201  0.99941  Biso   1.000  C
  C330     1.0000 0.26726  0.19202  0.99938  Biso   1.000  C
  C331     1.0000 0.32189  0.88733  0.90040  Biso   1.000  C
  C332     1.0000 0.32197  0.88733  0.90040  Biso   1.000  C
  H315     1.0000 0.51225  0.83150  0.97449  Biso   1.000  H
  N225     1.0000 0.38948  0.95616  0.97769  Biso   1.000  N
  H316     1.0000 0.51236  0.83143  0.97449  Biso   1.000  H
  N226     1.0000 0.38956  0.95616  0.97769  Biso   1.000  N
  H317     1.0000 0.51228  0.83143  0.97449  Biso   1.000  H
  H318     1.0000 0.46793  0.85577  0.01651  Biso   1.000  H
  H319     1.0000 0.46793  0.85577  0.01648  Biso   1.000  H
  C333     1.0000 0.14851  0.21800  0.91069  Biso   1.000  C
  N227     1.0000 0.30674  0.10411  0.98180  Biso   1.000  N
  N228     1.0000 0.30666  0.10411  0.98180  Biso   1.000  N
  H320     1.0000 0.29813  0.23289  0.98520  Biso   1.000  H
  H321     1.0000 0.29805  0.23289  0.98520  Biso   1.000  H
  H322     1.0000 0.29705  0.18200  0.02540  Biso   1.000  H
  H323     1.0000 0.29708  0.18193  0.02540  Biso   1.000  H
  H324     1.0000 0.29716  0.18193  0.02540  Biso   1.000  H
  N229     1.0000 0.29983  0.97288  0.91640  Biso   1.000  N
  H325     1.0000 0.27927  0.89896  0.87649  Biso   1.000  H
  H326     1.0000 0.40443  0.85827  0.89460  Biso   1.000  H
  N230     1.0000 0.29994  0.97281  0.91640  Biso   1.000  N
  H327     1.0000 0.27935  0.89896  0.87649  Biso   1.000  H
  H328     1.0000 0.40454  0.85820  0.89460  Biso   1.000  H
  N231     1.0000 0.29990  0.97288  0.91640  Biso   1.000  N
  H329     1.0000 0.40450  0.85827  0.89460  Biso   1.000  H
  H330     1.0000 0.27931  0.89889  0.87649  Biso   1.000  H
  C334     1.0000 0.38195  0.98987  0.93961  Biso   1.000  C
  C335     1.0000 0.38206  0.98981  0.93958  Biso   1.000  C
  C336     1.0000 0.38202  0.98987  0.93961  Biso   1.000  C
  C337     1.0000 0.38198  0.98981  0.93958  Biso   1.000  C
  C338     1.0000 0.34789  0.02276  0.00200  Biso   1.000  C
  C339     1.0000 0.34782  0.02276  0.00200  Biso   1.000  C
  N232     1.0000 0.22709  0.12363  0.91899  Biso   1.000  N
  N233     1.0000 0.22712  0.12356  0.91899  Biso   1.000  N
  H331     1.0000 0.19253  0.25753  0.90889  Biso   1.000  H
  H332     1.0000 0.11194  0.22252  0.88599  Biso   1.000  H
  H333     1.0000 0.19256  0.25746  0.90889  Biso   1.000  H
  H334     1.0000 0.19245  0.25753  0.90889  Biso   1.000  H
  H335     1.0000 0.11186  0.22252  0.88599  Biso   1.000  H
  H336     1.0000 0.19248  0.25746  0.90889  Biso   1.000  H
  H337     1.0000 0.11189  0.22245  0.88599  Biso   1.000  H
  C340     1.0000 0.32739  0.09526  0.94290  Biso   1.000  C
  C341     1.0000 0.32743  0.09519  0.94290  Biso   1.000  C
  C342     1.0000 0.32735  0.09519  0.94290  Biso   1.000  C
  C343     1.0000 0.21908  0.05222  0.90169  Biso   1.000  C
  C344     1.0000 0.21912  0.05216  0.90169  Biso   1.000  C
  H338     1.0000 0.45907  0.97003  0.92740  Biso   1.000  H
  H339     1.0000 0.45915  0.97003  0.92740  Biso   1.000  H
  O108     1.0000 0.35048  0.01210  0.03640  Biso   1.000  O
  O109     1.0000 0.35051  0.01203  0.03640  Biso   1.000  O
  O110     1.0000 0.35040  0.01210  0.03640  Biso   1.000  O
  H340     1.0000 0.38104  0.12432  0.93381  Biso   1.000  H
  H341     1.0000 0.38104  0.12432  0.93379  Biso   1.000  H
  H342     1.0000 0.38096  0.12432  0.93381  Biso   1.000  H
  H343     1.0000 0.38096  0.12432  0.93379  Biso   1.000  H
  O111     1.0000 0.14973  0.05871  0.87899  Biso   1.000  O
  O112     1.0000 0.14965  0.05871  0.87899  Biso   1.000  O
  O113     1.0000 0.85033  0.94150  0.12101  Biso   1.000  O
  C345     1.0000 0.78098  0.94798  0.09831  Biso   1.000  C
  C346     1.0000 0.78098  0.94799  0.09828  Biso   1.000  C
  C347     1.0000 0.78090  0.94798  0.09831  Biso   1.000  C
  C348     1.0000 0.78090  0.94799  0.09828  Biso   1.000  C
  N234     1.0000 0.77297  0.87658  0.08101  Biso   1.000  N
  N235     1.0000 0.77297  0.87658  0.08098  Biso   1.000  N
  N236     1.0000 0.77289  0.87658  0.08101  Biso   1.000  N
  N237     1.0000 0.77289  0.87658  0.08098  Biso   1.000  N
  O114     1.0000 0.85033  0.94150  0.12098  Biso   1.000  O
  O115     1.0000 0.85036  0.94144  0.12098  Biso   1.000  O
  N238     1.0000 0.70011  0.02726  0.08360  Biso   1.000  N
  N239     1.0000 0.70003  0.02726  0.08360  Biso   1.000  N
  C349     1.0000 0.85151  0.78215  0.08928  Biso   1.000  C
  C350     1.0000 0.85155  0.78221  0.08931  Biso   1.000  C
  C351     1.0000 0.85159  0.78215  0.08928  Biso   1.000  C
  C352     1.0000 0.85147  0.78221  0.08931  Biso   1.000  C
  C353     1.0000 0.67267  0.90495  0.05710  Biso   1.000  C
  C354     1.0000 0.67259  0.90495  0.05710  Biso   1.000  C
  C355     1.0000 0.61799  0.01027  0.06039  Biso   1.000  C
  C356     1.0000 0.61791  0.01027  0.06039  Biso   1.000  C
  C357     1.0000 0.67805  0.11281  0.09960  Biso   1.000  C
  C358     1.0000 0.67808  0.11274  0.09960  Biso   1.000  C
  C359     1.0000 0.67816  0.11274  0.09960  Biso   1.000  C
  H344     1.0000 0.88812  0.77769  0.11401  Biso   1.000  H
  N240     1.0000 0.93948  0.74938  0.06110  Biso   1.000  N
  H345     1.0000 0.80753  0.74268  0.09111  Biso   1.000  H
  H346     1.0000 0.80753  0.74269  0.09108  Biso   1.000  H
  N241     1.0000 0.93940  0.74938  0.06110  Biso   1.000  N
  H347     1.0000 0.61903  0.87589  0.06619  Biso   1.000  H
  N242     1.0000 0.69332  0.89610  0.01820  Biso   1.000  N
  N243     1.0000 0.69336  0.89603  0.01820  Biso   1.000  N
  H348     1.0000 0.54087  0.03011  0.07260  Biso   1.000  H
  N244     1.0000 0.61046  0.04398  0.02231  Biso   1.000  N
  H349     1.0000 0.54090  0.03005  0.07260  Biso   1.000  H
  N245     1.0000 0.61049  0.04391  0.02231  Biso   1.000  N
  H350     1.0000 0.54082  0.03005  0.07260  Biso   1.000  H
  N246     1.0000 0.61057  0.04391  0.02231  Biso   1.000  N
  H351     1.0000 0.72067  0.10118  0.12351  Biso   1.000  H
  H352     1.0000 0.59551  0.14187  0.10540  Biso   1.000  H
  N247     1.0000 0.71017  0.17579  0.07499  Biso   1.000  N
  H353     1.0000 0.72067  0.10119  0.12348  Biso   1.000  H
  N248     1.0000 0.71020  0.17572  0.07499  Biso   1.000  N
  H354     1.0000 0.59543  0.14187  0.10540  Biso   1.000  H
  H355     1.0000 0.72074  0.10119  0.12348  Biso   1.000  H
  N249     1.0000 0.71028  0.17572  0.07499  Biso   1.000  N
  C360     1.0000 0.92692  0.70440  0.02740  Biso   1.000  C
  C361     1.0000 0.92695  0.70433  0.02740  Biso   1.000  C
  C362     1.0000 0.04993  0.73820  0.06700  Biso   1.000  C
  C363     1.0000 0.04997  0.73813  0.06700  Biso   1.000  C
  C364     1.0000 0.73273  0.80820  0.00059  Biso   1.000  C
  C365     1.0000 0.73276  0.80813  0.00059  Biso   1.000  C
  C366     1.0000 0.65204  0.97738  0.99800  Biso   1.000  C
  C367     1.0000 0.65212  0.97738  0.99800  Biso   1.000  C
  C368     1.0000 0.65216  0.97731  0.99800  Biso   1.000  C
  C369     1.0000 0.55680  0.13918  0.01001  Biso   1.000  C
  C370     1.0000 0.55684  0.13912  0.00999  Biso   1.000  C
  C371     1.0000 0.55672  0.13918  0.01001  Biso   1.000  C
  C372     1.0000 0.64122  0.23285  0.04560  Biso   1.000  C
  C373     1.0000 0.80508  0.19517  0.08281  Biso   1.000  C
  C374     1.0000 0.80508  0.19517  0.08278  Biso   1.000  C
  C375     1.0000 0.64114  0.23285  0.04560  Biso   1.000  C
  C376     1.0000 0.80516  0.19517  0.08278  Biso   1.000  C
  H356     1.0000 0.90256  0.65267  0.03409  Biso   1.000  H
  H357     1.0000 0.90248  0.65267  0.03409  Biso   1.000  H
  N250     1.0000 0.85763  0.76481  0.99980  Biso   1.000  N
  N251     1.0000 0.85774  0.76474  0.99980  Biso   1.000  N
  C377     1.0000 0.05015  0.67087  0.01131  Biso   1.000  C
  C378     1.0000 0.05015  0.67088  0.01128  Biso   1.000  C
  C379     1.0000 0.05008  0.67088  0.01128  Biso   1.000  C
  N252     1.0000 0.11384  0.69536  0.03741  Biso   1.000  N
  O116     1.0000 0.08484  0.76057  0.09460  Biso   1.000  O
  N253     1.0000 0.11384  0.69536  0.03738  Biso   1.000  N
  H358     1.0000 0.70197  0.76725  0.01480  Biso   1.000  H
  H359     1.0000 0.70194  0.76731  0.01480  Biso   1.000  H
  H360     1.0000 0.70189  0.76725  0.01480  Biso   1.000  H
  H361     1.0000 0.70289  0.81814  0.97460  Biso   1.000  H
  H362     1.0000 0.70297  0.81814  0.97460  Biso   1.000  H
  O117     1.0000 0.64946  0.98804  0.96360  Biso   1.000  O
  O118     1.0000 0.64954  0.98804  0.96360  Biso   1.000  O
  H363     1.0000 0.53213  0.14444  0.98349  Biso   1.000  H
  H364     1.0000 0.53205  0.14444  0.98349  Biso   1.000  H
  H365     1.0000 0.53209  0.14437  0.98349  Biso   1.000  H
  N254     1.0000 0.63359  0.18777  0.01300  Biso   1.000  N
  H366     1.0000 0.48769  0.16864  0.02551  Biso   1.000  H
  N255     1.0000 0.63363  0.18771  0.01300  Biso   1.000  N
  H367     1.0000 0.48769  0.16865  0.02548  Biso   1.000  H
  N256     1.0000 0.63351  0.18777  0.01300  Biso   1.000  N
  H368     1.0000 0.56349  0.27127  0.05499  Biso   1.000  H
  C380     1.0000 0.70640  0.29276  0.03111  Biso   1.000  C
  C381     1.0000 0.70640  0.29276  0.03108  Biso   1.000  C
  H369     1.0000 0.56341  0.27127  0.05499  Biso   1.000  H
  C382     1.0000 0.70632  0.29276  0.03111  Biso   1.000  C
  N257     1.0000 0.80347  0.26318  0.05679  Biso   1.000  N
  O119     1.0000 0.87297  0.16198  0.10810  Biso   1.000  O
  N258     1.0000 0.80350  0.26312  0.05679  Biso   1.000  N
  N259     1.0000 0.80358  0.26312  0.05679  Biso   1.000  N
  O120     1.0000 0.87304  0.16198  0.10810  Biso   1.000  O
  C383     1.0000 0.91674  0.76880  0.96729  Biso   1.000  C
  C384     1.0000 0.91685  0.76874  0.96729  Biso   1.000  C
  C385     1.0000 0.91677  0.76874  0.96729  Biso   1.000  C
  N260     1.0000 0.03304  0.72335  0.97581  Biso   1.000  N
  N261     1.0000 0.03312  0.72335  0.97578  Biso   1.000  N
  N262     1.0000 0.03312  0.72335  0.97581  Biso   1.000  N
  H370     1.0000 0.08263  0.60376  0.00790  Biso   1.000  H
  C386     1.0000 0.23589  0.67307  0.03471  Biso   1.000  C
  C387     1.0000 0.23581  0.67308  0.03468  Biso   1.000  C
  C388     1.0000 0.23581  0.67307  0.03471  Biso   1.000  C
  C389     1.0000 0.67599  0.21973  0.98250  Biso   1.000  C
  C390     1.0000 0.67602  0.21966  0.98250  Biso   1.000  C
  N263     1.0000 0.73193  0.27016  0.99269  Biso   1.000  N
  N264     1.0000 0.73196  0.27009  0.99269  Biso   1.000  N
  N265     1.0000 0.73188  0.27009  0.99269  Biso   1.000  N
  H371     1.0000 0.65811  0.35908  0.03291  Biso   1.000  H
  H372     1.0000 0.65814  0.35901  0.03288  Biso   1.000  H
  H373     1.0000 0.65803  0.35908  0.03291  Biso   1.000  H
  C391     1.0000 0.88743  0.30324  0.05609  Biso   1.000  C
  C392     1.0000 0.88735  0.30324  0.05609  Biso   1.000  C
  O121     1.0000 0.87635  0.80733  0.93750  Biso   1.000  O
  O122     1.0000 0.87642  0.80733  0.93750  Biso   1.000  O
  C393     1.0000 0.11251  0.69690  0.94391  Biso   1.000  C
  C394     1.0000 0.11262  0.69683  0.94388  Biso   1.000  C
  C395     1.0000 0.11259  0.69690  0.94391  Biso   1.000  C
  H374     1.0000 0.26454  0.67811  0.05969  Biso   1.000  H
  H375     1.0000 0.27413  0.60880  0.02810  Biso   1.000  H
  N266     1.0000 0.26814  0.73005  0.00731  Biso   1.000  N
  H376     1.0000 0.26458  0.67804  0.05969  Biso   1.000  H
  N267     1.0000 0.26814  0.73005  0.00729  Biso   1.000  N
  H377     1.0000 0.26450  0.67804  0.05969  Biso   1.000  H
  H378     1.0000 0.27416  0.60873  0.02810  Biso   1.000  H
  O123     1.0000 0.66468  0.20303  0.94951  Biso   1.000  O
  O124     1.0000 0.66472  0.20297  0.94948  Biso   1.000  O
  C396     1.0000 0.76417  0.32714  0.96529  Biso   1.000  C
  C397     1.0000 0.76420  0.32707  0.96529  Biso   1.000  C
  H379     1.0000 0.93161  0.28491  0.07980  Biso   1.000  H
  H380     1.0000 0.84749  0.37048  0.05479  Biso   1.000  H
  N268     1.0000 0.96689  0.27679  0.02419  Biso   1.000  N
  H381     1.0000 0.93156  0.28484  0.07980  Biso   1.000  H
  H382     1.0000 0.84753  0.37041  0.05479  Biso   1.000  H
  N269     1.0000 0.96693  0.27672  0.02419  Biso   1.000  N
  H383     1.0000 0.84741  0.37048  0.05479  Biso   1.000  H
  N270     1.0000 0.96682  0.27679  0.02419  Biso   1.000  N
  H384     1.0000 0.93164  0.28484  0.07980  Biso   1.000  H
  H385     1.0000 0.06833  0.71523  0.92020  Biso   1.000  H
  H386     1.0000 0.15245  0.62966  0.94521  Biso   1.000  H
  N271     1.0000 0.19647  0.73696  0.94321  Biso   1.000  N
  H387     1.0000 0.06841  0.71523  0.92020  Biso   1.000  H
  H388     1.0000 0.15253  0.62966  0.94521  Biso   1.000  H
  N272     1.0000 0.19655  0.73696  0.94318  Biso   1.000  N
  N273     1.0000 0.19647  0.73696  0.94318  Biso   1.000  N
  C398     1.0000 0.29354  0.70738  0.96889  Biso   1.000  C
  C399     1.0000 0.29362  0.70738  0.96889  Biso   1.000  C
  C400     1.0000 0.29365  0.70731  0.96889  Biso   1.000  C
  C401     1.0000 0.32408  0.78048  0.01750  Biso   1.000  C
  C402     1.0000 0.32400  0.78048  0.01750  Biso   1.000  C
  H389     1.0000 0.73552  0.32210  0.94031  Biso   1.000  H
  H390     1.0000 0.72593  0.39141  0.97190  Biso   1.000  H
  N274     1.0000 0.88622  0.30485  0.96259  Biso   1.000  N
  H391     1.0000 0.73552  0.32210  0.94028  Biso   1.000  H
  N275     1.0000 0.88625  0.30478  0.96259  Biso   1.000  N
  H392     1.0000 0.72586  0.39141  0.97190  Biso   1.000  H
  N276     1.0000 0.88618  0.30478  0.96259  Biso   1.000  N
  H393     1.0000 0.73544  0.32210  0.94028  Biso   1.000  H
  C403     1.0000 0.94991  0.32933  0.98869  Biso   1.000  C
  C404     1.0000 0.94986  0.32927  0.98869  Biso   1.000  C
  C405     1.0000 0.08320  0.23134  0.03271  Biso   1.000  C
  C406     1.0000 0.08320  0.23134  0.03269  Biso   1.000  C
  C407     1.0000 0.19486  0.80497  0.91719  Biso   1.000  C
  C408     1.0000 0.19494  0.80497  0.91719  Biso   1.000  C
  C409     1.0000 0.19489  0.80490  0.91719  Biso   1.000  C
  C410     1.0000 0.35872  0.76730  0.95440  Biso   1.000  C
  H394     1.0000 0.34183  0.64106  0.96709  Biso   1.000  H
  C411     1.0000 0.35883  0.76723  0.95440  Biso   1.000  C
  H395     1.0000 0.34191  0.64106  0.96709  Biso   1.000  H
  C412     1.0000 0.35879  0.76730  0.95440  Biso   1.000  C
  N277     1.0000 0.36635  0.81237  0.98700  Biso   1.000  N
  N278     1.0000 0.36643  0.81237  0.98700  Biso   1.000  N
  O125     1.0000 0.33538  0.79718  0.05049  Biso   1.000  O
  O126     1.0000 0.33530  0.79718  0.05049  Biso   1.000  O
  C413     1.0000 0.95013  0.26201  0.93300  Biso   1.000  C
  C414     1.0000 0.95005  0.26201  0.93300  Biso   1.000  C
  H396     1.0000 0.91744  0.39645  0.99210  Biso   1.000  H
  H397     1.0000 0.91739  0.39638  0.99210  Biso   1.000  H
  H398     1.0000 0.91736  0.39645  0.99210  Biso   1.000  H
  C415     1.0000 0.07315  0.29581  0.97260  Biso   1.000  C
  C416     1.0000 0.07307  0.29581  0.97260  Biso   1.000  C
  N279     1.0000 0.14231  0.23533  0.00020  Biso   1.000  N
  O127     1.0000 0.12359  0.19281  0.06250  Biso   1.000  O
  O128     1.0000 0.12363  0.19274  0.06250  Biso   1.000  O
  N280     1.0000 0.14223  0.23533  0.00020  Biso   1.000  N
  O129     1.0000 0.12355  0.19274  0.06250  Biso   1.000  O
  N281     1.0000 0.28977  0.82435  0.92501  Biso   1.000  N
  O130     1.0000 0.12697  0.83817  0.89190  Biso   1.000  O
  N282     1.0000 0.28985  0.82436  0.92498  Biso   1.000  N
  O131     1.0000 0.12705  0.83817  0.89190  Biso   1.000  O
  N283     1.0000 0.28977  0.82436  0.92498  Biso   1.000  N
  O132     1.0000 0.12701  0.83810  0.89190  Biso   1.000  O
  H399     1.0000 0.43645  0.72887  0.94501  Biso   1.000  H
  H400     1.0000 0.43653  0.72888  0.94498  Biso   1.000  H
  H401     1.0000 0.43653  0.72887  0.94501  Biso   1.000  H
  H402     1.0000 0.43645  0.72888  0.94498  Biso   1.000  H
  C417     1.0000 0.44314  0.86096  0.98999  Biso   1.000  C
  C418     1.0000 0.44322  0.86096  0.98999  Biso   1.000  C
  O133     1.0000 0.91522  0.23964  0.90540  Biso   1.000  O
  O134     1.0000 0.91526  0.23957  0.90540  Biso   1.000  O
  O135     1.0000 0.91518  0.23957  0.90540  Biso   1.000  O
  N284     1.0000 0.06058  0.25082  0.93890  Biso   1.000  N
  N285     1.0000 0.06062  0.25076  0.93890  Biso   1.000  N
  H403     1.0000 0.09750  0.34754  0.96591  Biso   1.000  H
  H404     1.0000 0.09754  0.34747  0.96588  Biso   1.000  H
  H405     1.0000 0.09746  0.34747  0.96588  Biso   1.000  H
  C419     1.0000 0.26733  0.19201  0.99941  Biso   1.000  C
  C420     1.0000 0.26733  0.19202  0.99938  Biso   1.000  C
  C421     1.0000 0.26726  0.19201  0.99941  Biso   1.000  C
  C422     1.0000 0.26726  0.19202  0.99938  Biso   1.000  C
  C423     1.0000 0.32189  0.88733  0.90040  Biso   1.000  C
  C424     1.0000 0.32197  0.88733  0.90040  Biso   1.000  C
  H406     1.0000 0.51225  0.83150  0.97449  Biso   1.000  H
  N286     1.0000 0.38948  0.95616  0.97769  Biso   1.000  N
  H407     1.0000 0.51236  0.83143  0.97449  Biso   1.000  H
  N287     1.0000 0.38956  0.95616  0.97769  Biso   1.000  N
  H408     1.0000 0.51228  0.83143  0.97449  Biso   1.000  H
  H409     1.0000 0.46793  0.85577  0.01651  Biso   1.000  H
  H410     1.0000 0.46793  0.85577  0.01648  Biso   1.000  H
  C425     1.0000 0.14851  0.21800  0.91069  Biso   1.000  C
  N288     1.0000 0.30674  0.10411  0.98180  Biso   1.000  N
  N289     1.0000 0.30666  0.10411  0.98180  Biso   1.000  N
  H411     1.0000 0.29813  0.23289  0.98520  Biso   1.000  H
  H412     1.0000 0.29805  0.23289  0.98520  Biso   1.000  H
  H413     1.0000 0.29705  0.18200  0.02540  Biso   1.000  H
  H414     1.0000 0.29708  0.18193  0.02540  Biso   1.000  H
  H415     1.0000 0.29716  0.18193  0.02540  Biso   1.000  H
  N290     1.0000 0.29983  0.97288  0.91640  Biso   1.000  N
  H416     1.0000 0.27927  0.89896  0.87649  Biso   1.000  H
  H417     1.0000 0.40443  0.85827  0.89460  Biso   1.000  H
  N291     1.0000 0.29994  0.97281  0.91640  Biso   1.000  N
  H418     1.0000 0.27935  0.89896  0.87649  Biso   1.000  H
  H419     1.0000 0.40454  0.85820  0.89460  Biso   1.000  H
  N292     1.0000 0.29990  0.97288  0.91640  Biso   1.000  N
  H420     1.0000 0.40450  0.85827  0.89460  Biso   1.000  H
  H421     1.0000 0.27931  0.89889  0.87649  Biso   1.000  H
  C426     1.0000 0.38195  0.98987  0.93961  Biso   1.000  C
  C427     1.0000 0.38206  0.98981  0.93958  Biso   1.000  C
  C428     1.0000 0.38202  0.98987  0.93961  Biso   1.000  C
  C429     1.0000 0.38198  0.98981  0.93958  Biso   1.000  C
  C430     1.0000 0.34789  0.02276  0.00200  Biso   1.000  C
  C431     1.0000 0.34782  0.02276  0.00200  Biso   1.000  C
  N293     1.0000 0.22709  0.12363  0.91899  Biso   1.000  N
  N294     1.0000 0.22712  0.12356  0.91899  Biso   1.000  N
  H422     1.0000 0.19253  0.25753  0.90889  Biso   1.000  H
  H423     1.0000 0.11194  0.22252  0.88599  Biso   1.000  H
  H424     1.0000 0.19256  0.25746  0.90889  Biso   1.000  H
  H425     1.0000 0.19245  0.25753  0.90889  Biso   1.000  H
  H426     1.0000 0.11186  0.22252  0.88599  Biso   1.000  H
  H427     1.0000 0.19248  0.25746  0.90889  Biso   1.000  H
  H428     1.0000 0.11189  0.22245  0.88599  Biso   1.000  H
  C432     1.0000 0.32739  0.09526  0.94290  Biso   1.000  C
  C433     1.0000 0.32743  0.09519  0.94290  Biso   1.000  C
  C434     1.0000 0.32735  0.09519  0.94290  Biso   1.000  C
  C435     1.0000 0.21908  0.05222  0.90169  Biso   1.000  C
  C436     1.0000 0.21912  0.05216  0.90169  Biso   1.000  C
  H429     1.0000 0.45907  0.97003  0.92740  Biso   1.000  H
  H430     1.0000 0.45915  0.97003  0.92740  Biso   1.000  H
  O136     1.0000 0.35048  0.01210  0.03640  Biso   1.000  O
  O137     1.0000 0.35051  0.01203  0.03640  Biso   1.000  O
  O138     1.0000 0.35040  0.01210  0.03640  Biso   1.000  O
  H431     1.0000 0.38104  0.12432  0.93381  Biso   1.000  H
  H432     1.0000 0.38104  0.12432  0.93379  Biso   1.000  H
  H433     1.0000 0.38096  0.12432  0.93381  Biso   1.000  H
  H434     1.0000 0.38096  0.12432  0.93379  Biso   1.000  H
  O139     1.0000 0.14973  0.05871  0.87899  Biso   1.000  O
  O140     1.0000 0.14965  0.05871  0.87899  Biso   1.000  O
  O141     1.0000 0.85033  0.94150  0.12101  Biso   1.000  O
  C437     1.0000 0.78098  0.94798  0.09831  Biso   1.000  C
  C438     1.0000 0.78098  0.94799  0.09828  Biso   1.000  C
  C439     1.0000 0.78090  0.94798  0.09831  Biso   1.000  C
  C440     1.0000 0.78090  0.94799  0.09828  Biso   1.000  C
  N295     1.0000 0.77297  0.87658  0.08101  Biso   1.000  N
  N296     1.0000 0.77297  0.87658  0.08098  Biso   1.000  N
  N297     1.0000 0.77289  0.87658  0.08101  Biso   1.000  N
  N298     1.0000 0.77289  0.87658  0.08098  Biso   1.000  N
  N299     1.0000 0.70011  0.02726  0.08360  Biso   1.000  N
  N300     1.0000 0.70003  0.02726  0.08360  Biso   1.000  N
  O142     1.0000 0.85033  0.94150  0.12098  Biso   1.000  O
  O143     1.0000 0.85036  0.94144  0.12098  Biso   1.000  O
  C441     1.0000 0.67267  0.90495  0.05710  Biso   1.000  C
  C442     1.0000 0.67259  0.90495  0.05710  Biso   1.000  C
  C443     1.0000 0.85155  0.78221  0.08931  Biso   1.000  C
  C444     1.0000 0.85159  0.78215  0.08928  Biso   1.000  C
  C445     1.0000 0.85147  0.78221  0.08931  Biso   1.000  C
  C446     1.0000 0.85151  0.78215  0.08928  Biso   1.000  C
  C447     1.0000 0.61799  0.01027  0.06039  Biso   1.000  C
  C448     1.0000 0.61791  0.01027  0.06039  Biso   1.000  C
  C449     1.0000 0.67805  0.11281  0.09960  Biso   1.000  C
  C450     1.0000 0.67808  0.11274  0.09960  Biso   1.000  C
  C451     1.0000 0.67816  0.11274  0.09960  Biso   1.000  C
  H435     1.0000 0.61903  0.87589  0.06619  Biso   1.000  H
  N301     1.0000 0.69332  0.89610  0.01820  Biso   1.000  N
  N302     1.0000 0.69336  0.89603  0.01820  Biso   1.000  N
  H436     1.0000 0.88812  0.77769  0.11401  Biso   1.000  H
  H437     1.0000 0.80753  0.74268  0.09111  Biso   1.000  H
  N303     1.0000 0.93948  0.74938  0.06110  Biso   1.000  N
  H438     1.0000 0.80753  0.74269  0.09108  Biso   1.000  H
  N304     1.0000 0.93940  0.74938  0.06110  Biso   1.000  N
  H439     1.0000 0.54087  0.03011  0.07260  Biso   1.000  H
  N305     1.0000 0.61046  0.04398  0.02231  Biso   1.000  N
  H440     1.0000 0.54090  0.03005  0.07260  Biso   1.000  H
  N306     1.0000 0.61049  0.04391  0.02231  Biso   1.000  N
  H441     1.0000 0.54082  0.03005  0.07260  Biso   1.000  H
  N307     1.0000 0.61057  0.04391  0.02231  Biso   1.000  N
  H442     1.0000 0.72067  0.10118  0.12351  Biso   1.000  H
  H443     1.0000 0.59551  0.14187  0.10540  Biso   1.000  H
  N308     1.0000 0.71017  0.17579  0.07499  Biso   1.000  N
  H444     1.0000 0.72067  0.10119  0.12348  Biso   1.000  H
  N309     1.0000 0.71020  0.17572  0.07499  Biso   1.000  N
  H445     1.0000 0.59543  0.14187  0.10540  Biso   1.000  H
  H446     1.0000 0.72074  0.10119  0.12348  Biso   1.000  H
  N310     1.0000 0.71028  0.17572  0.07499  Biso   1.000  N
  C452     1.0000 0.73273  0.80820  0.00059  Biso   1.000  C
  C453     1.0000 0.73276  0.80813  0.00059  Biso   1.000  C
  C454     1.0000 0.65204  0.97738  0.99800  Biso   1.000  C
  C455     1.0000 0.65212  0.97738  0.99800  Biso   1.000  C
  C456     1.0000 0.65216  0.97731  0.99800  Biso   1.000  C
  C457     1.0000 0.92692  0.70440  0.02740  Biso   1.000  C
  C458     1.0000 0.92695  0.70433  0.02740  Biso   1.000  C
  C459     1.0000 0.04993  0.73820  0.06700  Biso   1.000  C
  C460     1.0000 0.04997  0.73813  0.06700  Biso   1.000  C
  C461     1.0000 0.55680  0.13918  0.01001  Biso   1.000  C
  C462     1.0000 0.55684  0.13912  0.00999  Biso   1.000  C
  C463     1.0000 0.55672  0.13918  0.01001  Biso   1.000  C
  C464     1.0000 0.64122  0.23285  0.04560  Biso   1.000  C
  C465     1.0000 0.64114  0.23285  0.04560  Biso   1.000  C
  C466     1.0000 0.80508  0.19517  0.08281  Biso   1.000  C
  C467     1.0000 0.80508  0.19517  0.08278  Biso   1.000  C
  C468     1.0000 0.80516  0.19517  0.08278  Biso   1.000  C
  H447     1.0000 0.70197  0.76725  0.01480  Biso   1.000  H
  H448     1.0000 0.70289  0.81814  0.97460  Biso   1.000  H
  N311     1.0000 0.85763  0.76481  0.99980  Biso   1.000  N
  H449     1.0000 0.70297  0.81814  0.97460  Biso   1.000  H
  N312     1.0000 0.85774  0.76474  0.99980  Biso   1.000  N
  H450     1.0000 0.70194  0.76731  0.01480  Biso   1.000  H
  H451     1.0000 0.70189  0.76725  0.01480  Biso   1.000  H
  O144     1.0000 0.64946  0.98804  0.96360  Biso   1.000  O
  O145     1.0000 0.64954  0.98804  0.96360  Biso   1.000  O
  H452     1.0000 0.90256  0.65267  0.03409  Biso   1.000  H
  H453     1.0000 0.90248  0.65267  0.03409  Biso   1.000  H
  C469     1.0000 0.05015  0.67087  0.01131  Biso   1.000  C
  C470     1.0000 0.05015  0.67088  0.01128  Biso   1.000  C
  C471     1.0000 0.05008  0.67088  0.01128  Biso   1.000  C
  N313     1.0000 0.11384  0.69536  0.03741  Biso   1.000  N
  O146     1.0000 0.08484  0.76057  0.09460  Biso   1.000  O
  N314     1.0000 0.11384  0.69536  0.03738  Biso   1.000  N
  H454     1.0000 0.53213  0.14444  0.98349  Biso   1.000  H
  H455     1.0000 0.53205  0.14444  0.98349  Biso   1.000  H
  H456     1.0000 0.53209  0.14437  0.98349  Biso   1.000  H
  N315     1.0000 0.63359  0.18777  0.01300  Biso   1.000  N
  H457     1.0000 0.48769  0.16864  0.02551  Biso   1.000  H
  N316     1.0000 0.63363  0.18771  0.01300  Biso   1.000  N
  H458     1.0000 0.48769  0.16865  0.02548  Biso   1.000  H
  N317     1.0000 0.63351  0.18777  0.01300  Biso   1.000  N
  H459     1.0000 0.56349  0.27127  0.05499  Biso   1.000  H
  C472     1.0000 0.70640  0.29276  0.03111  Biso   1.000  C
  C473     1.0000 0.70640  0.29276  0.03108  Biso   1.000  C
  H460     1.0000 0.56341  0.27127  0.05499  Biso   1.000  H
  C474     1.0000 0.70632  0.29276  0.03111  Biso   1.000  C
  N318     1.0000 0.80347  0.26318  0.05679  Biso   1.000  N
  O147     1.0000 0.87297  0.16198  0.10810  Biso   1.000  O
  N319     1.0000 0.80350  0.26312  0.05679  Biso   1.000  N
  N320     1.0000 0.80358  0.26312  0.05679  Biso   1.000  N
  O148     1.0000 0.87304  0.16198  0.10810  Biso   1.000  O
  C475     1.0000 0.91674  0.76880  0.96729  Biso   1.000  C
  C476     1.0000 0.91685  0.76874  0.96729  Biso   1.000  C
  C477     1.0000 0.91677  0.76874  0.96729  Biso   1.000  C
  N321     1.0000 0.03304  0.72335  0.97581  Biso   1.000  N
  N322     1.0000 0.03312  0.72335  0.97578  Biso   1.000  N
  N323     1.0000 0.03312  0.72335  0.97581  Biso   1.000  N
  H461     1.0000 0.08263  0.60376  0.00790  Biso   1.000  H
  C478     1.0000 0.23589  0.67307  0.03471  Biso   1.000  C
  C479     1.0000 0.23581  0.67308  0.03468  Biso   1.000  C
  C480     1.0000 0.23581  0.67307  0.03471  Biso   1.000  C
  C481     1.0000 0.67599  0.21973  0.98250  Biso   1.000  C
  C482     1.0000 0.67602  0.21966  0.98250  Biso   1.000  C
  N324     1.0000 0.73193  0.27016  0.99269  Biso   1.000  N
  N325     1.0000 0.73196  0.27009  0.99269  Biso   1.000  N
  N326     1.0000 0.73188  0.27009  0.99269  Biso   1.000  N
  H462     1.0000 0.65811  0.35908  0.03291  Biso   1.000  H
  H463     1.0000 0.65814  0.35901  0.03288  Biso   1.000  H
  H464     1.0000 0.65803  0.35908  0.03291  Biso   1.000  H
  C483     1.0000 0.88743  0.30324  0.05609  Biso   1.000  C
  C484     1.0000 0.88735  0.30324  0.05609  Biso   1.000  C
  O149     1.0000 0.87635  0.80733  0.93750  Biso   1.000  O
  O150     1.0000 0.87642  0.80733  0.93750  Biso   1.000  O
  C485     1.0000 0.11251  0.69690  0.94391  Biso   1.000  C
  C486     1.0000 0.11262  0.69683  0.94388  Biso   1.000  C
  C487     1.0000 0.11259  0.69690  0.94391  Biso   1.000  C
  H465     1.0000 0.26454  0.67811  0.05969  Biso   1.000  H
  H466     1.0000 0.27413  0.60880  0.02810  Biso   1.000  H
  N327     1.0000 0.26814  0.73005  0.00731  Biso   1.000  N
  H467     1.0000 0.26458  0.67804  0.05969  Biso   1.000  H
  N328     1.0000 0.26814  0.73005  0.00729  Biso   1.000  N
  H468     1.0000 0.26450  0.67804  0.05969  Biso   1.000  H
  H469     1.0000 0.27416  0.60873  0.02810  Biso   1.000  H
  O151     1.0000 0.66468  0.20303  0.94951  Biso   1.000  O
  O152     1.0000 0.66472  0.20297  0.94948  Biso   1.000  O
  C488     1.0000 0.76417  0.32714  0.96529  Biso   1.000  C
  C489     1.0000 0.76420  0.32707  0.96529  Biso   1.000  C
  H470     1.0000 0.93161  0.28491  0.07980  Biso   1.000  H
  H471     1.0000 0.84749  0.37048  0.05479  Biso   1.000  H
  N329     1.0000 0.96689  0.27679  0.02419  Biso   1.000  N
  H472     1.0000 0.93156  0.28484  0.07980  Biso   1.000  H
  H473     1.0000 0.84753  0.37041  0.05479  Biso   1.000  H
  N330     1.0000 0.96693  0.27672  0.02419  Biso   1.000  N
  H474     1.0000 0.84741  0.37048  0.05479  Biso   1.000  H
  N331     1.0000 0.96682  0.27679  0.02419  Biso   1.000  N
  H475     1.0000 0.93164  0.28484  0.07980  Biso   1.000  H
  H476     1.0000 0.06833  0.71523  0.92020  Biso   1.000  H
  H477     1.0000 0.15245  0.62966  0.94521  Biso   1.000  H
  N332     1.0000 0.19647  0.73696  0.94321  Biso   1.000  N
  H478     1.0000 0.06841  0.71523  0.92020  Biso   1.000  H
  H479     1.0000 0.15253  0.62966  0.94521  Biso   1.000  H
  N333     1.0000 0.19655  0.73696  0.94318  Biso   1.000  N
  N334     1.0000 0.19647  0.73696  0.94318  Biso   1.000  N
  C490     1.0000 0.29354  0.70738  0.96889  Biso   1.000  C
  C491     1.0000 0.29362  0.70738  0.96889  Biso   1.000  C
  C492     1.0000 0.29365  0.70731  0.96889  Biso   1.000  C
  C493     1.0000 0.32408  0.78048  0.01750  Biso   1.000  C
  C494     1.0000 0.32400  0.78048  0.01750  Biso   1.000  C
  H480     1.0000 0.73552  0.32210  0.94031  Biso   1.000  H
  H481     1.0000 0.72593  0.39141  0.97190  Biso   1.000  H
  N335     1.0000 0.88622  0.30485  0.96259  Biso   1.000  N
  H482     1.0000 0.73552  0.32210  0.94028  Biso   1.000  H
  N336     1.0000 0.88625  0.30478  0.96259  Biso   1.000  N
  H483     1.0000 0.72586  0.39141  0.97190  Biso   1.000  H
  N337     1.0000 0.88618  0.30478  0.96259  Biso   1.000  N
  H484     1.0000 0.73544  0.32210  0.94028  Biso   1.000  H
  C495     1.0000 0.94991  0.32933  0.98869  Biso   1.000  C
  C496     1.0000 0.94986  0.32927  0.98869  Biso   1.000  C
  C497     1.0000 0.08320  0.23134  0.03271  Biso   1.000  C
  C498     1.0000 0.08320  0.23134  0.03269  Biso   1.000  C
  C499     1.0000 0.19486  0.80497  0.91719  Biso   1.000  C
  C500     1.0000 0.19494  0.80497  0.91719  Biso   1.000  C
  C501     1.0000 0.19489  0.80490  0.91719  Biso   1.000  C
  C502     1.0000 0.35872  0.76730  0.95440  Biso   1.000  C
  H485     1.0000 0.34183  0.64106  0.96709  Biso   1.000  H
  C503     1.0000 0.35883  0.76723  0.95440  Biso   1.000  C
  H486     1.0000 0.34191  0.64106  0.96709  Biso   1.000  H
  C504     1.0000 0.35879  0.76730  0.95440  Biso   1.000  C
  N338     1.0000 0.36635  0.81237  0.98700  Biso   1.000  N
  N339     1.0000 0.36643  0.81237  0.98700  Biso   1.000  N
  O153     1.0000 0.33538  0.79718  0.05049  Biso   1.000  O
  O154     1.0000 0.33530  0.79718  0.05049  Biso   1.000  O
  C505     1.0000 0.95013  0.26201  0.93300  Biso   1.000  C
  C506     1.0000 0.95005  0.26201  0.93300  Biso   1.000  C
  H487     1.0000 0.91744  0.39645  0.99210  Biso   1.000  H
  H488     1.0000 0.91739  0.39638  0.99210  Biso   1.000  H
  H489     1.0000 0.91736  0.39645  0.99210  Biso   1.000  H
  C507     1.0000 0.07315  0.29581  0.97260  Biso   1.000  C
  C508     1.0000 0.07307  0.29581  0.97260  Biso   1.000  C
  N340     1.0000 0.14231  0.23533  0.00020  Biso   1.000  N
  O155     1.0000 0.12359  0.19281  0.06250  Biso   1.000  O
  O156     1.0000 0.12363  0.19274  0.06250  Biso   1.000  O
  N341     1.0000 0.14223  0.23533  0.00020  Biso   1.000  N
  O157     1.0000 0.12355  0.19274  0.06250  Biso   1.000  O
  N342     1.0000 0.28977  0.82435  0.92501  Biso   1.000  N
  O158     1.0000 0.12697  0.83817  0.89190  Biso   1.000  O
  N343     1.0000 0.28985  0.82436  0.92498  Biso   1.000  N
  O159     1.0000 0.12705  0.83817  0.89190  Biso   1.000  O
  N344     1.0000 0.28977  0.82436  0.92498  Biso   1.000  N
  O160     1.0000 0.12701  0.83810  0.89190  Biso   1.000  O
  H490     1.0000 0.43645  0.72887  0.94501  Biso   1.000  H
  H491     1.0000 0.43653  0.72888  0.94498  Biso   1.000  H
  H492     1.0000 0.43653  0.72887  0.94501  Biso   1.000  H
  H493     1.0000 0.43645  0.72888  0.94498  Biso   1.000  H
  C509     1.0000 0.44314  0.86096  0.98999  Biso   1.000  C
  C510     1.0000 0.44322  0.86096  0.98999  Biso   1.000  C
  O161     1.0000 0.91522  0.23964  0.90540  Biso   1.000  O
  O162     1.0000 0.91526  0.23957  0.90540  Biso   1.000  O
  O163     1.0000 0.91518  0.23957  0.90540  Biso   1.000  O
  N345     1.0000 0.06058  0.25082  0.93890  Biso   1.000  N
  N346     1.0000 0.06062  0.25076  0.93890  Biso   1.000  N
  H494     1.0000 0.09750  0.34754  0.96591  Biso   1.000  H
  H495     1.0000 0.09754  0.34747  0.96588  Biso   1.000  H
  H496     1.0000 0.09746  0.34747  0.96588  Biso   1.000  H
  C511     1.0000 0.26733  0.19201  0.99941  Biso   1.000  C
  C512     1.0000 0.26733  0.19202  0.99938  Biso   1.000  C
  C513     1.0000 0.26726  0.19201  0.99941  Biso   1.000  C
  C514     1.0000 0.26726  0.19202  0.99938  Biso   1.000  C
  C515     1.0000 0.32189  0.88733  0.90040  Biso   1.000  C
  C516     1.0000 0.32197  0.88733  0.90040  Biso   1.000  C
  H497     1.0000 0.51225  0.83150  0.97449  Biso   1.000  H
  N347     1.0000 0.38948  0.95616  0.97769  Biso   1.000  N
  H498     1.0000 0.51236  0.83143  0.97449  Biso   1.000  H
  N348     1.0000 0.38956  0.95616  0.97769  Biso   1.000  N
  H499     1.0000 0.51228  0.83143  0.97449  Biso   1.000  H
  H500     1.0000 0.46793  0.85577  0.01651  Biso   1.000  H
  H501     1.0000 0.46793  0.85577  0.01648  Biso   1.000  H
  C517     1.0000 0.14851  0.21800  0.91069  Biso   1.000  C
  H502     1.0000 0.29813  0.23289  0.98520  Biso   1.000  H
  N349     1.0000 0.30674  0.10411  0.98180  Biso   1.000  N
  N350     1.0000 0.30666  0.10411  0.98180  Biso   1.000  N
  H503     1.0000 0.29805  0.23289  0.98520  Biso   1.000  H
  H504     1.0000 0.29705  0.18200  0.02540  Biso   1.000  H
  H505     1.0000 0.29708  0.18193  0.02540  Biso   1.000  H
  H506     1.0000 0.29716  0.18193  0.02540  Biso   1.000  H
  N351     1.0000 0.29983  0.97288  0.91640  Biso   1.000  N
  H507     1.0000 0.27927  0.89896  0.87649  Biso   1.000  H
  H508     1.0000 0.40443  0.85827  0.89460  Biso   1.000  H
  N352     1.0000 0.29994  0.97281  0.91640  Biso   1.000  N
  H509     1.0000 0.27935  0.89896  0.87649  Biso   1.000  H
  H510     1.0000 0.40454  0.85820  0.89460  Biso   1.000  H
  N353     1.0000 0.29990  0.97288  0.91640  Biso   1.000  N
  H511     1.0000 0.40450  0.85827  0.89460  Biso   1.000  H
  H512     1.0000 0.27931  0.89889  0.87649  Biso   1.000  H
  C518     1.0000 0.38195  0.98987  0.93961  Biso   1.000  C
  C519     1.0000 0.38206  0.98981  0.93958  Biso   1.000  C
  C520     1.0000 0.38202  0.98987  0.93961  Biso   1.000  C
  C521     1.0000 0.38198  0.98981  0.93958  Biso   1.000  C
  C522     1.0000 0.34789  0.02276  0.00200  Biso   1.000  C
  C523     1.0000 0.34782  0.02276  0.00200  Biso   1.000  C
  H513     1.0000 0.19253  0.25753  0.90889  Biso   1.000  H
  H514     1.0000 0.11194  0.22252  0.88599  Biso   1.000  H
  N354     1.0000 0.22709  0.12363  0.91899  Biso   1.000  N
  H515     1.0000 0.19256  0.25746  0.90889  Biso   1.000  H
  H516     1.0000 0.19245  0.25753  0.90889  Biso   1.000  H
  H517     1.0000 0.11186  0.22252  0.88599  Biso   1.000  H
  H518     1.0000 0.19248  0.25746  0.90889  Biso   1.000  H
  H519     1.0000 0.11189  0.22245  0.88599  Biso   1.000  H
  N355     1.0000 0.22712  0.12356  0.91899  Biso   1.000  N
  C524     1.0000 0.32739  0.09526  0.94290  Biso   1.000  C
  C525     1.0000 0.32743  0.09519  0.94290  Biso   1.000  C
  C526     1.0000 0.32735  0.09519  0.94290  Biso   1.000  C
  C527     1.0000 0.21908  0.05222  0.90169  Biso   1.000  C
  C528     1.0000 0.21912  0.05216  0.90169  Biso   1.000  C
  H520     1.0000 0.45907  0.97003  0.92740  Biso   1.000  H
  H521     1.0000 0.45915  0.97003  0.92740  Biso   1.000  H
  O164     1.0000 0.35048  0.01210  0.03640  Biso   1.000  O
  O165     1.0000 0.35051  0.01203  0.03640  Biso   1.000  O
  O166     1.0000 0.35040  0.01210  0.03640  Biso   1.000  O
  H522     1.0000 0.38104  0.12432  0.93381  Biso   1.000  H
  H523     1.0000 0.38104  0.12432  0.93379  Biso   1.000  H
  H524     1.0000 0.38096  0.12432  0.93381  Biso   1.000  H
  H525     1.0000 0.38096  0.12432  0.93379  Biso   1.000  H
  O167     1.0000 0.14973  0.05871  0.87899  Biso   1.000  O
  O168     1.0000 0.14965  0.05871  0.87899  Biso   1.000  O
  O169     1.0000 0.85033  0.94150  0.12101  Biso   1.000  O
  C529     1.0000 0.78098  0.94798  0.09831  Biso   1.000  C
  C530     1.0000 0.78098  0.94799  0.09828  Biso   1.000  C
  C531     1.0000 0.78090  0.94798  0.09831  Biso   1.000  C
  C532     1.0000 0.78090  0.94799  0.09828  Biso   1.000  C
  N356     1.0000 0.77297  0.87658  0.08101  Biso   1.000  N
  N357     1.0000 0.77297  0.87658  0.08098  Biso   1.000  N
  N358     1.0000 0.77289  0.87658  0.08101  Biso   1.000  N
  N359     1.0000 0.77289  0.87658  0.08098  Biso   1.000  N
  N360     1.0000 0.70011  0.02726  0.08360  Biso   1.000  N
  N361     1.0000 0.70003  0.02726  0.08360  Biso   1.000  N
  O170     1.0000 0.85033  0.94150  0.12098  Biso   1.000  O
  O171     1.0000 0.85036  0.94144  0.12098  Biso   1.000  O
  C533     1.0000 0.67267  0.90495  0.05710  Biso   1.000  C
  C534     1.0000 0.67259  0.90495  0.05710  Biso   1.000  C
  C535     1.0000 0.85155  0.78221  0.08931  Biso   1.000  C
  C536     1.0000 0.85159  0.78215  0.08928  Biso   1.000  C
  C537     1.0000 0.85147  0.78221  0.08931  Biso   1.000  C
  C538     1.0000 0.85151  0.78215  0.08928  Biso   1.000  C
  C539     1.0000 0.61799  0.01027  0.06039  Biso   1.000  C
  C540     1.0000 0.61791  0.01027  0.06039  Biso   1.000  C
  C541     1.0000 0.67805  0.11281  0.09960  Biso   1.000  C
  C542     1.0000 0.67808  0.11274  0.09960  Biso   1.000  C
  C543     1.0000 0.67816  0.11274  0.09960  Biso   1.000  C
  H526     1.0000 0.61903  0.87589  0.06619  Biso   1.000  H
  N362     1.0000 0.69332  0.89610  0.01820  Biso   1.000  N
  N363     1.0000 0.69336  0.89603  0.01820  Biso   1.000  N
  H527     1.0000 0.88812  0.77769  0.11401  Biso   1.000  H
  N364     1.0000 0.93948  0.74938  0.06110  Biso   1.000  N
  H528     1.0000 0.80753  0.74268  0.09111  Biso   1.000  H
  H529     1.0000 0.80753  0.74269  0.09108  Biso   1.000  H
  N365     1.0000 0.93940  0.74938  0.06110  Biso   1.000  N
  H530     1.0000 0.54087  0.03011  0.07260  Biso   1.000  H
  N366     1.0000 0.61046  0.04398  0.02231  Biso   1.000  N
  H531     1.0000 0.54090  0.03005  0.07260  Biso   1.000  H
  N367     1.0000 0.61049  0.04391  0.02231  Biso   1.000  N
  H532     1.0000 0.54082  0.03005  0.07260  Biso   1.000  H
  N368     1.0000 0.61057  0.04391  0.02231  Biso   1.000  N
  H533     1.0000 0.72067  0.10118  0.12351  Biso   1.000  H
  H534     1.0000 0.59551  0.14187  0.10540  Biso   1.000  H
  N369     1.0000 0.71017  0.17579  0.07499  Biso   1.000  N
  H535     1.0000 0.72067  0.10119  0.12348  Biso   1.000  H
  N370     1.0000 0.71020  0.17572  0.07499  Biso   1.000  N
  H536     1.0000 0.59543  0.14187  0.10540  Biso   1.000  H
  H537     1.0000 0.72074  0.10119  0.12348  Biso   1.000  H
  N371     1.0000 0.71028  0.17572  0.07499  Biso   1.000  N
  C544     1.0000 0.73273  0.80820  0.00059  Biso   1.000  C
  C545     1.0000 0.73276  0.80813  0.00059  Biso   1.000  C
  C546     1.0000 0.65204  0.97738  0.99800  Biso   1.000  C
  C547     1.0000 0.65212  0.97738  0.99800  Biso   1.000  C
  C548     1.0000 0.65216  0.97731  0.99800  Biso   1.000  C
  C549     1.0000 0.92692  0.70440  0.02740  Biso   1.000  C
  C550     1.0000 0.92695  0.70433  0.02740  Biso   1.000  C
  C551     1.0000 0.04993  0.73820  0.06700  Biso   1.000  C
  C552     1.0000 0.04997  0.73813  0.06700  Biso   1.000  C
  C553     1.0000 0.55680  0.13918  0.01001  Biso   1.000  C
  C554     1.0000 0.55684  0.13912  0.00999  Biso   1.000  C
  C555     1.0000 0.55672  0.13918  0.01001  Biso   1.000  C
  C556     1.0000 0.64122  0.23285  0.04560  Biso   1.000  C
  C557     1.0000 0.64114  0.23285  0.04560  Biso   1.000  C
  C558     1.0000 0.80508  0.19517  0.08281  Biso   1.000  C
  C559     1.0000 0.80508  0.19517  0.08278  Biso   1.000  C
  C560     1.0000 0.80516  0.19517  0.08278  Biso   1.000  C
  H538     1.0000 0.70197  0.76725  0.01480  Biso   1.000  H
  H539     1.0000 0.70289  0.81814  0.97460  Biso   1.000  H
  N372     1.0000 0.85763  0.76481  0.99980  Biso   1.000  N
  H540     1.0000 0.70297  0.81814  0.97460  Biso   1.000  H
  N373     1.0000 0.85774  0.76474  0.99980  Biso   1.000  N
  H541     1.0000 0.70194  0.76731  0.01480  Biso   1.000  H
  H542     1.0000 0.70189  0.76725  0.01480  Biso   1.000  H
  O172     1.0000 0.64946  0.98804  0.96360  Biso   1.000  O
  O173     1.0000 0.64954  0.98804  0.96360  Biso   1.000  O
  H543     1.0000 0.90256  0.65267  0.03409  Biso   1.000  H
  H544     1.0000 0.90248  0.65267  0.03409  Biso   1.000  H
  C561     1.0000 0.05015  0.67087  0.01131  Biso   1.000  C
  C562     1.0000 0.05015  0.67088  0.01128  Biso   1.000  C
  C563     1.0000 0.05008  0.67088  0.01128  Biso   1.000  C
  N374     1.0000 0.11384  0.69536  0.03741  Biso   1.000  N
  O174     1.0000 0.08484  0.76057  0.09460  Biso   1.000  O
  N375     1.0000 0.11384  0.69536  0.03738  Biso   1.000  N
  H545     1.0000 0.53213  0.14444  0.98349  Biso   1.000  H
  H546     1.0000 0.53205  0.14444  0.98349  Biso   1.000  H
  H547     1.0000 0.53209  0.14437  0.98349  Biso   1.000  H
  N376     1.0000 0.63359  0.18777  0.01300  Biso   1.000  N
  H548     1.0000 0.48769  0.16864  0.02551  Biso   1.000  H
  N377     1.0000 0.63363  0.18771  0.01300  Biso   1.000  N
  H549     1.0000 0.48769  0.16865  0.02548  Biso   1.000  H
  N378     1.0000 0.63351  0.18777  0.01300  Biso   1.000  N
  H550     1.0000 0.56349  0.27127  0.05499  Biso   1.000  H
  C564     1.0000 0.70640  0.29276  0.03111  Biso   1.000  C
  C565     1.0000 0.70640  0.29276  0.03108  Biso   1.000  C
  H551     1.0000 0.56341  0.27127  0.05499  Biso   1.000  H
  C566     1.0000 0.70632  0.29276  0.03111  Biso   1.000  C
  N379     1.0000 0.80347  0.26318  0.05679  Biso   1.000  N
  O175     1.0000 0.87297  0.16198  0.10810  Biso   1.000  O
  N380     1.0000 0.80350  0.26312  0.05679  Biso   1.000  N
  N381     1.0000 0.80358  0.26312  0.05679  Biso   1.000  N
  O176     1.0000 0.87304  0.16198  0.10810  Biso   1.000  O
  C567     1.0000 0.91674  0.76880  0.96729  Biso   1.000  C
  C568     1.0000 0.91685  0.76874  0.96729  Biso   1.000  C
  C569     1.0000 0.91677  0.76874  0.96729  Biso   1.000  C
  N382     1.0000 0.03304  0.72335  0.97581  Biso   1.000  N
  N383     1.0000 0.03312  0.72335  0.97578  Biso   1.000  N
  N384     1.0000 0.03312  0.72335  0.97581  Biso   1.000  N
  H552     1.0000 0.08263  0.60376  0.00790  Biso   1.000  H
  C570     1.0000 0.23589  0.67307  0.03471  Biso   1.000  C
  C571     1.0000 0.23581  0.67308  0.03468  Biso   1.000  C
  C572     1.0000 0.23581  0.67307  0.03471  Biso   1.000  C
  C573     1.0000 0.67599  0.21973  0.98250  Biso   1.000  C
  C574     1.0000 0.67602  0.21966  0.98250  Biso   1.000  C
  N385     1.0000 0.73193  0.27016  0.99269  Biso   1.000  N
  N386     1.0000 0.73196  0.27009  0.99269  Biso   1.000  N
  N387     1.0000 0.73188  0.27009  0.99269  Biso   1.000  N
  H553     1.0000 0.65811  0.35908  0.03291  Biso   1.000  H
  H554     1.0000 0.65814  0.35901  0.03288  Biso   1.000  H
  H555     1.0000 0.65803  0.35908  0.03291  Biso   1.000  H
  C575     1.0000 0.88743  0.30324  0.05609  Biso   1.000  C
  C576     1.0000 0.88735  0.30324  0.05609  Biso   1.000  C
  O177     1.0000 0.87635  0.80733  0.93750  Biso   1.000  O
  O178     1.0000 0.87642  0.80733  0.93750  Biso   1.000  O
  C577     1.0000 0.11251  0.69690  0.94391  Biso   1.000  C
  C578     1.0000 0.11262  0.69683  0.94388  Biso   1.000  C
  C579     1.0000 0.11259  0.69690  0.94391  Biso   1.000  C
  H556     1.0000 0.26454  0.67811  0.05969  Biso   1.000  H
  H557     1.0000 0.27413  0.60880  0.02810  Biso   1.000  H
  N388     1.0000 0.26814  0.73005  0.00731  Biso   1.000  N
  H558     1.0000 0.26458  0.67804  0.05969  Biso   1.000  H
  N389     1.0000 0.26814  0.73005  0.00729  Biso   1.000  N
  H559     1.0000 0.26450  0.67804  0.05969  Biso   1.000  H
  H560     1.0000 0.27416  0.60873  0.02810  Biso   1.000  H
  O179     1.0000 0.66468  0.20303  0.94951  Biso   1.000  O
  O180     1.0000 0.66472  0.20297  0.94948  Biso   1.000  O
  C580     1.0000 0.76417  0.32714  0.96529  Biso   1.000  C
  C581     1.0000 0.76420  0.32707  0.96529  Biso   1.000  C
  H561     1.0000 0.93161  0.28491  0.07980  Biso   1.000  H
  H562     1.0000 0.84749  0.37048  0.05479  Biso   1.000  H
  N390     1.0000 0.96689  0.27679  0.02419  Biso   1.000  N
  H563     1.0000 0.93156  0.28484  0.07980  Biso   1.000  H
  H564     1.0000 0.84753  0.37041  0.05479  Biso   1.000  H
  N391     1.0000 0.96693  0.27672  0.02419  Biso   1.000  N
  H565     1.0000 0.84741  0.37048  0.05479  Biso   1.000  H
  N392     1.0000 0.96682  0.27679  0.02419  Biso   1.000  N
  H566     1.0000 0.93164  0.28484  0.07980  Biso   1.000  H
  H567     1.0000 0.06833  0.71523  0.92020  Biso   1.000  H
  H568     1.0000 0.15245  0.62966  0.94521  Biso   1.000  H
  N393     1.0000 0.19647  0.73696  0.94321  Biso   1.000  N
  H569     1.0000 0.06841  0.71523  0.92020  Biso   1.000  H
  H570     1.0000 0.15253  0.62966  0.94521  Biso   1.000  H
  N394     1.0000 0.19655  0.73696  0.94318  Biso   1.000  N
  N395     1.0000 0.19647  0.73696  0.94318  Biso   1.000  N
  C582     1.0000 0.29354  0.70738  0.96889  Biso   1.000  C
  C583     1.0000 0.29362  0.70738  0.96889  Biso   1.000  C
  C584     1.0000 0.29365  0.70731  0.96889  Biso   1.000  C
  C585     1.0000 0.32408  0.78048  0.01750  Biso   1.000  C
  C586     1.0000 0.32400  0.78048  0.01750  Biso   1.000  C
  H571     1.0000 0.73552  0.32210  0.94031  Biso   1.000  H
  H572     1.0000 0.72593  0.39141  0.97190  Biso   1.000  H
  N396     1.0000 0.88622  0.30485  0.96259  Biso   1.000  N
  H573     1.0000 0.73552  0.32210  0.94028  Biso   1.000  H
  N397     1.0000 0.88625  0.30478  0.96259  Biso   1.000  N
  H574     1.0000 0.72586  0.39141  0.97190  Biso   1.000  H
  N398     1.0000 0.88618  0.30478  0.96259  Biso   1.000  N
  H575     1.0000 0.73544  0.32210  0.94028  Biso   1.000  H
  C587     1.0000 0.94991  0.32933  0.98869  Biso   1.000  C
  C588     1.0000 0.94986  0.32927  0.98869  Biso   1.000  C
  C589     1.0000 0.08320  0.23134  0.03271  Biso   1.000  C
  C590     1.0000 0.08320  0.23134  0.03269  Biso   1.000  C
  C591     1.0000 0.19486  0.80497  0.91719  Biso   1.000  C
  C592     1.0000 0.19494  0.80497  0.91719  Biso   1.000  C
  C593     1.0000 0.19489  0.80490  0.91719  Biso   1.000  C
  C594     1.0000 0.35872  0.76730  0.95440  Biso   1.000  C
  H576     1.0000 0.34183  0.64106  0.96709  Biso   1.000  H
  C595     1.0000 0.35883  0.76723  0.95440  Biso   1.000  C
  H577     1.0000 0.34191  0.64106  0.96709  Biso   1.000  H
  C596     1.0000 0.35879  0.76730  0.95440  Biso   1.000  C
  N399     1.0000 0.36635  0.81237  0.98700  Biso   1.000  N
  N400     1.0000 0.36643  0.81237  0.98700  Biso   1.000  N
  O181     1.0000 0.33538  0.79718  0.05049  Biso   1.000  O
  O182     1.0000 0.33530  0.79718  0.05049  Biso   1.000  O
  C597     1.0000 0.95013  0.26201  0.93300  Biso   1.000  C
  C598     1.0000 0.95005  0.26201  0.93300  Biso   1.000  C
  H578     1.0000 0.91744  0.39645  0.99210  Biso   1.000  H
  H579     1.0000 0.91739  0.39638  0.99210  Biso   1.000  H
  H580     1.0000 0.91736  0.39645  0.99210  Biso   1.000  H
  C599     1.0000 0.07315  0.29581  0.97260  Biso   1.000  C
  C600     1.0000 0.07307  0.29581  0.97260  Biso   1.000  C
  N401     1.0000 0.14231  0.23533  0.00020  Biso   1.000  N
  O183     1.0000 0.12359  0.19281  0.06250  Biso   1.000  O
  O184     1.0000 0.12363  0.19274  0.06250  Biso   1.000  O
  N402     1.0000 0.14223  0.23533  0.00020  Biso   1.000  N
  O185     1.0000 0.12355  0.19274  0.06250  Biso   1.000  O
  N403     1.0000 0.28977  0.82435  0.92501  Biso   1.000  N
  O186     1.0000 0.12697  0.83817  0.89190  Biso   1.000  O
  N404     1.0000 0.28985  0.82436  0.92498  Biso   1.000  N
  O187     1.0000 0.12705  0.83817  0.89190  Biso   1.000  O
  N405     1.0000 0.28977  0.82436  0.92498  Biso   1.000  N
  O188     1.0000 0.12701  0.83810  0.89190  Biso   1.000  O
  H581     1.0000 0.43645  0.72887  0.94501  Biso   1.000  H
  H582     1.0000 0.43653  0.72888  0.94498  Biso   1.000  H
  H583     1.0000 0.43653  0.72887  0.94501  Biso   1.000  H
  H584     1.0000 0.43645  0.72888  0.94498  Biso   1.000  H
  C601     1.0000 0.44314  0.86096  0.98999  Biso   1.000  C
  C602     1.0000 0.44322  0.86096  0.98999  Biso   1.000  C
  O189     1.0000 0.91522  0.23964  0.90540  Biso   1.000  O
  O190     1.0000 0.91526  0.23957  0.90540  Biso   1.000  O
  O191     1.0000 0.91518  0.23957  0.90540  Biso   1.000  O
  N406     1.0000 0.06058  0.25082  0.93890  Biso   1.000  N
  N407     1.0000 0.06062  0.25076  0.93890  Biso   1.000  N
  H585     1.0000 0.09750  0.34754  0.96591  Biso   1.000  H
  H586     1.0000 0.09754  0.34747  0.96588  Biso   1.000  H
  H587     1.0000 0.09746  0.34747  0.96588  Biso   1.000  H
  C603     1.0000 0.26733  0.19201  0.99941  Biso   1.000  C
  C604     1.0000 0.26733  0.19202  0.99938  Biso   1.000  C
  C605     1.0000 0.26726  0.19201  0.99941  Biso   1.000  C
  C606     1.0000 0.26726  0.19202  0.99938  Biso   1.000  C
  C607     1.0000 0.32189  0.88733  0.90040  Biso   1.000  C
  C608     1.0000 0.32197  0.88733  0.90040  Biso   1.000  C
  H588     1.0000 0.51225  0.83150  0.97449  Biso   1.000  H
  N408     1.0000 0.38948  0.95616  0.97769  Biso   1.000  N
  H589     1.0000 0.51236  0.83143  0.97449  Biso   1.000  H
  N409     1.0000 0.38956  0.95616  0.97769  Biso   1.000  N
  H590     1.0000 0.51228  0.83143  0.97449  Biso   1.000  H
  H591     1.0000 0.46793  0.85577  0.01651  Biso   1.000  H
  H592     1.0000 0.46793  0.85577  0.01648  Biso   1.000  H
  C609     1.0000 0.14851  0.21800  0.91069  Biso   1.000  C
  H593     1.0000 0.29813  0.23289  0.98520  Biso   1.000  H
  N410     1.0000 0.30674  0.10411  0.98180  Biso   1.000  N
  N411     1.0000 0.30666  0.10411  0.98180  Biso   1.000  N
  H594     1.0000 0.29805  0.23289  0.98520  Biso   1.000  H
  H595     1.0000 0.29705  0.18200  0.02540  Biso   1.000  H
  H596     1.0000 0.29708  0.18193  0.02540  Biso   1.000  H
  H597     1.0000 0.29716  0.18193  0.02540  Biso   1.000  H
  N412     1.0000 0.29983  0.97288  0.91640  Biso   1.000  N
  H598     1.0000 0.27927  0.89896  0.87649  Biso   1.000  H
  H599     1.0000 0.40443  0.85827  0.89460  Biso   1.000  H
  N413     1.0000 0.29994  0.97281  0.91640  Biso   1.000  N
  H600     1.0000 0.27935  0.89896  0.87649  Biso   1.000  H
  H601     1.0000 0.40454  0.85820  0.89460  Biso   1.000  H
  N414     1.0000 0.29990  0.97288  0.91640  Biso   1.000  N
  H602     1.0000 0.40450  0.85827  0.89460  Biso   1.000  H
  H603     1.0000 0.27931  0.89889  0.87649  Biso   1.000  H
  C610     1.0000 0.38195  0.98987  0.93961  Biso   1.000  C
  C611     1.0000 0.38206  0.98981  0.93958  Biso   1.000  C
  C612     1.0000 0.38202  0.98987  0.93961  Biso   1.000  C
  C613     1.0000 0.38198  0.98981  0.93958  Biso   1.000  C
  C614     1.0000 0.34789  0.02276  0.00200  Biso   1.000  C
  C615     1.0000 0.34782  0.02276  0.00200  Biso   1.000  C
  H604     1.0000 0.19253  0.25753  0.90889  Biso   1.000  H
  H605     1.0000 0.11194  0.22252  0.88599  Biso   1.000  H
  N415     1.0000 0.22709  0.12363  0.91899  Biso   1.000  N
  H606     1.0000 0.19256  0.25746  0.90889  Biso   1.000  H
  H607     1.0000 0.19245  0.25753  0.90889  Biso   1.000  H
  H608     1.0000 0.11186  0.22252  0.88599  Biso   1.000  H
  H609     1.0000 0.19248  0.25746  0.90889  Biso   1.000  H
  H610     1.0000 0.11189  0.22245  0.88599  Biso   1.000  H
  N416     1.0000 0.22712  0.12356  0.91899  Biso   1.000  N
  C616     1.0000 0.32739  0.09526  0.94290  Biso   1.000  C
  C617     1.0000 0.32743  0.09519  0.94290  Biso   1.000  C
  C618     1.0000 0.32735  0.09519  0.94290  Biso   1.000  C
  C619     1.0000 0.21908  0.05222  0.90169  Biso   1.000  C
  C620     1.0000 0.21912  0.05216  0.90169  Biso   1.000  C
  H611     1.0000 0.45907  0.97003  0.92740  Biso   1.000  H
  H612     1.0000 0.45915  0.97003  0.92740  Biso   1.000  H
  O192     1.0000 0.35048  0.01210  0.03640  Biso   1.000  O
  O193     1.0000 0.35051  0.01203  0.03640  Biso   1.000  O
  O194     1.0000 0.35040  0.01210  0.03640  Biso   1.000  O
  H613     1.0000 0.38104  0.12432  0.93381  Biso   1.000  H
  H614     1.0000 0.38104  0.12432  0.93379  Biso   1.000  H
  H615     1.0000 0.38096  0.12432  0.93381  Biso   1.000  H
  H616     1.0000 0.38096  0.12432  0.93379  Biso   1.000  H
  O195     1.0000 0.14973  0.05871  0.87899  Biso   1.000  O
  O196     1.0000 0.14965  0.05871  0.87899  Biso   1.000  O
  O197     1.0000 0.85033  0.94150  0.12101  Biso   1.000  O
  C621     1.0000 0.78098  0.94798  0.09831  Biso   1.000  C
  C622     1.0000 0.78098  0.94799  0.09828  Biso   1.000  C
  C623     1.0000 0.78090  0.94798  0.09831  Biso   1.000  C
  C624     1.0000 0.78090  0.94799  0.09828  Biso   1.000  C
  N417     1.0000 0.77297  0.87658  0.08101  Biso   1.000  N
  N418     1.0000 0.77297  0.87658  0.08098  Biso   1.000  N
  N419     1.0000 0.77289  0.87658  0.08101  Biso   1.000  N
  N420     1.0000 0.77289  0.87658  0.08098  Biso   1.000  N
  N421     1.0000 0.70011  0.02726  0.08360  Biso   1.000  N
  N422     1.0000 0.70003  0.02726  0.08360  Biso   1.000  N
  O198     1.0000 0.85033  0.94150  0.12098  Biso   1.000  O
  O199     1.0000 0.85036  0.94144  0.12098  Biso   1.000  O
  C625     1.0000 0.67267  0.90495  0.05710  Biso   1.000  C
  C626     1.0000 0.85155  0.78221  0.08931  Biso   1.000  C
  C627     1.0000 0.85159  0.78215  0.08928  Biso   1.000  C
  C628     1.0000 0.85147  0.78221  0.08931  Biso   1.000  C
  C629     1.0000 0.85151  0.78215  0.08928  Biso   1.000  C
  C630     1.0000 0.67259  0.90495  0.05710  Biso   1.000  C
  C631     1.0000 0.61799  0.01027  0.06039  Biso   1.000  C
  C632     1.0000 0.61791  0.01027  0.06039  Biso   1.000  C
  C633     1.0000 0.67805  0.11281  0.09960  Biso   1.000  C
  C634     1.0000 0.67808  0.11274  0.09960  Biso   1.000  C
  C635     1.0000 0.67816  0.11274  0.09960  Biso   1.000  C
  H617     1.0000 0.61903  0.87589  0.06619  Biso   1.000  H
  N423     1.0000 0.69332  0.89610  0.01820  Biso   1.000  N
  N424     1.0000 0.69336  0.89603  0.01820  Biso   1.000  N
  H618     1.0000 0.88812  0.77769  0.11401  Biso   1.000  H
  H619     1.0000 0.80753  0.74268  0.09111  Biso   1.000  H
  N425     1.0000 0.93948  0.74938  0.06110  Biso   1.000  N
  H620     1.0000 0.80753  0.74269  0.09108  Biso   1.000  H
  N426     1.0000 0.93940  0.74938  0.06110  Biso   1.000  N
  H621     1.0000 0.54087  0.03011  0.07260  Biso   1.000  H
  N427     1.0000 0.61046  0.04398  0.02231  Biso   1.000  N
  H622     1.0000 0.54090  0.03005  0.07260  Biso   1.000  H
  N428     1.0000 0.61049  0.04391  0.02231  Biso   1.000  N
  H623     1.0000 0.54082  0.03005  0.07260  Biso   1.000  H
  N429     1.0000 0.61057  0.04391  0.02231  Biso   1.000  N
  H624     1.0000 0.72067  0.10118  0.12351  Biso   1.000  H
  H625     1.0000 0.59551  0.14187  0.10540  Biso   1.000  H
  N430     1.0000 0.71017  0.17579  0.07499  Biso   1.000  N
  H626     1.0000 0.72067  0.10119  0.12348  Biso   1.000  H
  N431     1.0000 0.71020  0.17572  0.07499  Biso   1.000  N
  H627     1.0000 0.59543  0.14187  0.10540  Biso   1.000  H
  H628     1.0000 0.72074  0.10119  0.12348  Biso   1.000  H
  N432     1.0000 0.71028  0.17572  0.07499  Biso   1.000  N
  C636     1.0000 0.65204  0.97738  0.99800  Biso   1.000  C
  C637     1.0000 0.65212  0.97738  0.99800  Biso   1.000  C
  C638     1.0000 0.65216  0.97731  0.99800  Biso   1.000  C
  C639     1.0000 0.73273  0.80820  0.00059  Biso   1.000  C
  C640     1.0000 0.73276  0.80813  0.00059  Biso   1.000  C
  C641     1.0000 0.92692  0.70440  0.02740  Biso   1.000  C
  C642     1.0000 0.92695  0.70433  0.02740  Biso   1.000  C
  C643     1.0000 0.04993  0.73820  0.06700  Biso   1.000  C
  C644     1.0000 0.04997  0.73813  0.06700  Biso   1.000  C
  C645     1.0000 0.55680  0.13918  0.01001  Biso   1.000  C
  C646     1.0000 0.55684  0.13912  0.00999  Biso   1.000  C
  C647     1.0000 0.55672  0.13918  0.01001  Biso   1.000  C
  C648     1.0000 0.64122  0.23285  0.04560  Biso   1.000  C
  C649     1.0000 0.64114  0.23285  0.04560  Biso   1.000  C
  C650     1.0000 0.80508  0.19517  0.08281  Biso   1.000  C
  C651     1.0000 0.80508  0.19517  0.08278  Biso   1.000  C
  C652     1.0000 0.80516  0.19517  0.08278  Biso   1.000  C
  O200     1.0000 0.64946  0.98804  0.96360  Biso   1.000  O
  O201     1.0000 0.64954  0.98804  0.96360  Biso   1.000  O
  H629     1.0000 0.70289  0.81814  0.97460  Biso   1.000  H
  N433     1.0000 0.85763  0.76481  0.99980  Biso   1.000  N
  H630     1.0000 0.70297  0.81814  0.97460  Biso   1.000  H
  N434     1.0000 0.85774  0.76474  0.99980  Biso   1.000  N
  H631     1.0000 0.70194  0.76731  0.01480  Biso   1.000  H
  H632     1.0000 0.70197  0.76725  0.01480  Biso   1.000  H
  H633     1.0000 0.70189  0.76725  0.01480  Biso   1.000  H
  H634     1.0000 0.90256  0.65267  0.03409  Biso   1.000  H
  H635     1.0000 0.90248  0.65267  0.03409  Biso   1.000  H
  C653     1.0000 0.05015  0.67087  0.01131  Biso   1.000  C
  C654     1.0000 0.05015  0.67088  0.01128  Biso   1.000  C
  C655     1.0000 0.05008  0.67088  0.01128  Biso   1.000  C
  N435     1.0000 0.11384  0.69536  0.03741  Biso   1.000  N
  O202     1.0000 0.08484  0.76057  0.09460  Biso   1.000  O
  N436     1.0000 0.11384  0.69536  0.03738  Biso   1.000  N
  H636     1.0000 0.53213  0.14444  0.98349  Biso   1.000  H
  H637     1.0000 0.53205  0.14444  0.98349  Biso   1.000  H
  H638     1.0000 0.53209  0.14437  0.98349  Biso   1.000  H
  N437     1.0000 0.63359  0.18777  0.01300  Biso   1.000  N
  H639     1.0000 0.48769  0.16864  0.02551  Biso   1.000  H
  N438     1.0000 0.63363  0.18771  0.01300  Biso   1.000  N
  H640     1.0000 0.48769  0.16865  0.02548  Biso   1.000  H
  N439     1.0000 0.63351  0.18777  0.01300  Biso   1.000  N
  H641     1.0000 0.56349  0.27127  0.05499  Biso   1.000  H
  C656     1.0000 0.70640  0.29276  0.03111  Biso   1.000  C
  C657     1.0000 0.70640  0.29276  0.03108  Biso   1.000  C
  H642     1.0000 0.56341  0.27127  0.05499  Biso   1.000  H
  C658     1.0000 0.70632  0.29276  0.03111  Biso   1.000  C
  N440     1.0000 0.80347  0.26318  0.05679  Biso   1.000  N
  O203     1.0000 0.87297  0.16198  0.10810  Biso   1.000  O
  N441     1.0000 0.80350  0.26312  0.05679  Biso   1.000  N
  N442     1.0000 0.80358  0.26312  0.05679  Biso   1.000  N
  O204     1.0000 0.87304  0.16198  0.10810  Biso   1.000  O
  C659     1.0000 0.91674  0.76880  0.96729  Biso   1.000  C
  C660     1.0000 0.91685  0.76874  0.96729  Biso   1.000  C
  C661     1.0000 0.91677  0.76874  0.96729  Biso   1.000  C
  N443     1.0000 0.03304  0.72335  0.97581  Biso   1.000  N
  N444     1.0000 0.03312  0.72335  0.97578  Biso   1.000  N
  N445     1.0000 0.03312  0.72335  0.97581  Biso   1.000  N
  H643     1.0000 0.08263  0.60376  0.00790  Biso   1.000  H
  C662     1.0000 0.23589  0.67307  0.03471  Biso   1.000  C
  C663     1.0000 0.23581  0.67308  0.03468  Biso   1.000  C
  C664     1.0000 0.23581  0.67307  0.03471  Biso   1.000  C
  C665     1.0000 0.67599  0.21973  0.98250  Biso   1.000  C
  C666     1.0000 0.67602  0.21966  0.98250  Biso   1.000  C
  N446     1.0000 0.73193  0.27016  0.99269  Biso   1.000  N
  N447     1.0000 0.73196  0.27009  0.99269  Biso   1.000  N
  N448     1.0000 0.73188  0.27009  0.99269  Biso   1.000  N
  H644     1.0000 0.65811  0.35908  0.03291  Biso   1.000  H
  H645     1.0000 0.65814  0.35901  0.03288  Biso   1.000  H
  H646     1.0000 0.65803  0.35908  0.03291  Biso   1.000  H
  C667     1.0000 0.88743  0.30324  0.05609  Biso   1.000  C
  C668     1.0000 0.88735  0.30324  0.05609  Biso   1.000  C
  O205     1.0000 0.87635  0.80733  0.93750  Biso   1.000  O
  O206     1.0000 0.87642  0.80733  0.93750  Biso   1.000  O
  C669     1.0000 0.11251  0.69690  0.94391  Biso   1.000  C
  C670     1.0000 0.11262  0.69683  0.94388  Biso   1.000  C
  C671     1.0000 0.11259  0.69690  0.94391  Biso   1.000  C
  H647     1.0000 0.26454  0.67811  0.05969  Biso   1.000  H
  H648     1.0000 0.27413  0.60880  0.02810  Biso   1.000  H
  N449     1.0000 0.26814  0.73005  0.00731  Biso   1.000  N
  H649     1.0000 0.26458  0.67804  0.05969  Biso   1.000  H
  N450     1.0000 0.26814  0.73005  0.00729  Biso   1.000  N
  H650     1.0000 0.26450  0.67804  0.05969  Biso   1.000  H
  H651     1.0000 0.27416  0.60873  0.02810  Biso   1.000  H
  O207     1.0000 0.66468  0.20303  0.94951  Biso   1.000  O
  O208     1.0000 0.66472  0.20297  0.94948  Biso   1.000  O
  C672     1.0000 0.76417  0.32714  0.96529  Biso   1.000  C
  C673     1.0000 0.76420  0.32707  0.96529  Biso   1.000  C
  H652     1.0000 0.93161  0.28491  0.07980  Biso   1.000  H
  H653     1.0000 0.84749  0.37048  0.05479  Biso   1.000  H
  N451     1.0000 0.96689  0.27679  0.02419  Biso   1.000  N
  H654     1.0000 0.93156  0.28484  0.07980  Biso   1.000  H
  H655     1.0000 0.84753  0.37041  0.05479  Biso   1.000  H
  N452     1.0000 0.96693  0.27672  0.02419  Biso   1.000  N
  H656     1.0000 0.84741  0.37048  0.05479  Biso   1.000  H
  N453     1.0000 0.96682  0.27679  0.02419  Biso   1.000  N
  H657     1.0000 0.93164  0.28484  0.07980  Biso   1.000  H
  H658     1.0000 0.06833  0.71523  0.92020  Biso   1.000  H
  H659     1.0000 0.15245  0.62966  0.94521  Biso   1.000  H
  N454     1.0000 0.19647  0.73696  0.94321  Biso   1.000  N
  H660     1.0000 0.06841  0.71523  0.92020  Biso   1.000  H
  H661     1.0000 0.15253  0.62966  0.94521  Biso   1.000  H
  N455     1.0000 0.19655  0.73696  0.94318  Biso   1.000  N
  N456     1.0000 0.19647  0.73696  0.94318  Biso   1.000  N
  C674     1.0000 0.29354  0.70738  0.96889  Biso   1.000  C
  C675     1.0000 0.29362  0.70738  0.96889  Biso   1.000  C
  C676     1.0000 0.29365  0.70731  0.96889  Biso   1.000  C
  C677     1.0000 0.32408  0.78048  0.01750  Biso   1.000  C
  C678     1.0000 0.32400  0.78048  0.01750  Biso   1.000  C
  H662     1.0000 0.73552  0.32210  0.94031  Biso   1.000  H
  H663     1.0000 0.72593  0.39141  0.97190  Biso   1.000  H
  N457     1.0000 0.88622  0.30485  0.96259  Biso   1.000  N
  H664     1.0000 0.73552  0.32210  0.94028  Biso   1.000  H
  N458     1.0000 0.88625  0.30478  0.96259  Biso   1.000  N
  H665     1.0000 0.72586  0.39141  0.97190  Biso   1.000  H
  N459     1.0000 0.88618  0.30478  0.96259  Biso   1.000  N
  H666     1.0000 0.73544  0.32210  0.94028  Biso   1.000  H
  C679     1.0000 0.94991  0.32933  0.98869  Biso   1.000  C
  C680     1.0000 0.94986  0.32927  0.98869  Biso   1.000  C
  C681     1.0000 0.08320  0.23134  0.03271  Biso   1.000  C
  C682     1.0000 0.08320  0.23134  0.03269  Biso   1.000  C
  C683     1.0000 0.19486  0.80497  0.91719  Biso   1.000  C
  C684     1.0000 0.19494  0.80497  0.91719  Biso   1.000  C
  C685     1.0000 0.19489  0.80490  0.91719  Biso   1.000  C
  C686     1.0000 0.35872  0.76730  0.95440  Biso   1.000  C
  H667     1.0000 0.34183  0.64106  0.96709  Biso   1.000  H
  C687     1.0000 0.35883  0.76723  0.95440  Biso   1.000  C
  H668     1.0000 0.34191  0.64106  0.96709  Biso   1.000  H
  C688     1.0000 0.35879  0.76730  0.95440  Biso   1.000  C
  N460     1.0000 0.36635  0.81237  0.98700  Biso   1.000  N
  N461     1.0000 0.36643  0.81237  0.98700  Biso   1.000  N
  O209     1.0000 0.33538  0.79718  0.05049  Biso   1.000  O
  O210     1.0000 0.33530  0.79718  0.05049  Biso   1.000  O
  C689     1.0000 0.95013  0.26201  0.93300  Biso   1.000  C
  C690     1.0000 0.95005  0.26201  0.93300  Biso   1.000  C
  H669     1.0000 0.91744  0.39645  0.99210  Biso   1.000  H
  H670     1.0000 0.91739  0.39638  0.99210  Biso   1.000  H
  H671     1.0000 0.91736  0.39645  0.99210  Biso   1.000  H
  C691     1.0000 0.07315  0.29581  0.97260  Biso   1.000  C
  C692     1.0000 0.07307  0.29581  0.97260  Biso   1.000  C
  N462     1.0000 0.14231  0.23533  0.00020  Biso   1.000  N
  O211     1.0000 0.12359  0.19281  0.06250  Biso   1.000  O
  O212     1.0000 0.12363  0.19274  0.06250  Biso   1.000  O
  N463     1.0000 0.14223  0.23533  0.00020  Biso   1.000  N
  O213     1.0000 0.12355  0.19274  0.06250  Biso   1.000  O
  N464     1.0000 0.28977  0.82435  0.92501  Biso   1.000  N
  O214     1.0000 0.12697  0.83817  0.89190  Biso   1.000  O
  N465     1.0000 0.28985  0.82436  0.92498  Biso   1.000  N
  O215     1.0000 0.12705  0.83817  0.89190  Biso   1.000  O
  N466     1.0000 0.28977  0.82436  0.92498  Biso   1.000  N
  O216     1.0000 0.12701  0.83810  0.89190  Biso   1.000  O
  H672     1.0000 0.43645  0.72887  0.94501  Biso   1.000  H
  H673     1.0000 0.43653  0.72888  0.94498  Biso   1.000  H
  H674     1.0000 0.43653  0.72887  0.94501  Biso   1.000  H
  H675     1.0000 0.43645  0.72888  0.94498  Biso   1.000  H
  C693     1.0000 0.44314  0.86096  0.98999  Biso   1.000  C
  C694     1.0000 0.44322  0.86096  0.98999  Biso   1.000  C
  O217     1.0000 0.91522  0.23964  0.90540  Biso   1.000  O
  O218     1.0000 0.91526  0.23957  0.90540  Biso   1.000  O
  O219     1.0000 0.91518  0.23957  0.90540  Biso   1.000  O
  N467     1.0000 0.06058  0.25082  0.93890  Biso   1.000  N
  N468     1.0000 0.06062  0.25076  0.93890  Biso   1.000  N
  H676     1.0000 0.09750  0.34754  0.96591  Biso   1.000  H
  H677     1.0000 0.09754  0.34747  0.96588  Biso   1.000  H
  H678     1.0000 0.09746  0.34747  0.96588  Biso   1.000  H
  C695     1.0000 0.26733  0.19201  0.99941  Biso   1.000  C
  C696     1.0000 0.26733  0.19202  0.99938  Biso   1.000  C
  C697     1.0000 0.26726  0.19201  0.99941  Biso   1.000  C
  C698     1.0000 0.26726  0.19202  0.99938  Biso   1.000  C
  C699     1.0000 0.32189  0.88733  0.90040  Biso   1.000  C
  C700     1.0000 0.32197  0.88733  0.90040  Biso   1.000  C
  H679     1.0000 0.51225  0.83150  0.97449  Biso   1.000  H
  N469     1.0000 0.38948  0.95616  0.97769  Biso   1.000  N
  H680     1.0000 0.51236  0.83143  0.97449  Biso   1.000  H
  N470     1.0000 0.38956  0.95616  0.97769  Biso   1.000  N
  H681     1.0000 0.51228  0.83143  0.97449  Biso   1.000  H
  H682     1.0000 0.46793  0.85577  0.01651  Biso   1.000  H
  H683     1.0000 0.46793  0.85577  0.01648  Biso   1.000  H
  C701     1.0000 0.14851  0.21800  0.91069  Biso   1.000  C
  H684     1.0000 0.29813  0.23289  0.98520  Biso   1.000  H
  N471     1.0000 0.30674  0.10411  0.98180  Biso   1.000  N
  N472     1.0000 0.30666  0.10411  0.98180  Biso   1.000  N
  H685     1.0000 0.29805  0.23289  0.98520  Biso   1.000  H
  H686     1.0000 0.29705  0.18200  0.02540  Biso   1.000  H
  H687     1.0000 0.29708  0.18193  0.02540  Biso   1.000  H
  H688     1.0000 0.29716  0.18193  0.02540  Biso   1.000  H
  N473     1.0000 0.29983  0.97288  0.91640  Biso   1.000  N
  H689     1.0000 0.27927  0.89896  0.87649  Biso   1.000  H
  H690     1.0000 0.40443  0.85827  0.89460  Biso   1.000  H
  N474     1.0000 0.29994  0.97281  0.91640  Biso   1.000  N
  H691     1.0000 0.27935  0.89896  0.87649  Biso   1.000  H
  H692     1.0000 0.40454  0.85820  0.89460  Biso   1.000  H
  N475     1.0000 0.29990  0.97288  0.91640  Biso   1.000  N
  H693     1.0000 0.40450  0.85827  0.89460  Biso   1.000  H
  H694     1.0000 0.27931  0.89889  0.87649  Biso   1.000  H
  C702     1.0000 0.38195  0.98987  0.93961  Biso   1.000  C
  C703     1.0000 0.38206  0.98981  0.93958  Biso   1.000  C
  C704     1.0000 0.38202  0.98987  0.93961  Biso   1.000  C
  C705     1.0000 0.38198  0.98981  0.93958  Biso   1.000  C
  C706     1.0000 0.34789  0.02276  0.00200  Biso   1.000  C
  C707     1.0000 0.34782  0.02276  0.00200  Biso   1.000  C
  H695     1.0000 0.19253  0.25753  0.90889  Biso   1.000  H
  H696     1.0000 0.11194  0.22252  0.88599  Biso   1.000  H
  N476     1.0000 0.22709  0.12363  0.91899  Biso   1.000  N
  H697     1.0000 0.19256  0.25746  0.90889  Biso   1.000  H
  H698     1.0000 0.19245  0.25753  0.90889  Biso   1.000  H
  H699     1.0000 0.11186  0.22252  0.88599  Biso   1.000  H
  H700     1.0000 0.19248  0.25746  0.90889  Biso   1.000  H
  H701     1.0000 0.11189  0.22245  0.88599  Biso   1.000  H
  N477     1.0000 0.22712  0.12356  0.91899  Biso   1.000  N
  C708     1.0000 0.32739  0.09526  0.94290  Biso   1.000  C
  C709     1.0000 0.32743  0.09519  0.94290  Biso   1.000  C
  C710     1.0000 0.32735  0.09519  0.94290  Biso   1.000  C
  C711     1.0000 0.21908  0.05222  0.90169  Biso   1.000  C
  C712     1.0000 0.21912  0.05216  0.90169  Biso   1.000  C
  H702     1.0000 0.45907  0.97003  0.92740  Biso   1.000  H
  H703     1.0000 0.45915  0.97003  0.92740  Biso   1.000  H
  O220     1.0000 0.35048  0.01210  0.03640  Biso   1.000  O
  O221     1.0000 0.35051  0.01203  0.03640  Biso   1.000  O
  O222     1.0000 0.35040  0.01210  0.03640  Biso   1.000  O
  H704     1.0000 0.38104  0.12432  0.93381  Biso   1.000  H
  H705     1.0000 0.38104  0.12432  0.93379  Biso   1.000  H
  H706     1.0000 0.38096  0.12432  0.93381  Biso   1.000  H
  H707     1.0000 0.38096  0.12432  0.93379  Biso   1.000  H
  O223     1.0000 0.14973  0.05871  0.87899  Biso   1.000  O
  O224     1.0000 0.14965  0.05871  0.87899  Biso   1.000  O
  O225     1.0000 0.85033  0.94150  0.12101  Biso   1.000  O
  C713     1.0000 0.78098  0.94798  0.09831  Biso   1.000  C
  C714     1.0000 0.78098  0.94799  0.09828  Biso   1.000  C
  C715     1.0000 0.78090  0.94798  0.09831  Biso   1.000  C
  C716     1.0000 0.78090  0.94799  0.09828  Biso   1.000  C
  N478     1.0000 0.77297  0.87658  0.08101  Biso   1.000  N
  N479     1.0000 0.77297  0.87658  0.08098  Biso   1.000  N
  N480     1.0000 0.77289  0.87658  0.08101  Biso   1.000  N
  N481     1.0000 0.77289  0.87658  0.08098  Biso   1.000  N
  N482     1.0000 0.70011  0.02726  0.08360  Biso   1.000  N
  N483     1.0000 0.70003  0.02726  0.08360  Biso   1.000  N
  O226     1.0000 0.85033  0.94150  0.12098  Biso   1.000  O
  O227     1.0000 0.85036  0.94144  0.12098  Biso   1.000  O
  C717     1.0000 0.67267  0.90495  0.05710  Biso   1.000  C
  C718     1.0000 0.85155  0.78221  0.08931  Biso   1.000  C
  C719     1.0000 0.85159  0.78215  0.08928  Biso   1.000  C
  C720     1.0000 0.85147  0.78221  0.08931  Biso   1.000  C
  C721     1.0000 0.85151  0.78215  0.08928  Biso   1.000  C
  C722     1.0000 0.67259  0.90495  0.05710  Biso   1.000  C
  C723     1.0000 0.61799  0.01027  0.06039  Biso   1.000  C
  C724     1.0000 0.61791  0.01027  0.06039  Biso   1.000  C
  C725     1.0000 0.67805  0.11281  0.09960  Biso   1.000  C
  C726     1.0000 0.67808  0.11274  0.09960  Biso   1.000  C
  C727     1.0000 0.67816  0.11274  0.09960  Biso   1.000  C
  H708     1.0000 0.61903  0.87589  0.06619  Biso   1.000  H
  N484     1.0000 0.69332  0.89610  0.01820  Biso   1.000  N
  N485     1.0000 0.69336  0.89603  0.01820  Biso   1.000  N
  H709     1.0000 0.88812  0.77769  0.11401  Biso   1.000  H
  H710     1.0000 0.80753  0.74268  0.09111  Biso   1.000  H
  N486     1.0000 0.93948  0.74938  0.06110  Biso   1.000  N
  H711     1.0000 0.80753  0.74269  0.09108  Biso   1.000  H
  N487     1.0000 0.93940  0.74938  0.06110  Biso   1.000  N
  H712     1.0000 0.54087  0.03011  0.07260  Biso   1.000  H
  N488     1.0000 0.61046  0.04398  0.02231  Biso   1.000  N
  H713     1.0000 0.54090  0.03005  0.07260  Biso   1.000  H
  N489     1.0000 0.61049  0.04391  0.02231  Biso   1.000  N
  H714     1.0000 0.54082  0.03005  0.07260  Biso   1.000  H
  N490     1.0000 0.61057  0.04391  0.02231  Biso   1.000  N
  H715     1.0000 0.72067  0.10118  0.12351  Biso   1.000  H
  H716     1.0000 0.59551  0.14187  0.10540  Biso   1.000  H
  N491     1.0000 0.71017  0.17579  0.07499  Biso   1.000  N
  H717     1.0000 0.72067  0.10119  0.12348  Biso   1.000  H
  N492     1.0000 0.71020  0.17572  0.07499  Biso   1.000  N
  H718     1.0000 0.59543  0.14187  0.10540  Biso   1.000  H
  H719     1.0000 0.72074  0.10119  0.12348  Biso   1.000  H
  N493     1.0000 0.71028  0.17572  0.07499  Biso   1.000  N
  C728     1.0000 0.65204  0.97738  0.99800  Biso   1.000  C
  C729     1.0000 0.65212  0.97738  0.99800  Biso   1.000  C
  C730     1.0000 0.65216  0.97731  0.99800  Biso   1.000  C
  C731     1.0000 0.73273  0.80820  0.00059  Biso   1.000  C
  C732     1.0000 0.73276  0.80813  0.00059  Biso   1.000  C
  C733     1.0000 0.92692  0.70440  0.02740  Biso   1.000  C
  C734     1.0000 0.92695  0.70433  0.02740  Biso   1.000  C
  C735     1.0000 0.04993  0.73820  0.06700  Biso   1.000  C
  C736     1.0000 0.04997  0.73813  0.06700  Biso   1.000  C
  C737     1.0000 0.55680  0.13918  0.01001  Biso   1.000  C
  C738     1.0000 0.55684  0.13912  0.00999  Biso   1.000  C
  C739     1.0000 0.55672  0.13918  0.01001  Biso   1.000  C
  C740     1.0000 0.64122  0.23285  0.04560  Biso   1.000  C
  C741     1.0000 0.64114  0.23285  0.04560  Biso   1.000  C
  C742     1.0000 0.80508  0.19517  0.08281  Biso   1.000  C
  C743     1.0000 0.80508  0.19517  0.08278  Biso   1.000  C
  C744     1.0000 0.80516  0.19517  0.08278  Biso   1.000  C
  O228     1.0000 0.64946  0.98804  0.96360  Biso   1.000  O
  O229     1.0000 0.64954  0.98804  0.96360  Biso   1.000  O
  H720     1.0000 0.70289  0.81814  0.97460  Biso   1.000  H
  N494     1.0000 0.85763  0.76481  0.99980  Biso   1.000  N
  H721     1.0000 0.70297  0.81814  0.97460  Biso   1.000  H
  N495     1.0000 0.85774  0.76474  0.99980  Biso   1.000  N
  H722     1.0000 0.70194  0.76731  0.01480  Biso   1.000  H
  H723     1.0000 0.70197  0.76725  0.01480  Biso   1.000  H
  H724     1.0000 0.70189  0.76725  0.01480  Biso   1.000  H
  H725     1.0000 0.90256  0.65267  0.03409  Biso   1.000  H
  H726     1.0000 0.90248  0.65267  0.03409  Biso   1.000  H
  C745     1.0000 0.05015  0.67087  0.01131  Biso   1.000  C
  C746     1.0000 0.05015  0.67088  0.01128  Biso   1.000  C
  C747     1.0000 0.05008  0.67088  0.01128  Biso   1.000  C
  N496     1.0000 0.11384  0.69536  0.03741  Biso   1.000  N
  O230     1.0000 0.08484  0.76057  0.09460  Biso   1.000  O
  N497     1.0000 0.11384  0.69536  0.03738  Biso   1.000  N
  H727     1.0000 0.53213  0.14444  0.98349  Biso   1.000  H
  H728     1.0000 0.53205  0.14444  0.98349  Biso   1.000  H
  H729     1.0000 0.53209  0.14437  0.98349  Biso   1.000  H
  N498     1.0000 0.63359  0.18777  0.01300  Biso   1.000  N
  H730     1.0000 0.48769  0.16864  0.02551  Biso   1.000  H
  N499     1.0000 0.63363  0.18771  0.01300  Biso   1.000  N
  H731     1.0000 0.48769  0.16865  0.02548  Biso   1.000  H
  N500     1.0000 0.63351  0.18777  0.01300  Biso   1.000  N
  H732     1.0000 0.56349  0.27127  0.05499  Biso   1.000  H
  C748     1.0000 0.70640  0.29276  0.03111  Biso   1.000  C
  C749     1.0000 0.70640  0.29276  0.03108  Biso   1.000  C
  H733     1.0000 0.56341  0.27127  0.05499  Biso   1.000  H
  C750     1.0000 0.70632  0.29276  0.03111  Biso   1.000  C
  N501     1.0000 0.80347  0.26318  0.05679  Biso   1.000  N
  O231     1.0000 0.87297  0.16198  0.10810  Biso   1.000  O
  N502     1.0000 0.80350  0.26312  0.05679  Biso   1.000  N
  N503     1.0000 0.80358  0.26312  0.05679  Biso   1.000  N
  O232     1.0000 0.87304  0.16198  0.10810  Biso   1.000  O
  C751     1.0000 0.91674  0.76880  0.96729  Biso   1.000  C
  C752     1.0000 0.91685  0.76874  0.96729  Biso   1.000  C
  C753     1.0000 0.91677  0.76874  0.96729  Biso   1.000  C
  N504     1.0000 0.03304  0.72335  0.97581  Biso   1.000  N
  N505     1.0000 0.03312  0.72335  0.97578  Biso   1.000  N
  N506     1.0000 0.03312  0.72335  0.97581  Biso   1.000  N
  H734     1.0000 0.08263  0.60376  0.00790  Biso   1.000  H
  C754     1.0000 0.23589  0.67307  0.03471  Biso   1.000  C
  C755     1.0000 0.23581  0.67308  0.03468  Biso   1.000  C
  C756     1.0000 0.23581  0.67307  0.03471  Biso   1.000  C
  C757     1.0000 0.67599  0.21973  0.98250  Biso   1.000  C
  C758     1.0000 0.67602  0.21966  0.98250  Biso   1.000  C
  N507     1.0000 0.73193  0.27016  0.99269  Biso   1.000  N
  N508     1.0000 0.73196  0.27009  0.99269  Biso   1.000  N
  N509     1.0000 0.73188  0.27009  0.99269  Biso   1.000  N
  H735     1.0000 0.65811  0.35908  0.03291  Biso   1.000  H
  H736     1.0000 0.65814  0.35901  0.03288  Biso   1.000  H
  H737     1.0000 0.65803  0.35908  0.03291  Biso   1.000  H
  C759     1.0000 0.88743  0.30324  0.05609  Biso   1.000  C
  C760     1.0000 0.88735  0.30324  0.05609  Biso   1.000  C
  O233     1.0000 0.87635  0.80733  0.93750  Biso   1.000  O
  O234     1.0000 0.87642  0.80733  0.93750  Biso   1.000  O
  C761     1.0000 0.11251  0.69690  0.94391  Biso   1.000  C
  C762     1.0000 0.11262  0.69683  0.94388  Biso   1.000  C
  C763     1.0000 0.11259  0.69690  0.94391  Biso   1.000  C
  H738     1.0000 0.26454  0.67811  0.05969  Biso   1.000  H
  H739     1.0000 0.27413  0.60880  0.02810  Biso   1.000  H
  N510     1.0000 0.26814  0.73005  0.00731  Biso   1.000  N
  H740     1.0000 0.26458  0.67804  0.05969  Biso   1.000  H
  N511     1.0000 0.26814  0.73005  0.00729  Biso   1.000  N
  H741     1.0000 0.26450  0.67804  0.05969  Biso   1.000  H
  H742     1.0000 0.27416  0.60873  0.02810  Biso   1.000  H
  O235     1.0000 0.66468  0.20303  0.94951  Biso   1.000  O
  O236     1.0000 0.66472  0.20297  0.94948  Biso   1.000  O
  C764     1.0000 0.76417  0.32714  0.96529  Biso   1.000  C
  C765     1.0000 0.76420  0.32707  0.96529  Biso   1.000  C
  H743     1.0000 0.93161  0.28491  0.07980  Biso   1.000  H
  H744     1.0000 0.84749  0.37048  0.05479  Biso   1.000  H
  N512     1.0000 0.96689  0.27679  0.02419  Biso   1.000  N
  H745     1.0000 0.93156  0.28484  0.07980  Biso   1.000  H
  H746     1.0000 0.84753  0.37041  0.05479  Biso   1.000  H
  N513     1.0000 0.96693  0.27672  0.02419  Biso   1.000  N
  H747     1.0000 0.84741  0.37048  0.05479  Biso   1.000  H
  N514     1.0000 0.96682  0.27679  0.02419  Biso   1.000  N
  H748     1.0000 0.93164  0.28484  0.07980  Biso   1.000  H
  H749     1.0000 0.06833  0.71523  0.92020  Biso   1.000  H
  H750     1.0000 0.15245  0.62966  0.94521  Biso   1.000  H
  N515     1.0000 0.19647  0.73696  0.94321  Biso   1.000  N
  H751     1.0000 0.06841  0.71523  0.92020  Biso   1.000  H
  H752     1.0000 0.15253  0.62966  0.94521  Biso   1.000  H
  N516     1.0000 0.19655  0.73696  0.94318  Biso   1.000  N
  N517     1.0000 0.19647  0.73696  0.94318  Biso   1.000  N
  C766     1.0000 0.29354  0.70738  0.96889  Biso   1.000  C
  C767     1.0000 0.29362  0.70738  0.96889  Biso   1.000  C
  C768     1.0000 0.29365  0.70731  0.96889  Biso   1.000  C
  C769     1.0000 0.32408  0.78048  0.01750  Biso   1.000  C
  C770     1.0000 0.32400  0.78048  0.01750  Biso   1.000  C
  H753     1.0000 0.73552  0.32210  0.94031  Biso   1.000  H
  H754     1.0000 0.72593  0.39141  0.97190  Biso   1.000  H
  N518     1.0000 0.88622  0.30485  0.96259  Biso   1.000  N
  H755     1.0000 0.73552  0.32210  0.94028  Biso   1.000  H
  N519     1.0000 0.88625  0.30478  0.96259  Biso   1.000  N
  H756     1.0000 0.72586  0.39141  0.97190  Biso   1.000  H
  N520     1.0000 0.88618  0.30478  0.96259  Biso   1.000  N
  H757     1.0000 0.73544  0.32210  0.94028  Biso   1.000  H
  C771     1.0000 0.94991  0.32933  0.98869  Biso   1.000  C
  C772     1.0000 0.94986  0.32927  0.98869  Biso   1.000  C
  C773     1.0000 0.08320  0.23134  0.03271  Biso   1.000  C
  C774     1.0000 0.08320  0.23134  0.03269  Biso   1.000  C
  C775     1.0000 0.19486  0.80497  0.91719  Biso   1.000  C
  C776     1.0000 0.19494  0.80497  0.91719  Biso   1.000  C
  C777     1.0000 0.19489  0.80490  0.91719  Biso   1.000  C
  C778     1.0000 0.35872  0.76730  0.95440  Biso   1.000  C
  H758     1.0000 0.34183  0.64106  0.96709  Biso   1.000  H
  C779     1.0000 0.35883  0.76723  0.95440  Biso   1.000  C
  H759     1.0000 0.34191  0.64106  0.96709  Biso   1.000  H
  C780     1.0000 0.35879  0.76730  0.95440  Biso   1.000  C
  N521     1.0000 0.36635  0.81237  0.98700  Biso   1.000  N
  N522     1.0000 0.36643  0.81237  0.98700  Biso   1.000  N
  O237     1.0000 0.33538  0.79718  0.05049  Biso   1.000  O
  O238     1.0000 0.33530  0.79718  0.05049  Biso   1.000  O
  C781     1.0000 0.95013  0.26201  0.93300  Biso   1.000  C
  C782     1.0000 0.95005  0.26201  0.93300  Biso   1.000  C
  H760     1.0000 0.91744  0.39645  0.99210  Biso   1.000  H
  H761     1.0000 0.91739  0.39638  0.99210  Biso   1.000  H
  H762     1.0000 0.91736  0.39645  0.99210  Biso   1.000  H
  C783     1.0000 0.07315  0.29581  0.97260  Biso   1.000  C
  C784     1.0000 0.07307  0.29581  0.97260  Biso   1.000  C
  N523     1.0000 0.14231  0.23533  0.00020  Biso   1.000  N
  O239     1.0000 0.12359  0.19281  0.06250  Biso   1.000  O
  O240     1.0000 0.12363  0.19274  0.06250  Biso   1.000  O
  N524     1.0000 0.14223  0.23533  0.00020  Biso   1.000  N
  O241     1.0000 0.12355  0.19274  0.06250  Biso   1.000  O
  N525     1.0000 0.28977  0.82435  0.92501  Biso   1.000  N
  O242     1.0000 0.12697  0.83817  0.89190  Biso   1.000  O
  N526     1.0000 0.28985  0.82436  0.92498  Biso   1.000  N
  O243     1.0000 0.12705  0.83817  0.89190  Biso   1.000  O
  N527     1.0000 0.28977  0.82436  0.92498  Biso   1.000  N
  O244     1.0000 0.12701  0.83810  0.89190  Biso   1.000  O
  H763     1.0000 0.43645  0.72887  0.94501  Biso   1.000  H
  H764     1.0000 0.43653  0.72888  0.94498  Biso   1.000  H
  H765     1.0000 0.43653  0.72887  0.94501  Biso   1.000  H
  H766     1.0000 0.43645  0.72888  0.94498  Biso   1.000  H
  C785     1.0000 0.44314  0.86096  0.98999  Biso   1.000  C
  C786     1.0000 0.44322  0.86096  0.98999  Biso   1.000  C
  O245     1.0000 0.91522  0.23964  0.90540  Biso   1.000  O
  O246     1.0000 0.91526  0.23957  0.90540  Biso   1.000  O
  O247     1.0000 0.91518  0.23957  0.90540  Biso   1.000  O
  N528     1.0000 0.06058  0.25082  0.93890  Biso   1.000  N
  N529     1.0000 0.06062  0.25076  0.93890  Biso   1.000  N
  H767     1.0000 0.09750  0.34754  0.96591  Biso   1.000  H
  H768     1.0000 0.09754  0.34747  0.96588  Biso   1.000  H
  H769     1.0000 0.09746  0.34747  0.96588  Biso   1.000  H
  C787     1.0000 0.26733  0.19201  0.99941  Biso   1.000  C
  C788     1.0000 0.26733  0.19202  0.99938  Biso   1.000  C
  C789     1.0000 0.26726  0.19201  0.99941  Biso   1.000  C
  C790     1.0000 0.26726  0.19202  0.99938  Biso   1.000  C
  C791     1.0000 0.32189  0.88733  0.90040  Biso   1.000  C
  C792     1.0000 0.32197  0.88733  0.90040  Biso   1.000  C
  H770     1.0000 0.51225  0.83150  0.97449  Biso   1.000  H
  N530     1.0000 0.38948  0.95616  0.97769  Biso   1.000  N
  H771     1.0000 0.51236  0.83143  0.97449  Biso   1.000  H
  N531     1.0000 0.38956  0.95616  0.97769  Biso   1.000  N
  H772     1.0000 0.51228  0.83143  0.97449  Biso   1.000  H
  H773     1.0000 0.46793  0.85577  0.01651  Biso   1.000  H
  H774     1.0000 0.46793  0.85577  0.01648  Biso   1.000  H
  C793     1.0000 0.14851  0.21800  0.91069  Biso   1.000  C
  H775     1.0000 0.29813  0.23289  0.98520  Biso   1.000  H
  N532     1.0000 0.30674  0.10411  0.98180  Biso   1.000  N
  N533     1.0000 0.30666  0.10411  0.98180  Biso   1.000  N
  H776     1.0000 0.29805  0.23289  0.98520  Biso   1.000  H
  H777     1.0000 0.29705  0.18200  0.02540  Biso   1.000  H
  H778     1.0000 0.29708  0.18193  0.02540  Biso   1.000  H
  H779     1.0000 0.29716  0.18193  0.02540  Biso   1.000  H
  N534     1.0000 0.29983  0.97288  0.91640  Biso   1.000  N
  H780     1.0000 0.27927  0.89896  0.87649  Biso   1.000  H
  H781     1.0000 0.40443  0.85827  0.89460  Biso   1.000  H
  N535     1.0000 0.29994  0.97281  0.91640  Biso   1.000  N
  H782     1.0000 0.27935  0.89896  0.87649  Biso   1.000  H
  H783     1.0000 0.40454  0.85820  0.89460  Biso   1.000  H
  N536     1.0000 0.29990  0.97288  0.91640  Biso   1.000  N
  H784     1.0000 0.40450  0.85827  0.89460  Biso   1.000  H
  H785     1.0000 0.27931  0.89889  0.87649  Biso   1.000  H
  C794     1.0000 0.38195  0.98987  0.93961  Biso   1.000  C
  C795     1.0000 0.38206  0.98981  0.93958  Biso   1.000  C
  C796     1.0000 0.38202  0.98987  0.93961  Biso   1.000  C
  C797     1.0000 0.38198  0.98981  0.93958  Biso   1.000  C
  C798     1.0000 0.34789  0.02276  0.00200  Biso   1.000  C
  C799     1.0000 0.34782  0.02276  0.00200  Biso   1.000  C
  H786     1.0000 0.19253  0.25753  0.90889  Biso   1.000  H
  H787     1.0000 0.11194  0.22252  0.88599  Biso   1.000  H
  N537     1.0000 0.22709  0.12363  0.91899  Biso   1.000  N
  H788     1.0000 0.19256  0.25746  0.90889  Biso   1.000  H
  H789     1.0000 0.19245  0.25753  0.90889  Biso   1.000  H
  H790     1.0000 0.11186  0.22252  0.88599  Biso   1.000  H
  H791     1.0000 0.19248  0.25746  0.90889  Biso   1.000  H
  H792     1.0000 0.11189  0.22245  0.88599  Biso   1.000  H
  N538     1.0000 0.22712  0.12356  0.91899  Biso   1.000  N
  C800     1.0000 0.32739  0.09526  0.94290  Biso   1.000  C
  C801     1.0000 0.32743  0.09519  0.94290  Biso   1.000  C
  C802     1.0000 0.32735  0.09519  0.94290  Biso   1.000  C
  C803     1.0000 0.21908  0.05222  0.90169  Biso   1.000  C
  C804     1.0000 0.21912  0.05216  0.90169  Biso   1.000  C
  H793     1.0000 0.45907  0.97003  0.92740  Biso   1.000  H
  H794     1.0000 0.45915  0.97003  0.92740  Biso   1.000  H
  O248     1.0000 0.35048  0.01210  0.03640  Biso   1.000  O
  O249     1.0000 0.35051  0.01203  0.03640  Biso   1.000  O
  O250     1.0000 0.35040  0.01210  0.03640  Biso   1.000  O
  H795     1.0000 0.38104  0.12432  0.93381  Biso   1.000  H
  H796     1.0000 0.38104  0.12432  0.93379  Biso   1.000  H
  H797     1.0000 0.38096  0.12432  0.93381  Biso   1.000  H
  H798     1.0000 0.38096  0.12432  0.93379  Biso   1.000  H
  O251     1.0000 0.14973  0.05871  0.87899  Biso   1.000  O
  O252     1.0000 0.14965  0.05871  0.87899  Biso   1.000  O
  C805     1.0000 0.49365  0.62469  0.60859  Biso   1.000  C
  N539     1.0000 0.59979  0.55861  0.62628  Biso   1.000  N
  N540     1.0000 0.39359  0.62248  0.62761  Biso   1.000  N
  H799     1.0000 0.49339  0.68680  0.60890  Biso   1.000  H
  H800     1.0000 0.49140  0.61069  0.58201  Biso   1.000  H
  C806     1.0000 0.66022  0.46697  0.61391  Biso   1.000  C
  C807     1.0000 0.66416  0.58628  0.64718  Biso   1.000  C
  C808     1.0000 0.34625  0.55597  0.62280  Biso   1.000  C
  C809     1.0000 0.33130  0.68701  0.65259  Biso   1.000  C
  N541     1.0000 0.61678  0.40072  0.62890  Biso   1.000  N
  H801     1.0000 0.66922  0.46609  0.58600  Biso   1.000  H
  C810     1.0000 0.77801  0.43679  0.63470  Biso   1.000  C
  N542     1.0000 0.76730  0.51290  0.65579  Biso   1.000  N
  O253     1.0000 0.63825  0.66329  0.65810  Biso   1.000  O
  N543     1.0000 0.41146  0.46498  0.63900  Biso   1.000  N
  C811     1.0000 0.23664  0.58851  0.64730  Biso   1.000  C
  H802     1.0000 0.32751  0.55449  0.59579  Biso   1.000  H
  N544     1.0000 0.24569  0.66281  0.66671  Biso   1.000  N
  O254     1.0000 0.34680  0.75367  0.65962  Biso   1.000  O
  C812     1.0000 0.50771  0.40071  0.61939  Biso   1.000  C
  C813     1.0000 0.69377  0.33451  0.65320  Biso   1.000  C
  N545     1.0000 0.78834  0.35529  0.65599  Biso   1.000  N
  H803     1.0000 0.84191  0.42438  0.61610  Biso   1.000  H
  C814     1.0000 0.86355  0.52398  0.67129  Biso   1.000  C
  C815     1.0000 0.34562  0.43531  0.66389  Biso   1.000  C
  N546     1.0000 0.24834  0.50902  0.67121  Biso   1.000  N
  H804     1.0000 0.16572  0.60967  0.63149  Biso   1.000  H
  C816     1.0000 0.14944  0.72530  0.68640  Biso   1.000  C
  H805     1.0000 0.50924  0.33858  0.62499  Biso   1.000  H
  H806     1.0000 0.49549  0.41480  0.59200  Biso   1.000  H
  O255     1.0000 0.67961  0.26879  0.66741  Biso   1.000  O
  C817     1.0000 0.88811  0.29723  0.67610  Biso   1.000  C
  H807     1.0000 0.84770  0.58988  0.67078  Biso   1.000  H
  H808     1.0000 0.93073  0.49503  0.65509  Biso   1.000  H
  N547     1.0000 0.89182  0.48592  0.70929  Biso   1.000  N
  O256     1.0000 0.37068  0.35752  0.67725  Biso   1.000  O
  C818     1.0000 0.15673  0.50194  0.69379  Biso   1.000  C
  H809     1.0000 0.07804  0.73238  0.67348  Biso   1.000  H
  H810     1.0000 0.15460  0.78569  0.68538  Biso   1.000  H
  N548     1.0000 0.14340  0.69515  0.72580  Biso   1.000  N
  H811     1.0000 0.95652  0.29223  0.66100  Biso   1.000  H
  H812     1.0000 0.88705  0.23552  0.67979  Biso   1.000  H
  N549     1.0000 0.89663  0.33014  0.71239  Biso   1.000  N
  C819     1.0000 0.95621  0.38953  0.71939  Biso   1.000  C
  C820     1.0000 0.86682  0.53792  0.73959  Biso   1.000  C
  H813     1.0000 0.16823  0.43679  0.69720  Biso   1.000  H
  H814     1.0000 0.08382  0.53432  0.67998  Biso   1.000  H
  N550     1.0000 0.14674  0.53849  0.73030  Biso   1.000  N
  C821     1.0000 0.08534  0.63583  0.73798  Biso   1.000  C
  C822     1.0000 0.17450  0.73060  0.75469  Biso   1.000  C
  C823     1.0000 0.88046  0.28857  0.74639  Biso   1.000  C
  C824     1.0000 0.96525  0.38571  0.76170  Biso   1.000  C
  H815     1.0000 0.03360  0.36734  0.70741  Biso   1.000  H
  N551     1.0000 0.90662  0.48081  0.77129  Biso   1.000  N
  O257     1.0000 0.82115  0.62022  0.73860  Biso   1.000  O
  C825     1.0000 0.18032  0.48433  0.76279  Biso   1.000  C
  C826     1.0000 0.09039  0.63494  0.78080  Biso   1.000  C
  H816     1.0000 0.00459  0.66010  0.72859  Biso   1.000  H
  N552     1.0000 0.15501  0.69080  0.78769  Biso   1.000  N
  O258     1.0000 0.21575  0.78932  0.75199  Biso   1.000  O
  N553     1.0000 0.91040  0.32613  0.77480  Biso   1.000  N
  O259     1.0000 0.84408  0.22826  0.74921  Biso   1.000  O
  H817     1.0000 0.04711  0.36094  0.76980  Biso   1.000  H
  C827     1.0000 0.89969  0.51525  0.80831  Biso   1.000  C
  N554     1.0000 0.14931  0.53915  0.79289  Biso   1.000  N
  O260     1.0000 0.22328  0.40196  0.76471  Biso   1.000  O
  H818     1.0000 0.01205  0.66114  0.79191  Biso   1.000  H
  C828     1.0000 0.16224  0.72443  0.82369  Biso   1.000  C
  C829     1.0000 0.90519  0.29384  0.81390  Biso   1.000  C
  H819     1.0000 0.97251  0.48066  0.82181  Biso   1.000  H
  H820     1.0000 0.89043  0.57991  0.80549  Biso   1.000  H
  N555     1.0000 0.80683  0.50851  0.83039  Biso   1.000  N
  C830     1.0000 0.17683  0.50195  0.83109  Biso   1.000  C
  H821     1.0000 0.09352  0.72947  0.83860  Biso   1.000  H
  H822     1.0000 0.16288  0.78625  0.81978  Biso   1.000  H
  N556     1.0000 0.26394  0.66572  0.84459  Biso   1.000  N
  H823     1.0000 0.90013  0.23334  0.81430  Biso   1.000  H
  H824     1.0000 0.97663  0.28635  0.82690  Biso   1.000  H
  N557     1.0000 0.80899  0.35558  0.83359  Biso   1.000  N
  C831     1.0000 0.81391  0.42862  0.85328  Biso   1.000  C
  C832     1.0000 0.70649  0.58243  0.83719  Biso   1.000  C
  H825     1.0000 0.18759  0.43684  0.83230  Biso   1.000  H
  H826     1.0000 0.11150  0.53432  0.84760  Biso   1.000  H
  N558     1.0000 0.27888  0.50906  0.84529  Biso   1.000  N
  C833     1.0000 0.27215  0.58454  0.86698  Biso   1.000  C
  C834     1.0000 0.35881  0.68626  0.84811  Biso   1.000  C
  C835     1.0000 0.72364  0.33032  0.84709  Biso   1.000  C
  C836     1.0000 0.70550  0.46098  0.87759  Biso   1.000  C
  H827     1.0000 0.88371  0.40677  0.86960  Biso   1.000  H
  N559     1.0000 0.64033  0.55323  0.86119  Biso   1.000  N
  O261     1.0000 0.68541  0.66081  0.82493  Biso   1.000  O
  C837     1.0000 0.37888  0.43487  0.85148  Biso   1.000  C
  H828     1.0000 0.21041  0.59804  0.88650  Biso   1.000  H
  C838     1.0000 0.39190  0.55168  0.88510  Biso   1.000  C
  N560     1.0000 0.43565  0.61855  0.87148  Biso   1.000  N
  O262     1.0000 0.37303  0.75215  0.83418  Biso   1.000  O
  N561     1.0000 0.65724  0.39504  0.87069  Biso   1.000  N
  O263     1.0000 0.70799  0.26307  0.83939  Biso   1.000  O
  H829     1.0000 0.72320  0.46087  0.90479  Biso   1.000  H
  C839     1.0000 0.54419  0.61746  0.88060  Biso   1.000  C
  N562     1.0000 0.44902  0.46075  0.87109  Biso   1.000  N
  O264     1.0000 0.39911  0.36014  0.83939  Biso   1.000  O
  H830     1.0000 0.38690  0.54885  0.91320  Biso   1.000  H
  C840     1.0000 0.55358  0.39375  0.88850  Biso   1.000  C
  H831     1.0000 0.55639  0.60357  0.90799  Biso   1.000  H
  H832     1.0000 0.54327  0.67933  0.87489  Biso   1.000  H
  H833     1.0000 0.55449  0.40593  0.91539  Biso   1.000  H
  H834     1.0000 0.55293  0.33218  0.88729  Biso   1.000  H
