data_image0
_cell_length_a       15.358
_cell_length_b       16.029
_cell_length_c       21.009
_cell_angle_alpha    93.44
_cell_angle_beta     105.84
_cell_angle_gamma    92.28

_symmetry_space_group_name_H-M    "P 1"
_symmetry_int_tables_number       1

loop_
  _symmetry_equiv_pos_as_xyz
  'x, y, z'

loop_
  _atom_site_label
  _atom_site_occupancy
  _atom_site_fract_x
  _atom_site_fract_y
  _atom_site_fract_z
  _atom_site_thermal_displace_type
  _atom_site_B_iso_or_equiv
  _atom_site_type_symbol
  O1       1.0000 0.03292  0.02179  0.84832  Biso   1.000  O
  C1       1.0000 0.03502  0.98941  0.79563  Biso   1.000  C
  C2       1.0000 0.03495  0.98941  0.79563  Biso   1.000  C
  N1       1.0000 0.10680  0.98967  0.77023  Biso   1.000  N
  N2       1.0000 0.10674  0.98967  0.77023  Biso   1.000  N
  N3       1.0000 0.10674  0.98973  0.77023  Biso   1.000  N
  N4       1.0000 0.10681  0.98973  0.77023  Biso   1.000  N
  O2       1.0000 0.03298  0.02179  0.84832  Biso   1.000  O
  O3       1.0000 0.03299  0.02185  0.84832  Biso   1.000  O
  C3       1.0000 0.95680  0.93608  0.75252  Biso   1.000  C
  C4       1.0000 0.95673  0.93608  0.75252  Biso   1.000  C
  C5       1.0000 0.95674  0.93614  0.75252  Biso   1.000  C
  C6       1.0000 0.19326  0.03467  0.80094  Biso   1.000  C
  C7       1.0000 0.19324  0.03467  0.80089  Biso   1.000  C
  C8       1.0000 0.19326  0.03474  0.80094  Biso   1.000  C
  C9       1.0000 0.19324  0.03473  0.80089  Biso   1.000  C
  C10      1.0000 0.88240  0.97459  0.71412  Biso   1.000  C
  C11      1.0000 0.95423  0.84908  0.75426  Biso   1.000  C
  C12      1.0000 0.88233  0.97459  0.71412  Biso   1.000  C
  C13      1.0000 0.95414  0.84907  0.75421  Biso   1.000  C
  C14      1.0000 0.95416  0.84914  0.75426  Biso   1.000  C
  C15      1.0000 0.95415  0.84914  0.75421  Biso   1.000  C
  C16      1.0000 0.24837  0.04834  0.75922  Biso   1.000  C
  C17      1.0000 0.24831  0.04827  0.75922  Biso   1.000  C
  C18      1.0000 0.24837  0.04827  0.75922  Biso   1.000  C
  C19      1.0000 0.22414  0.06153  0.86812  Biso   1.000  C
  C20      1.0000 0.80537  0.92621  0.67731  Biso   1.000  C
  C21      1.0000 0.80531  0.92621  0.67731  Biso   1.000  C
  O4       1.0000 0.88933  0.06149  0.71204  Biso   1.000  O
  O5       1.0000 0.88931  0.06149  0.71199  Biso   1.000  O
  O6       1.0000 0.88938  0.06149  0.71199  Biso   1.000  O
  C22      1.0000 0.87733  0.80070  0.71745  Biso   1.000  C
  C23      1.0000 0.87725  0.80069  0.71740  Biso   1.000  C
  C24      1.0000 0.87727  0.80070  0.71745  Biso   1.000  C
  O7       1.0000 0.03212  0.81372  0.78963  Biso   1.000  O
  O8       1.0000 0.03206  0.81372  0.78963  Biso   1.000  O
  C25      1.0000 0.33432  0.08867  0.78472  Biso   1.000  C
  H1       1.0000 0.22445  0.02758  0.70722  Biso   1.000  H
  C26      1.0000 0.33432  0.08873  0.78472  Biso   1.000  C
  C27      1.0000 0.33439  0.08873  0.78472  Biso   1.000  C
  C28      1.0000 0.31002  0.10180  0.89362  Biso   1.000  C
  C29      1.0000 0.31009  0.10180  0.89362  Biso   1.000  C
  H2       1.0000 0.18146  0.05092  0.90042  Biso   1.000  H
  C30      1.0000 0.80293  0.83921  0.67905  Biso   1.000  C
  C31      1.0000 0.72378  0.97210  0.64045  Biso   1.000  C
  C32      1.0000 0.80285  0.83920  0.67900  Biso   1.000  C
  C33      1.0000 0.72376  0.97210  0.64040  Biso   1.000  C
  C34      1.0000 0.80287  0.83921  0.67905  Biso   1.000  C
  C35      1.0000 0.85101  0.10618  0.75684  Biso   1.000  C
  C36      1.0000 0.85107  0.10618  0.75684  Biso   1.000  C
  C37      1.0000 0.85107  0.10624  0.75684  Biso   1.000  C
  C38      1.0000 0.87872  0.70399  0.72355  Biso   1.000  C
  C39      1.0000 0.87864  0.70399  0.72350  Biso   1.000  C
  C40      1.0000 0.87866  0.70399  0.72355  Biso   1.000  C
  C41      1.0000 0.03248  0.78979  0.85323  Biso   1.000  C
  C42      1.0000 0.03248  0.78985  0.85323  Biso   1.000  C
  C43      1.0000 0.36515  0.11540  0.85194  Biso   1.000  C
  H3       1.0000 0.37694  0.09921  0.75242  Biso   1.000  H
  C44      1.0000 0.36513  0.11540  0.85189  Biso   1.000  C
  N5       1.0000 0.33133  0.12693  0.96114  Biso   1.000  N
  N6       1.0000 0.33138  0.12693  0.96109  Biso   1.000  N
  N7       1.0000 0.33139  0.12693  0.96114  Biso   1.000  N
  H4       1.0000 0.74330  0.80179  0.65062  Biso   1.000  H
  H5       1.0000 0.74323  0.80179  0.65062  Biso   1.000  H
  C45      1.0000 0.67009  0.99252  0.69075  Biso   1.000  C
  C46      1.0000 0.66550  0.92826  0.57521  Biso   1.000  C
  C47      1.0000 0.67001  0.99245  0.69070  Biso   1.000  C
  C48      1.0000 0.66543  0.92826  0.57521  Biso   1.000  C
  C49      1.0000 0.67003  0.99252  0.69075  Biso   1.000  C
  C50      1.0000 0.67008  0.99251  0.69070  Biso   1.000  C
  H6       1.0000 0.74853  0.02716  0.62214  Biso   1.000  H
  H7       1.0000 0.74851  0.02715  0.62209  Biso   1.000  H
  H8       1.0000 0.74853  0.02722  0.62214  Biso   1.000  H
  H9       1.0000 0.74858  0.02721  0.62209  Biso   1.000  H
  O9       1.0000 0.75922  0.12631  0.72151  Biso   1.000  O
  H10      1.0000 0.89133  0.16378  0.77594  Biso   1.000  H
  H11      1.0000 0.84863  0.06888  0.79752  Biso   1.000  H
  H12      1.0000 0.89131  0.16377  0.77589  Biso   1.000  H
  H13      1.0000 0.89133  0.16384  0.77594  Biso   1.000  H
  H14      1.0000 0.84863  0.06894  0.79752  Biso   1.000  H
  O10      1.0000 0.75928  0.12631  0.72151  Biso   1.000  O
  H15      1.0000 0.89138  0.16383  0.77589  Biso   1.000  H
  H16      1.0000 0.84870  0.06894  0.79752  Biso   1.000  H
  H17      1.0000 0.94853  0.68772  0.73322  Biso   1.000  H
  C51      1.0000 0.82592  0.65535  0.65712  Biso   1.000  C
  C52      1.0000 0.84711  0.68221  0.78273  Biso   1.000  C
  H18      1.0000 0.94846  0.68766  0.73322  Biso   1.000  H
  C53      1.0000 0.82585  0.65535  0.65712  Biso   1.000  C
  C54      1.0000 0.84704  0.68221  0.78273  Biso   1.000  C
  H19      1.0000 0.94846  0.68772  0.73322  Biso   1.000  H
  C55      1.0000 0.82585  0.65542  0.65712  Biso   1.000  C
  H20      1.0000 0.98614  0.82732  0.87144  Biso   1.000  H
  H21      1.0000 0.98606  0.82732  0.87139  Biso   1.000  H
  H22      1.0000 0.98607  0.82732  0.87144  Biso   1.000  H
  O11      1.0000 0.00388  0.70359  0.85075  Biso   1.000  O
  H23      1.0000 0.10019  0.80093  0.88633  Biso   1.000  H
  O12      1.0000 0.00386  0.70358  0.85070  Biso   1.000  O
  O13      1.0000 0.00388  0.70365  0.85075  Biso   1.000  O
  O14      1.0000 0.00386  0.70364  0.85070  Biso   1.000  O
  H24      1.0000 0.43176  0.14671  0.87164  Biso   1.000  H
  H25      1.0000 0.43174  0.14670  0.87159  Biso   1.000  H
  C56      1.0000 0.41516  0.16040  0.99934  Biso   1.000  C
  C57      1.0000 0.41514  0.16039  0.99929  Biso   1.000  C
  C58      1.0000 0.41516  0.16046  0.99934  Biso   1.000  C
  C59      1.0000 0.41514  0.16045  0.99929  Biso   1.000  C
  C60      1.0000 0.60269  0.93717  0.69983  Biso   1.000  C
  C61      1.0000 0.60262  0.93717  0.69983  Biso   1.000  C
  C62      1.0000 0.60263  0.93723  0.69983  Biso   1.000  C
  C63      1.0000 0.60269  0.93723  0.69983  Biso   1.000  C
  C64      1.0000 0.69533  0.06661  0.73144  Biso   1.000  C
  C65      1.0000 0.69539  0.06661  0.73144  Biso   1.000  C
  H26      1.0000 0.64760  0.86528  0.58483  Biso   1.000  H
  H27      1.0000 0.60441  0.96087  0.55655  Biso   1.000  H
  C66      1.0000 0.71652  0.92355  0.52455  Biso   1.000  C
  H28      1.0000 0.64753  0.86528  0.58483  Biso   1.000  H
  H29      1.0000 0.60433  0.96086  0.55650  Biso   1.000  H
  C67      1.0000 0.71643  0.92354  0.52450  Biso   1.000  C
  H30      1.0000 0.60435  0.96087  0.55655  Biso   1.000  H
  C68      1.0000 0.71645  0.92361  0.52455  Biso   1.000  C
  C69      1.0000 0.71644  0.92361  0.52450  Biso   1.000  C
  H31      1.0000 0.82480  0.58901  0.66342  Biso   1.000  H
  H32      1.0000 0.75718  0.67526  0.64293  Biso   1.000  H
  C70      1.0000 0.87211  0.67308  0.60205  Biso   1.000  C
  H33      1.0000 0.82473  0.58901  0.66342  Biso   1.000  H
  H34      1.0000 0.75711  0.67526  0.64293  Biso   1.000  H
  C71      1.0000 0.87203  0.67308  0.60200  Biso   1.000  C
  H35      1.0000 0.75712  0.67533  0.64293  Biso   1.000  H
  C72      1.0000 0.87205  0.67308  0.60205  Biso   1.000  C
  H36      1.0000 0.75718  0.67533  0.64293  Biso   1.000  H
  C73      1.0000 0.75646  0.66011  0.77802  Biso   1.000  C
  C74      1.0000 0.91211  0.68612  0.84425  Biso   1.000  C
  C75      1.0000 0.91203  0.68612  0.84420  Biso   1.000  C
  C76      1.0000 0.91204  0.68612  0.84425  Biso   1.000  C
  C77      1.0000 0.91209  0.68612  0.84420  Biso   1.000  C
  O15      1.0000 0.48007  0.17529  0.97761  Biso   1.000  O
  O16      1.0000 0.48007  0.17536  0.97761  Biso   1.000  O
  C78      1.0000 0.41932  0.18849  0.06979  Biso   1.000  C
  C79      1.0000 0.41938  0.18855  0.06979  Biso   1.000  C
  C80      1.0000 0.56053  0.95602  0.74945  Biso   1.000  C
  H37      1.0000 0.58308  0.87986  0.66833  Biso   1.000  H
  C81      1.0000 0.56045  0.95602  0.74940  Biso   1.000  C
  C82      1.0000 0.56046  0.95602  0.74945  Biso   1.000  C
  H38      1.0000 0.58308  0.87992  0.66833  Biso   1.000  H
  C83      1.0000 0.65316  0.08527  0.78105  Biso   1.000  C
  C84      1.0000 0.65314  0.08526  0.78100  Biso   1.000  C
  C85      1.0000 0.65316  0.08533  0.78105  Biso   1.000  C
  C86      1.0000 0.65315  0.08533  0.78100  Biso   1.000  C
  H39      1.0000 0.77680  0.89025  0.54445  Biso   1.000  H
  H40      1.0000 0.73577  0.98715  0.51761  Biso   1.000  H
  C87      1.0000 0.66837  0.87948  0.45753  Biso   1.000  C
  H41      1.0000 0.77672  0.89024  0.54440  Biso   1.000  H
  H42      1.0000 0.73571  0.98715  0.51761  Biso   1.000  H
  C88      1.0000 0.66830  0.87948  0.45753  Biso   1.000  C
  H43      1.0000 0.77674  0.89031  0.54445  Biso   1.000  H
  H44      1.0000 0.73571  0.98721  0.51761  Biso   1.000  H
  H45      1.0000 0.77672  0.89031  0.54440  Biso   1.000  H
  H46      1.0000 0.86249  0.73746  0.59073  Biso   1.000  H
  H47      1.0000 0.94368  0.66450  0.62184  Biso   1.000  H
  C89      1.0000 0.83811  0.61585  0.53914  Biso   1.000  C
  H48      1.0000 0.86241  0.73746  0.59069  Biso   1.000  H
  H49      1.0000 0.94366  0.66449  0.62179  Biso   1.000  H
  C90      1.0000 0.83803  0.61584  0.53909  Biso   1.000  C
  H50      1.0000 0.86243  0.73746  0.59073  Biso   1.000  H
  C91      1.0000 0.83805  0.61591  0.53914  Biso   1.000  C
  H51      1.0000 0.86247  0.73746  0.59069  Biso   1.000  H
  C92      1.0000 0.83803  0.61590  0.53909  Biso   1.000  C
  C93      1.0000 0.73098  0.64203  0.83473  Biso   1.000  C
  H52      1.0000 0.70608  0.65699  0.73044  Biso   1.000  H
  C94      1.0000 0.73098  0.64197  0.83473  Biso   1.000  C
  H53      1.0000 0.70606  0.65699  0.73039  Biso   1.000  H
  C95      1.0000 0.88661  0.66811  0.90091  Biso   1.000  C
  C96      1.0000 0.88655  0.66811  0.90091  Biso   1.000  C
  C97      1.0000 0.45801  0.13582  0.11911  Biso   1.000  C
  C98      1.0000 0.39321  0.26722  0.08721  Biso   1.000  C
  C99      1.0000 0.45805  0.13582  0.11906  Biso   1.000  C
  C100     1.0000 0.39326  0.26721  0.08716  Biso   1.000  C
  C101     1.0000 0.45807  0.13582  0.11911  Biso   1.000  C
  C102     1.0000 0.39328  0.26722  0.08721  Biso   1.000  C
  C103     1.0000 0.45799  0.13582  0.11906  Biso   1.000  C
  C104     1.0000 0.39319  0.26721  0.08716  Biso   1.000  C
  C105     1.0000 0.48700  0.89569  0.76135  Biso   1.000  C
  C106     1.0000 0.48692  0.89569  0.76130  Biso   1.000  C
  C107     1.0000 0.48694  0.89569  0.76135  Biso   1.000  C
  C108     1.0000 0.48699  0.89569  0.76130  Biso   1.000  C
  C109     1.0000 0.58566  0.03010  0.79003  Biso   1.000  C
  C110     1.0000 0.66486  0.17288  0.81275  Biso   1.000  C
  C111     1.0000 0.66484  0.17288  0.81270  Biso   1.000  C
  C112     1.0000 0.66486  0.17294  0.81275  Biso   1.000  C
  C113     1.0000 0.66484  0.17294  0.81270  Biso   1.000  C
  C114     1.0000 0.57547  0.88763  0.43103  Biso   1.000  C
  C115     1.0000 0.71617  0.83216  0.42200  Biso   1.000  C
  C116     1.0000 0.57539  0.88762  0.43098  Biso   1.000  C
  C117     1.0000 0.71610  0.83216  0.42200  Biso   1.000  C
  C118     1.0000 0.57541  0.88769  0.43103  Biso   1.000  C
  C119     1.0000 0.57545  0.88769  0.43098  Biso   1.000  C
  C120     1.0000 0.88539  0.54617  0.52842  Biso   1.000  C
  C121     1.0000 0.76051  0.63508  0.49082  Biso   1.000  C
  C122     1.0000 0.88532  0.54617  0.52842  Biso   1.000  C
  C123     1.0000 0.76044  0.63508  0.49082  Biso   1.000  C
  C124     1.0000 0.79601  0.64600  0.89615  Biso   1.000  C
  C125     1.0000 0.63069  0.62181  0.83483  Biso   1.000  C
  C126     1.0000 0.79593  0.64599  0.89610  Biso   1.000  C
  C127     1.0000 0.63062  0.62181  0.83483  Biso   1.000  C
  C128     1.0000 0.79595  0.64606  0.89615  Biso   1.000  C
  C129     1.0000 0.79599  0.64599  0.89610  Biso   1.000  C
  C130     1.0000 0.95879  0.68564  0.96655  Biso   1.000  C
  C131     1.0000 0.95878  0.68563  0.96650  Biso   1.000  C
  C132     1.0000 0.47073  0.16181  0.18569  Biso   1.000  C
  O17      1.0000 0.48466  0.05869  0.10001  Biso   1.000  O
  O18      1.0000 0.48464  0.05868  0.09996  Biso   1.000  O
  O19      1.0000 0.48466  0.05875  0.10001  Biso   1.000  O
  O20      1.0000 0.48458  0.05874  0.09996  Biso   1.000  O
  C133     1.0000 0.40593  0.29320  0.15379  Biso   1.000  C
  O21      1.0000 0.35780  0.31613  0.03506  Biso   1.000  O
  O22      1.0000 0.35786  0.31606  0.03506  Biso   1.000  O
  O23      1.0000 0.35787  0.31613  0.03506  Biso   1.000  O
  C134     1.0000 0.52941  0.83831  0.81434  Biso   1.000  C
  C135     1.0000 0.42871  0.84719  0.69641  Biso   1.000  C
  H54      1.0000 0.43951  0.93270  0.77862  Biso   1.000  H
  C136     1.0000 0.52934  0.83831  0.81434  Biso   1.000  C
  C137     1.0000 0.42864  0.84719  0.69641  Biso   1.000  C
  H55      1.0000 0.43945  0.93270  0.77862  Biso   1.000  H
  O24      1.0000 0.54474  0.05160  0.83865  Biso   1.000  O
  O25      1.0000 0.54472  0.05160  0.83860  Biso   1.000  O
  O26      1.0000 0.54478  0.05160  0.83860  Biso   1.000  O
  N8       1.0000 0.73611  0.18479  0.87025  Biso   1.000  N
  O27      1.0000 0.61771  0.22928  0.78675  Biso   1.000  O
  N9       1.0000 0.73616  0.18478  0.87020  Biso   1.000  N
  O28      1.0000 0.61776  0.22927  0.78670  Biso   1.000  O
  N10      1.0000 0.73618  0.18485  0.87025  Biso   1.000  N
  O29      1.0000 0.61778  0.22934  0.78675  Biso   1.000  O
  N11      1.0000 0.73616  0.18484  0.87020  Biso   1.000  N
  O30      1.0000 0.61776  0.22934  0.78670  Biso   1.000  O
  C138     1.0000 0.53040  0.84845  0.36892  Biso   1.000  C
  H56      1.0000 0.53836  0.92427  0.45852  Biso   1.000  H
  C139     1.0000 0.53034  0.84845  0.36892  Biso   1.000  C
  C140     1.0000 0.67118  0.79298  0.35994  Biso   1.000  C
  H57      1.0000 0.78817  0.82589  0.44254  Biso   1.000  H
  C141     1.0000 0.67110  0.79291  0.35989  Biso   1.000  C
  H58      1.0000 0.78815  0.82582  0.44249  Biso   1.000  H
  C142     1.0000 0.67112  0.79298  0.35994  Biso   1.000  C
  C143     1.0000 0.67116  0.79297  0.35989  Biso   1.000  C
  H59      1.0000 0.78815  0.82588  0.44249  Biso   1.000  H
  C144     1.0000 0.85510  0.49553  0.46933  Biso   1.000  C
  H60      1.0000 0.94536  0.53129  0.56583  Biso   1.000  H
  C145     1.0000 0.85502  0.49553  0.46928  Biso   1.000  C
  C146     1.0000 0.85504  0.49559  0.46933  Biso   1.000  C
  C147     1.0000 0.85502  0.49559  0.46928  Biso   1.000  C
  C148     1.0000 0.73029  0.58456  0.43173  Biso   1.000  C
  H61      1.0000 0.72386  0.68905  0.49915  Biso   1.000  H
  C149     1.0000 0.73023  0.58456  0.43173  Biso   1.000  C
  H62      1.0000 0.72384  0.68904  0.49910  Biso   1.000  H
  H63      1.0000 0.72386  0.68911  0.49915  Biso   1.000  H
  H64      1.0000 0.72385  0.68911  0.49910  Biso   1.000  H
  O31      1.0000 0.77633  0.62354  0.95405  Biso   1.000  O
  O32      1.0000 0.77625  0.62353  0.95400  Biso   1.000  O
  O33      1.0000 0.77626  0.62354  0.95405  Biso   1.000  O
  C150     1.0000 0.59421  0.70691  0.84624  Biso   1.000  C
  H65      1.0000 0.62279  0.57984  0.87154  Biso   1.000  H
  C151     1.0000 0.57654  0.57573  0.76765  Biso   1.000  C
  C152     1.0000 0.59414  0.70691  0.84624  Biso   1.000  C
  H66      1.0000 0.62271  0.57977  0.87149  Biso   1.000  H
  C153     1.0000 0.57645  0.57566  0.76760  Biso   1.000  C
  C154     1.0000 0.57648  0.57573  0.76765  Biso   1.000  C
  H67      1.0000 0.62278  0.57983  0.87149  Biso   1.000  H
  C155     1.0000 0.57646  0.57572  0.76760  Biso   1.000  C
  O34      1.0000 0.95179  0.74410  0.00440  Biso   1.000  O
  O35      1.0000 0.95177  0.74410  0.00435  Biso   1.000  O
  N12      1.0000 0.02532  0.63179  0.97632  Biso   1.000  N
  N13      1.0000 0.02526  0.63179  0.97632  Biso   1.000  N
  N14      1.0000 0.02526  0.63185  0.97632  Biso   1.000  N
  C156     1.0000 0.51313  0.10443  0.23867  Biso   1.000  C
  C157     1.0000 0.44462  0.24060  0.20310  Biso   1.000  C
  C158     1.0000 0.44461  0.24060  0.20305  Biso   1.000  C
  C159     1.0000 0.44469  0.24066  0.20310  Biso   1.000  C
  C160     1.0000 0.44461  0.24066  0.20305  Biso   1.000  C
  C161     1.0000 0.42960  0.98408  0.10070  Biso   1.000  C
  C162     1.0000 0.42958  0.98407  0.10065  Biso   1.000  C
  C163     1.0000 0.42960  0.98414  0.10070  Biso   1.000  C
  C164     1.0000 0.42958  0.98413  0.10065  Biso   1.000  C
  C165     1.0000 0.36945  0.37831  0.16520  Biso   1.000  C
  C166     1.0000 0.36943  0.37830  0.16515  Biso   1.000  C
  C167     1.0000 0.36937  0.37830  0.16515  Biso   1.000  C
  C168     1.0000 0.26106  0.31222  0.00991  Biso   1.000  C
  C169     1.0000 0.26104  0.31216  0.00986  Biso   1.000  C
  C170     1.0000 0.26098  0.31222  0.00986  Biso   1.000  C
  C171     1.0000 0.54213  0.86429  0.88092  Biso   1.000  C
  C172     1.0000 0.55551  0.75952  0.79692  Biso   1.000  C
  C173     1.0000 0.54207  0.86429  0.88092  Biso   1.000  C
  C174     1.0000 0.55545  0.75952  0.79692  Biso   1.000  C
  C175     1.0000 0.54207  0.86436  0.88092  Biso   1.000  C
  C176     1.0000 0.37462  0.90458  0.64754  Biso   1.000  C
  H68      1.0000 0.47402  0.81561  0.67304  Biso   1.000  H
  H69      1.0000 0.38252  0.80148  0.70772  Biso   1.000  H
  C177     1.0000 0.37454  0.90458  0.64749  Biso   1.000  C
  H70      1.0000 0.47393  0.81561  0.67299  Biso   1.000  H
  H71      1.0000 0.38246  0.80148  0.70772  Biso   1.000  H
  C178     1.0000 0.37456  0.90458  0.64754  Biso   1.000  C
  H72      1.0000 0.47395  0.81561  0.67304  Biso   1.000  H
  C179     1.0000 0.57041  0.01604  0.89932  Biso   1.000  C
  C180     1.0000 0.57047  0.01598  0.89932  Biso   1.000  C
  C181     1.0000 0.57048  0.01604  0.89932  Biso   1.000  C
  C182     1.0000 0.76432  0.26594  0.90295  Biso   1.000  C
  C183     1.0000 0.76437  0.26593  0.90290  Biso   1.000  C
  C184     1.0000 0.76439  0.26594  0.90295  Biso   1.000  C
  C185     1.0000 0.57831  0.80112  0.33335  Biso   1.000  C
  H73      1.0000 0.45845  0.85477  0.34833  Biso   1.000  H
  C186     1.0000 0.57823  0.80111  0.33330  Biso   1.000  C
  C187     1.0000 0.57825  0.80118  0.33335  Biso   1.000  C
  C188     1.0000 0.57823  0.80118  0.33330  Biso   1.000  C
  H74      1.0000 0.70815  0.75633  0.33240  Biso   1.000  H
  H75      1.0000 0.70815  0.75639  0.33240  Biso   1.000  H
  C189     1.0000 0.77746  0.51475  0.42091  Biso   1.000  C
  H76      1.0000 0.89170  0.44156  0.46105  Biso   1.000  H
  C190     1.0000 0.77740  0.51475  0.42091  Biso   1.000  C
  H77      1.0000 0.89162  0.44156  0.46100  Biso   1.000  H
  H78      1.0000 0.89164  0.44156  0.46105  Biso   1.000  H
  H79      1.0000 0.67015  0.59937  0.39422  Biso   1.000  H
  C191     1.0000 0.73908  0.68789  0.99011  Biso   1.000  C
  C192     1.0000 0.73908  0.68796  0.99011  Biso   1.000  C
  C193     1.0000 0.60693  0.73290  0.91282  Biso   1.000  C
  C194     1.0000 0.60686  0.73290  0.91282  Biso   1.000  C
  C195     1.0000 0.60686  0.73296  0.91282  Biso   1.000  C
  H80      1.0000 0.60706  0.51771  0.76011  Biso   1.000  H
  H81      1.0000 0.58089  0.61638  0.72945  Biso   1.000  H
  C196     1.0000 0.47459  0.55609  0.76254  Biso   1.000  C
  H82      1.0000 0.58081  0.61638  0.72940  Biso   1.000  H
  C197     1.0000 0.47457  0.55608  0.76249  Biso   1.000  C
  H83      1.0000 0.58083  0.61644  0.72945  Biso   1.000  H
  H84      1.0000 0.58088  0.61638  0.72940  Biso   1.000  H
  C198     1.0000 0.11144  0.64668  0.02499  Biso   1.000  C
  C199     1.0000 0.11150  0.64668  0.02499  Biso   1.000  C
  C200     1.0000 0.11151  0.64675  0.02499  Biso   1.000  C
  C201     1.0000 0.57143  0.15292  0.30362  Biso   1.000  C
  H85      1.0000 0.56063  0.06742  0.22141  Biso   1.000  H
  C202     1.0000 0.43961  0.04410  0.25058  Biso   1.000  C
  C203     1.0000 0.57148  0.15292  0.30357  Biso   1.000  C
  H86      1.0000 0.56067  0.06741  0.22136  Biso   1.000  H
  C204     1.0000 0.43967  0.04410  0.25058  Biso   1.000  C
  C205     1.0000 0.57150  0.15292  0.30362  Biso   1.000  C
  H87      1.0000 0.56069  0.06742  0.22141  Biso   1.000  H
  C206     1.0000 0.43968  0.04416  0.25058  Biso   1.000  C
  C207     1.0000 0.57141  0.15292  0.30357  Biso   1.000  C
  H88      1.0000 0.56061  0.06741  0.22136  Biso   1.000  H
  C208     1.0000 0.43961  0.04416  0.25058  Biso   1.000  C
  H89      1.0000 0.45453  0.26075  0.25460  Biso   1.000  H
  H90      1.0000 0.45451  0.26075  0.25455  Biso   1.000  H
  H91      1.0000 0.43449  0.93881  0.06180  Biso   1.000  H
  O36      1.0000 0.45527  0.94851  0.16138  Biso   1.000  O
  H92      1.0000 0.43447  0.93881  0.06176  Biso   1.000  H
  H93      1.0000 0.36001  0.00088  0.09207  Biso   1.000  H
  H94      1.0000 0.36007  0.00094  0.09207  Biso   1.000  H
  H95      1.0000 0.36001  0.00094  0.09207  Biso   1.000  H
  C209     1.0000 0.26915  0.35808  0.16530  Biso   1.000  C
  H96      1.0000 0.37734  0.42028  0.12848  Biso   1.000  H
  C210     1.0000 0.42360  0.42439  0.23237  Biso   1.000  C
  C211     1.0000 0.26914  0.35808  0.16525  Biso   1.000  C
  C212     1.0000 0.42366  0.42439  0.23237  Biso   1.000  C
  C213     1.0000 0.26916  0.35815  0.16530  Biso   1.000  C
  H97      1.0000 0.37735  0.42034  0.12848  Biso   1.000  H
  C214     1.0000 0.42366  0.42445  0.23237  Biso   1.000  C
  C215     1.0000 0.26907  0.35814  0.16525  Biso   1.000  C
  H98      1.0000 0.37728  0.42034  0.12848  Biso   1.000  H
  C216     1.0000 0.42360  0.42445  0.23237  Biso   1.000  C
  H99      1.0000 0.24361  0.32413  0.95802  Biso   1.000  H
  H100     1.0000 0.24368  0.32413  0.95802  Biso   1.000  H
  O37      1.0000 0.22381  0.37658  0.04598  Biso   1.000  O
  H101     1.0000 0.23321  0.25098  0.01537  Biso   1.000  H
  O38      1.0000 0.22388  0.37664  0.04598  Biso   1.000  O
  O39      1.0000 0.22381  0.37664  0.04598  Biso   1.000  O
  C217     1.0000 0.58082  0.81163  0.93023  Biso   1.000  C
  O40      1.0000 0.51548  0.94143  0.90002  Biso   1.000  O
  C218     1.0000 0.58076  0.81163  0.93023  Biso   1.000  C
  H102     1.0000 0.54561  0.73937  0.74543  Biso   1.000  H
  H103     1.0000 0.54554  0.73937  0.74543  Biso   1.000  H
  H104     1.0000 0.54554  0.73943  0.74543  Biso   1.000  H
  C219     1.0000 0.33706  0.85948  0.57952  Biso   1.000  C
  H105     1.0000 0.31893  0.92578  0.66535  Biso   1.000  H
  H106     1.0000 0.41829  0.95781  0.64451  Biso   1.000  H
  H107     1.0000 0.31884  0.92578  0.66530  Biso   1.000  H
  H108     1.0000 0.41822  0.95775  0.64451  Biso   1.000  H
  H109     1.0000 0.31886  0.92578  0.66535  Biso   1.000  H
  H110     1.0000 0.41822  0.95781  0.64451  Biso   1.000  H
  H111     1.0000 0.64013  0.99924  0.90796  Biso   1.000  H
  H112     1.0000 0.64005  0.99923  0.90791  Biso   1.000  H
  H113     1.0000 0.64007  0.99924  0.90796  Biso   1.000  H
  H114     1.0000 0.56552  0.06130  0.93822  Biso   1.000  H
  H115     1.0000 0.56559  0.06130  0.93822  Biso   1.000  H
  C220     1.0000 0.70913  0.33392  0.89615  Biso   1.000  C
  C221     1.0000 0.85403  0.27573  0.94244  Biso   1.000  C
  C222     1.0000 0.70911  0.33392  0.89610  Biso   1.000  C
  C223     1.0000 0.85409  0.27573  0.94244  Biso   1.000  C
  C224     1.0000 0.70920  0.33392  0.89615  Biso   1.000  C
  C225     1.0000 0.70918  0.33392  0.89610  Biso   1.000  C
  H116     1.0000 0.54337  0.77087  0.28532  Biso   1.000  H
  H117     1.0000 0.54330  0.77087  0.28532  Biso   1.000  H
  H118     1.0000 0.75409  0.47566  0.37522  Biso   1.000  H
  H119     1.0000 0.75402  0.47566  0.37522  Biso   1.000  H
  H120     1.0000 0.76693  0.74913  0.98466  Biso   1.000  H
  O41      1.0000 0.64234  0.68399  0.96496  Biso   1.000  O
  H121     1.0000 0.76685  0.74913  0.98461  Biso   1.000  H
  O42      1.0000 0.64225  0.68399  0.96491  Biso   1.000  O
  H122     1.0000 0.76686  0.74913  0.98466  Biso   1.000  H
  O43      1.0000 0.64227  0.68405  0.96496  Biso   1.000  O
  O44      1.0000 0.64226  0.68405  0.96491  Biso   1.000  O
  H123     1.0000 0.75640  0.67599  0.04201  Biso   1.000  H
  H124     1.0000 0.75638  0.67598  0.04196  Biso   1.000  H
  H125     1.0000 0.75640  0.67605  0.04201  Biso   1.000  H
  H126     1.0000 0.44448  0.61407  0.77103  Biso   1.000  H
  H127     1.0000 0.44001  0.52782  0.71372  Biso   1.000  H
  C226     1.0000 0.46248  0.49712  0.81325  Biso   1.000  C
  H128     1.0000 0.43994  0.52776  0.71372  Biso   1.000  H
  C227     1.0000 0.46247  0.49711  0.81320  Biso   1.000  C
  H129     1.0000 0.44448  0.61413  0.77103  Biso   1.000  H
  H130     1.0000 0.43995  0.52782  0.71372  Biso   1.000  H
  C228     1.0000 0.16656  0.57870  0.03179  Biso   1.000  C
  C229     1.0000 0.14598  0.72439  0.05759  Biso   1.000  C
  C230     1.0000 0.14598  0.72445  0.05759  Biso   1.000  C
  C231     1.0000 0.16663  0.57870  0.03179  Biso   1.000  C
  C232     1.0000 0.62552  0.09553  0.35248  Biso   1.000  C
  H131     1.0000 0.52612  0.18451  0.32698  Biso   1.000  H
  H132     1.0000 0.61761  0.19864  0.29230  Biso   1.000  H
  C233     1.0000 0.62558  0.09553  0.35248  Biso   1.000  C
  H133     1.0000 0.52619  0.18451  0.32698  Biso   1.000  H
  H134     1.0000 0.61766  0.19863  0.29225  Biso   1.000  H
  H135     1.0000 0.52619  0.18457  0.32698  Biso   1.000  H
  H136     1.0000 0.61768  0.19864  0.29230  Biso   1.000  H
  H137     1.0000 0.52612  0.18457  0.32698  Biso   1.000  H
  H138     1.0000 0.61760  0.19863  0.29225  Biso   1.000  H
  C234     1.0000 0.41435  0.97002  0.21000  Biso   1.000  C
  C235     1.0000 0.41439  0.97001  0.20995  Biso   1.000  C
  C236     1.0000 0.41441  0.97002  0.21000  Biso   1.000  C
  C237     1.0000 0.39745  0.06295  0.30019  Biso   1.000  C
  C238     1.0000 0.39738  0.06295  0.30019  Biso   1.000  C
  C239     1.0000 0.24367  0.34001  0.22200  Biso   1.000  C
  C240     1.0000 0.20412  0.35412  0.10388  Biso   1.000  C
  C241     1.0000 0.24365  0.34000  0.22195  Biso   1.000  C
  C242     1.0000 0.24368  0.34007  0.22200  Biso   1.000  C
  C243     1.0000 0.24359  0.34000  0.22195  Biso   1.000  C
  H139     1.0000 0.39307  0.48241  0.23991  Biso   1.000  H
  H140     1.0000 0.41924  0.38374  0.27057  Biso   1.000  H
  C244     1.0000 0.52555  0.44403  0.23748  Biso   1.000  C
  H141     1.0000 0.39306  0.48240  0.23986  Biso   1.000  H
  H142     1.0000 0.39308  0.48247  0.23991  Biso   1.000  H
  H143     1.0000 0.39299  0.48246  0.23986  Biso   1.000  H
  H144     1.0000 0.41918  0.38374  0.27057  Biso   1.000  H
  C245     1.0000 0.52549  0.44403  0.23748  Biso   1.000  C
  C246     1.0000 0.58485  0.83972  0.00068  Biso   1.000  C
  C247     1.0000 0.58485  0.83966  0.00068  Biso   1.000  C
  C248     1.0000 0.58492  0.83972  0.00068  Biso   1.000  C
  C249     1.0000 0.37895  0.87479  0.52991  Biso   1.000  C
  C250     1.0000 0.26598  0.79838  0.56771  Biso   1.000  C
  C251     1.0000 0.26592  0.79838  0.56771  Biso   1.000  C
  C252     1.0000 0.74374  0.41163  0.92874  Biso   1.000  C
  H145     1.0000 0.63974  0.32640  0.86564  Biso   1.000  H
  C253     1.0000 0.74372  0.41162  0.92869  Biso   1.000  C
  C254     1.0000 0.74378  0.41162  0.92869  Biso   1.000  C
  H146     1.0000 0.63980  0.32640  0.86564  Biso   1.000  H
  C255     1.0000 0.88857  0.35343  0.97503  Biso   1.000  C
  H147     1.0000 0.89676  0.22302  0.94765  Biso   1.000  H
  H148     1.0000 0.89674  0.22301  0.94760  Biso   1.000  H
  C256     1.0000 0.47351  0.41158  0.80382  Biso   1.000  C
  C257     1.0000 0.44033  0.52861  0.86985  Biso   1.000  C
  C258     1.0000 0.47345  0.41158  0.80382  Biso   1.000  C
  C259     1.0000 0.44024  0.52860  0.86980  Biso   1.000  C
  C260     1.0000 0.47345  0.41164  0.80382  Biso   1.000  C
  C261     1.0000 0.44026  0.52861  0.86985  Biso   1.000  C
  C262     1.0000 0.25627  0.58849  0.07128  Biso   1.000  C
  H149     1.0000 0.13987  0.51847  0.00659  Biso   1.000  H
  H150     1.0000 0.13987  0.51854  0.00659  Biso   1.000  H
  C263     1.0000 0.23568  0.73418  0.09708  Biso   1.000  C
  C264     1.0000 0.23569  0.73424  0.09708  Biso   1.000  C
  H151     1.0000 0.10325  0.77710  0.05238  Biso   1.000  H
  H152     1.0000 0.10331  0.77710  0.05238  Biso   1.000  H
  C265     1.0000 0.66307  0.14063  0.42050  Biso   1.000  C
  H153     1.0000 0.68121  0.07433  0.33467  Biso   1.000  H
  H154     1.0000 0.58185  0.04231  0.35551  Biso   1.000  H
  C266     1.0000 0.66305  0.14063  0.42045  Biso   1.000  C
  H155     1.0000 0.68127  0.07433  0.33467  Biso   1.000  H
  H156     1.0000 0.58183  0.04230  0.35546  Biso   1.000  H
  H157     1.0000 0.58185  0.04237  0.35551  Biso   1.000  H
  C267     1.0000 0.66299  0.14063  0.42045  Biso   1.000  C
  H158     1.0000 0.58184  0.04236  0.35546  Biso   1.000  H
  C268     1.0000 0.34685  0.91485  0.21898  Biso   1.000  C
  C269     1.0000 0.34691  0.91479  0.21898  Biso   1.000  C
  C270     1.0000 0.34691  0.91485  0.21898  Biso   1.000  C
  C271     1.0000 0.33004  0.00760  0.30927  Biso   1.000  C
  H159     1.0000 0.41706  0.12026  0.33170  Biso   1.000  H
  C272     1.0000 0.33005  0.00766  0.30927  Biso   1.000  C
  C273     1.0000 0.32998  0.00766  0.30927  Biso   1.000  C
  H160     1.0000 0.41700  0.12026  0.33170  Biso   1.000  H
  C274     1.0000 0.15303  0.31791  0.21729  Biso   1.000  C
  H161     1.0000 0.29406  0.34312  0.26958  Biso   1.000  H
  C275     1.0000 0.15303  0.31797  0.21729  Biso   1.000  C
  H162     1.0000 0.29399  0.34312  0.26958  Biso   1.000  H
  C276     1.0000 0.11353  0.33201  0.09911  Biso   1.000  C
  C277     1.0000 0.11351  0.33201  0.09906  Biso   1.000  C
  C278     1.0000 0.11359  0.33201  0.09911  Biso   1.000  C
  H163     1.0000 0.55566  0.38605  0.22900  Biso   1.000  H
  H164     1.0000 0.56013  0.47230  0.28630  Biso   1.000  H
  C279     1.0000 0.53765  0.50300  0.18678  Biso   1.000  C
  H165     1.0000 0.55564  0.38598  0.22895  Biso   1.000  H
  H166     1.0000 0.56017  0.47229  0.28625  Biso   1.000  H
  H167     1.0000 0.56019  0.47236  0.28630  Biso   1.000  H
  C280     1.0000 0.53766  0.50306  0.18678  Biso   1.000  C
  H168     1.0000 0.55557  0.38605  0.22895  Biso   1.000  H
  H169     1.0000 0.56011  0.47236  0.28625  Biso   1.000  H
  C281     1.0000 0.53759  0.50300  0.18678  Biso   1.000  C
  N15      1.0000 0.66868  0.87318  0.03888  Biso   1.000  N
  O45      1.0000 0.51994  0.82482  0.02241  Biso   1.000  O
  O46      1.0000 0.51999  0.82482  0.02236  Biso   1.000  O
  N16      1.0000 0.66868  0.87325  0.03888  Biso   1.000  N
  O47      1.0000 0.52001  0.82482  0.02241  Biso   1.000  O
  C282     1.0000 0.34987  0.82888  0.46864  Biso   1.000  C
  H170     1.0000 0.43397  0.92210  0.53914  Biso   1.000  H
  C283     1.0000 0.34985  0.82887  0.46859  Biso   1.000  C
  H171     1.0000 0.43396  0.92209  0.53909  Biso   1.000  H
  C284     1.0000 0.23690  0.75247  0.50644  Biso   1.000  C
  H172     1.0000 0.23347  0.78660  0.60611  Biso   1.000  H
  C285     1.0000 0.23682  0.75247  0.50639  Biso   1.000  C
  H173     1.0000 0.23341  0.78660  0.60611  Biso   1.000  H
  C286     1.0000 0.23684  0.75247  0.50644  Biso   1.000  C
  C287     1.0000 0.83344  0.42142  0.96824  Biso   1.000  C
  C288     1.0000 0.83351  0.42142  0.96824  Biso   1.000  C
  H174     1.0000 0.70107  0.46434  0.92353  Biso   1.000  H
  N17      1.0000 0.97482  0.36833  0.02370  Biso   1.000  N
  N18      1.0000 0.97480  0.36826  0.02365  Biso   1.000  N
  N19      1.0000 0.97488  0.36833  0.02370  Biso   1.000  N
  N20      1.0000 0.97480  0.36832  0.02365  Biso   1.000  N
  C289     1.0000 0.46224  0.35758  0.85095  Biso   1.000  C
  H175     1.0000 0.49072  0.38727  0.76001  Biso   1.000  H
  C290     1.0000 0.46216  0.35758  0.85090  Biso   1.000  C
  H176     1.0000 0.49066  0.38727  0.76001  Biso   1.000  H
  C291     1.0000 0.46218  0.35765  0.85095  Biso   1.000  C
  H177     1.0000 0.49066  0.38733  0.76001  Biso   1.000  H
  C292     1.0000 0.46216  0.35764  0.85090  Biso   1.000  C
  C293     1.0000 0.42903  0.47461  0.91694  Biso   1.000  C
  H178     1.0000 0.43180  0.59478  0.87715  Biso   1.000  H
  C294     1.0000 0.42897  0.47461  0.91694  Biso   1.000  C
  H179     1.0000 0.43171  0.59478  0.87710  Biso   1.000  H
  H180     1.0000 0.43174  0.59484  0.87715  Biso   1.000  H
  H181     1.0000 0.43178  0.59484  0.87710  Biso   1.000  H
  C295     1.0000 0.29088  0.66620  0.10388  Biso   1.000  C
  H182     1.0000 0.29894  0.53578  0.07649  Biso   1.000  H
  H183     1.0000 0.29900  0.53578  0.07649  Biso   1.000  H
  H184     1.0000 0.29900  0.53584  0.07649  Biso   1.000  H
  N21      1.0000 0.26389  0.81533  0.12977  Biso   1.000  N
  C296     1.0000 0.62119  0.12533  0.47011  Biso   1.000  C
  C297     1.0000 0.73415  0.20173  0.43231  Biso   1.000  C
  C298     1.0000 0.62117  0.12533  0.47007  Biso   1.000  C
  C299     1.0000 0.73414  0.20173  0.43226  Biso   1.000  C
  C300     1.0000 0.62119  0.12539  0.47011  Biso   1.000  C
  C301     1.0000 0.73416  0.20180  0.43231  Biso   1.000  C
  C302     1.0000 0.62111  0.12539  0.47007  Biso   1.000  C
  C303     1.0000 0.30468  0.93351  0.26859  Biso   1.000  C
  C304     1.0000 0.33515  0.82724  0.18727  Biso   1.000  C
  C305     1.0000 0.33521  0.82724  0.18727  Biso   1.000  C
  C306     1.0000 0.30468  0.93357  0.26859  Biso   1.000  C
  C307     1.0000 0.27636  0.02801  0.35958  Biso   1.000  C
  C308     1.0000 0.27636  0.02808  0.35958  Biso   1.000  C
  C309     1.0000 0.27629  0.02808  0.35958  Biso   1.000  C
  C310     1.0000 0.12142  0.29613  0.27648  Biso   1.000  C
  C311     1.0000 0.08803  0.31399  0.15577  Biso   1.000  C
  C312     1.0000 0.12148  0.29613  0.27648  Biso   1.000  C
  C313     1.0000 0.08803  0.31406  0.15577  Biso   1.000  C
  C314     1.0000 0.04134  0.31448  0.03348  Biso   1.000  C
  C315     1.0000 0.04135  0.31454  0.03348  Biso   1.000  C
  C316     1.0000 0.04128  0.31454  0.03348  Biso   1.000  C
  C317     1.0000 0.52662  0.58854  0.19620  Biso   1.000  C
  C318     1.0000 0.55981  0.47151  0.13017  Biso   1.000  C
  C319     1.0000 0.52667  0.58854  0.19616  Biso   1.000  C
  C320     1.0000 0.52669  0.58854  0.19620  Biso   1.000  C
  C321     1.0000 0.55988  0.47151  0.13017  Biso   1.000  C
  C322     1.0000 0.52660  0.58854  0.19616  Biso   1.000  C
  C323     1.0000 0.68998  0.89832  0.10641  Biso   1.000  C
  C324     1.0000 0.68997  0.89832  0.10636  Biso   1.000  C
  C325     1.0000 0.27892  0.76778  0.45683  Biso   1.000  C
  H185     1.0000 0.38251  0.84066  0.43024  Biso   1.000  H
  C326     1.0000 0.27885  0.76778  0.45683  Biso   1.000  C
  H186     1.0000 0.38243  0.84066  0.43019  Biso   1.000  H
  H187     1.0000 0.38244  0.84066  0.43024  Biso   1.000  H
  H188     1.0000 0.18188  0.70516  0.49722  Biso   1.000  H
  H189     1.0000 0.18181  0.70516  0.49722  Biso   1.000  H
  H190     1.0000 0.86014  0.48164  0.99344  Biso   1.000  H
  H191     1.0000 0.86020  0.48164  0.99344  Biso   1.000  H
  C327     1.0000 0.44002  0.38913  0.90756  Biso   1.000  C
  H192     1.0000 0.47083  0.29141  0.84366  Biso   1.000  H
  C328     1.0000 0.43994  0.38913  0.90751  Biso   1.000  C
  H193     1.0000 0.47075  0.29140  0.84361  Biso   1.000  H
  C329     1.0000 0.43995  0.38913  0.90756  Biso   1.000  C
  H194     1.0000 0.47077  0.29141  0.84366  Biso   1.000  H
  C330     1.0000 0.44000  0.38913  0.90751  Biso   1.000  C
  H195     1.0000 0.41183  0.49904  0.96074  Biso   1.000  H
  H196     1.0000 0.41175  0.49903  0.96069  Biso   1.000  H
  H197     1.0000 0.41176  0.49904  0.96074  Biso   1.000  H
  H198     1.0000 0.36027  0.67372  0.13439  Biso   1.000  H
  H199     1.0000 0.36033  0.67372  0.13439  Biso   1.000  H
  C331     1.0000 0.65027  0.17124  0.53139  Biso   1.000  C
  H200     1.0000 0.56616  0.07802  0.46089  Biso   1.000  H
  C332     1.0000 0.65027  0.17130  0.53139  Biso   1.000  C
  H201     1.0000 0.56617  0.07808  0.46089  Biso   1.000  H
  C333     1.0000 0.65021  0.17124  0.53139  Biso   1.000  C
  H202     1.0000 0.56610  0.07808  0.46089  Biso   1.000  H
  C334     1.0000 0.76324  0.24764  0.49358  Biso   1.000  C
  H203     1.0000 0.76667  0.21352  0.39391  Biso   1.000  H
  H204     1.0000 0.76665  0.21352  0.39386  Biso   1.000  H
  H205     1.0000 0.76667  0.21358  0.39391  Biso   1.000  H
  H206     1.0000 0.76659  0.21358  0.39386  Biso   1.000  H
  O48      1.0000 0.24079  0.87381  0.27851  Biso   1.000  O
  O49      1.0000 0.24077  0.87380  0.27846  Biso   1.000  O
  O50      1.0000 0.24079  0.87387  0.27851  Biso   1.000  O
  O51      1.0000 0.24078  0.87387  0.27846  Biso   1.000  O
  O52      1.0000 0.38230  0.77084  0.21327  Biso   1.000  O
  H207     1.0000 0.25148  0.97296  0.37789  Biso   1.000  H
  H208     1.0000 0.25154  0.97296  0.37789  Biso   1.000  H
  C335     1.0000 0.33464  0.07186  0.42482  Biso   1.000  C
  C336     1.0000 0.19476  0.07391  0.32272  Biso   1.000  C
  C337     1.0000 0.33468  0.07185  0.42477  Biso   1.000  C
  C338     1.0000 0.19474  0.07390  0.32267  Biso   1.000  C
  C339     1.0000 0.33470  0.07186  0.42482  Biso   1.000  C
  C340     1.0000 0.19477  0.07397  0.32272  Biso   1.000  C
  C341     1.0000 0.33462  0.07185  0.42477  Biso   1.000  C
  C342     1.0000 0.19468  0.07397  0.32267  Biso   1.000  C
  C343     1.0000 0.12281  0.19942  0.28258  Biso   1.000  C
  H209     1.0000 0.05161  0.31240  0.26680  Biso   1.000  H
  C344     1.0000 0.17422  0.34476  0.34291  Biso   1.000  C
  C345     1.0000 0.12287  0.19942  0.28258  Biso   1.000  C
  H210     1.0000 0.05166  0.31239  0.26675  Biso   1.000  H
  C346     1.0000 0.17427  0.34476  0.34286  Biso   1.000  C
  H211     1.0000 0.05168  0.31246  0.26680  Biso   1.000  H
  C347     1.0000 0.17429  0.34476  0.34291  Biso   1.000  C
  H212     1.0000 0.05159  0.31245  0.26675  Biso   1.000  H
  C348     1.0000 0.17420  0.34476  0.34286  Biso   1.000  C
  O53      1.0000 0.99626  0.29653  0.14927  Biso   1.000  O
  O54      1.0000 0.99619  0.29653  0.14927  Biso   1.000  O
  O55      1.0000 0.04822  0.25601  0.99562  Biso   1.000  O
  O56      1.0000 0.04829  0.25601  0.99562  Biso   1.000  O
  C349     1.0000 0.53790  0.64253  0.14907  Biso   1.000  C
  H213     1.0000 0.50941  0.61285  0.24001  Biso   1.000  H
  C350     1.0000 0.53796  0.64253  0.14907  Biso   1.000  C
  H214     1.0000 0.50946  0.61284  0.23996  Biso   1.000  H
  H215     1.0000 0.50948  0.61285  0.24001  Biso   1.000  H
  H216     1.0000 0.50940  0.61284  0.23996  Biso   1.000  H
  C351     1.0000 0.57110  0.52551  0.08309  Biso   1.000  C
  H217     1.0000 0.56834  0.40534  0.12288  Biso   1.000  H
  C352     1.0000 0.57117  0.52551  0.08309  Biso   1.000  C
  H218     1.0000 0.56834  0.40527  0.12288  Biso   1.000  H
  H219     1.0000 0.56827  0.40534  0.12288  Biso   1.000  H
  C353     1.0000 0.63485  0.88471  0.14808  Biso   1.000  C
  C354     1.0000 0.77586  0.93859  0.13191  Biso   1.000  C
  C355     1.0000 0.77584  0.93859  0.13186  Biso   1.000  C
  C356     1.0000 0.77587  0.93865  0.13191  Biso   1.000  C
  C357     1.0000 0.63492  0.88471  0.14808  Biso   1.000  C
  C358     1.0000 0.77591  0.93865  0.13186  Biso   1.000  C
  H220     1.0000 0.25639  0.73214  0.40935  Biso   1.000  H
  H221     1.0000 0.25630  0.73214  0.40930  Biso   1.000  H
  H222     1.0000 0.25632  0.73220  0.40935  Biso   1.000  H
  H223     1.0000 0.25637  0.73214  0.40930  Biso   1.000  H
  H224     1.0000 0.43132  0.34732  0.94402  Biso   1.000  H
  H225     1.0000 0.43126  0.34732  0.94402  Biso   1.000  H
  C359     1.0000 0.72122  0.23234  0.54319  Biso   1.000  C
  H226     1.0000 0.61763  0.15945  0.56979  Biso   1.000  H
  C360     1.0000 0.72129  0.23234  0.54319  Biso   1.000  C
  H227     1.0000 0.61769  0.15945  0.56979  Biso   1.000  H
  C361     1.0000 0.72129  0.23240  0.54319  Biso   1.000  C
  C362     1.0000 0.72122  0.23240  0.54319  Biso   1.000  C
  H228     1.0000 0.81826  0.29495  0.50281  Biso   1.000  H
  H229     1.0000 0.81824  0.29495  0.50276  Biso   1.000  H
  C363     1.0000 0.14900  0.89394  0.24319  Biso   1.000  C
  H230     1.0000 0.35254  0.13483  0.41519  Biso   1.000  H
  H231     1.0000 0.39573  0.03925  0.44347  Biso   1.000  H
  C364     1.0000 0.28362  0.07657  0.47547  Biso   1.000  C
  H232     1.0000 0.39579  0.03925  0.44347  Biso   1.000  H
  C365     1.0000 0.28369  0.07657  0.47547  Biso   1.000  C
  C366     1.0000 0.19721  0.16091  0.32098  Biso   1.000  C
  C367     1.0000 0.11774  0.02553  0.28590  Biso   1.000  C
  C368     1.0000 0.19727  0.16091  0.32098  Biso   1.000  C
  C369     1.0000 0.11772  0.02553  0.28585  Biso   1.000  C
  C370     1.0000 0.19727  0.16097  0.32098  Biso   1.000  C
  C371     1.0000 0.19721  0.16097  0.32098  Biso   1.000  C
  C372     1.0000 0.04591  0.15104  0.24577  Biso   1.000  C
  C373     1.0000 0.04598  0.15104  0.24577  Biso   1.000  C
  H233     1.0000 0.17534  0.41111  0.33661  Biso   1.000  H
  H234     1.0000 0.24296  0.32485  0.35710  Biso   1.000  H
  C374     1.0000 0.12802  0.32703  0.39798  Biso   1.000  C
  H235     1.0000 0.17532  0.41110  0.33656  Biso   1.000  H
  C375     1.0000 0.12809  0.32703  0.39798  Biso   1.000  C
  H236     1.0000 0.17534  0.41117  0.33661  Biso   1.000  H
  H237     1.0000 0.17532  0.41117  0.33656  Biso   1.000  H
  H238     1.0000 0.24289  0.32485  0.35710  Biso   1.000  H
  C376     1.0000 0.96766  0.21032  0.14679  Biso   1.000  C
  C377     1.0000 0.96760  0.21032  0.14679  Biso   1.000  C
  C378     1.0000 0.56012  0.61098  0.09247  Biso   1.000  C
  H239     1.0000 0.52930  0.70871  0.15637  Biso   1.000  H
  H240     1.0000 0.52937  0.70871  0.15637  Biso   1.000  H
  C379     1.0000 0.56012  0.61105  0.09247  Biso   1.000  C
  H241     1.0000 0.58831  0.50108  0.03928  Biso   1.000  H
  H242     1.0000 0.58838  0.50114  0.03928  Biso   1.000  H
  H243     1.0000 0.58831  0.50114  0.03928  Biso   1.000  H
  C380     1.0000 0.66569  0.91145  0.21531  Biso   1.000  C
  H244     1.0000 0.56825  0.85341  0.12838  Biso   1.000  H
  C381     1.0000 0.66567  0.91144  0.21526  Biso   1.000  C
  H245     1.0000 0.56832  0.85341  0.12838  Biso   1.000  H
  C382     1.0000 0.80675  0.96544  0.19908  Biso   1.000  C
  C383     1.0000 0.80681  0.96544  0.19908  Biso   1.000  C
  H246     1.0000 0.81855  0.94920  0.09961  Biso   1.000  H
  H247     1.0000 0.81859  0.94919  0.09956  Biso   1.000  H
  H248     1.0000 0.81861  0.94920  0.09961  Biso   1.000  H
  H249     1.0000 0.74375  0.26798  0.59067  Biso   1.000  H
  H250     1.0000 0.10868  0.83634  0.22409  Biso   1.000  H
  H251     1.0000 0.15138  0.93124  0.20251  Biso   1.000  H
  O57      1.0000 0.11068  0.93863  0.28799  Biso   1.000  O
  H252     1.0000 0.15136  0.93123  0.20246  Biso   1.000  H
  H253     1.0000 0.15142  0.93123  0.20246  Biso   1.000  H
  O58      1.0000 0.11074  0.93863  0.28799  Biso   1.000  O
  H254     1.0000 0.22334  0.10987  0.45558  Biso   1.000  H
  H255     1.0000 0.26437  0.01297  0.48242  Biso   1.000  H
  C384     1.0000 0.33177  0.12064  0.54250  Biso   1.000  C
  H256     1.0000 0.26435  0.01296  0.48237  Biso   1.000  H
  C385     1.0000 0.33177  0.12070  0.54250  Biso   1.000  C
  C386     1.0000 0.33171  0.12070  0.54250  Biso   1.000  C
  H257     1.0000 0.25684  0.19833  0.34941  Biso   1.000  H
  H258     1.0000 0.25682  0.19833  0.34936  Biso   1.000  H
  C387     1.0000 0.04334  0.06404  0.24750  Biso   1.000  C
  C388     1.0000 0.04332  0.06404  0.24745  Biso   1.000  C
  O59      1.0000 0.96802  0.18640  0.21039  Biso   1.000  O
  O60      1.0000 0.96808  0.18640  0.21039  Biso   1.000  O
  O61      1.0000 0.96808  0.18646  0.21039  Biso   1.000  O
  O62      1.0000 0.96802  0.18646  0.21039  Biso   1.000  O
  H259     1.0000 0.13765  0.26265  0.40929  Biso   1.000  H
  H260     1.0000 0.05646  0.33562  0.37818  Biso   1.000  H
  C389     1.0000 0.16203  0.38427  0.46089  Biso   1.000  C
  C390     1.0000 0.16209  0.38427  0.46089  Biso   1.000  C
  H261     1.0000 0.05646  0.33568  0.37818  Biso   1.000  H
  H262     1.0000 0.05640  0.33568  0.37818  Biso   1.000  H
  H263     1.0000 0.89995  0.19919  0.11370  Biso   1.000  H
  H264     1.0000 0.89993  0.19919  0.11365  Biso   1.000  H
  H265     1.0000 0.89996  0.19925  0.11370  Biso   1.000  H
  H266     1.0000 0.89987  0.19925  0.11365  Biso   1.000  H
  H267     1.0000 0.01400  0.17279  0.12858  Biso   1.000  H
  H268     1.0000 0.01406  0.17279  0.12858  Biso   1.000  H
  H269     1.0000 0.01407  0.17286  0.12858  Biso   1.000  H
  H270     1.0000 0.01400  0.17286  0.12858  Biso   1.000  H
  H271     1.0000 0.56881  0.65279  0.05600  Biso   1.000  H
  H272     1.0000 0.56886  0.65279  0.05595  Biso   1.000  H
  H273     1.0000 0.56888  0.65279  0.05600  Biso   1.000  H
  H274     1.0000 0.56880  0.65279  0.05595  Biso   1.000  H
  C391     1.0000 0.75170  0.95184  0.24081  Biso   1.000  C
  C392     1.0000 0.75168  0.95184  0.24076  Biso   1.000  C
  H275     1.0000 0.62307  0.90090  0.24760  Biso   1.000  H
  H276     1.0000 0.62305  0.90090  0.24755  Biso   1.000  H
  H277     1.0000 0.62307  0.90097  0.24760  Biso   1.000  H
  H278     1.0000 0.62312  0.90096  0.24755  Biso   1.000  H
  N22      1.0000 0.89334  0.01045  0.22979  Biso   1.000  N
  C393     1.0000 0.42467  0.11249  0.56899  Biso   1.000  C
  C394     1.0000 0.28397  0.16796  0.57802  Biso   1.000  C
  C395     1.0000 0.42466  0.11243  0.56899  Biso   1.000  C
  C396     1.0000 0.28395  0.16796  0.57797  Biso   1.000  C
  C397     1.0000 0.42460  0.11249  0.56899  Biso   1.000  C
  C398     1.0000 0.96512  0.01070  0.20439  Biso   1.000  C
  C399     1.0000 0.96519  0.01077  0.20439  Biso   1.000  C
  C400     1.0000 0.11475  0.45395  0.47160  Biso   1.000  C
  C401     1.0000 0.23963  0.36504  0.50921  Biso   1.000  C
  C402     1.0000 0.11473  0.45394  0.47155  Biso   1.000  C
  C403     1.0000 0.23968  0.36504  0.50916  Biso   1.000  C
  C404     1.0000 0.23970  0.36510  0.50921  Biso   1.000  C
  C405     1.0000 0.23961  0.36504  0.50916  Biso   1.000  C
  H279     1.0000 0.77556  0.97254  0.29280  Biso   1.000  H
  H280     1.0000 0.77560  0.97253  0.29275  Biso   1.000  H
  H281     1.0000 0.77562  0.97254  0.29280  Biso   1.000  H
  C406     1.0000 0.46974  0.15167  0.63111  Biso   1.000  C
  H282     1.0000 0.46178  0.07584  0.54151  Biso   1.000  H
  C407     1.0000 0.46978  0.15167  0.63106  Biso   1.000  C
  H283     1.0000 0.46176  0.07584  0.54146  Biso   1.000  H
  C408     1.0000 0.46980  0.15167  0.63111  Biso   1.000  C
  H284     1.0000 0.46179  0.07591  0.54151  Biso   1.000  H
  C409     1.0000 0.46972  0.15167  0.63106  Biso   1.000  C
  H285     1.0000 0.46170  0.07584  0.54146  Biso   1.000  H
  C410     1.0000 0.32895  0.20714  0.64009  Biso   1.000  C
  H286     1.0000 0.21197  0.17423  0.55748  Biso   1.000  H
  C411     1.0000 0.32896  0.20720  0.64009  Biso   1.000  C
  H287     1.0000 0.21197  0.17429  0.55748  Biso   1.000  H
  H288     1.0000 0.21191  0.17429  0.55748  Biso   1.000  H
  O63      1.0000 0.96709  0.97833  0.15170  Biso   1.000  O
  O64      1.0000 0.96707  0.97833  0.15165  Biso   1.000  O
  C412     1.0000 0.14503  0.50459  0.53069  Biso   1.000  C
  H289     1.0000 0.05478  0.46882  0.43420  Biso   1.000  H
  C413     1.0000 0.14510  0.50452  0.53069  Biso   1.000  C
  C414     1.0000 0.14510  0.50459  0.53069  Biso   1.000  C
  H290     1.0000 0.05478  0.46889  0.43420  Biso   1.000  H
  H291     1.0000 0.05472  0.46889  0.43420  Biso   1.000  H
  C415     1.0000 0.26985  0.41555  0.56830  Biso   1.000  C
  H292     1.0000 0.27628  0.31107  0.50087  Biso   1.000  H
  H293     1.0000 0.27621  0.31107  0.50087  Biso   1.000  H
  C416     1.0000 0.42182  0.19900  0.66668  Biso   1.000  C
  H294     1.0000 0.54169  0.14535  0.65170  Biso   1.000  H
  C417     1.0000 0.42189  0.19894  0.66668  Biso   1.000  C
  C418     1.0000 0.42189  0.19900  0.66668  Biso   1.000  C
  H295     1.0000 0.54169  0.14541  0.65170  Biso   1.000  H
  H296     1.0000 0.54163  0.14541  0.65170  Biso   1.000  H
  H297     1.0000 0.29199  0.24379  0.66762  Biso   1.000  H
  H298     1.0000 0.29197  0.24379  0.66757  Biso   1.000  H
  H299     1.0000 0.29190  0.24379  0.66757  Biso   1.000  H
  C419     1.0000 0.22268  0.48536  0.57911  Biso   1.000  C
  H300     1.0000 0.10844  0.55855  0.53898  Biso   1.000  H
  C420     1.0000 0.22266  0.48536  0.57906  Biso   1.000  C
  C421     1.0000 0.22259  0.48536  0.57906  Biso   1.000  C
  H301     1.0000 0.32999  0.40075  0.60580  Biso   1.000  H
  H302     1.0000 0.32997  0.40074  0.60576  Biso   1.000  H
  H303     1.0000 0.32999  0.40081  0.60580  Biso   1.000  H
  H304     1.0000 0.32991  0.40081  0.60576  Biso   1.000  H
  H305     1.0000 0.45677  0.22925  0.71470  Biso   1.000  H
  H306     1.0000 0.45675  0.22925  0.71465  Biso   1.000  H
  H307     1.0000 0.45677  0.22931  0.71470  Biso   1.000  H
  H308     1.0000 0.45675  0.22931  0.71465  Biso   1.000  H
  H309     1.0000 0.24605  0.52445  0.62481  Biso   1.000  H
  H310     1.0000 0.24603  0.52445  0.62476  Biso   1.000  H
  H311     1.0000 0.24612  0.52452  0.62481  Biso   1.000  H
  O65      1.0000 0.03292  0.02179  0.84832  Biso   1.000  O
  C422     1.0000 0.03502  0.98941  0.79563  Biso   1.000  C
  C423     1.0000 0.03495  0.98941  0.79563  Biso   1.000  C
  N23      1.0000 0.10680  0.98967  0.77023  Biso   1.000  N
  N24      1.0000 0.10674  0.98967  0.77023  Biso   1.000  N
  N25      1.0000 0.10674  0.98973  0.77023  Biso   1.000  N
  N26      1.0000 0.10681  0.98973  0.77023  Biso   1.000  N
  O66      1.0000 0.03299  0.02185  0.84832  Biso   1.000  O
  O67      1.0000 0.03298  0.02179  0.84832  Biso   1.000  O
  C424     1.0000 0.95680  0.93608  0.75252  Biso   1.000  C
  C425     1.0000 0.95673  0.93608  0.75252  Biso   1.000  C
  C426     1.0000 0.95674  0.93614  0.75252  Biso   1.000  C
  C427     1.0000 0.19326  0.03467  0.80094  Biso   1.000  C
  C428     1.0000 0.19324  0.03467  0.80089  Biso   1.000  C
  C429     1.0000 0.19326  0.03474  0.80094  Biso   1.000  C
  C430     1.0000 0.19324  0.03473  0.80089  Biso   1.000  C
  C431     1.0000 0.88240  0.97459  0.71412  Biso   1.000  C
  C432     1.0000 0.95423  0.84908  0.75426  Biso   1.000  C
  C433     1.0000 0.88233  0.97459  0.71412  Biso   1.000  C
  C434     1.0000 0.95414  0.84907  0.75421  Biso   1.000  C
  C435     1.0000 0.95416  0.84914  0.75426  Biso   1.000  C
  C436     1.0000 0.95415  0.84914  0.75421  Biso   1.000  C
  C437     1.0000 0.24837  0.04834  0.75922  Biso   1.000  C
  C438     1.0000 0.24831  0.04827  0.75922  Biso   1.000  C
  C439     1.0000 0.24837  0.04827  0.75922  Biso   1.000  C
  C440     1.0000 0.22414  0.06153  0.86812  Biso   1.000  C
  C441     1.0000 0.80537  0.92621  0.67731  Biso   1.000  C
  C442     1.0000 0.80531  0.92621  0.67731  Biso   1.000  C
  O68      1.0000 0.88933  0.06149  0.71204  Biso   1.000  O
  O69      1.0000 0.88931  0.06149  0.71199  Biso   1.000  O
  O70      1.0000 0.88938  0.06149  0.71199  Biso   1.000  O
  C443     1.0000 0.87733  0.80070  0.71745  Biso   1.000  C
  C444     1.0000 0.87725  0.80069  0.71740  Biso   1.000  C
  C445     1.0000 0.87727  0.80070  0.71745  Biso   1.000  C
  O71      1.0000 0.03212  0.81372  0.78963  Biso   1.000  O
  O72      1.0000 0.03206  0.81372  0.78963  Biso   1.000  O
  C446     1.0000 0.33432  0.08867  0.78472  Biso   1.000  C
  H312     1.0000 0.22445  0.02758  0.70722  Biso   1.000  H
  C447     1.0000 0.33432  0.08873  0.78472  Biso   1.000  C
  C448     1.0000 0.33439  0.08873  0.78472  Biso   1.000  C
  C449     1.0000 0.31002  0.10180  0.89362  Biso   1.000  C
  C450     1.0000 0.31009  0.10180  0.89362  Biso   1.000  C
  H313     1.0000 0.18146  0.05092  0.90042  Biso   1.000  H
  C451     1.0000 0.80293  0.83921  0.67905  Biso   1.000  C
  C452     1.0000 0.72378  0.97210  0.64045  Biso   1.000  C
  C453     1.0000 0.80285  0.83920  0.67900  Biso   1.000  C
  C454     1.0000 0.72376  0.97210  0.64040  Biso   1.000  C
  C455     1.0000 0.80287  0.83921  0.67905  Biso   1.000  C
  C456     1.0000 0.85101  0.10618  0.75684  Biso   1.000  C
  C457     1.0000 0.85107  0.10618  0.75684  Biso   1.000  C
  C458     1.0000 0.85107  0.10624  0.75684  Biso   1.000  C
  C459     1.0000 0.87872  0.70399  0.72355  Biso   1.000  C
  C460     1.0000 0.87864  0.70399  0.72350  Biso   1.000  C
  C461     1.0000 0.87866  0.70399  0.72355  Biso   1.000  C
  C462     1.0000 0.03248  0.78979  0.85323  Biso   1.000  C
  C463     1.0000 0.03248  0.78985  0.85323  Biso   1.000  C
  H314     1.0000 0.37694  0.09921  0.75242  Biso   1.000  H
  C464     1.0000 0.36515  0.11540  0.85194  Biso   1.000  C
  C465     1.0000 0.36513  0.11540  0.85189  Biso   1.000  C
  N27      1.0000 0.33138  0.12693  0.96109  Biso   1.000  N
  N28      1.0000 0.33133  0.12693  0.96114  Biso   1.000  N
  N29      1.0000 0.33139  0.12693  0.96114  Biso   1.000  N
  H315     1.0000 0.74330  0.80179  0.65062  Biso   1.000  H
  H316     1.0000 0.74323  0.80179  0.65062  Biso   1.000  H
  C466     1.0000 0.67009  0.99252  0.69075  Biso   1.000  C
  C467     1.0000 0.66550  0.92826  0.57521  Biso   1.000  C
  C468     1.0000 0.67001  0.99245  0.69070  Biso   1.000  C
  C469     1.0000 0.66543  0.92826  0.57521  Biso   1.000  C
  C470     1.0000 0.67003  0.99252  0.69075  Biso   1.000  C
  C471     1.0000 0.67008  0.99251  0.69070  Biso   1.000  C
  H317     1.0000 0.74853  0.02716  0.62214  Biso   1.000  H
  H318     1.0000 0.74851  0.02715  0.62209  Biso   1.000  H
  H319     1.0000 0.74853  0.02722  0.62214  Biso   1.000  H
  H320     1.0000 0.74858  0.02721  0.62209  Biso   1.000  H
  O73      1.0000 0.75922  0.12631  0.72151  Biso   1.000  O
  H321     1.0000 0.89133  0.16378  0.77594  Biso   1.000  H
  H322     1.0000 0.84863  0.06888  0.79752  Biso   1.000  H
  H323     1.0000 0.89131  0.16377  0.77589  Biso   1.000  H
  H324     1.0000 0.89133  0.16384  0.77594  Biso   1.000  H
  H325     1.0000 0.84863  0.06894  0.79752  Biso   1.000  H
  O74      1.0000 0.75928  0.12631  0.72151  Biso   1.000  O
  H326     1.0000 0.89138  0.16383  0.77589  Biso   1.000  H
  H327     1.0000 0.84870  0.06894  0.79752  Biso   1.000  H
  H328     1.0000 0.94853  0.68772  0.73322  Biso   1.000  H
  C472     1.0000 0.82592  0.65535  0.65712  Biso   1.000  C
  C473     1.0000 0.84711  0.68221  0.78273  Biso   1.000  C
  H329     1.0000 0.94846  0.68766  0.73322  Biso   1.000  H
  C474     1.0000 0.82585  0.65535  0.65712  Biso   1.000  C
  C475     1.0000 0.84704  0.68221  0.78273  Biso   1.000  C
  H330     1.0000 0.94846  0.68772  0.73322  Biso   1.000  H
  C476     1.0000 0.82585  0.65542  0.65712  Biso   1.000  C
  H331     1.0000 0.98614  0.82732  0.87144  Biso   1.000  H
  H332     1.0000 0.98606  0.82732  0.87139  Biso   1.000  H
  H333     1.0000 0.98607  0.82732  0.87144  Biso   1.000  H
  O75      1.0000 0.00388  0.70359  0.85075  Biso   1.000  O
  H334     1.0000 0.10019  0.80093  0.88633  Biso   1.000  H
  O76      1.0000 0.00386  0.70358  0.85070  Biso   1.000  O
  O77      1.0000 0.00388  0.70365  0.85075  Biso   1.000  O
  O78      1.0000 0.00386  0.70364  0.85070  Biso   1.000  O
  H335     1.0000 0.43176  0.14671  0.87164  Biso   1.000  H
  H336     1.0000 0.43174  0.14670  0.87159  Biso   1.000  H
  C477     1.0000 0.41516  0.16040  0.99934  Biso   1.000  C
  C478     1.0000 0.41514  0.16039  0.99929  Biso   1.000  C
  C479     1.0000 0.41516  0.16046  0.99934  Biso   1.000  C
  C480     1.0000 0.41514  0.16045  0.99929  Biso   1.000  C
  C481     1.0000 0.60269  0.93717  0.69983  Biso   1.000  C
  C482     1.0000 0.60262  0.93717  0.69983  Biso   1.000  C
  C483     1.0000 0.60263  0.93723  0.69983  Biso   1.000  C
  C484     1.0000 0.60269  0.93723  0.69983  Biso   1.000  C
  C485     1.0000 0.69533  0.06661  0.73144  Biso   1.000  C
  C486     1.0000 0.69539  0.06661  0.73144  Biso   1.000  C
  H337     1.0000 0.64760  0.86528  0.58483  Biso   1.000  H
  H338     1.0000 0.60441  0.96087  0.55655  Biso   1.000  H
  C487     1.0000 0.71652  0.92355  0.52455  Biso   1.000  C
  H339     1.0000 0.64753  0.86528  0.58483  Biso   1.000  H
  H340     1.0000 0.60433  0.96086  0.55650  Biso   1.000  H
  C488     1.0000 0.71643  0.92354  0.52450  Biso   1.000  C
  H341     1.0000 0.60435  0.96087  0.55655  Biso   1.000  H
  C489     1.0000 0.71645  0.92361  0.52455  Biso   1.000  C
  C490     1.0000 0.71644  0.92361  0.52450  Biso   1.000  C
  H342     1.0000 0.82480  0.58901  0.66342  Biso   1.000  H
  H343     1.0000 0.75718  0.67526  0.64293  Biso   1.000  H
  C491     1.0000 0.87211  0.67308  0.60205  Biso   1.000  C
  H344     1.0000 0.82473  0.58901  0.66342  Biso   1.000  H
  H345     1.0000 0.75711  0.67526  0.64293  Biso   1.000  H
  C492     1.0000 0.87203  0.67308  0.60200  Biso   1.000  C
  H346     1.0000 0.75712  0.67533  0.64293  Biso   1.000  H
  C493     1.0000 0.87205  0.67308  0.60205  Biso   1.000  C
  H347     1.0000 0.75718  0.67533  0.64293  Biso   1.000  H
  C494     1.0000 0.75646  0.66011  0.77802  Biso   1.000  C
  C495     1.0000 0.91211  0.68612  0.84425  Biso   1.000  C
  C496     1.0000 0.91203  0.68612  0.84420  Biso   1.000  C
  C497     1.0000 0.91204  0.68612  0.84425  Biso   1.000  C
  C498     1.0000 0.91209  0.68612  0.84420  Biso   1.000  C
  O79      1.0000 0.48007  0.17529  0.97761  Biso   1.000  O
  O80      1.0000 0.48007  0.17536  0.97761  Biso   1.000  O
  C499     1.0000 0.41932  0.18849  0.06979  Biso   1.000  C
  C500     1.0000 0.41938  0.18855  0.06979  Biso   1.000  C
  C501     1.0000 0.56053  0.95602  0.74945  Biso   1.000  C
  H348     1.0000 0.58308  0.87986  0.66833  Biso   1.000  H
  C502     1.0000 0.56045  0.95602  0.74940  Biso   1.000  C
  C503     1.0000 0.56046  0.95602  0.74945  Biso   1.000  C
  H349     1.0000 0.58308  0.87992  0.66833  Biso   1.000  H
  C504     1.0000 0.65316  0.08527  0.78105  Biso   1.000  C
  C505     1.0000 0.65314  0.08526  0.78100  Biso   1.000  C
  C506     1.0000 0.65316  0.08533  0.78105  Biso   1.000  C
  C507     1.0000 0.65315  0.08533  0.78100  Biso   1.000  C
  H350     1.0000 0.77680  0.89025  0.54445  Biso   1.000  H
  H351     1.0000 0.73577  0.98715  0.51761  Biso   1.000  H
  C508     1.0000 0.66837  0.87948  0.45753  Biso   1.000  C
  H352     1.0000 0.77672  0.89024  0.54440  Biso   1.000  H
  H353     1.0000 0.73571  0.98715  0.51761  Biso   1.000  H
  C509     1.0000 0.66830  0.87948  0.45753  Biso   1.000  C
  H354     1.0000 0.77674  0.89031  0.54445  Biso   1.000  H
  H355     1.0000 0.73571  0.98721  0.51761  Biso   1.000  H
  H356     1.0000 0.77672  0.89031  0.54440  Biso   1.000  H
  H357     1.0000 0.86249  0.73746  0.59073  Biso   1.000  H
  H358     1.0000 0.94368  0.66450  0.62184  Biso   1.000  H
  C510     1.0000 0.83811  0.61585  0.53914  Biso   1.000  C
  H359     1.0000 0.86241  0.73746  0.59069  Biso   1.000  H
  H360     1.0000 0.94366  0.66449  0.62179  Biso   1.000  H
  C511     1.0000 0.83803  0.61584  0.53909  Biso   1.000  C
  H361     1.0000 0.86243  0.73746  0.59073  Biso   1.000  H
  C512     1.0000 0.83805  0.61591  0.53914  Biso   1.000  C
  H362     1.0000 0.86247  0.73746  0.59069  Biso   1.000  H
  C513     1.0000 0.83803  0.61590  0.53909  Biso   1.000  C
  C514     1.0000 0.73098  0.64203  0.83473  Biso   1.000  C
  H363     1.0000 0.70608  0.65699  0.73044  Biso   1.000  H
  C515     1.0000 0.73098  0.64197  0.83473  Biso   1.000  C
  H364     1.0000 0.70606  0.65699  0.73039  Biso   1.000  H
  C516     1.0000 0.88661  0.66811  0.90091  Biso   1.000  C
  C517     1.0000 0.88655  0.66811  0.90091  Biso   1.000  C
  C518     1.0000 0.45801  0.13582  0.11911  Biso   1.000  C
  C519     1.0000 0.39321  0.26722  0.08721  Biso   1.000  C
  C520     1.0000 0.45805  0.13582  0.11906  Biso   1.000  C
  C521     1.0000 0.39326  0.26721  0.08716  Biso   1.000  C
  C522     1.0000 0.45807  0.13582  0.11911  Biso   1.000  C
  C523     1.0000 0.39328  0.26722  0.08721  Biso   1.000  C
  C524     1.0000 0.45799  0.13582  0.11906  Biso   1.000  C
  C525     1.0000 0.39319  0.26721  0.08716  Biso   1.000  C
  C526     1.0000 0.48700  0.89569  0.76135  Biso   1.000  C
  C527     1.0000 0.48692  0.89569  0.76130  Biso   1.000  C
  C528     1.0000 0.48694  0.89569  0.76135  Biso   1.000  C
  C529     1.0000 0.48699  0.89569  0.76130  Biso   1.000  C
  C530     1.0000 0.58566  0.03010  0.79003  Biso   1.000  C
  C531     1.0000 0.66486  0.17288  0.81275  Biso   1.000  C
  C532     1.0000 0.66484  0.17288  0.81270  Biso   1.000  C
  C533     1.0000 0.66486  0.17294  0.81275  Biso   1.000  C
  C534     1.0000 0.66484  0.17294  0.81270  Biso   1.000  C
  C535     1.0000 0.57547  0.88763  0.43103  Biso   1.000  C
  C536     1.0000 0.71617  0.83216  0.42200  Biso   1.000  C
  C537     1.0000 0.57539  0.88762  0.43098  Biso   1.000  C
  C538     1.0000 0.71610  0.83216  0.42200  Biso   1.000  C
  C539     1.0000 0.57541  0.88769  0.43103  Biso   1.000  C
  C540     1.0000 0.57545  0.88769  0.43098  Biso   1.000  C
  C541     1.0000 0.88539  0.54617  0.52842  Biso   1.000  C
  C542     1.0000 0.76051  0.63508  0.49082  Biso   1.000  C
  C543     1.0000 0.88532  0.54617  0.52842  Biso   1.000  C
  C544     1.0000 0.76044  0.63508  0.49082  Biso   1.000  C
  C545     1.0000 0.79601  0.64600  0.89615  Biso   1.000  C
  C546     1.0000 0.63069  0.62181  0.83483  Biso   1.000  C
  C547     1.0000 0.79593  0.64599  0.89610  Biso   1.000  C
  C548     1.0000 0.63062  0.62181  0.83483  Biso   1.000  C
  C549     1.0000 0.79595  0.64606  0.89615  Biso   1.000  C
  C550     1.0000 0.79599  0.64599  0.89610  Biso   1.000  C
  C551     1.0000 0.95879  0.68564  0.96655  Biso   1.000  C
  C552     1.0000 0.95878  0.68563  0.96650  Biso   1.000  C
  C553     1.0000 0.47073  0.16181  0.18569  Biso   1.000  C
  O81      1.0000 0.48466  0.05869  0.10001  Biso   1.000  O
  O82      1.0000 0.48464  0.05868  0.09996  Biso   1.000  O
  O83      1.0000 0.48466  0.05875  0.10001  Biso   1.000  O
  O84      1.0000 0.48458  0.05874  0.09996  Biso   1.000  O
  C554     1.0000 0.40593  0.29320  0.15379  Biso   1.000  C
  O85      1.0000 0.35780  0.31613  0.03506  Biso   1.000  O
  O86      1.0000 0.35786  0.31606  0.03506  Biso   1.000  O
  O87      1.0000 0.35787  0.31613  0.03506  Biso   1.000  O
  C555     1.0000 0.52941  0.83831  0.81434  Biso   1.000  C
  C556     1.0000 0.42871  0.84719  0.69641  Biso   1.000  C
  H365     1.0000 0.43951  0.93270  0.77862  Biso   1.000  H
  C557     1.0000 0.52934  0.83831  0.81434  Biso   1.000  C
  C558     1.0000 0.42864  0.84719  0.69641  Biso   1.000  C
  H366     1.0000 0.43945  0.93270  0.77862  Biso   1.000  H
  O88      1.0000 0.54474  0.05160  0.83865  Biso   1.000  O
  O89      1.0000 0.54472  0.05160  0.83860  Biso   1.000  O
  O90      1.0000 0.54478  0.05160  0.83860  Biso   1.000  O
  N30      1.0000 0.73611  0.18479  0.87025  Biso   1.000  N
  O91      1.0000 0.61771  0.22928  0.78675  Biso   1.000  O
  N31      1.0000 0.73616  0.18478  0.87020  Biso   1.000  N
  O92      1.0000 0.61776  0.22927  0.78670  Biso   1.000  O
  N32      1.0000 0.73618  0.18485  0.87025  Biso   1.000  N
  O93      1.0000 0.61778  0.22934  0.78675  Biso   1.000  O
  N33      1.0000 0.73616  0.18484  0.87020  Biso   1.000  N
  O94      1.0000 0.61776  0.22934  0.78670  Biso   1.000  O
  C559     1.0000 0.53040  0.84845  0.36892  Biso   1.000  C
  H367     1.0000 0.53836  0.92427  0.45852  Biso   1.000  H
  C560     1.0000 0.53034  0.84845  0.36892  Biso   1.000  C
  C561     1.0000 0.67118  0.79298  0.35994  Biso   1.000  C
  H368     1.0000 0.78817  0.82589  0.44254  Biso   1.000  H
  C562     1.0000 0.67110  0.79291  0.35989  Biso   1.000  C
  H369     1.0000 0.78815  0.82582  0.44249  Biso   1.000  H
  C563     1.0000 0.67112  0.79298  0.35994  Biso   1.000  C
  C564     1.0000 0.67116  0.79297  0.35989  Biso   1.000  C
  H370     1.0000 0.78815  0.82588  0.44249  Biso   1.000  H
  C565     1.0000 0.85510  0.49553  0.46933  Biso   1.000  C
  H371     1.0000 0.94536  0.53129  0.56583  Biso   1.000  H
  C566     1.0000 0.85502  0.49553  0.46928  Biso   1.000  C
  C567     1.0000 0.85504  0.49559  0.46933  Biso   1.000  C
  C568     1.0000 0.85502  0.49559  0.46928  Biso   1.000  C
  C569     1.0000 0.73029  0.58456  0.43173  Biso   1.000  C
  H372     1.0000 0.72386  0.68905  0.49915  Biso   1.000  H
  C570     1.0000 0.73023  0.58456  0.43173  Biso   1.000  C
  H373     1.0000 0.72384  0.68904  0.49910  Biso   1.000  H
  H374     1.0000 0.72386  0.68911  0.49915  Biso   1.000  H
  H375     1.0000 0.72385  0.68911  0.49910  Biso   1.000  H
  O95      1.0000 0.77633  0.62354  0.95405  Biso   1.000  O
  O96      1.0000 0.77625  0.62353  0.95400  Biso   1.000  O
  O97      1.0000 0.77626  0.62354  0.95405  Biso   1.000  O
  C571     1.0000 0.59421  0.70691  0.84624  Biso   1.000  C
  H376     1.0000 0.62279  0.57984  0.87154  Biso   1.000  H
  C572     1.0000 0.57654  0.57573  0.76765  Biso   1.000  C
  C573     1.0000 0.59414  0.70691  0.84624  Biso   1.000  C
  H377     1.0000 0.62271  0.57977  0.87149  Biso   1.000  H
  C574     1.0000 0.57645  0.57566  0.76760  Biso   1.000  C
  C575     1.0000 0.57648  0.57573  0.76765  Biso   1.000  C
  H378     1.0000 0.62278  0.57983  0.87149  Biso   1.000  H
  C576     1.0000 0.57646  0.57572  0.76760  Biso   1.000  C
  O98      1.0000 0.95179  0.74410  0.00440  Biso   1.000  O
  O99      1.0000 0.95177  0.74410  0.00435  Biso   1.000  O
  N34      1.0000 0.02532  0.63179  0.97632  Biso   1.000  N
  N35      1.0000 0.02526  0.63179  0.97632  Biso   1.000  N
  N36      1.0000 0.02526  0.63185  0.97632  Biso   1.000  N
  C577     1.0000 0.51313  0.10443  0.23867  Biso   1.000  C
  C578     1.0000 0.44462  0.24060  0.20310  Biso   1.000  C
  C579     1.0000 0.44461  0.24060  0.20305  Biso   1.000  C
  C580     1.0000 0.44469  0.24066  0.20310  Biso   1.000  C
  C581     1.0000 0.44461  0.24066  0.20305  Biso   1.000  C
  C582     1.0000 0.42960  0.98408  0.10070  Biso   1.000  C
  C583     1.0000 0.42958  0.98407  0.10065  Biso   1.000  C
  C584     1.0000 0.42960  0.98414  0.10070  Biso   1.000  C
  C585     1.0000 0.42958  0.98413  0.10065  Biso   1.000  C
  C586     1.0000 0.36945  0.37831  0.16520  Biso   1.000  C
  C587     1.0000 0.36943  0.37830  0.16515  Biso   1.000  C
  C588     1.0000 0.36937  0.37830  0.16515  Biso   1.000  C
  C589     1.0000 0.26106  0.31222  0.00991  Biso   1.000  C
  C590     1.0000 0.26104  0.31216  0.00986  Biso   1.000  C
  C591     1.0000 0.26098  0.31222  0.00986  Biso   1.000  C
  C592     1.0000 0.54213  0.86429  0.88092  Biso   1.000  C
  C593     1.0000 0.55551  0.75952  0.79692  Biso   1.000  C
  C594     1.0000 0.54207  0.86429  0.88092  Biso   1.000  C
  C595     1.0000 0.55545  0.75952  0.79692  Biso   1.000  C
  C596     1.0000 0.54207  0.86436  0.88092  Biso   1.000  C
  C597     1.0000 0.37462  0.90458  0.64754  Biso   1.000  C
  H379     1.0000 0.47402  0.81561  0.67304  Biso   1.000  H
  H380     1.0000 0.38252  0.80148  0.70772  Biso   1.000  H
  C598     1.0000 0.37454  0.90458  0.64749  Biso   1.000  C
  H381     1.0000 0.47393  0.81561  0.67299  Biso   1.000  H
  H382     1.0000 0.38246  0.80148  0.70772  Biso   1.000  H
  C599     1.0000 0.37456  0.90458  0.64754  Biso   1.000  C
  H383     1.0000 0.47395  0.81561  0.67304  Biso   1.000  H
  C600     1.0000 0.57041  0.01604  0.89932  Biso   1.000  C
  C601     1.0000 0.57047  0.01598  0.89932  Biso   1.000  C
  C602     1.0000 0.57048  0.01604  0.89932  Biso   1.000  C
  C603     1.0000 0.76432  0.26594  0.90295  Biso   1.000  C
  C604     1.0000 0.76437  0.26593  0.90290  Biso   1.000  C
  C605     1.0000 0.76439  0.26594  0.90295  Biso   1.000  C
  C606     1.0000 0.57831  0.80112  0.33335  Biso   1.000  C
  H384     1.0000 0.45845  0.85477  0.34833  Biso   1.000  H
  C607     1.0000 0.57823  0.80111  0.33330  Biso   1.000  C
  C608     1.0000 0.57825  0.80118  0.33335  Biso   1.000  C
  C609     1.0000 0.57823  0.80118  0.33330  Biso   1.000  C
  H385     1.0000 0.70815  0.75633  0.33240  Biso   1.000  H
  H386     1.0000 0.70815  0.75639  0.33240  Biso   1.000  H
  C610     1.0000 0.77746  0.51475  0.42091  Biso   1.000  C
  H387     1.0000 0.89170  0.44156  0.46105  Biso   1.000  H
  C611     1.0000 0.77740  0.51475  0.42091  Biso   1.000  C
  H388     1.0000 0.89162  0.44156  0.46100  Biso   1.000  H
  H389     1.0000 0.89164  0.44156  0.46105  Biso   1.000  H
  H390     1.0000 0.67015  0.59937  0.39422  Biso   1.000  H
  C612     1.0000 0.73908  0.68789  0.99011  Biso   1.000  C
  C613     1.0000 0.73908  0.68796  0.99011  Biso   1.000  C
  C614     1.0000 0.60693  0.73290  0.91282  Biso   1.000  C
  C615     1.0000 0.60686  0.73290  0.91282  Biso   1.000  C
  C616     1.0000 0.60686  0.73296  0.91282  Biso   1.000  C
  H391     1.0000 0.60706  0.51771  0.76011  Biso   1.000  H
  H392     1.0000 0.58089  0.61638  0.72945  Biso   1.000  H
  C617     1.0000 0.47459  0.55609  0.76254  Biso   1.000  C
  H393     1.0000 0.58081  0.61638  0.72940  Biso   1.000  H
  C618     1.0000 0.47457  0.55608  0.76249  Biso   1.000  C
  H394     1.0000 0.58083  0.61644  0.72945  Biso   1.000  H
  H395     1.0000 0.58088  0.61638  0.72940  Biso   1.000  H
  C619     1.0000 0.11144  0.64668  0.02499  Biso   1.000  C
  C620     1.0000 0.11150  0.64668  0.02499  Biso   1.000  C
  C621     1.0000 0.11151  0.64675  0.02499  Biso   1.000  C
  C622     1.0000 0.57143  0.15292  0.30362  Biso   1.000  C
  H396     1.0000 0.56063  0.06742  0.22141  Biso   1.000  H
  C623     1.0000 0.43961  0.04410  0.25058  Biso   1.000  C
  C624     1.0000 0.57148  0.15292  0.30357  Biso   1.000  C
  H397     1.0000 0.56067  0.06741  0.22136  Biso   1.000  H
  C625     1.0000 0.43967  0.04410  0.25058  Biso   1.000  C
  C626     1.0000 0.57150  0.15292  0.30362  Biso   1.000  C
  H398     1.0000 0.56069  0.06742  0.22141  Biso   1.000  H
  C627     1.0000 0.43968  0.04416  0.25058  Biso   1.000  C
  C628     1.0000 0.57141  0.15292  0.30357  Biso   1.000  C
  H399     1.0000 0.56061  0.06741  0.22136  Biso   1.000  H
  C629     1.0000 0.43961  0.04416  0.25058  Biso   1.000  C
  H400     1.0000 0.45453  0.26075  0.25460  Biso   1.000  H
  H401     1.0000 0.45451  0.26075  0.25455  Biso   1.000  H
  H402     1.0000 0.43449  0.93881  0.06180  Biso   1.000  H
  O100     1.0000 0.45527  0.94851  0.16138  Biso   1.000  O
  H403     1.0000 0.43447  0.93881  0.06176  Biso   1.000  H
  H404     1.0000 0.36001  0.00088  0.09207  Biso   1.000  H
  H405     1.0000 0.36007  0.00094  0.09207  Biso   1.000  H
  H406     1.0000 0.36001  0.00094  0.09207  Biso   1.000  H
  C630     1.0000 0.26915  0.35808  0.16530  Biso   1.000  C
  H407     1.0000 0.37734  0.42028  0.12848  Biso   1.000  H
  C631     1.0000 0.42360  0.42439  0.23237  Biso   1.000  C
  C632     1.0000 0.26914  0.35808  0.16525  Biso   1.000  C
  C633     1.0000 0.42366  0.42439  0.23237  Biso   1.000  C
  C634     1.0000 0.26916  0.35815  0.16530  Biso   1.000  C
  H408     1.0000 0.37735  0.42034  0.12848  Biso   1.000  H
  C635     1.0000 0.42366  0.42445  0.23237  Biso   1.000  C
  C636     1.0000 0.26907  0.35814  0.16525  Biso   1.000  C
  H409     1.0000 0.37728  0.42034  0.12848  Biso   1.000  H
  C637     1.0000 0.42360  0.42445  0.23237  Biso   1.000  C
  H410     1.0000 0.24368  0.32413  0.95802  Biso   1.000  H
  H411     1.0000 0.24361  0.32413  0.95802  Biso   1.000  H
  O101     1.0000 0.22381  0.37658  0.04598  Biso   1.000  O
  H412     1.0000 0.23321  0.25098  0.01537  Biso   1.000  H
  O102     1.0000 0.22388  0.37664  0.04598  Biso   1.000  O
  O103     1.0000 0.22381  0.37664  0.04598  Biso   1.000  O
  C638     1.0000 0.58082  0.81163  0.93023  Biso   1.000  C
  O104     1.0000 0.51548  0.94143  0.90002  Biso   1.000  O
  C639     1.0000 0.58076  0.81163  0.93023  Biso   1.000  C
  H413     1.0000 0.54561  0.73937  0.74543  Biso   1.000  H
  H414     1.0000 0.54554  0.73937  0.74543  Biso   1.000  H
  H415     1.0000 0.54554  0.73943  0.74543  Biso   1.000  H
  C640     1.0000 0.33706  0.85948  0.57952  Biso   1.000  C
  H416     1.0000 0.31893  0.92578  0.66535  Biso   1.000  H
  H417     1.0000 0.41829  0.95781  0.64451  Biso   1.000  H
  H418     1.0000 0.31884  0.92578  0.66530  Biso   1.000  H
  H419     1.0000 0.41822  0.95775  0.64451  Biso   1.000  H
  H420     1.0000 0.31886  0.92578  0.66535  Biso   1.000  H
  H421     1.0000 0.41822  0.95781  0.64451  Biso   1.000  H
  H422     1.0000 0.64013  0.99924  0.90796  Biso   1.000  H
  H423     1.0000 0.64005  0.99923  0.90791  Biso   1.000  H
  H424     1.0000 0.64007  0.99924  0.90796  Biso   1.000  H
  H425     1.0000 0.56552  0.06130  0.93822  Biso   1.000  H
  H426     1.0000 0.56559  0.06130  0.93822  Biso   1.000  H
  C641     1.0000 0.70913  0.33392  0.89615  Biso   1.000  C
  C642     1.0000 0.85403  0.27573  0.94244  Biso   1.000  C
  C643     1.0000 0.70911  0.33392  0.89610  Biso   1.000  C
  C644     1.0000 0.85409  0.27573  0.94244  Biso   1.000  C
  C645     1.0000 0.70920  0.33392  0.89615  Biso   1.000  C
  C646     1.0000 0.70918  0.33392  0.89610  Biso   1.000  C
  H427     1.0000 0.54337  0.77087  0.28532  Biso   1.000  H
  H428     1.0000 0.54330  0.77087  0.28532  Biso   1.000  H
  H429     1.0000 0.75409  0.47566  0.37522  Biso   1.000  H
  H430     1.0000 0.75402  0.47566  0.37522  Biso   1.000  H
  H431     1.0000 0.76693  0.74913  0.98466  Biso   1.000  H
  O105     1.0000 0.64234  0.68399  0.96496  Biso   1.000  O
  H432     1.0000 0.76685  0.74913  0.98461  Biso   1.000  H
  O106     1.0000 0.64225  0.68399  0.96491  Biso   1.000  O
  H433     1.0000 0.76686  0.74913  0.98466  Biso   1.000  H
  O107     1.0000 0.64227  0.68405  0.96496  Biso   1.000  O
  O108     1.0000 0.64226  0.68405  0.96491  Biso   1.000  O
  H434     1.0000 0.75640  0.67599  0.04201  Biso   1.000  H
  H435     1.0000 0.75638  0.67598  0.04196  Biso   1.000  H
  H436     1.0000 0.75640  0.67605  0.04201  Biso   1.000  H
  H437     1.0000 0.44448  0.61407  0.77103  Biso   1.000  H
  H438     1.0000 0.44001  0.52782  0.71372  Biso   1.000  H
  C647     1.0000 0.46248  0.49712  0.81325  Biso   1.000  C
  H439     1.0000 0.43994  0.52776  0.71372  Biso   1.000  H
  C648     1.0000 0.46247  0.49711  0.81320  Biso   1.000  C
  H440     1.0000 0.44448  0.61413  0.77103  Biso   1.000  H
  H441     1.0000 0.43995  0.52782  0.71372  Biso   1.000  H
  C649     1.0000 0.16656  0.57870  0.03179  Biso   1.000  C
  C650     1.0000 0.14598  0.72439  0.05759  Biso   1.000  C
  C651     1.0000 0.14598  0.72445  0.05759  Biso   1.000  C
  C652     1.0000 0.16663  0.57870  0.03179  Biso   1.000  C
  C653     1.0000 0.62552  0.09553  0.35248  Biso   1.000  C
  H442     1.0000 0.52612  0.18451  0.32698  Biso   1.000  H
  H443     1.0000 0.61761  0.19864  0.29230  Biso   1.000  H
  C654     1.0000 0.62558  0.09553  0.35248  Biso   1.000  C
  H444     1.0000 0.52619  0.18451  0.32698  Biso   1.000  H
  H445     1.0000 0.61766  0.19863  0.29225  Biso   1.000  H
  H446     1.0000 0.52619  0.18457  0.32698  Biso   1.000  H
  H447     1.0000 0.61768  0.19864  0.29230  Biso   1.000  H
  H448     1.0000 0.52612  0.18457  0.32698  Biso   1.000  H
  H449     1.0000 0.61760  0.19863  0.29225  Biso   1.000  H
  C655     1.0000 0.41435  0.97002  0.21000  Biso   1.000  C
  C656     1.0000 0.41439  0.97001  0.20995  Biso   1.000  C
  C657     1.0000 0.41441  0.97002  0.21000  Biso   1.000  C
  C658     1.0000 0.39745  0.06295  0.30019  Biso   1.000  C
  C659     1.0000 0.39738  0.06295  0.30019  Biso   1.000  C
  C660     1.0000 0.24367  0.34001  0.22200  Biso   1.000  C
  C661     1.0000 0.20412  0.35412  0.10388  Biso   1.000  C
  C662     1.0000 0.24365  0.34000  0.22195  Biso   1.000  C
  C663     1.0000 0.24368  0.34007  0.22200  Biso   1.000  C
  C664     1.0000 0.24359  0.34000  0.22195  Biso   1.000  C
  H450     1.0000 0.39307  0.48241  0.23991  Biso   1.000  H
  H451     1.0000 0.41924  0.38374  0.27057  Biso   1.000  H
  C665     1.0000 0.52555  0.44403  0.23748  Biso   1.000  C
  H452     1.0000 0.39306  0.48240  0.23986  Biso   1.000  H
  H453     1.0000 0.39308  0.48247  0.23991  Biso   1.000  H
  H454     1.0000 0.39299  0.48246  0.23986  Biso   1.000  H
  H455     1.0000 0.41918  0.38374  0.27057  Biso   1.000  H
  C666     1.0000 0.52549  0.44403  0.23748  Biso   1.000  C
  C667     1.0000 0.58485  0.83972  0.00068  Biso   1.000  C
  C668     1.0000 0.58485  0.83966  0.00068  Biso   1.000  C
  C669     1.0000 0.58492  0.83972  0.00068  Biso   1.000  C
  C670     1.0000 0.37895  0.87479  0.52991  Biso   1.000  C
  C671     1.0000 0.26598  0.79838  0.56771  Biso   1.000  C
  C672     1.0000 0.26592  0.79838  0.56771  Biso   1.000  C
  C673     1.0000 0.74374  0.41163  0.92874  Biso   1.000  C
  H456     1.0000 0.63974  0.32640  0.86564  Biso   1.000  H
  C674     1.0000 0.74372  0.41162  0.92869  Biso   1.000  C
  C675     1.0000 0.74378  0.41162  0.92869  Biso   1.000  C
  H457     1.0000 0.63980  0.32640  0.86564  Biso   1.000  H
  C676     1.0000 0.88857  0.35343  0.97503  Biso   1.000  C
  H458     1.0000 0.89676  0.22302  0.94765  Biso   1.000  H
  H459     1.0000 0.89674  0.22301  0.94760  Biso   1.000  H
  C677     1.0000 0.47351  0.41158  0.80382  Biso   1.000  C
  C678     1.0000 0.44033  0.52861  0.86985  Biso   1.000  C
  C679     1.0000 0.47345  0.41158  0.80382  Biso   1.000  C
  C680     1.0000 0.44024  0.52860  0.86980  Biso   1.000  C
  C681     1.0000 0.47345  0.41164  0.80382  Biso   1.000  C
  C682     1.0000 0.44026  0.52861  0.86985  Biso   1.000  C
  C683     1.0000 0.25627  0.58849  0.07128  Biso   1.000  C
  H460     1.0000 0.13987  0.51847  0.00659  Biso   1.000  H
  H461     1.0000 0.13987  0.51854  0.00659  Biso   1.000  H
  C684     1.0000 0.23568  0.73418  0.09708  Biso   1.000  C
  C685     1.0000 0.23569  0.73424  0.09708  Biso   1.000  C
  H462     1.0000 0.10325  0.77710  0.05238  Biso   1.000  H
  H463     1.0000 0.10331  0.77710  0.05238  Biso   1.000  H
  C686     1.0000 0.66307  0.14063  0.42050  Biso   1.000  C
  H464     1.0000 0.68121  0.07433  0.33467  Biso   1.000  H
  H465     1.0000 0.58185  0.04231  0.35551  Biso   1.000  H
  C687     1.0000 0.66305  0.14063  0.42045  Biso   1.000  C
  H466     1.0000 0.68127  0.07433  0.33467  Biso   1.000  H
  H467     1.0000 0.58183  0.04230  0.35546  Biso   1.000  H
  H468     1.0000 0.58185  0.04237  0.35551  Biso   1.000  H
  C688     1.0000 0.66299  0.14063  0.42045  Biso   1.000  C
  H469     1.0000 0.58184  0.04236  0.35546  Biso   1.000  H
  C689     1.0000 0.34685  0.91485  0.21898  Biso   1.000  C
  C690     1.0000 0.34691  0.91479  0.21898  Biso   1.000  C
  C691     1.0000 0.34691  0.91485  0.21898  Biso   1.000  C
  C692     1.0000 0.33004  0.00760  0.30927  Biso   1.000  C
  H470     1.0000 0.41706  0.12026  0.33170  Biso   1.000  H
  C693     1.0000 0.33005  0.00766  0.30927  Biso   1.000  C
  C694     1.0000 0.32998  0.00766  0.30927  Biso   1.000  C
  H471     1.0000 0.41700  0.12026  0.33170  Biso   1.000  H
  C695     1.0000 0.15303  0.31791  0.21729  Biso   1.000  C
  H472     1.0000 0.29406  0.34312  0.26958  Biso   1.000  H
  C696     1.0000 0.15303  0.31797  0.21729  Biso   1.000  C
  H473     1.0000 0.29399  0.34312  0.26958  Biso   1.000  H
  C697     1.0000 0.11353  0.33201  0.09911  Biso   1.000  C
  C698     1.0000 0.11351  0.33201  0.09906  Biso   1.000  C
  C699     1.0000 0.11359  0.33201  0.09911  Biso   1.000  C
  H474     1.0000 0.55566  0.38605  0.22900  Biso   1.000  H
  H475     1.0000 0.56013  0.47230  0.28630  Biso   1.000  H
  C700     1.0000 0.53765  0.50300  0.18678  Biso   1.000  C
  H476     1.0000 0.55564  0.38598  0.22895  Biso   1.000  H
  H477     1.0000 0.56017  0.47229  0.28625  Biso   1.000  H
  H478     1.0000 0.56019  0.47236  0.28630  Biso   1.000  H
  C701     1.0000 0.53766  0.50306  0.18678  Biso   1.000  C
  H479     1.0000 0.55557  0.38605  0.22895  Biso   1.000  H
  H480     1.0000 0.56011  0.47236  0.28625  Biso   1.000  H
  C702     1.0000 0.53759  0.50300  0.18678  Biso   1.000  C
  N37      1.0000 0.66868  0.87318  0.03888  Biso   1.000  N
  O109     1.0000 0.51994  0.82482  0.02241  Biso   1.000  O
  O110     1.0000 0.51999  0.82482  0.02236  Biso   1.000  O
  N38      1.0000 0.66868  0.87325  0.03888  Biso   1.000  N
  O111     1.0000 0.52001  0.82482  0.02241  Biso   1.000  O
  C703     1.0000 0.34987  0.82888  0.46864  Biso   1.000  C
  H481     1.0000 0.43397  0.92210  0.53914  Biso   1.000  H
  C704     1.0000 0.34985  0.82887  0.46859  Biso   1.000  C
  H482     1.0000 0.43396  0.92209  0.53909  Biso   1.000  H
  C705     1.0000 0.23690  0.75247  0.50644  Biso   1.000  C
  H483     1.0000 0.23347  0.78660  0.60611  Biso   1.000  H
  C706     1.0000 0.23682  0.75247  0.50639  Biso   1.000  C
  H484     1.0000 0.23341  0.78660  0.60611  Biso   1.000  H
  C707     1.0000 0.23684  0.75247  0.50644  Biso   1.000  C
  C708     1.0000 0.83344  0.42142  0.96824  Biso   1.000  C
  C709     1.0000 0.83351  0.42142  0.96824  Biso   1.000  C
  H485     1.0000 0.70107  0.46434  0.92353  Biso   1.000  H
  N39      1.0000 0.97482  0.36833  0.02370  Biso   1.000  N
  N40      1.0000 0.97480  0.36826  0.02365  Biso   1.000  N
  N41      1.0000 0.97488  0.36833  0.02370  Biso   1.000  N
  N42      1.0000 0.97480  0.36832  0.02365  Biso   1.000  N
  C710     1.0000 0.46224  0.35758  0.85095  Biso   1.000  C
  H486     1.0000 0.49072  0.38727  0.76001  Biso   1.000  H
  C711     1.0000 0.46216  0.35758  0.85090  Biso   1.000  C
  H487     1.0000 0.49066  0.38727  0.76001  Biso   1.000  H
  C712     1.0000 0.46218  0.35765  0.85095  Biso   1.000  C
  H488     1.0000 0.49066  0.38733  0.76001  Biso   1.000  H
  C713     1.0000 0.46216  0.35764  0.85090  Biso   1.000  C
  C714     1.0000 0.42903  0.47461  0.91694  Biso   1.000  C
  H489     1.0000 0.43180  0.59478  0.87715  Biso   1.000  H
  C715     1.0000 0.42897  0.47461  0.91694  Biso   1.000  C
  H490     1.0000 0.43171  0.59478  0.87710  Biso   1.000  H
  H491     1.0000 0.43174  0.59484  0.87715  Biso   1.000  H
  H492     1.0000 0.43178  0.59484  0.87710  Biso   1.000  H
  C716     1.0000 0.29088  0.66620  0.10388  Biso   1.000  C
  H493     1.0000 0.29894  0.53578  0.07649  Biso   1.000  H
  H494     1.0000 0.29900  0.53578  0.07649  Biso   1.000  H
  H495     1.0000 0.29900  0.53584  0.07649  Biso   1.000  H
  N43      1.0000 0.26389  0.81533  0.12977  Biso   1.000  N
  C717     1.0000 0.62119  0.12533  0.47011  Biso   1.000  C
  C718     1.0000 0.73415  0.20173  0.43231  Biso   1.000  C
  C719     1.0000 0.62117  0.12533  0.47007  Biso   1.000  C
  C720     1.0000 0.73414  0.20173  0.43226  Biso   1.000  C
  C721     1.0000 0.62119  0.12539  0.47011  Biso   1.000  C
  C722     1.0000 0.73416  0.20180  0.43231  Biso   1.000  C
  C723     1.0000 0.62111  0.12539  0.47007  Biso   1.000  C
  C724     1.0000 0.30468  0.93351  0.26859  Biso   1.000  C
  C725     1.0000 0.33515  0.82724  0.18727  Biso   1.000  C
  C726     1.0000 0.33521  0.82724  0.18727  Biso   1.000  C
  C727     1.0000 0.30468  0.93357  0.26859  Biso   1.000  C
  C728     1.0000 0.27636  0.02801  0.35958  Biso   1.000  C
  C729     1.0000 0.27636  0.02808  0.35958  Biso   1.000  C
  C730     1.0000 0.27629  0.02808  0.35958  Biso   1.000  C
  C731     1.0000 0.12142  0.29613  0.27648  Biso   1.000  C
  C732     1.0000 0.08803  0.31399  0.15577  Biso   1.000  C
  C733     1.0000 0.12148  0.29613  0.27648  Biso   1.000  C
  C734     1.0000 0.08803  0.31406  0.15577  Biso   1.000  C
  C735     1.0000 0.04134  0.31448  0.03348  Biso   1.000  C
  C736     1.0000 0.04135  0.31454  0.03348  Biso   1.000  C
  C737     1.0000 0.04128  0.31454  0.03348  Biso   1.000  C
  C738     1.0000 0.52662  0.58854  0.19620  Biso   1.000  C
  C739     1.0000 0.55981  0.47151  0.13017  Biso   1.000  C
  C740     1.0000 0.52667  0.58854  0.19616  Biso   1.000  C
  C741     1.0000 0.52669  0.58854  0.19620  Biso   1.000  C
  C742     1.0000 0.55988  0.47151  0.13017  Biso   1.000  C
  C743     1.0000 0.52660  0.58854  0.19616  Biso   1.000  C
  C744     1.0000 0.68998  0.89832  0.10641  Biso   1.000  C
  C745     1.0000 0.68997  0.89832  0.10636  Biso   1.000  C
  C746     1.0000 0.27892  0.76778  0.45683  Biso   1.000  C
  H496     1.0000 0.38251  0.84066  0.43024  Biso   1.000  H
  C747     1.0000 0.27885  0.76778  0.45683  Biso   1.000  C
  H497     1.0000 0.38243  0.84066  0.43019  Biso   1.000  H
  H498     1.0000 0.38244  0.84066  0.43024  Biso   1.000  H
  H499     1.0000 0.18188  0.70516  0.49722  Biso   1.000  H
  H500     1.0000 0.18181  0.70516  0.49722  Biso   1.000  H
  H501     1.0000 0.86014  0.48164  0.99344  Biso   1.000  H
  H502     1.0000 0.86020  0.48164  0.99344  Biso   1.000  H
  C748     1.0000 0.44002  0.38913  0.90756  Biso   1.000  C
  H503     1.0000 0.47083  0.29141  0.84366  Biso   1.000  H
  C749     1.0000 0.43994  0.38913  0.90751  Biso   1.000  C
  H504     1.0000 0.47075  0.29140  0.84361  Biso   1.000  H
  C750     1.0000 0.43995  0.38913  0.90756  Biso   1.000  C
  H505     1.0000 0.47077  0.29141  0.84366  Biso   1.000  H
  C751     1.0000 0.44000  0.38913  0.90751  Biso   1.000  C
  H506     1.0000 0.41183  0.49904  0.96074  Biso   1.000  H
  H507     1.0000 0.41175  0.49903  0.96069  Biso   1.000  H
  H508     1.0000 0.41176  0.49904  0.96074  Biso   1.000  H
  H509     1.0000 0.36027  0.67372  0.13439  Biso   1.000  H
  H510     1.0000 0.36033  0.67372  0.13439  Biso   1.000  H
  C752     1.0000 0.65027  0.17124  0.53139  Biso   1.000  C
  H511     1.0000 0.56616  0.07802  0.46089  Biso   1.000  H
  C753     1.0000 0.65027  0.17130  0.53139  Biso   1.000  C
  H512     1.0000 0.56617  0.07808  0.46089  Biso   1.000  H
  C754     1.0000 0.65021  0.17124  0.53139  Biso   1.000  C
  H513     1.0000 0.56610  0.07808  0.46089  Biso   1.000  H
  C755     1.0000 0.76324  0.24764  0.49358  Biso   1.000  C
  H514     1.0000 0.76667  0.21352  0.39391  Biso   1.000  H
  H515     1.0000 0.76665  0.21352  0.39386  Biso   1.000  H
  H516     1.0000 0.76667  0.21358  0.39391  Biso   1.000  H
  H517     1.0000 0.76659  0.21358  0.39386  Biso   1.000  H
  O112     1.0000 0.24079  0.87381  0.27851  Biso   1.000  O
  O113     1.0000 0.24077  0.87380  0.27846  Biso   1.000  O
  O114     1.0000 0.24079  0.87387  0.27851  Biso   1.000  O
  O115     1.0000 0.24078  0.87387  0.27846  Biso   1.000  O
  O116     1.0000 0.38230  0.77084  0.21327  Biso   1.000  O
  H518     1.0000 0.25148  0.97296  0.37789  Biso   1.000  H
  H519     1.0000 0.25154  0.97296  0.37789  Biso   1.000  H
  C756     1.0000 0.33464  0.07186  0.42482  Biso   1.000  C
  C757     1.0000 0.19476  0.07391  0.32272  Biso   1.000  C
  C758     1.0000 0.33468  0.07185  0.42477  Biso   1.000  C
  C759     1.0000 0.19474  0.07390  0.32267  Biso   1.000  C
  C760     1.0000 0.33470  0.07186  0.42482  Biso   1.000  C
  C761     1.0000 0.19477  0.07397  0.32272  Biso   1.000  C
  C762     1.0000 0.33462  0.07185  0.42477  Biso   1.000  C
  C763     1.0000 0.19468  0.07397  0.32267  Biso   1.000  C
  C764     1.0000 0.12281  0.19942  0.28258  Biso   1.000  C
  H520     1.0000 0.05161  0.31240  0.26680  Biso   1.000  H
  C765     1.0000 0.17422  0.34476  0.34291  Biso   1.000  C
  C766     1.0000 0.12287  0.19942  0.28258  Biso   1.000  C
  H521     1.0000 0.05166  0.31239  0.26675  Biso   1.000  H
  C767     1.0000 0.17427  0.34476  0.34286  Biso   1.000  C
  H522     1.0000 0.05168  0.31246  0.26680  Biso   1.000  H
  C768     1.0000 0.17429  0.34476  0.34291  Biso   1.000  C
  H523     1.0000 0.05159  0.31245  0.26675  Biso   1.000  H
  C769     1.0000 0.17420  0.34476  0.34286  Biso   1.000  C
  O117     1.0000 0.99626  0.29653  0.14927  Biso   1.000  O
  O118     1.0000 0.99619  0.29653  0.14927  Biso   1.000  O
  O119     1.0000 0.04829  0.25601  0.99562  Biso   1.000  O
  O120     1.0000 0.04822  0.25601  0.99562  Biso   1.000  O
  C770     1.0000 0.53790  0.64253  0.14907  Biso   1.000  C
  H524     1.0000 0.50941  0.61285  0.24001  Biso   1.000  H
  C771     1.0000 0.53796  0.64253  0.14907  Biso   1.000  C
  H525     1.0000 0.50946  0.61284  0.23996  Biso   1.000  H
  H526     1.0000 0.50948  0.61285  0.24001  Biso   1.000  H
  H527     1.0000 0.50940  0.61284  0.23996  Biso   1.000  H
  C772     1.0000 0.57110  0.52551  0.08309  Biso   1.000  C
  H528     1.0000 0.56834  0.40534  0.12288  Biso   1.000  H
  C773     1.0000 0.57117  0.52551  0.08309  Biso   1.000  C
  H529     1.0000 0.56834  0.40527  0.12288  Biso   1.000  H
  H530     1.0000 0.56827  0.40534  0.12288  Biso   1.000  H
  C774     1.0000 0.63485  0.88471  0.14808  Biso   1.000  C
  C775     1.0000 0.77586  0.93859  0.13191  Biso   1.000  C
  C776     1.0000 0.77584  0.93859  0.13186  Biso   1.000  C
  C777     1.0000 0.77587  0.93865  0.13191  Biso   1.000  C
  C778     1.0000 0.63492  0.88471  0.14808  Biso   1.000  C
  C779     1.0000 0.77591  0.93865  0.13186  Biso   1.000  C
  H531     1.0000 0.25639  0.73214  0.40935  Biso   1.000  H
  H532     1.0000 0.25630  0.73214  0.40930  Biso   1.000  H
  H533     1.0000 0.25632  0.73220  0.40935  Biso   1.000  H
  H534     1.0000 0.25637  0.73214  0.40930  Biso   1.000  H
  H535     1.0000 0.43132  0.34732  0.94402  Biso   1.000  H
  H536     1.0000 0.43126  0.34732  0.94402  Biso   1.000  H
  C780     1.0000 0.72122  0.23234  0.54319  Biso   1.000  C
  H537     1.0000 0.61763  0.15945  0.56979  Biso   1.000  H
  C781     1.0000 0.72129  0.23234  0.54319  Biso   1.000  C
  H538     1.0000 0.61769  0.15945  0.56979  Biso   1.000  H
  C782     1.0000 0.72129  0.23240  0.54319  Biso   1.000  C
  C783     1.0000 0.72122  0.23240  0.54319  Biso   1.000  C
  H539     1.0000 0.81826  0.29495  0.50281  Biso   1.000  H
  H540     1.0000 0.81824  0.29495  0.50276  Biso   1.000  H
  C784     1.0000 0.14900  0.89394  0.24319  Biso   1.000  C
  H541     1.0000 0.35254  0.13483  0.41519  Biso   1.000  H
  H542     1.0000 0.39573  0.03925  0.44347  Biso   1.000  H
  C785     1.0000 0.28362  0.07657  0.47547  Biso   1.000  C
  H543     1.0000 0.39579  0.03925  0.44347  Biso   1.000  H
  C786     1.0000 0.28369  0.07657  0.47547  Biso   1.000  C
  C787     1.0000 0.19721  0.16091  0.32098  Biso   1.000  C
  C788     1.0000 0.11774  0.02553  0.28590  Biso   1.000  C
  C789     1.0000 0.19727  0.16091  0.32098  Biso   1.000  C
  C790     1.0000 0.11772  0.02553  0.28585  Biso   1.000  C
  C791     1.0000 0.19727  0.16097  0.32098  Biso   1.000  C
  C792     1.0000 0.19721  0.16097  0.32098  Biso   1.000  C
  C793     1.0000 0.04591  0.15104  0.24577  Biso   1.000  C
  C794     1.0000 0.04598  0.15104  0.24577  Biso   1.000  C
  H544     1.0000 0.17534  0.41111  0.33661  Biso   1.000  H
  H545     1.0000 0.24296  0.32485  0.35710  Biso   1.000  H
  C795     1.0000 0.12802  0.32703  0.39798  Biso   1.000  C
  H546     1.0000 0.17532  0.41110  0.33656  Biso   1.000  H
  C796     1.0000 0.12809  0.32703  0.39798  Biso   1.000  C
  H547     1.0000 0.17534  0.41117  0.33661  Biso   1.000  H
  H548     1.0000 0.17532  0.41117  0.33656  Biso   1.000  H
  H549     1.0000 0.24289  0.32485  0.35710  Biso   1.000  H
  C797     1.0000 0.96766  0.21032  0.14679  Biso   1.000  C
  C798     1.0000 0.96760  0.21032  0.14679  Biso   1.000  C
  C799     1.0000 0.56012  0.61098  0.09247  Biso   1.000  C
  H550     1.0000 0.52930  0.70871  0.15637  Biso   1.000  H
  H551     1.0000 0.52937  0.70871  0.15637  Biso   1.000  H
  C800     1.0000 0.56012  0.61105  0.09247  Biso   1.000  C
  H552     1.0000 0.58831  0.50108  0.03928  Biso   1.000  H
  H553     1.0000 0.58838  0.50114  0.03928  Biso   1.000  H
  H554     1.0000 0.58831  0.50114  0.03928  Biso   1.000  H
  C801     1.0000 0.66569  0.91145  0.21531  Biso   1.000  C
  H555     1.0000 0.56825  0.85341  0.12838  Biso   1.000  H
  C802     1.0000 0.66567  0.91144  0.21526  Biso   1.000  C
  H556     1.0000 0.56832  0.85341  0.12838  Biso   1.000  H
  C803     1.0000 0.80675  0.96544  0.19908  Biso   1.000  C
  C804     1.0000 0.80681  0.96544  0.19908  Biso   1.000  C
  H557     1.0000 0.81855  0.94920  0.09961  Biso   1.000  H
  H558     1.0000 0.81859  0.94919  0.09956  Biso   1.000  H
  H559     1.0000 0.81861  0.94920  0.09961  Biso   1.000  H
  H560     1.0000 0.74375  0.26798  0.59067  Biso   1.000  H
  H561     1.0000 0.10868  0.83634  0.22409  Biso   1.000  H
  H562     1.0000 0.15138  0.93124  0.20251  Biso   1.000  H
  O121     1.0000 0.11068  0.93863  0.28799  Biso   1.000  O
  H563     1.0000 0.15136  0.93123  0.20246  Biso   1.000  H
  H564     1.0000 0.15142  0.93123  0.20246  Biso   1.000  H
  O122     1.0000 0.11074  0.93863  0.28799  Biso   1.000  O
  H565     1.0000 0.22334  0.10987  0.45558  Biso   1.000  H
  H566     1.0000 0.26437  0.01297  0.48242  Biso   1.000  H
  C805     1.0000 0.33177  0.12064  0.54250  Biso   1.000  C
  H567     1.0000 0.26435  0.01296  0.48237  Biso   1.000  H
  C806     1.0000 0.33177  0.12070  0.54250  Biso   1.000  C
  C807     1.0000 0.33171  0.12070  0.54250  Biso   1.000  C
  H568     1.0000 0.25684  0.19833  0.34941  Biso   1.000  H
  H569     1.0000 0.25682  0.19833  0.34936  Biso   1.000  H
  C808     1.0000 0.04334  0.06404  0.24750  Biso   1.000  C
  C809     1.0000 0.04332  0.06404  0.24745  Biso   1.000  C
  O123     1.0000 0.96802  0.18640  0.21039  Biso   1.000  O
  O124     1.0000 0.96808  0.18640  0.21039  Biso   1.000  O
  O125     1.0000 0.96808  0.18646  0.21039  Biso   1.000  O
  O126     1.0000 0.96802  0.18646  0.21039  Biso   1.000  O
  H570     1.0000 0.13765  0.26265  0.40929  Biso   1.000  H
  H571     1.0000 0.05646  0.33562  0.37818  Biso   1.000  H
  C810     1.0000 0.16203  0.38427  0.46089  Biso   1.000  C
  C811     1.0000 0.16209  0.38427  0.46089  Biso   1.000  C
  H572     1.0000 0.05646  0.33568  0.37818  Biso   1.000  H
  H573     1.0000 0.05640  0.33568  0.37818  Biso   1.000  H
  H574     1.0000 0.89995  0.19919  0.11370  Biso   1.000  H
  H575     1.0000 0.89993  0.19919  0.11365  Biso   1.000  H
  H576     1.0000 0.89996  0.19925  0.11370  Biso   1.000  H
  H577     1.0000 0.89987  0.19925  0.11365  Biso   1.000  H
  H578     1.0000 0.01400  0.17279  0.12858  Biso   1.000  H
  H579     1.0000 0.01406  0.17279  0.12858  Biso   1.000  H
  H580     1.0000 0.01407  0.17286  0.12858  Biso   1.000  H
  H581     1.0000 0.01400  0.17286  0.12858  Biso   1.000  H
  H582     1.0000 0.56881  0.65279  0.05600  Biso   1.000  H
  H583     1.0000 0.56886  0.65279  0.05595  Biso   1.000  H
  H584     1.0000 0.56888  0.65279  0.05600  Biso   1.000  H
  H585     1.0000 0.56880  0.65279  0.05595  Biso   1.000  H
  C812     1.0000 0.75170  0.95184  0.24081  Biso   1.000  C
  C813     1.0000 0.75168  0.95184  0.24076  Biso   1.000  C
  H586     1.0000 0.62307  0.90090  0.24760  Biso   1.000  H
  H587     1.0000 0.62305  0.90090  0.24755  Biso   1.000  H
  H588     1.0000 0.62307  0.90097  0.24760  Biso   1.000  H
  H589     1.0000 0.62312  0.90096  0.24755  Biso   1.000  H
  N44      1.0000 0.89334  0.01045  0.22979  Biso   1.000  N
  C814     1.0000 0.42467  0.11249  0.56899  Biso   1.000  C
  C815     1.0000 0.28397  0.16796  0.57802  Biso   1.000  C
  C816     1.0000 0.42466  0.11243  0.56899  Biso   1.000  C
  C817     1.0000 0.28395  0.16796  0.57797  Biso   1.000  C
  C818     1.0000 0.42460  0.11249  0.56899  Biso   1.000  C
  C819     1.0000 0.96512  0.01070  0.20439  Biso   1.000  C
  C820     1.0000 0.96519  0.01077  0.20439  Biso   1.000  C
  C821     1.0000 0.11475  0.45395  0.47160  Biso   1.000  C
  C822     1.0000 0.23963  0.36504  0.50921  Biso   1.000  C
  C823     1.0000 0.11473  0.45394  0.47155  Biso   1.000  C
  C824     1.0000 0.23968  0.36504  0.50916  Biso   1.000  C
  C825     1.0000 0.23970  0.36510  0.50921  Biso   1.000  C
  C826     1.0000 0.23961  0.36504  0.50916  Biso   1.000  C
  H590     1.0000 0.77556  0.97254  0.29280  Biso   1.000  H
  H591     1.0000 0.77560  0.97253  0.29275  Biso   1.000  H
  H592     1.0000 0.77562  0.97254  0.29280  Biso   1.000  H
  C827     1.0000 0.46974  0.15167  0.63111  Biso   1.000  C
  H593     1.0000 0.46178  0.07584  0.54151  Biso   1.000  H
  C828     1.0000 0.46978  0.15167  0.63106  Biso   1.000  C
  H594     1.0000 0.46176  0.07584  0.54146  Biso   1.000  H
  C829     1.0000 0.46980  0.15167  0.63111  Biso   1.000  C
  H595     1.0000 0.46179  0.07591  0.54151  Biso   1.000  H
  C830     1.0000 0.46972  0.15167  0.63106  Biso   1.000  C
  H596     1.0000 0.46170  0.07584  0.54146  Biso   1.000  H
  C831     1.0000 0.32895  0.20714  0.64009  Biso   1.000  C
  H597     1.0000 0.21197  0.17423  0.55748  Biso   1.000  H
  C832     1.0000 0.32896  0.20720  0.64009  Biso   1.000  C
  H598     1.0000 0.21197  0.17429  0.55748  Biso   1.000  H
  H599     1.0000 0.21191  0.17429  0.55748  Biso   1.000  H
  O127     1.0000 0.96709  0.97833  0.15170  Biso   1.000  O
  O128     1.0000 0.96707  0.97833  0.15165  Biso   1.000  O
  C833     1.0000 0.14503  0.50459  0.53069  Biso   1.000  C
  H600     1.0000 0.05478  0.46882  0.43420  Biso   1.000  H
  C834     1.0000 0.14510  0.50452  0.53069  Biso   1.000  C
  C835     1.0000 0.14510  0.50459  0.53069  Biso   1.000  C
  H601     1.0000 0.05478  0.46889  0.43420  Biso   1.000  H
  H602     1.0000 0.05472  0.46889  0.43420  Biso   1.000  H
  C836     1.0000 0.26985  0.41555  0.56830  Biso   1.000  C
  H603     1.0000 0.27628  0.31107  0.50087  Biso   1.000  H
  H604     1.0000 0.27621  0.31107  0.50087  Biso   1.000  H
  C837     1.0000 0.42182  0.19900  0.66668  Biso   1.000  C
  H605     1.0000 0.54169  0.14535  0.65170  Biso   1.000  H
  C838     1.0000 0.42189  0.19894  0.66668  Biso   1.000  C
  C839     1.0000 0.42189  0.19900  0.66668  Biso   1.000  C
  H606     1.0000 0.54169  0.14541  0.65170  Biso   1.000  H
  H607     1.0000 0.54163  0.14541  0.65170  Biso   1.000  H
  H608     1.0000 0.29199  0.24379  0.66762  Biso   1.000  H
  H609     1.0000 0.29197  0.24379  0.66757  Biso   1.000  H
  H610     1.0000 0.29190  0.24379  0.66757  Biso   1.000  H
  C840     1.0000 0.22268  0.48536  0.57911  Biso   1.000  C
  H611     1.0000 0.10844  0.55855  0.53898  Biso   1.000  H
  C841     1.0000 0.22266  0.48536  0.57906  Biso   1.000  C
  C842     1.0000 0.22259  0.48536  0.57906  Biso   1.000  C
  H612     1.0000 0.32999  0.40075  0.60580  Biso   1.000  H
  H613     1.0000 0.32997  0.40074  0.60576  Biso   1.000  H
  H614     1.0000 0.32999  0.40081  0.60580  Biso   1.000  H
  H615     1.0000 0.32991  0.40081  0.60576  Biso   1.000  H
  H616     1.0000 0.45677  0.22925  0.71470  Biso   1.000  H
  H617     1.0000 0.45675  0.22925  0.71465  Biso   1.000  H
  H618     1.0000 0.45677  0.22931  0.71470  Biso   1.000  H
  H619     1.0000 0.45675  0.22931  0.71465  Biso   1.000  H
  H620     1.0000 0.24605  0.52445  0.62481  Biso   1.000  H
  H621     1.0000 0.24603  0.52445  0.62476  Biso   1.000  H
  H622     1.0000 0.24612  0.52452  0.62481  Biso   1.000  H
  O129     1.0000 0.03292  0.02179  0.84832  Biso   1.000  O
  C843     1.0000 0.03502  0.98941  0.79563  Biso   1.000  C
  C844     1.0000 0.03495  0.98941  0.79563  Biso   1.000  C
  N45      1.0000 0.10680  0.98967  0.77023  Biso   1.000  N
  N46      1.0000 0.10674  0.98967  0.77023  Biso   1.000  N
  N47      1.0000 0.10674  0.98973  0.77023  Biso   1.000  N
  N48      1.0000 0.10681  0.98973  0.77023  Biso   1.000  N
  O130     1.0000 0.03299  0.02185  0.84832  Biso   1.000  O
  C845     1.0000 0.95680  0.93608  0.75252  Biso   1.000  C
  C846     1.0000 0.95673  0.93608  0.75252  Biso   1.000  C
  C847     1.0000 0.95674  0.93614  0.75252  Biso   1.000  C
  O131     1.0000 0.03298  0.02179  0.84832  Biso   1.000  O
  C848     1.0000 0.19326  0.03467  0.80094  Biso   1.000  C
  C849     1.0000 0.19324  0.03467  0.80089  Biso   1.000  C
  C850     1.0000 0.19326  0.03474  0.80094  Biso   1.000  C
  C851     1.0000 0.19324  0.03473  0.80089  Biso   1.000  C
  C852     1.0000 0.88240  0.97459  0.71412  Biso   1.000  C
  C853     1.0000 0.95423  0.84908  0.75426  Biso   1.000  C
  C854     1.0000 0.88233  0.97459  0.71412  Biso   1.000  C
  C855     1.0000 0.95414  0.84907  0.75421  Biso   1.000  C
  C856     1.0000 0.95416  0.84914  0.75426  Biso   1.000  C
  C857     1.0000 0.95415  0.84914  0.75421  Biso   1.000  C
  C858     1.0000 0.24837  0.04834  0.75922  Biso   1.000  C
  C859     1.0000 0.24831  0.04827  0.75922  Biso   1.000  C
  C860     1.0000 0.24837  0.04827  0.75922  Biso   1.000  C
  C861     1.0000 0.22414  0.06153  0.86812  Biso   1.000  C
  C862     1.0000 0.80537  0.92621  0.67731  Biso   1.000  C
  C863     1.0000 0.80531  0.92621  0.67731  Biso   1.000  C
  O132     1.0000 0.88933  0.06149  0.71204  Biso   1.000  O
  O133     1.0000 0.88931  0.06149  0.71199  Biso   1.000  O
  O134     1.0000 0.88938  0.06149  0.71199  Biso   1.000  O
  C864     1.0000 0.87733  0.80070  0.71745  Biso   1.000  C
  C865     1.0000 0.87725  0.80069  0.71740  Biso   1.000  C
  C866     1.0000 0.87727  0.80070  0.71745  Biso   1.000  C
  O135     1.0000 0.03212  0.81372  0.78963  Biso   1.000  O
  O136     1.0000 0.03206  0.81372  0.78963  Biso   1.000  O
  H623     1.0000 0.22445  0.02758  0.70722  Biso   1.000  H
  C867     1.0000 0.33432  0.08867  0.78472  Biso   1.000  C
  C868     1.0000 0.33432  0.08873  0.78472  Biso   1.000  C
  C869     1.0000 0.33439  0.08873  0.78472  Biso   1.000  C
  C870     1.0000 0.31002  0.10180  0.89362  Biso   1.000  C
  C871     1.0000 0.31009  0.10180  0.89362  Biso   1.000  C
  H624     1.0000 0.18146  0.05092  0.90042  Biso   1.000  H
  C872     1.0000 0.80293  0.83921  0.67905  Biso   1.000  C
  C873     1.0000 0.72378  0.97210  0.64045  Biso   1.000  C
  C874     1.0000 0.80285  0.83920  0.67900  Biso   1.000  C
  C875     1.0000 0.72376  0.97210  0.64040  Biso   1.000  C
  C876     1.0000 0.80287  0.83921  0.67905  Biso   1.000  C
  C877     1.0000 0.85101  0.10618  0.75684  Biso   1.000  C
  C878     1.0000 0.85107  0.10618  0.75684  Biso   1.000  C
  C879     1.0000 0.85107  0.10624  0.75684  Biso   1.000  C
  C880     1.0000 0.87872  0.70399  0.72355  Biso   1.000  C
  C881     1.0000 0.87864  0.70399  0.72350  Biso   1.000  C
  C882     1.0000 0.87866  0.70399  0.72355  Biso   1.000  C
  C883     1.0000 0.03248  0.78979  0.85323  Biso   1.000  C
  C884     1.0000 0.03248  0.78985  0.85323  Biso   1.000  C
  H625     1.0000 0.37694  0.09921  0.75242  Biso   1.000  H
  C885     1.0000 0.36515  0.11540  0.85194  Biso   1.000  C
  C886     1.0000 0.36513  0.11540  0.85189  Biso   1.000  C
  N49      1.0000 0.33138  0.12693  0.96109  Biso   1.000  N
  N50      1.0000 0.33133  0.12693  0.96114  Biso   1.000  N
  N51      1.0000 0.33139  0.12693  0.96114  Biso   1.000  N
  H626     1.0000 0.74330  0.80179  0.65062  Biso   1.000  H
  H627     1.0000 0.74323  0.80179  0.65062  Biso   1.000  H
  C887     1.0000 0.67009  0.99252  0.69075  Biso   1.000  C
  C888     1.0000 0.66550  0.92826  0.57521  Biso   1.000  C
  C889     1.0000 0.67001  0.99245  0.69070  Biso   1.000  C
  C890     1.0000 0.66543  0.92826  0.57521  Biso   1.000  C
  C891     1.0000 0.67003  0.99252  0.69075  Biso   1.000  C
  C892     1.0000 0.67008  0.99251  0.69070  Biso   1.000  C
  H628     1.0000 0.74853  0.02716  0.62214  Biso   1.000  H
  H629     1.0000 0.74851  0.02715  0.62209  Biso   1.000  H
  H630     1.0000 0.74853  0.02722  0.62214  Biso   1.000  H
  H631     1.0000 0.74858  0.02721  0.62209  Biso   1.000  H
  O137     1.0000 0.75922  0.12631  0.72151  Biso   1.000  O
  H632     1.0000 0.89133  0.16378  0.77594  Biso   1.000  H
  H633     1.0000 0.84863  0.06888  0.79752  Biso   1.000  H
  H634     1.0000 0.89131  0.16377  0.77589  Biso   1.000  H
  H635     1.0000 0.89133  0.16384  0.77594  Biso   1.000  H
  H636     1.0000 0.84863  0.06894  0.79752  Biso   1.000  H
  O138     1.0000 0.75928  0.12631  0.72151  Biso   1.000  O
  H637     1.0000 0.89138  0.16383  0.77589  Biso   1.000  H
  H638     1.0000 0.84870  0.06894  0.79752  Biso   1.000  H
  H639     1.0000 0.94853  0.68772  0.73322  Biso   1.000  H
  C893     1.0000 0.82592  0.65535  0.65712  Biso   1.000  C
  C894     1.0000 0.84711  0.68221  0.78273  Biso   1.000  C
  H640     1.0000 0.94846  0.68766  0.73322  Biso   1.000  H
  C895     1.0000 0.82585  0.65535  0.65712  Biso   1.000  C
  C896     1.0000 0.84704  0.68221  0.78273  Biso   1.000  C
  H641     1.0000 0.94846  0.68772  0.73322  Biso   1.000  H
  C897     1.0000 0.82585  0.65542  0.65712  Biso   1.000  C
  H642     1.0000 0.98614  0.82732  0.87144  Biso   1.000  H
  H643     1.0000 0.98606  0.82732  0.87139  Biso   1.000  H
  H644     1.0000 0.98607  0.82732  0.87144  Biso   1.000  H
  O139     1.0000 0.00388  0.70359  0.85075  Biso   1.000  O
  H645     1.0000 0.10019  0.80093  0.88633  Biso   1.000  H
  O140     1.0000 0.00386  0.70358  0.85070  Biso   1.000  O
  O141     1.0000 0.00388  0.70365  0.85075  Biso   1.000  O
  O142     1.0000 0.00386  0.70364  0.85070  Biso   1.000  O
  H646     1.0000 0.43176  0.14671  0.87164  Biso   1.000  H
  H647     1.0000 0.43174  0.14670  0.87159  Biso   1.000  H
  C898     1.0000 0.41516  0.16040  0.99934  Biso   1.000  C
  C899     1.0000 0.41514  0.16039  0.99929  Biso   1.000  C
  C900     1.0000 0.41516  0.16046  0.99934  Biso   1.000  C
  C901     1.0000 0.41514  0.16045  0.99929  Biso   1.000  C
  C902     1.0000 0.60269  0.93717  0.69983  Biso   1.000  C
  C903     1.0000 0.60262  0.93717  0.69983  Biso   1.000  C
  C904     1.0000 0.60263  0.93723  0.69983  Biso   1.000  C
  C905     1.0000 0.60269  0.93723  0.69983  Biso   1.000  C
  C906     1.0000 0.69533  0.06661  0.73144  Biso   1.000  C
  C907     1.0000 0.69539  0.06661  0.73144  Biso   1.000  C
  H648     1.0000 0.64760  0.86528  0.58483  Biso   1.000  H
  H649     1.0000 0.60441  0.96087  0.55655  Biso   1.000  H
  C908     1.0000 0.71652  0.92355  0.52455  Biso   1.000  C
  H650     1.0000 0.64753  0.86528  0.58483  Biso   1.000  H
  H651     1.0000 0.60433  0.96086  0.55650  Biso   1.000  H
  C909     1.0000 0.71643  0.92354  0.52450  Biso   1.000  C
  H652     1.0000 0.60435  0.96087  0.55655  Biso   1.000  H
  C910     1.0000 0.71645  0.92361  0.52455  Biso   1.000  C
  C911     1.0000 0.71644  0.92361  0.52450  Biso   1.000  C
  H653     1.0000 0.82480  0.58901  0.66342  Biso   1.000  H
  H654     1.0000 0.75718  0.67526  0.64293  Biso   1.000  H
  C912     1.0000 0.87211  0.67308  0.60205  Biso   1.000  C
  H655     1.0000 0.82473  0.58901  0.66342  Biso   1.000  H
  H656     1.0000 0.75711  0.67526  0.64293  Biso   1.000  H
  C913     1.0000 0.87203  0.67308  0.60200  Biso   1.000  C
  H657     1.0000 0.75712  0.67533  0.64293  Biso   1.000  H
  C914     1.0000 0.87205  0.67308  0.60205  Biso   1.000  C
  H658     1.0000 0.75718  0.67533  0.64293  Biso   1.000  H
  C915     1.0000 0.75646  0.66011  0.77802  Biso   1.000  C
  C916     1.0000 0.91211  0.68612  0.84425  Biso   1.000  C
  C917     1.0000 0.91203  0.68612  0.84420  Biso   1.000  C
  C918     1.0000 0.91204  0.68612  0.84425  Biso   1.000  C
  C919     1.0000 0.91209  0.68612  0.84420  Biso   1.000  C
  O143     1.0000 0.48007  0.17529  0.97761  Biso   1.000  O
  O144     1.0000 0.48007  0.17536  0.97761  Biso   1.000  O
  C920     1.0000 0.41932  0.18849  0.06979  Biso   1.000  C
  C921     1.0000 0.41938  0.18855  0.06979  Biso   1.000  C
  C922     1.0000 0.56053  0.95602  0.74945  Biso   1.000  C
  H659     1.0000 0.58308  0.87986  0.66833  Biso   1.000  H
  C923     1.0000 0.56045  0.95602  0.74940  Biso   1.000  C
  C924     1.0000 0.56046  0.95602  0.74945  Biso   1.000  C
  H660     1.0000 0.58308  0.87992  0.66833  Biso   1.000  H
  C925     1.0000 0.65316  0.08527  0.78105  Biso   1.000  C
  C926     1.0000 0.65314  0.08526  0.78100  Biso   1.000  C
  C927     1.0000 0.65316  0.08533  0.78105  Biso   1.000  C
  C928     1.0000 0.65315  0.08533  0.78100  Biso   1.000  C
  H661     1.0000 0.77680  0.89025  0.54445  Biso   1.000  H
  H662     1.0000 0.73577  0.98715  0.51761  Biso   1.000  H
  C929     1.0000 0.66837  0.87948  0.45753  Biso   1.000  C
  H663     1.0000 0.77672  0.89024  0.54440  Biso   1.000  H
  H664     1.0000 0.73571  0.98715  0.51761  Biso   1.000  H
  C930     1.0000 0.66830  0.87948  0.45753  Biso   1.000  C
  H665     1.0000 0.77674  0.89031  0.54445  Biso   1.000  H
  H666     1.0000 0.73571  0.98721  0.51761  Biso   1.000  H
  H667     1.0000 0.77672  0.89031  0.54440  Biso   1.000  H
  H668     1.0000 0.86249  0.73746  0.59073  Biso   1.000  H
  H669     1.0000 0.94368  0.66450  0.62184  Biso   1.000  H
  C931     1.0000 0.83811  0.61585  0.53914  Biso   1.000  C
  H670     1.0000 0.86241  0.73746  0.59069  Biso   1.000  H
  H671     1.0000 0.94366  0.66449  0.62179  Biso   1.000  H
  C932     1.0000 0.83803  0.61584  0.53909  Biso   1.000  C
  H672     1.0000 0.86243  0.73746  0.59073  Biso   1.000  H
  C933     1.0000 0.83805  0.61591  0.53914  Biso   1.000  C
  H673     1.0000 0.86247  0.73746  0.59069  Biso   1.000  H
  C934     1.0000 0.83803  0.61590  0.53909  Biso   1.000  C
  C935     1.0000 0.73098  0.64203  0.83473  Biso   1.000  C
  H674     1.0000 0.70608  0.65699  0.73044  Biso   1.000  H
  C936     1.0000 0.73098  0.64197  0.83473  Biso   1.000  C
  H675     1.0000 0.70606  0.65699  0.73039  Biso   1.000  H
  C937     1.0000 0.88661  0.66811  0.90091  Biso   1.000  C
  C938     1.0000 0.88655  0.66811  0.90091  Biso   1.000  C
  C939     1.0000 0.45801  0.13582  0.11911  Biso   1.000  C
  C940     1.0000 0.39321  0.26722  0.08721  Biso   1.000  C
  C941     1.0000 0.45805  0.13582  0.11906  Biso   1.000  C
  C942     1.0000 0.39326  0.26721  0.08716  Biso   1.000  C
  C943     1.0000 0.45807  0.13582  0.11911  Biso   1.000  C
  C944     1.0000 0.39328  0.26722  0.08721  Biso   1.000  C
  C945     1.0000 0.45799  0.13582  0.11906  Biso   1.000  C
  C946     1.0000 0.39319  0.26721  0.08716  Biso   1.000  C
  C947     1.0000 0.48700  0.89569  0.76135  Biso   1.000  C
  C948     1.0000 0.48692  0.89569  0.76130  Biso   1.000  C
  C949     1.0000 0.48694  0.89569  0.76135  Biso   1.000  C
  C950     1.0000 0.48699  0.89569  0.76130  Biso   1.000  C
  C951     1.0000 0.58566  0.03010  0.79003  Biso   1.000  C
  C952     1.0000 0.66486  0.17288  0.81275  Biso   1.000  C
  C953     1.0000 0.66484  0.17288  0.81270  Biso   1.000  C
  C954     1.0000 0.66486  0.17294  0.81275  Biso   1.000  C
  C955     1.0000 0.66484  0.17294  0.81270  Biso   1.000  C
  C956     1.0000 0.57547  0.88763  0.43103  Biso   1.000  C
  C957     1.0000 0.71617  0.83216  0.42200  Biso   1.000  C
  C958     1.0000 0.57539  0.88762  0.43098  Biso   1.000  C
  C959     1.0000 0.71610  0.83216  0.42200  Biso   1.000  C
  C960     1.0000 0.57541  0.88769  0.43103  Biso   1.000  C
  C961     1.0000 0.57545  0.88769  0.43098  Biso   1.000  C
  C962     1.0000 0.88539  0.54617  0.52842  Biso   1.000  C
  C963     1.0000 0.76051  0.63508  0.49082  Biso   1.000  C
  C964     1.0000 0.88532  0.54617  0.52842  Biso   1.000  C
  C965     1.0000 0.76044  0.63508  0.49082  Biso   1.000  C
  C966     1.0000 0.79601  0.64600  0.89615  Biso   1.000  C
  C967     1.0000 0.63069  0.62181  0.83483  Biso   1.000  C
  C968     1.0000 0.79593  0.64599  0.89610  Biso   1.000  C
  C969     1.0000 0.63062  0.62181  0.83483  Biso   1.000  C
  C970     1.0000 0.79595  0.64606  0.89615  Biso   1.000  C
  C971     1.0000 0.79599  0.64599  0.89610  Biso   1.000  C
  C972     1.0000 0.95879  0.68564  0.96655  Biso   1.000  C
  C973     1.0000 0.95878  0.68563  0.96650  Biso   1.000  C
  C974     1.0000 0.47073  0.16181  0.18569  Biso   1.000  C
  O145     1.0000 0.48466  0.05869  0.10001  Biso   1.000  O
  O146     1.0000 0.48464  0.05868  0.09996  Biso   1.000  O
  O147     1.0000 0.48466  0.05875  0.10001  Biso   1.000  O
  O148     1.0000 0.48458  0.05874  0.09996  Biso   1.000  O
  C975     1.0000 0.40593  0.29320  0.15379  Biso   1.000  C
  O149     1.0000 0.35780  0.31613  0.03506  Biso   1.000  O
  O150     1.0000 0.35786  0.31606  0.03506  Biso   1.000  O
  O151     1.0000 0.35787  0.31613  0.03506  Biso   1.000  O
  C976     1.0000 0.52941  0.83831  0.81434  Biso   1.000  C
  C977     1.0000 0.42871  0.84719  0.69641  Biso   1.000  C
  H676     1.0000 0.43951  0.93270  0.77862  Biso   1.000  H
  C978     1.0000 0.52934  0.83831  0.81434  Biso   1.000  C
  C979     1.0000 0.42864  0.84719  0.69641  Biso   1.000  C
  H677     1.0000 0.43945  0.93270  0.77862  Biso   1.000  H
  O152     1.0000 0.54474  0.05160  0.83865  Biso   1.000  O
  O153     1.0000 0.54472  0.05160  0.83860  Biso   1.000  O
  O154     1.0000 0.54478  0.05160  0.83860  Biso   1.000  O
  N52      1.0000 0.73611  0.18479  0.87025  Biso   1.000  N
  O155     1.0000 0.61771  0.22928  0.78675  Biso   1.000  O
  N53      1.0000 0.73616  0.18478  0.87020  Biso   1.000  N
  O156     1.0000 0.61776  0.22927  0.78670  Biso   1.000  O
  N54      1.0000 0.73618  0.18485  0.87025  Biso   1.000  N
  O157     1.0000 0.61778  0.22934  0.78675  Biso   1.000  O
  N55      1.0000 0.73616  0.18484  0.87020  Biso   1.000  N
  O158     1.0000 0.61776  0.22934  0.78670  Biso   1.000  O
  C980     1.0000 0.53040  0.84845  0.36892  Biso   1.000  C
  H678     1.0000 0.53836  0.92427  0.45852  Biso   1.000  H
  C981     1.0000 0.53034  0.84845  0.36892  Biso   1.000  C
  C982     1.0000 0.67118  0.79298  0.35994  Biso   1.000  C
  H679     1.0000 0.78817  0.82589  0.44254  Biso   1.000  H
  C983     1.0000 0.67110  0.79291  0.35989  Biso   1.000  C
  H680     1.0000 0.78815  0.82582  0.44249  Biso   1.000  H
  C984     1.0000 0.67112  0.79298  0.35994  Biso   1.000  C
  C985     1.0000 0.67116  0.79297  0.35989  Biso   1.000  C
  H681     1.0000 0.78815  0.82588  0.44249  Biso   1.000  H
  C986     1.0000 0.85510  0.49553  0.46933  Biso   1.000  C
  H682     1.0000 0.94536  0.53129  0.56583  Biso   1.000  H
  C987     1.0000 0.85502  0.49553  0.46928  Biso   1.000  C
  C988     1.0000 0.85504  0.49559  0.46933  Biso   1.000  C
  C989     1.0000 0.85502  0.49559  0.46928  Biso   1.000  C
  C990     1.0000 0.73029  0.58456  0.43173  Biso   1.000  C
  H683     1.0000 0.72386  0.68905  0.49915  Biso   1.000  H
  C991     1.0000 0.73023  0.58456  0.43173  Biso   1.000  C
  H684     1.0000 0.72384  0.68904  0.49910  Biso   1.000  H
  H685     1.0000 0.72386  0.68911  0.49915  Biso   1.000  H
  H686     1.0000 0.72385  0.68911  0.49910  Biso   1.000  H
  O159     1.0000 0.77633  0.62354  0.95405  Biso   1.000  O
  O160     1.0000 0.77625  0.62353  0.95400  Biso   1.000  O
  O161     1.0000 0.77626  0.62354  0.95405  Biso   1.000  O
  C992     1.0000 0.59421  0.70691  0.84624  Biso   1.000  C
  H687     1.0000 0.62279  0.57984  0.87154  Biso   1.000  H
  C993     1.0000 0.57654  0.57573  0.76765  Biso   1.000  C
  C994     1.0000 0.59414  0.70691  0.84624  Biso   1.000  C
  H688     1.0000 0.62271  0.57977  0.87149  Biso   1.000  H
  C995     1.0000 0.57645  0.57566  0.76760  Biso   1.000  C
  C996     1.0000 0.57648  0.57573  0.76765  Biso   1.000  C
  H689     1.0000 0.62278  0.57983  0.87149  Biso   1.000  H
  C997     1.0000 0.57646  0.57572  0.76760  Biso   1.000  C
  O162     1.0000 0.95179  0.74410  0.00440  Biso   1.000  O
  O163     1.0000 0.95177  0.74410  0.00435  Biso   1.000  O
  N56      1.0000 0.02532  0.63179  0.97632  Biso   1.000  N
  N57      1.0000 0.02526  0.63179  0.97632  Biso   1.000  N
  N58      1.0000 0.02526  0.63185  0.97632  Biso   1.000  N
  C998     1.0000 0.51313  0.10443  0.23867  Biso   1.000  C
  C999     1.0000 0.44462  0.24060  0.20310  Biso   1.000  C
  C1000    1.0000 0.44461  0.24060  0.20305  Biso   1.000  C
  C1001    1.0000 0.44469  0.24066  0.20310  Biso   1.000  C
  C1002    1.0000 0.44461  0.24066  0.20305  Biso   1.000  C
  C1003    1.0000 0.42960  0.98408  0.10070  Biso   1.000  C
  C1004    1.0000 0.42958  0.98407  0.10065  Biso   1.000  C
  C1005    1.0000 0.42960  0.98414  0.10070  Biso   1.000  C
  C1006    1.0000 0.42958  0.98413  0.10065  Biso   1.000  C
  C1007    1.0000 0.36945  0.37831  0.16520  Biso   1.000  C
  C1008    1.0000 0.36943  0.37830  0.16515  Biso   1.000  C
  C1009    1.0000 0.36937  0.37830  0.16515  Biso   1.000  C
  C1010    1.0000 0.26106  0.31222  0.00991  Biso   1.000  C
  C1011    1.0000 0.26104  0.31216  0.00986  Biso   1.000  C
  C1012    1.0000 0.26098  0.31222  0.00986  Biso   1.000  C
  C1013    1.0000 0.54213  0.86429  0.88092  Biso   1.000  C
  C1014    1.0000 0.55551  0.75952  0.79692  Biso   1.000  C
  C1015    1.0000 0.54207  0.86429  0.88092  Biso   1.000  C
  C1016    1.0000 0.55545  0.75952  0.79692  Biso   1.000  C
  C1017    1.0000 0.54207  0.86436  0.88092  Biso   1.000  C
  C1018    1.0000 0.37462  0.90458  0.64754  Biso   1.000  C
  H690     1.0000 0.47402  0.81561  0.67304  Biso   1.000  H
  H691     1.0000 0.38252  0.80148  0.70772  Biso   1.000  H
  C1019    1.0000 0.37454  0.90458  0.64749  Biso   1.000  C
  H692     1.0000 0.47393  0.81561  0.67299  Biso   1.000  H
  H693     1.0000 0.38246  0.80148  0.70772  Biso   1.000  H
  C1020    1.0000 0.37456  0.90458  0.64754  Biso   1.000  C
  H694     1.0000 0.47395  0.81561  0.67304  Biso   1.000  H
  C1021    1.0000 0.57041  0.01604  0.89932  Biso   1.000  C
  C1022    1.0000 0.57047  0.01598  0.89932  Biso   1.000  C
  C1023    1.0000 0.57048  0.01604  0.89932  Biso   1.000  C
  C1024    1.0000 0.76432  0.26594  0.90295  Biso   1.000  C
  C1025    1.0000 0.76437  0.26593  0.90290  Biso   1.000  C
  C1026    1.0000 0.76439  0.26594  0.90295  Biso   1.000  C
  C1027    1.0000 0.57831  0.80112  0.33335  Biso   1.000  C
  H695     1.0000 0.45845  0.85477  0.34833  Biso   1.000  H
  C1028    1.0000 0.57823  0.80111  0.33330  Biso   1.000  C
  C1029    1.0000 0.57825  0.80118  0.33335  Biso   1.000  C
  C1030    1.0000 0.57823  0.80118  0.33330  Biso   1.000  C
  H696     1.0000 0.70815  0.75633  0.33240  Biso   1.000  H
  H697     1.0000 0.70815  0.75639  0.33240  Biso   1.000  H
  C1031    1.0000 0.77746  0.51475  0.42091  Biso   1.000  C
  H698     1.0000 0.89170  0.44156  0.46105  Biso   1.000  H
  C1032    1.0000 0.77740  0.51475  0.42091  Biso   1.000  C
  H699     1.0000 0.89162  0.44156  0.46100  Biso   1.000  H
  H700     1.0000 0.89164  0.44156  0.46105  Biso   1.000  H
  H701     1.0000 0.67015  0.59937  0.39422  Biso   1.000  H
  C1033    1.0000 0.73908  0.68789  0.99011  Biso   1.000  C
  C1034    1.0000 0.73908  0.68796  0.99011  Biso   1.000  C
  C1035    1.0000 0.60693  0.73290  0.91282  Biso   1.000  C
  C1036    1.0000 0.60686  0.73290  0.91282  Biso   1.000  C
  C1037    1.0000 0.60686  0.73296  0.91282  Biso   1.000  C
  H702     1.0000 0.60706  0.51771  0.76011  Biso   1.000  H
  H703     1.0000 0.58089  0.61638  0.72945  Biso   1.000  H
  C1038    1.0000 0.47459  0.55609  0.76254  Biso   1.000  C
  H704     1.0000 0.58081  0.61638  0.72940  Biso   1.000  H
  C1039    1.0000 0.47457  0.55608  0.76249  Biso   1.000  C
  H705     1.0000 0.58083  0.61644  0.72945  Biso   1.000  H
  H706     1.0000 0.58088  0.61638  0.72940  Biso   1.000  H
  C1040    1.0000 0.11144  0.64668  0.02499  Biso   1.000  C
  C1041    1.0000 0.11150  0.64668  0.02499  Biso   1.000  C
  C1042    1.0000 0.11151  0.64675  0.02499  Biso   1.000  C
  C1043    1.0000 0.57143  0.15292  0.30362  Biso   1.000  C
  H707     1.0000 0.56063  0.06742  0.22141  Biso   1.000  H
  C1044    1.0000 0.43961  0.04410  0.25058  Biso   1.000  C
  C1045    1.0000 0.57148  0.15292  0.30357  Biso   1.000  C
  H708     1.0000 0.56067  0.06741  0.22136  Biso   1.000  H
  C1046    1.0000 0.43967  0.04410  0.25058  Biso   1.000  C
  C1047    1.0000 0.57150  0.15292  0.30362  Biso   1.000  C
  H709     1.0000 0.56069  0.06742  0.22141  Biso   1.000  H
  C1048    1.0000 0.43968  0.04416  0.25058  Biso   1.000  C
  C1049    1.0000 0.57141  0.15292  0.30357  Biso   1.000  C
  H710     1.0000 0.56061  0.06741  0.22136  Biso   1.000  H
  C1050    1.0000 0.43961  0.04416  0.25058  Biso   1.000  C
  H711     1.0000 0.45453  0.26075  0.25460  Biso   1.000  H
  H712     1.0000 0.45451  0.26075  0.25455  Biso   1.000  H
  H713     1.0000 0.43449  0.93881  0.06180  Biso   1.000  H
  O164     1.0000 0.45527  0.94851  0.16138  Biso   1.000  O
  H714     1.0000 0.43447  0.93881  0.06176  Biso   1.000  H
  H715     1.0000 0.36001  0.00088  0.09207  Biso   1.000  H
  H716     1.0000 0.36007  0.00094  0.09207  Biso   1.000  H
  H717     1.0000 0.36001  0.00094  0.09207  Biso   1.000  H
  C1051    1.0000 0.26915  0.35808  0.16530  Biso   1.000  C
  H718     1.0000 0.37734  0.42028  0.12848  Biso   1.000  H
  C1052    1.0000 0.42360  0.42439  0.23237  Biso   1.000  C
  C1053    1.0000 0.26914  0.35808  0.16525  Biso   1.000  C
  C1054    1.0000 0.42366  0.42439  0.23237  Biso   1.000  C
  C1055    1.0000 0.26916  0.35815  0.16530  Biso   1.000  C
  H719     1.0000 0.37735  0.42034  0.12848  Biso   1.000  H
  C1056    1.0000 0.42366  0.42445  0.23237  Biso   1.000  C
  C1057    1.0000 0.26907  0.35814  0.16525  Biso   1.000  C
  H720     1.0000 0.37728  0.42034  0.12848  Biso   1.000  H
  C1058    1.0000 0.42360  0.42445  0.23237  Biso   1.000  C
  H721     1.0000 0.24368  0.32413  0.95802  Biso   1.000  H
  H722     1.0000 0.24361  0.32413  0.95802  Biso   1.000  H
  O165     1.0000 0.22381  0.37658  0.04598  Biso   1.000  O
  H723     1.0000 0.23321  0.25098  0.01537  Biso   1.000  H
  O166     1.0000 0.22388  0.37664  0.04598  Biso   1.000  O
  O167     1.0000 0.22381  0.37664  0.04598  Biso   1.000  O
  C1059    1.0000 0.58082  0.81163  0.93023  Biso   1.000  C
  O168     1.0000 0.51548  0.94143  0.90002  Biso   1.000  O
  C1060    1.0000 0.58076  0.81163  0.93023  Biso   1.000  C
  H724     1.0000 0.54561  0.73937  0.74543  Biso   1.000  H
  H725     1.0000 0.54554  0.73937  0.74543  Biso   1.000  H
  H726     1.0000 0.54554  0.73943  0.74543  Biso   1.000  H
  C1061    1.0000 0.33706  0.85948  0.57952  Biso   1.000  C
  H727     1.0000 0.31893  0.92578  0.66535  Biso   1.000  H
  H728     1.0000 0.41829  0.95781  0.64451  Biso   1.000  H
  H729     1.0000 0.31884  0.92578  0.66530  Biso   1.000  H
  H730     1.0000 0.41822  0.95775  0.64451  Biso   1.000  H
  H731     1.0000 0.31886  0.92578  0.66535  Biso   1.000  H
  H732     1.0000 0.41822  0.95781  0.64451  Biso   1.000  H
  H733     1.0000 0.64013  0.99924  0.90796  Biso   1.000  H
  H734     1.0000 0.64005  0.99923  0.90791  Biso   1.000  H
  H735     1.0000 0.64007  0.99924  0.90796  Biso   1.000  H
  H736     1.0000 0.56552  0.06130  0.93822  Biso   1.000  H
  H737     1.0000 0.56559  0.06130  0.93822  Biso   1.000  H
  C1062    1.0000 0.70913  0.33392  0.89615  Biso   1.000  C
  C1063    1.0000 0.85403  0.27573  0.94244  Biso   1.000  C
  C1064    1.0000 0.70911  0.33392  0.89610  Biso   1.000  C
  C1065    1.0000 0.85409  0.27573  0.94244  Biso   1.000  C
  C1066    1.0000 0.70920  0.33392  0.89615  Biso   1.000  C
  C1067    1.0000 0.70918  0.33392  0.89610  Biso   1.000  C
  H738     1.0000 0.54337  0.77087  0.28532  Biso   1.000  H
  H739     1.0000 0.54330  0.77087  0.28532  Biso   1.000  H
  H740     1.0000 0.75409  0.47566  0.37522  Biso   1.000  H
  H741     1.0000 0.75402  0.47566  0.37522  Biso   1.000  H
  H742     1.0000 0.76693  0.74913  0.98466  Biso   1.000  H
  O169     1.0000 0.64234  0.68399  0.96496  Biso   1.000  O
  H743     1.0000 0.76685  0.74913  0.98461  Biso   1.000  H
  O170     1.0000 0.64225  0.68399  0.96491  Biso   1.000  O
  H744     1.0000 0.76686  0.74913  0.98466  Biso   1.000  H
  O171     1.0000 0.64227  0.68405  0.96496  Biso   1.000  O
  O172     1.0000 0.64226  0.68405  0.96491  Biso   1.000  O
  H745     1.0000 0.75640  0.67599  0.04201  Biso   1.000  H
  H746     1.0000 0.75638  0.67598  0.04196  Biso   1.000  H
  H747     1.0000 0.75640  0.67605  0.04201  Biso   1.000  H
  H748     1.0000 0.44448  0.61407  0.77103  Biso   1.000  H
  H749     1.0000 0.44001  0.52782  0.71372  Biso   1.000  H
  C1068    1.0000 0.46248  0.49712  0.81325  Biso   1.000  C
  H750     1.0000 0.43994  0.52776  0.71372  Biso   1.000  H
  C1069    1.0000 0.46247  0.49711  0.81320  Biso   1.000  C
  H751     1.0000 0.44448  0.61413  0.77103  Biso   1.000  H
  H752     1.0000 0.43995  0.52782  0.71372  Biso   1.000  H
  C1070    1.0000 0.16656  0.57870  0.03179  Biso   1.000  C
  C1071    1.0000 0.14598  0.72439  0.05759  Biso   1.000  C
  C1072    1.0000 0.14598  0.72445  0.05759  Biso   1.000  C
  C1073    1.0000 0.16663  0.57870  0.03179  Biso   1.000  C
  C1074    1.0000 0.62552  0.09553  0.35248  Biso   1.000  C
  H753     1.0000 0.52612  0.18451  0.32698  Biso   1.000  H
  H754     1.0000 0.61761  0.19864  0.29230  Biso   1.000  H
  C1075    1.0000 0.62558  0.09553  0.35248  Biso   1.000  C
  H755     1.0000 0.52619  0.18451  0.32698  Biso   1.000  H
  H756     1.0000 0.61766  0.19863  0.29225  Biso   1.000  H
  H757     1.0000 0.52619  0.18457  0.32698  Biso   1.000  H
  H758     1.0000 0.61768  0.19864  0.29230  Biso   1.000  H
  H759     1.0000 0.52612  0.18457  0.32698  Biso   1.000  H
  H760     1.0000 0.61760  0.19863  0.29225  Biso   1.000  H
  C1076    1.0000 0.41435  0.97002  0.21000  Biso   1.000  C
  C1077    1.0000 0.41439  0.97001  0.20995  Biso   1.000  C
  C1078    1.0000 0.41441  0.97002  0.21000  Biso   1.000  C
  C1079    1.0000 0.39745  0.06295  0.30019  Biso   1.000  C
  C1080    1.0000 0.39738  0.06295  0.30019  Biso   1.000  C
  C1081    1.0000 0.24367  0.34001  0.22200  Biso   1.000  C
  C1082    1.0000 0.20412  0.35412  0.10388  Biso   1.000  C
  C1083    1.0000 0.24365  0.34000  0.22195  Biso   1.000  C
  C1084    1.0000 0.24368  0.34007  0.22200  Biso   1.000  C
  C1085    1.0000 0.24359  0.34000  0.22195  Biso   1.000  C
  H761     1.0000 0.39307  0.48241  0.23991  Biso   1.000  H
  H762     1.0000 0.41924  0.38374  0.27057  Biso   1.000  H
  C1086    1.0000 0.52555  0.44403  0.23748  Biso   1.000  C
  H763     1.0000 0.39306  0.48240  0.23986  Biso   1.000  H
  H764     1.0000 0.39308  0.48247  0.23991  Biso   1.000  H
  H765     1.0000 0.39299  0.48246  0.23986  Biso   1.000  H
  H766     1.0000 0.41918  0.38374  0.27057  Biso   1.000  H
  C1087    1.0000 0.52549  0.44403  0.23748  Biso   1.000  C
  C1088    1.0000 0.58485  0.83972  0.00068  Biso   1.000  C
  C1089    1.0000 0.58485  0.83966  0.00068  Biso   1.000  C
  C1090    1.0000 0.58492  0.83972  0.00068  Biso   1.000  C
  C1091    1.0000 0.37895  0.87479  0.52991  Biso   1.000  C
  C1092    1.0000 0.26598  0.79838  0.56771  Biso   1.000  C
  C1093    1.0000 0.26592  0.79838  0.56771  Biso   1.000  C
  C1094    1.0000 0.74374  0.41163  0.92874  Biso   1.000  C
  H767     1.0000 0.63974  0.32640  0.86564  Biso   1.000  H
  C1095    1.0000 0.74372  0.41162  0.92869  Biso   1.000  C
  C1096    1.0000 0.74378  0.41162  0.92869  Biso   1.000  C
  H768     1.0000 0.63980  0.32640  0.86564  Biso   1.000  H
  C1097    1.0000 0.88857  0.35343  0.97503  Biso   1.000  C
  H769     1.0000 0.89676  0.22302  0.94765  Biso   1.000  H
  H770     1.0000 0.89674  0.22301  0.94760  Biso   1.000  H
  C1098    1.0000 0.47351  0.41158  0.80382  Biso   1.000  C
  C1099    1.0000 0.44033  0.52861  0.86985  Biso   1.000  C
  C1100    1.0000 0.47345  0.41158  0.80382  Biso   1.000  C
  C1101    1.0000 0.44024  0.52860  0.86980  Biso   1.000  C
  C1102    1.0000 0.47345  0.41164  0.80382  Biso   1.000  C
  C1103    1.0000 0.44026  0.52861  0.86985  Biso   1.000  C
  C1104    1.0000 0.25627  0.58849  0.07128  Biso   1.000  C
  H771     1.0000 0.13987  0.51847  0.00659  Biso   1.000  H
  H772     1.0000 0.13987  0.51854  0.00659  Biso   1.000  H
  C1105    1.0000 0.23568  0.73418  0.09708  Biso   1.000  C
  C1106    1.0000 0.23569  0.73424  0.09708  Biso   1.000  C
  H773     1.0000 0.10325  0.77710  0.05238  Biso   1.000  H
  H774     1.0000 0.10331  0.77710  0.05238  Biso   1.000  H
  C1107    1.0000 0.66307  0.14063  0.42050  Biso   1.000  C
  H775     1.0000 0.68121  0.07433  0.33467  Biso   1.000  H
  H776     1.0000 0.58185  0.04231  0.35551  Biso   1.000  H
  C1108    1.0000 0.66305  0.14063  0.42045  Biso   1.000  C
  H777     1.0000 0.68127  0.07433  0.33467  Biso   1.000  H
  H778     1.0000 0.58183  0.04230  0.35546  Biso   1.000  H
  H779     1.0000 0.58185  0.04237  0.35551  Biso   1.000  H
  C1109    1.0000 0.66299  0.14063  0.42045  Biso   1.000  C
  H780     1.0000 0.58184  0.04236  0.35546  Biso   1.000  H
  C1110    1.0000 0.34685  0.91485  0.21898  Biso   1.000  C
  C1111    1.0000 0.34691  0.91479  0.21898  Biso   1.000  C
  C1112    1.0000 0.34691  0.91485  0.21898  Biso   1.000  C
  C1113    1.0000 0.33004  0.00760  0.30927  Biso   1.000  C
  H781     1.0000 0.41706  0.12026  0.33170  Biso   1.000  H
  C1114    1.0000 0.33005  0.00766  0.30927  Biso   1.000  C
  C1115    1.0000 0.32998  0.00766  0.30927  Biso   1.000  C
  H782     1.0000 0.41700  0.12026  0.33170  Biso   1.000  H
  C1116    1.0000 0.15303  0.31791  0.21729  Biso   1.000  C
  H783     1.0000 0.29406  0.34312  0.26958  Biso   1.000  H
  C1117    1.0000 0.15303  0.31797  0.21729  Biso   1.000  C
  H784     1.0000 0.29399  0.34312  0.26958  Biso   1.000  H
  C1118    1.0000 0.11353  0.33201  0.09911  Biso   1.000  C
  C1119    1.0000 0.11351  0.33201  0.09906  Biso   1.000  C
  C1120    1.0000 0.11359  0.33201  0.09911  Biso   1.000  C
  H785     1.0000 0.55566  0.38605  0.22900  Biso   1.000  H
  H786     1.0000 0.56013  0.47230  0.28630  Biso   1.000  H
  C1121    1.0000 0.53765  0.50300  0.18678  Biso   1.000  C
  H787     1.0000 0.55564  0.38598  0.22895  Biso   1.000  H
  H788     1.0000 0.56017  0.47229  0.28625  Biso   1.000  H
  H789     1.0000 0.56019  0.47236  0.28630  Biso   1.000  H
  C1122    1.0000 0.53766  0.50306  0.18678  Biso   1.000  C
  H790     1.0000 0.55557  0.38605  0.22895  Biso   1.000  H
  H791     1.0000 0.56011  0.47236  0.28625  Biso   1.000  H
  C1123    1.0000 0.53759  0.50300  0.18678  Biso   1.000  C
  N59      1.0000 0.66868  0.87318  0.03888  Biso   1.000  N
  O173     1.0000 0.51994  0.82482  0.02241  Biso   1.000  O
  O174     1.0000 0.51999  0.82482  0.02236  Biso   1.000  O
  N60      1.0000 0.66868  0.87325  0.03888  Biso   1.000  N
  O175     1.0000 0.52001  0.82482  0.02241  Biso   1.000  O
  C1124    1.0000 0.34987  0.82888  0.46864  Biso   1.000  C
  H792     1.0000 0.43397  0.92210  0.53914  Biso   1.000  H
  C1125    1.0000 0.34985  0.82887  0.46859  Biso   1.000  C
  H793     1.0000 0.43396  0.92209  0.53909  Biso   1.000  H
  C1126    1.0000 0.23690  0.75247  0.50644  Biso   1.000  C
  H794     1.0000 0.23347  0.78660  0.60611  Biso   1.000  H
  C1127    1.0000 0.23682  0.75247  0.50639  Biso   1.000  C
  H795     1.0000 0.23341  0.78660  0.60611  Biso   1.000  H
  C1128    1.0000 0.23684  0.75247  0.50644  Biso   1.000  C
  C1129    1.0000 0.83344  0.42142  0.96824  Biso   1.000  C
  C1130    1.0000 0.83351  0.42142  0.96824  Biso   1.000  C
  H796     1.0000 0.70107  0.46434  0.92353  Biso   1.000  H
  N61      1.0000 0.97482  0.36833  0.02370  Biso   1.000  N
  N62      1.0000 0.97480  0.36826  0.02365  Biso   1.000  N
  N63      1.0000 0.97488  0.36833  0.02370  Biso   1.000  N
  N64      1.0000 0.97480  0.36832  0.02365  Biso   1.000  N
  C1131    1.0000 0.46224  0.35758  0.85095  Biso   1.000  C
  H797     1.0000 0.49072  0.38727  0.76001  Biso   1.000  H
  C1132    1.0000 0.46216  0.35758  0.85090  Biso   1.000  C
  H798     1.0000 0.49066  0.38727  0.76001  Biso   1.000  H
  C1133    1.0000 0.46218  0.35765  0.85095  Biso   1.000  C
  H799     1.0000 0.49066  0.38733  0.76001  Biso   1.000  H
  C1134    1.0000 0.46216  0.35764  0.85090  Biso   1.000  C
  C1135    1.0000 0.42903  0.47461  0.91694  Biso   1.000  C
  H800     1.0000 0.43180  0.59478  0.87715  Biso   1.000  H
  C1136    1.0000 0.42897  0.47461  0.91694  Biso   1.000  C
  H801     1.0000 0.43171  0.59478  0.87710  Biso   1.000  H
  H802     1.0000 0.43174  0.59484  0.87715  Biso   1.000  H
  H803     1.0000 0.43178  0.59484  0.87710  Biso   1.000  H
  C1137    1.0000 0.29088  0.66620  0.10388  Biso   1.000  C
  H804     1.0000 0.29894  0.53578  0.07649  Biso   1.000  H
  H805     1.0000 0.29900  0.53578  0.07649  Biso   1.000  H
  H806     1.0000 0.29900  0.53584  0.07649  Biso   1.000  H
  N65      1.0000 0.26389  0.81533  0.12977  Biso   1.000  N
  C1138    1.0000 0.62119  0.12533  0.47011  Biso   1.000  C
  C1139    1.0000 0.73415  0.20173  0.43231  Biso   1.000  C
  C1140    1.0000 0.62117  0.12533  0.47007  Biso   1.000  C
  C1141    1.0000 0.73414  0.20173  0.43226  Biso   1.000  C
  C1142    1.0000 0.62119  0.12539  0.47011  Biso   1.000  C
  C1143    1.0000 0.73416  0.20180  0.43231  Biso   1.000  C
  C1144    1.0000 0.62111  0.12539  0.47007  Biso   1.000  C
  C1145    1.0000 0.30468  0.93351  0.26859  Biso   1.000  C
  C1146    1.0000 0.33515  0.82724  0.18727  Biso   1.000  C
  C1147    1.0000 0.33521  0.82724  0.18727  Biso   1.000  C
  C1148    1.0000 0.30468  0.93357  0.26859  Biso   1.000  C
  C1149    1.0000 0.27636  0.02801  0.35958  Biso   1.000  C
  C1150    1.0000 0.27636  0.02808  0.35958  Biso   1.000  C
  C1151    1.0000 0.27629  0.02808  0.35958  Biso   1.000  C
  C1152    1.0000 0.12142  0.29613  0.27648  Biso   1.000  C
  C1153    1.0000 0.08803  0.31399  0.15577  Biso   1.000  C
  C1154    1.0000 0.12148  0.29613  0.27648  Biso   1.000  C
  C1155    1.0000 0.08803  0.31406  0.15577  Biso   1.000  C
  C1156    1.0000 0.04134  0.31448  0.03348  Biso   1.000  C
  C1157    1.0000 0.04135  0.31454  0.03348  Biso   1.000  C
  C1158    1.0000 0.04128  0.31454  0.03348  Biso   1.000  C
  C1159    1.0000 0.52662  0.58854  0.19620  Biso   1.000  C
  C1160    1.0000 0.55981  0.47151  0.13017  Biso   1.000  C
  C1161    1.0000 0.52667  0.58854  0.19616  Biso   1.000  C
  C1162    1.0000 0.52669  0.58854  0.19620  Biso   1.000  C
  C1163    1.0000 0.55988  0.47151  0.13017  Biso   1.000  C
  C1164    1.0000 0.52660  0.58854  0.19616  Biso   1.000  C
  C1165    1.0000 0.68998  0.89832  0.10641  Biso   1.000  C
  C1166    1.0000 0.68997  0.89832  0.10636  Biso   1.000  C
  C1167    1.0000 0.27892  0.76778  0.45683  Biso   1.000  C
  H807     1.0000 0.38251  0.84066  0.43024  Biso   1.000  H
  C1168    1.0000 0.27885  0.76778  0.45683  Biso   1.000  C
  H808     1.0000 0.38243  0.84066  0.43019  Biso   1.000  H
  H809     1.0000 0.38244  0.84066  0.43024  Biso   1.000  H
  H810     1.0000 0.18188  0.70516  0.49722  Biso   1.000  H
  H811     1.0000 0.18181  0.70516  0.49722  Biso   1.000  H
  H812     1.0000 0.86014  0.48164  0.99344  Biso   1.000  H
  H813     1.0000 0.86020  0.48164  0.99344  Biso   1.000  H
  C1169    1.0000 0.44002  0.38913  0.90756  Biso   1.000  C
  H814     1.0000 0.47083  0.29141  0.84366  Biso   1.000  H
  C1170    1.0000 0.43994  0.38913  0.90751  Biso   1.000  C
  H815     1.0000 0.47075  0.29140  0.84361  Biso   1.000  H
  C1171    1.0000 0.43995  0.38913  0.90756  Biso   1.000  C
  H816     1.0000 0.47077  0.29141  0.84366  Biso   1.000  H
  C1172    1.0000 0.44000  0.38913  0.90751  Biso   1.000  C
  H817     1.0000 0.41183  0.49904  0.96074  Biso   1.000  H
  H818     1.0000 0.41175  0.49903  0.96069  Biso   1.000  H
  H819     1.0000 0.41176  0.49904  0.96074  Biso   1.000  H
  H820     1.0000 0.36027  0.67372  0.13439  Biso   1.000  H
  H821     1.0000 0.36033  0.67372  0.13439  Biso   1.000  H
  C1173    1.0000 0.65027  0.17124  0.53139  Biso   1.000  C
  H822     1.0000 0.56616  0.07802  0.46089  Biso   1.000  H
  C1174    1.0000 0.65027  0.17130  0.53139  Biso   1.000  C
  H823     1.0000 0.56617  0.07808  0.46089  Biso   1.000  H
  C1175    1.0000 0.65021  0.17124  0.53139  Biso   1.000  C
  H824     1.0000 0.56610  0.07808  0.46089  Biso   1.000  H
  C1176    1.0000 0.76324  0.24764  0.49358  Biso   1.000  C
  H825     1.0000 0.76667  0.21352  0.39391  Biso   1.000  H
  H826     1.0000 0.76665  0.21352  0.39386  Biso   1.000  H
  H827     1.0000 0.76667  0.21358  0.39391  Biso   1.000  H
  H828     1.0000 0.76659  0.21358  0.39386  Biso   1.000  H
  O176     1.0000 0.24079  0.87381  0.27851  Biso   1.000  O
  O177     1.0000 0.24077  0.87380  0.27846  Biso   1.000  O
  O178     1.0000 0.24079  0.87387  0.27851  Biso   1.000  O
  O179     1.0000 0.24078  0.87387  0.27846  Biso   1.000  O
  O180     1.0000 0.38230  0.77084  0.21327  Biso   1.000  O
  H829     1.0000 0.25148  0.97296  0.37789  Biso   1.000  H
  H830     1.0000 0.25154  0.97296  0.37789  Biso   1.000  H
  C1177    1.0000 0.33464  0.07186  0.42482  Biso   1.000  C
  C1178    1.0000 0.19476  0.07391  0.32272  Biso   1.000  C
  C1179    1.0000 0.33468  0.07185  0.42477  Biso   1.000  C
  C1180    1.0000 0.19474  0.07390  0.32267  Biso   1.000  C
  C1181    1.0000 0.33470  0.07186  0.42482  Biso   1.000  C
  C1182    1.0000 0.19477  0.07397  0.32272  Biso   1.000  C
  C1183    1.0000 0.33462  0.07185  0.42477  Biso   1.000  C
  C1184    1.0000 0.19468  0.07397  0.32267  Biso   1.000  C
  C1185    1.0000 0.12281  0.19942  0.28258  Biso   1.000  C
  H831     1.0000 0.05161  0.31240  0.26680  Biso   1.000  H
  C1186    1.0000 0.17422  0.34476  0.34291  Biso   1.000  C
  C1187    1.0000 0.12287  0.19942  0.28258  Biso   1.000  C
  H832     1.0000 0.05166  0.31239  0.26675  Biso   1.000  H
  C1188    1.0000 0.17427  0.34476  0.34286  Biso   1.000  C
  H833     1.0000 0.05168  0.31246  0.26680  Biso   1.000  H
  C1189    1.0000 0.17429  0.34476  0.34291  Biso   1.000  C
  H834     1.0000 0.05159  0.31245  0.26675  Biso   1.000  H
  C1190    1.0000 0.17420  0.34476  0.34286  Biso   1.000  C
  O181     1.0000 0.99626  0.29653  0.14927  Biso   1.000  O
  O182     1.0000 0.99619  0.29653  0.14927  Biso   1.000  O
  O183     1.0000 0.04829  0.25601  0.99562  Biso   1.000  O
  O184     1.0000 0.04822  0.25601  0.99562  Biso   1.000  O
  C1191    1.0000 0.53790  0.64253  0.14907  Biso   1.000  C
  H835     1.0000 0.50941  0.61285  0.24001  Biso   1.000  H
  C1192    1.0000 0.53796  0.64253  0.14907  Biso   1.000  C
  H836     1.0000 0.50946  0.61284  0.23996  Biso   1.000  H
  H837     1.0000 0.50948  0.61285  0.24001  Biso   1.000  H
  H838     1.0000 0.50940  0.61284  0.23996  Biso   1.000  H
  C1193    1.0000 0.57110  0.52551  0.08309  Biso   1.000  C
  H839     1.0000 0.56834  0.40534  0.12288  Biso   1.000  H
  C1194    1.0000 0.57117  0.52551  0.08309  Biso   1.000  C
  H840     1.0000 0.56834  0.40527  0.12288  Biso   1.000  H
  H841     1.0000 0.56827  0.40534  0.12288  Biso   1.000  H
  C1195    1.0000 0.63485  0.88471  0.14808  Biso   1.000  C
  C1196    1.0000 0.77586  0.93859  0.13191  Biso   1.000  C
  C1197    1.0000 0.77584  0.93859  0.13186  Biso   1.000  C
  C1198    1.0000 0.77587  0.93865  0.13191  Biso   1.000  C
  C1199    1.0000 0.63492  0.88471  0.14808  Biso   1.000  C
  C1200    1.0000 0.77591  0.93865  0.13186  Biso   1.000  C
  H842     1.0000 0.25639  0.73214  0.40935  Biso   1.000  H
  H843     1.0000 0.25630  0.73214  0.40930  Biso   1.000  H
  H844     1.0000 0.25632  0.73220  0.40935  Biso   1.000  H
  H845     1.0000 0.25637  0.73214  0.40930  Biso   1.000  H
  H846     1.0000 0.43132  0.34732  0.94402  Biso   1.000  H
  H847     1.0000 0.43126  0.34732  0.94402  Biso   1.000  H
  C1201    1.0000 0.72122  0.23234  0.54319  Biso   1.000  C
  H848     1.0000 0.61763  0.15945  0.56979  Biso   1.000  H
  C1202    1.0000 0.72129  0.23234  0.54319  Biso   1.000  C
  H849     1.0000 0.61769  0.15945  0.56979  Biso   1.000  H
  C1203    1.0000 0.72129  0.23240  0.54319  Biso   1.000  C
  C1204    1.0000 0.72122  0.23240  0.54319  Biso   1.000  C
  H850     1.0000 0.81826  0.29495  0.50281  Biso   1.000  H
  H851     1.0000 0.81824  0.29495  0.50276  Biso   1.000  H
  C1205    1.0000 0.14900  0.89394  0.24319  Biso   1.000  C
  H852     1.0000 0.35254  0.13483  0.41519  Biso   1.000  H
  H853     1.0000 0.39573  0.03925  0.44347  Biso   1.000  H
  C1206    1.0000 0.28362  0.07657  0.47547  Biso   1.000  C
  H854     1.0000 0.39579  0.03925  0.44347  Biso   1.000  H
  C1207    1.0000 0.28369  0.07657  0.47547  Biso   1.000  C
  C1208    1.0000 0.19721  0.16091  0.32098  Biso   1.000  C
  C1209    1.0000 0.11774  0.02553  0.28590  Biso   1.000  C
  C1210    1.0000 0.19727  0.16091  0.32098  Biso   1.000  C
  C1211    1.0000 0.11772  0.02553  0.28585  Biso   1.000  C
  C1212    1.0000 0.19727  0.16097  0.32098  Biso   1.000  C
  C1213    1.0000 0.19721  0.16097  0.32098  Biso   1.000  C
  C1214    1.0000 0.04591  0.15104  0.24577  Biso   1.000  C
  C1215    1.0000 0.04598  0.15104  0.24577  Biso   1.000  C
  H855     1.0000 0.17534  0.41111  0.33661  Biso   1.000  H
  H856     1.0000 0.24296  0.32485  0.35710  Biso   1.000  H
  C1216    1.0000 0.12802  0.32703  0.39798  Biso   1.000  C
  H857     1.0000 0.17532  0.41110  0.33656  Biso   1.000  H
  C1217    1.0000 0.12809  0.32703  0.39798  Biso   1.000  C
  H858     1.0000 0.17534  0.41117  0.33661  Biso   1.000  H
  H859     1.0000 0.17532  0.41117  0.33656  Biso   1.000  H
  H860     1.0000 0.24289  0.32485  0.35710  Biso   1.000  H
  C1218    1.0000 0.96766  0.21032  0.14679  Biso   1.000  C
  C1219    1.0000 0.96760  0.21032  0.14679  Biso   1.000  C
  C1220    1.0000 0.56012  0.61098  0.09247  Biso   1.000  C
  H861     1.0000 0.52930  0.70871  0.15637  Biso   1.000  H
  H862     1.0000 0.52937  0.70871  0.15637  Biso   1.000  H
  C1221    1.0000 0.56012  0.61105  0.09247  Biso   1.000  C
  H863     1.0000 0.58831  0.50108  0.03928  Biso   1.000  H
  H864     1.0000 0.58838  0.50114  0.03928  Biso   1.000  H
  H865     1.0000 0.58831  0.50114  0.03928  Biso   1.000  H
  C1222    1.0000 0.66569  0.91145  0.21531  Biso   1.000  C
  H866     1.0000 0.56825  0.85341  0.12838  Biso   1.000  H
  C1223    1.0000 0.66567  0.91144  0.21526  Biso   1.000  C
  H867     1.0000 0.56832  0.85341  0.12838  Biso   1.000  H
  C1224    1.0000 0.80675  0.96544  0.19908  Biso   1.000  C
  C1225    1.0000 0.80681  0.96544  0.19908  Biso   1.000  C
  H868     1.0000 0.81855  0.94920  0.09961  Biso   1.000  H
  H869     1.0000 0.81859  0.94919  0.09956  Biso   1.000  H
  H870     1.0000 0.81861  0.94920  0.09961  Biso   1.000  H
  H871     1.0000 0.74375  0.26798  0.59067  Biso   1.000  H
  H872     1.0000 0.10868  0.83634  0.22409  Biso   1.000  H
  H873     1.0000 0.15138  0.93124  0.20251  Biso   1.000  H
  O185     1.0000 0.11068  0.93863  0.28799  Biso   1.000  O
  H874     1.0000 0.15136  0.93123  0.20246  Biso   1.000  H
  H875     1.0000 0.15142  0.93123  0.20246  Biso   1.000  H
  O186     1.0000 0.11074  0.93863  0.28799  Biso   1.000  O
  H876     1.0000 0.22334  0.10987  0.45558  Biso   1.000  H
  H877     1.0000 0.26437  0.01297  0.48242  Biso   1.000  H
  C1226    1.0000 0.33177  0.12064  0.54250  Biso   1.000  C
  H878     1.0000 0.26435  0.01296  0.48237  Biso   1.000  H
  C1227    1.0000 0.33177  0.12070  0.54250  Biso   1.000  C
  C1228    1.0000 0.33171  0.12070  0.54250  Biso   1.000  C
  H879     1.0000 0.25684  0.19833  0.34941  Biso   1.000  H
  H880     1.0000 0.25682  0.19833  0.34936  Biso   1.000  H
  C1229    1.0000 0.04334  0.06404  0.24750  Biso   1.000  C
  C1230    1.0000 0.04332  0.06404  0.24745  Biso   1.000  C
  O187     1.0000 0.96802  0.18640  0.21039  Biso   1.000  O
  O188     1.0000 0.96808  0.18640  0.21039  Biso   1.000  O
  O189     1.0000 0.96808  0.18646  0.21039  Biso   1.000  O
  O190     1.0000 0.96802  0.18646  0.21039  Biso   1.000  O
  H881     1.0000 0.13765  0.26265  0.40929  Biso   1.000  H
  H882     1.0000 0.05646  0.33562  0.37818  Biso   1.000  H
  C1231    1.0000 0.16203  0.38427  0.46089  Biso   1.000  C
  C1232    1.0000 0.16209  0.38427  0.46089  Biso   1.000  C
  H883     1.0000 0.05646  0.33568  0.37818  Biso   1.000  H
  H884     1.0000 0.05640  0.33568  0.37818  Biso   1.000  H
  H885     1.0000 0.89995  0.19919  0.11370  Biso   1.000  H
  H886     1.0000 0.89993  0.19919  0.11365  Biso   1.000  H
  H887     1.0000 0.89996  0.19925  0.11370  Biso   1.000  H
  H888     1.0000 0.89987  0.19925  0.11365  Biso   1.000  H
  H889     1.0000 0.01400  0.17279  0.12858  Biso   1.000  H
  H890     1.0000 0.01406  0.17279  0.12858  Biso   1.000  H
  H891     1.0000 0.01407  0.17286  0.12858  Biso   1.000  H
  H892     1.0000 0.01400  0.17286  0.12858  Biso   1.000  H
  H893     1.0000 0.56881  0.65279  0.05600  Biso   1.000  H
  H894     1.0000 0.56886  0.65279  0.05595  Biso   1.000  H
  H895     1.0000 0.56888  0.65279  0.05600  Biso   1.000  H
  H896     1.0000 0.56880  0.65279  0.05595  Biso   1.000  H
  C1233    1.0000 0.75170  0.95184  0.24081  Biso   1.000  C
  C1234    1.0000 0.75168  0.95184  0.24076  Biso   1.000  C
  H897     1.0000 0.62307  0.90090  0.24760  Biso   1.000  H
  H898     1.0000 0.62305  0.90090  0.24755  Biso   1.000  H
  H899     1.0000 0.62307  0.90097  0.24760  Biso   1.000  H
  H900     1.0000 0.62312  0.90096  0.24755  Biso   1.000  H
  N66      1.0000 0.89334  0.01045  0.22979  Biso   1.000  N
  C1235    1.0000 0.42467  0.11249  0.56899  Biso   1.000  C
  C1236    1.0000 0.28397  0.16796  0.57802  Biso   1.000  C
  C1237    1.0000 0.42466  0.11243  0.56899  Biso   1.000  C
  C1238    1.0000 0.28395  0.16796  0.57797  Biso   1.000  C
  C1239    1.0000 0.42460  0.11249  0.56899  Biso   1.000  C
  C1240    1.0000 0.96512  0.01070  0.20439  Biso   1.000  C
  C1241    1.0000 0.96519  0.01077  0.20439  Biso   1.000  C
  C1242    1.0000 0.11475  0.45395  0.47160  Biso   1.000  C
  C1243    1.0000 0.23963  0.36504  0.50921  Biso   1.000  C
  C1244    1.0000 0.11473  0.45394  0.47155  Biso   1.000  C
  C1245    1.0000 0.23968  0.36504  0.50916  Biso   1.000  C
  C1246    1.0000 0.23970  0.36510  0.50921  Biso   1.000  C
  C1247    1.0000 0.23961  0.36504  0.50916  Biso   1.000  C
  H901     1.0000 0.77556  0.97254  0.29280  Biso   1.000  H
  H902     1.0000 0.77560  0.97253  0.29275  Biso   1.000  H
  H903     1.0000 0.77562  0.97254  0.29280  Biso   1.000  H
  C1248    1.0000 0.46974  0.15167  0.63111  Biso   1.000  C
  H904     1.0000 0.46178  0.07584  0.54151  Biso   1.000  H
  C1249    1.0000 0.46978  0.15167  0.63106  Biso   1.000  C
  H905     1.0000 0.46176  0.07584  0.54146  Biso   1.000  H
  C1250    1.0000 0.46980  0.15167  0.63111  Biso   1.000  C
  H906     1.0000 0.46179  0.07591  0.54151  Biso   1.000  H
  C1251    1.0000 0.46972  0.15167  0.63106  Biso   1.000  C
  H907     1.0000 0.46170  0.07584  0.54146  Biso   1.000  H
  C1252    1.0000 0.32895  0.20714  0.64009  Biso   1.000  C
  H908     1.0000 0.21197  0.17423  0.55748  Biso   1.000  H
  C1253    1.0000 0.32896  0.20720  0.64009  Biso   1.000  C
  H909     1.0000 0.21197  0.17429  0.55748  Biso   1.000  H
  H910     1.0000 0.21191  0.17429  0.55748  Biso   1.000  H
  O191     1.0000 0.96709  0.97833  0.15170  Biso   1.000  O
  O192     1.0000 0.96707  0.97833  0.15165  Biso   1.000  O
  C1254    1.0000 0.14503  0.50459  0.53069  Biso   1.000  C
  H911     1.0000 0.05478  0.46882  0.43420  Biso   1.000  H
  C1255    1.0000 0.14510  0.50452  0.53069  Biso   1.000  C
  C1256    1.0000 0.14510  0.50459  0.53069  Biso   1.000  C
  H912     1.0000 0.05478  0.46889  0.43420  Biso   1.000  H
  H913     1.0000 0.05472  0.46889  0.43420  Biso   1.000  H
  C1257    1.0000 0.26985  0.41555  0.56830  Biso   1.000  C
  H914     1.0000 0.27628  0.31107  0.50087  Biso   1.000  H
  H915     1.0000 0.27621  0.31107  0.50087  Biso   1.000  H
  C1258    1.0000 0.42182  0.19900  0.66668  Biso   1.000  C
  H916     1.0000 0.54169  0.14535  0.65170  Biso   1.000  H
  C1259    1.0000 0.42189  0.19894  0.66668  Biso   1.000  C
  C1260    1.0000 0.42189  0.19900  0.66668  Biso   1.000  C
  H917     1.0000 0.54169  0.14541  0.65170  Biso   1.000  H
  H918     1.0000 0.54163  0.14541  0.65170  Biso   1.000  H
  H919     1.0000 0.29199  0.24379  0.66762  Biso   1.000  H
  H920     1.0000 0.29197  0.24379  0.66757  Biso   1.000  H
  H921     1.0000 0.29190  0.24379  0.66757  Biso   1.000  H
  C1261    1.0000 0.22268  0.48536  0.57911  Biso   1.000  C
  H922     1.0000 0.10844  0.55855  0.53898  Biso   1.000  H
  C1262    1.0000 0.22266  0.48536  0.57906  Biso   1.000  C
  C1263    1.0000 0.22259  0.48536  0.57906  Biso   1.000  C
  H923     1.0000 0.32999  0.40075  0.60580  Biso   1.000  H
  H924     1.0000 0.32997  0.40074  0.60576  Biso   1.000  H
  H925     1.0000 0.32999  0.40081  0.60580  Biso   1.000  H
  H926     1.0000 0.32991  0.40081  0.60576  Biso   1.000  H
  H927     1.0000 0.45677  0.22925  0.71470  Biso   1.000  H
  H928     1.0000 0.45675  0.22925  0.71465  Biso   1.000  H
  H929     1.0000 0.45677  0.22931  0.71470  Biso   1.000  H
  H930     1.0000 0.45675  0.22931  0.71465  Biso   1.000  H
  H931     1.0000 0.24605  0.52445  0.62481  Biso   1.000  H
  H932     1.0000 0.24603  0.52445  0.62476  Biso   1.000  H
  H933     1.0000 0.24612  0.52452  0.62481  Biso   1.000  H
  O193     1.0000 0.03292  0.02179  0.84832  Biso   1.000  O
  C1264    1.0000 0.03502  0.98941  0.79563  Biso   1.000  C
  C1265    1.0000 0.03495  0.98941  0.79563  Biso   1.000  C
  N67      1.0000 0.10680  0.98967  0.77023  Biso   1.000  N
  N68      1.0000 0.10674  0.98967  0.77023  Biso   1.000  N
  N69      1.0000 0.10674  0.98973  0.77023  Biso   1.000  N
  N70      1.0000 0.10681  0.98973  0.77023  Biso   1.000  N
  O194     1.0000 0.03299  0.02185  0.84832  Biso   1.000  O
  C1266    1.0000 0.95680  0.93608  0.75252  Biso   1.000  C
  C1267    1.0000 0.95673  0.93608  0.75252  Biso   1.000  C
  C1268    1.0000 0.95674  0.93614  0.75252  Biso   1.000  C
  O195     1.0000 0.03298  0.02179  0.84832  Biso   1.000  O
  C1269    1.0000 0.19326  0.03467  0.80094  Biso   1.000  C
  C1270    1.0000 0.19324  0.03467  0.80089  Biso   1.000  C
  C1271    1.0000 0.19326  0.03474  0.80094  Biso   1.000  C
  C1272    1.0000 0.19324  0.03473  0.80089  Biso   1.000  C
  C1273    1.0000 0.88240  0.97459  0.71412  Biso   1.000  C
  C1274    1.0000 0.95423  0.84908  0.75426  Biso   1.000  C
  C1275    1.0000 0.88233  0.97459  0.71412  Biso   1.000  C
  C1276    1.0000 0.95414  0.84907  0.75421  Biso   1.000  C
  C1277    1.0000 0.95416  0.84914  0.75426  Biso   1.000  C
  C1278    1.0000 0.95415  0.84914  0.75421  Biso   1.000  C
  C1279    1.0000 0.24837  0.04834  0.75922  Biso   1.000  C
  C1280    1.0000 0.24831  0.04827  0.75922  Biso   1.000  C
  C1281    1.0000 0.24837  0.04827  0.75922  Biso   1.000  C
  C1282    1.0000 0.22414  0.06153  0.86812  Biso   1.000  C
  C1283    1.0000 0.80537  0.92621  0.67731  Biso   1.000  C
  C1284    1.0000 0.80531  0.92621  0.67731  Biso   1.000  C
  O196     1.0000 0.88933  0.06149  0.71204  Biso   1.000  O
  O197     1.0000 0.88931  0.06149  0.71199  Biso   1.000  O
  O198     1.0000 0.88938  0.06149  0.71199  Biso   1.000  O
  C1285    1.0000 0.87733  0.80070  0.71745  Biso   1.000  C
  C1286    1.0000 0.87725  0.80069  0.71740  Biso   1.000  C
  C1287    1.0000 0.87727  0.80070  0.71745  Biso   1.000  C
  O199     1.0000 0.03212  0.81372  0.78963  Biso   1.000  O
  O200     1.0000 0.03206  0.81372  0.78963  Biso   1.000  O
  H934     1.0000 0.22445  0.02758  0.70722  Biso   1.000  H
  C1288    1.0000 0.33432  0.08867  0.78472  Biso   1.000  C
  C1289    1.0000 0.33432  0.08873  0.78472  Biso   1.000  C
  C1290    1.0000 0.33439  0.08873  0.78472  Biso   1.000  C
  C1291    1.0000 0.31002  0.10180  0.89362  Biso   1.000  C
  C1292    1.0000 0.31009  0.10180  0.89362  Biso   1.000  C
  H935     1.0000 0.18146  0.05092  0.90042  Biso   1.000  H
  C1293    1.0000 0.80293  0.83921  0.67905  Biso   1.000  C
  C1294    1.0000 0.72378  0.97210  0.64045  Biso   1.000  C
  C1295    1.0000 0.80285  0.83920  0.67900  Biso   1.000  C
  C1296    1.0000 0.72376  0.97210  0.64040  Biso   1.000  C
  C1297    1.0000 0.80287  0.83921  0.67905  Biso   1.000  C
  C1298    1.0000 0.85101  0.10618  0.75684  Biso   1.000  C
  C1299    1.0000 0.85107  0.10618  0.75684  Biso   1.000  C
  C1300    1.0000 0.85107  0.10624  0.75684  Biso   1.000  C
  C1301    1.0000 0.87872  0.70399  0.72355  Biso   1.000  C
  C1302    1.0000 0.87864  0.70399  0.72350  Biso   1.000  C
  C1303    1.0000 0.87866  0.70399  0.72355  Biso   1.000  C
  C1304    1.0000 0.03248  0.78979  0.85323  Biso   1.000  C
  C1305    1.0000 0.03248  0.78985  0.85323  Biso   1.000  C
  H936     1.0000 0.37694  0.09921  0.75242  Biso   1.000  H
  C1306    1.0000 0.36515  0.11540  0.85194  Biso   1.000  C
  C1307    1.0000 0.36513  0.11540  0.85189  Biso   1.000  C
  N71      1.0000 0.33138  0.12693  0.96109  Biso   1.000  N
  N72      1.0000 0.33133  0.12693  0.96114  Biso   1.000  N
  N73      1.0000 0.33139  0.12693  0.96114  Biso   1.000  N
  H937     1.0000 0.74330  0.80179  0.65062  Biso   1.000  H
  H938     1.0000 0.74323  0.80179  0.65062  Biso   1.000  H
  C1308    1.0000 0.67009  0.99252  0.69075  Biso   1.000  C
  C1309    1.0000 0.66550  0.92826  0.57521  Biso   1.000  C
  C1310    1.0000 0.67001  0.99245  0.69070  Biso   1.000  C
  C1311    1.0000 0.66543  0.92826  0.57521  Biso   1.000  C
  C1312    1.0000 0.67003  0.99252  0.69075  Biso   1.000  C
  C1313    1.0000 0.67008  0.99251  0.69070  Biso   1.000  C
  H939     1.0000 0.74853  0.02716  0.62214  Biso   1.000  H
  H940     1.0000 0.74851  0.02715  0.62209  Biso   1.000  H
  H941     1.0000 0.74853  0.02722  0.62214  Biso   1.000  H
  H942     1.0000 0.74858  0.02721  0.62209  Biso   1.000  H
  O201     1.0000 0.75922  0.12631  0.72151  Biso   1.000  O
  H943     1.0000 0.89133  0.16378  0.77594  Biso   1.000  H
  H944     1.0000 0.84863  0.06888  0.79752  Biso   1.000  H
  H945     1.0000 0.89131  0.16377  0.77589  Biso   1.000  H
  H946     1.0000 0.89133  0.16384  0.77594  Biso   1.000  H
  H947     1.0000 0.84863  0.06894  0.79752  Biso   1.000  H
  O202     1.0000 0.75928  0.12631  0.72151  Biso   1.000  O
  H948     1.0000 0.89138  0.16383  0.77589  Biso   1.000  H
  H949     1.0000 0.84870  0.06894  0.79752  Biso   1.000  H
  H950     1.0000 0.94853  0.68772  0.73322  Biso   1.000  H
  C1314    1.0000 0.82592  0.65535  0.65712  Biso   1.000  C
  C1315    1.0000 0.84711  0.68221  0.78273  Biso   1.000  C
  H951     1.0000 0.94846  0.68766  0.73322  Biso   1.000  H
  C1316    1.0000 0.82585  0.65535  0.65712  Biso   1.000  C
  C1317    1.0000 0.84704  0.68221  0.78273  Biso   1.000  C
  H952     1.0000 0.94846  0.68772  0.73322  Biso   1.000  H
  C1318    1.0000 0.82585  0.65542  0.65712  Biso   1.000  C
  H953     1.0000 0.98614  0.82732  0.87144  Biso   1.000  H
  H954     1.0000 0.98606  0.82732  0.87139  Biso   1.000  H
  H955     1.0000 0.98607  0.82732  0.87144  Biso   1.000  H
  O203     1.0000 0.00388  0.70359  0.85075  Biso   1.000  O
  H956     1.0000 0.10019  0.80093  0.88633  Biso   1.000  H
  O204     1.0000 0.00386  0.70358  0.85070  Biso   1.000  O
  O205     1.0000 0.00388  0.70365  0.85075  Biso   1.000  O
  O206     1.0000 0.00386  0.70364  0.85070  Biso   1.000  O
  H957     1.0000 0.43176  0.14671  0.87164  Biso   1.000  H
  H958     1.0000 0.43174  0.14670  0.87159  Biso   1.000  H
  C1319    1.0000 0.41516  0.16040  0.99934  Biso   1.000  C
  C1320    1.0000 0.41514  0.16039  0.99929  Biso   1.000  C
  C1321    1.0000 0.41516  0.16046  0.99934  Biso   1.000  C
  C1322    1.0000 0.41514  0.16045  0.99929  Biso   1.000  C
  C1323    1.0000 0.60269  0.93717  0.69983  Biso   1.000  C
  C1324    1.0000 0.60262  0.93717  0.69983  Biso   1.000  C
  C1325    1.0000 0.60263  0.93723  0.69983  Biso   1.000  C
  C1326    1.0000 0.60269  0.93723  0.69983  Biso   1.000  C
  C1327    1.0000 0.69533  0.06661  0.73144  Biso   1.000  C
  C1328    1.0000 0.69539  0.06661  0.73144  Biso   1.000  C
  H959     1.0000 0.64760  0.86528  0.58483  Biso   1.000  H
  H960     1.0000 0.60441  0.96087  0.55655  Biso   1.000  H
  C1329    1.0000 0.71652  0.92355  0.52455  Biso   1.000  C
  H961     1.0000 0.64753  0.86528  0.58483  Biso   1.000  H
  H962     1.0000 0.60433  0.96086  0.55650  Biso   1.000  H
  C1330    1.0000 0.71643  0.92354  0.52450  Biso   1.000  C
  H963     1.0000 0.60435  0.96087  0.55655  Biso   1.000  H
  C1331    1.0000 0.71645  0.92361  0.52455  Biso   1.000  C
  C1332    1.0000 0.71644  0.92361  0.52450  Biso   1.000  C
  H964     1.0000 0.82480  0.58901  0.66342  Biso   1.000  H
  H965     1.0000 0.75718  0.67526  0.64293  Biso   1.000  H
  C1333    1.0000 0.87211  0.67308  0.60205  Biso   1.000  C
  H966     1.0000 0.82473  0.58901  0.66342  Biso   1.000  H
  H967     1.0000 0.75711  0.67526  0.64293  Biso   1.000  H
  C1334    1.0000 0.87203  0.67308  0.60200  Biso   1.000  C
  H968     1.0000 0.75712  0.67533  0.64293  Biso   1.000  H
  C1335    1.0000 0.87205  0.67308  0.60205  Biso   1.000  C
  H969     1.0000 0.75718  0.67533  0.64293  Biso   1.000  H
  C1336    1.0000 0.75646  0.66011  0.77802  Biso   1.000  C
  C1337    1.0000 0.91211  0.68612  0.84425  Biso   1.000  C
  C1338    1.0000 0.91203  0.68612  0.84420  Biso   1.000  C
  C1339    1.0000 0.91204  0.68612  0.84425  Biso   1.000  C
  C1340    1.0000 0.91209  0.68612  0.84420  Biso   1.000  C
  O207     1.0000 0.48007  0.17529  0.97761  Biso   1.000  O
  O208     1.0000 0.48007  0.17536  0.97761  Biso   1.000  O
  C1341    1.0000 0.41932  0.18849  0.06979  Biso   1.000  C
  C1342    1.0000 0.41938  0.18855  0.06979  Biso   1.000  C
  C1343    1.0000 0.56053  0.95602  0.74945  Biso   1.000  C
  H970     1.0000 0.58308  0.87986  0.66833  Biso   1.000  H
  C1344    1.0000 0.56045  0.95602  0.74940  Biso   1.000  C
  C1345    1.0000 0.56046  0.95602  0.74945  Biso   1.000  C
  H971     1.0000 0.58308  0.87992  0.66833  Biso   1.000  H
  C1346    1.0000 0.65316  0.08527  0.78105  Biso   1.000  C
  C1347    1.0000 0.65314  0.08526  0.78100  Biso   1.000  C
  C1348    1.0000 0.65316  0.08533  0.78105  Biso   1.000  C
  C1349    1.0000 0.65315  0.08533  0.78100  Biso   1.000  C
  H972     1.0000 0.77680  0.89025  0.54445  Biso   1.000  H
  H973     1.0000 0.73577  0.98715  0.51761  Biso   1.000  H
  C1350    1.0000 0.66837  0.87948  0.45753  Biso   1.000  C
  H974     1.0000 0.77672  0.89024  0.54440  Biso   1.000  H
  H975     1.0000 0.73571  0.98715  0.51761  Biso   1.000  H
  C1351    1.0000 0.66830  0.87948  0.45753  Biso   1.000  C
  H976     1.0000 0.77674  0.89031  0.54445  Biso   1.000  H
  H977     1.0000 0.73571  0.98721  0.51761  Biso   1.000  H
  H978     1.0000 0.77672  0.89031  0.54440  Biso   1.000  H
  H979     1.0000 0.86249  0.73746  0.59073  Biso   1.000  H
  H980     1.0000 0.94368  0.66450  0.62184  Biso   1.000  H
  C1352    1.0000 0.83811  0.61585  0.53914  Biso   1.000  C
  H981     1.0000 0.86241  0.73746  0.59069  Biso   1.000  H
  H982     1.0000 0.94366  0.66449  0.62179  Biso   1.000  H
  C1353    1.0000 0.83803  0.61584  0.53909  Biso   1.000  C
  H983     1.0000 0.86243  0.73746  0.59073  Biso   1.000  H
  C1354    1.0000 0.83805  0.61591  0.53914  Biso   1.000  C
  H984     1.0000 0.86247  0.73746  0.59069  Biso   1.000  H
  C1355    1.0000 0.83803  0.61590  0.53909  Biso   1.000  C
  C1356    1.0000 0.73098  0.64203  0.83473  Biso   1.000  C
  H985     1.0000 0.70608  0.65699  0.73044  Biso   1.000  H
  C1357    1.0000 0.73098  0.64197  0.83473  Biso   1.000  C
  H986     1.0000 0.70606  0.65699  0.73039  Biso   1.000  H
  C1358    1.0000 0.88661  0.66811  0.90091  Biso   1.000  C
  C1359    1.0000 0.88655  0.66811  0.90091  Biso   1.000  C
  C1360    1.0000 0.45801  0.13582  0.11911  Biso   1.000  C
  C1361    1.0000 0.39321  0.26722  0.08721  Biso   1.000  C
  C1362    1.0000 0.45805  0.13582  0.11906  Biso   1.000  C
  C1363    1.0000 0.39326  0.26721  0.08716  Biso   1.000  C
  C1364    1.0000 0.45807  0.13582  0.11911  Biso   1.000  C
  C1365    1.0000 0.39328  0.26722  0.08721  Biso   1.000  C
  C1366    1.0000 0.45799  0.13582  0.11906  Biso   1.000  C
  C1367    1.0000 0.39319  0.26721  0.08716  Biso   1.000  C
  C1368    1.0000 0.48700  0.89569  0.76135  Biso   1.000  C
  C1369    1.0000 0.48692  0.89569  0.76130  Biso   1.000  C
  C1370    1.0000 0.48694  0.89569  0.76135  Biso   1.000  C
  C1371    1.0000 0.48699  0.89569  0.76130  Biso   1.000  C
  C1372    1.0000 0.58566  0.03010  0.79003  Biso   1.000  C
  C1373    1.0000 0.66486  0.17288  0.81275  Biso   1.000  C
  C1374    1.0000 0.66484  0.17288  0.81270  Biso   1.000  C
  C1375    1.0000 0.66486  0.17294  0.81275  Biso   1.000  C
  C1376    1.0000 0.66484  0.17294  0.81270  Biso   1.000  C
  C1377    1.0000 0.57547  0.88763  0.43103  Biso   1.000  C
  C1378    1.0000 0.71617  0.83216  0.42200  Biso   1.000  C
  C1379    1.0000 0.57539  0.88762  0.43098  Biso   1.000  C
  C1380    1.0000 0.71610  0.83216  0.42200  Biso   1.000  C
  C1381    1.0000 0.57541  0.88769  0.43103  Biso   1.000  C
  C1382    1.0000 0.57545  0.88769  0.43098  Biso   1.000  C
  C1383    1.0000 0.88539  0.54617  0.52842  Biso   1.000  C
  C1384    1.0000 0.76051  0.63508  0.49082  Biso   1.000  C
  C1385    1.0000 0.88532  0.54617  0.52842  Biso   1.000  C
  C1386    1.0000 0.76044  0.63508  0.49082  Biso   1.000  C
  C1387    1.0000 0.79601  0.64600  0.89615  Biso   1.000  C
  C1388    1.0000 0.63069  0.62181  0.83483  Biso   1.000  C
  C1389    1.0000 0.79593  0.64599  0.89610  Biso   1.000  C
  C1390    1.0000 0.63062  0.62181  0.83483  Biso   1.000  C
  C1391    1.0000 0.79595  0.64606  0.89615  Biso   1.000  C
  C1392    1.0000 0.79599  0.64599  0.89610  Biso   1.000  C
  C1393    1.0000 0.95879  0.68564  0.96655  Biso   1.000  C
  C1394    1.0000 0.95878  0.68563  0.96650  Biso   1.000  C
  C1395    1.0000 0.47073  0.16181  0.18569  Biso   1.000  C
  O209     1.0000 0.48466  0.05869  0.10001  Biso   1.000  O
  O210     1.0000 0.48464  0.05868  0.09996  Biso   1.000  O
  O211     1.0000 0.48466  0.05875  0.10001  Biso   1.000  O
  O212     1.0000 0.48458  0.05874  0.09996  Biso   1.000  O
  C1396    1.0000 0.40593  0.29320  0.15379  Biso   1.000  C
  O213     1.0000 0.35780  0.31613  0.03506  Biso   1.000  O
  O214     1.0000 0.35786  0.31606  0.03506  Biso   1.000  O
  O215     1.0000 0.35787  0.31613  0.03506  Biso   1.000  O
  C1397    1.0000 0.52941  0.83831  0.81434  Biso   1.000  C
  C1398    1.0000 0.42871  0.84719  0.69641  Biso   1.000  C
  H987     1.0000 0.43951  0.93270  0.77862  Biso   1.000  H
  C1399    1.0000 0.52934  0.83831  0.81434  Biso   1.000  C
  C1400    1.0000 0.42864  0.84719  0.69641  Biso   1.000  C
  H988     1.0000 0.43945  0.93270  0.77862  Biso   1.000  H
  O216     1.0000 0.54474  0.05160  0.83865  Biso   1.000  O
  O217     1.0000 0.54472  0.05160  0.83860  Biso   1.000  O
  O218     1.0000 0.54478  0.05160  0.83860  Biso   1.000  O
  N74      1.0000 0.73611  0.18479  0.87025  Biso   1.000  N
  O219     1.0000 0.61771  0.22928  0.78675  Biso   1.000  O
  N75      1.0000 0.73616  0.18478  0.87020  Biso   1.000  N
  O220     1.0000 0.61776  0.22927  0.78670  Biso   1.000  O
  N76      1.0000 0.73618  0.18485  0.87025  Biso   1.000  N
  O221     1.0000 0.61778  0.22934  0.78675  Biso   1.000  O
  N77      1.0000 0.73616  0.18484  0.87020  Biso   1.000  N
  O222     1.0000 0.61776  0.22934  0.78670  Biso   1.000  O
  C1401    1.0000 0.53040  0.84845  0.36892  Biso   1.000  C
  H989     1.0000 0.53836  0.92427  0.45852  Biso   1.000  H
  C1402    1.0000 0.53034  0.84845  0.36892  Biso   1.000  C
  C1403    1.0000 0.67118  0.79298  0.35994  Biso   1.000  C
  H990     1.0000 0.78817  0.82589  0.44254  Biso   1.000  H
  C1404    1.0000 0.67110  0.79291  0.35989  Biso   1.000  C
  H991     1.0000 0.78815  0.82582  0.44249  Biso   1.000  H
  C1405    1.0000 0.67112  0.79298  0.35994  Biso   1.000  C
  C1406    1.0000 0.67116  0.79297  0.35989  Biso   1.000  C
  H992     1.0000 0.78815  0.82588  0.44249  Biso   1.000  H
  C1407    1.0000 0.85510  0.49553  0.46933  Biso   1.000  C
  H993     1.0000 0.94536  0.53129  0.56583  Biso   1.000  H
  C1408    1.0000 0.85502  0.49553  0.46928  Biso   1.000  C
  C1409    1.0000 0.85504  0.49559  0.46933  Biso   1.000  C
  C1410    1.0000 0.85502  0.49559  0.46928  Biso   1.000  C
  C1411    1.0000 0.73029  0.58456  0.43173  Biso   1.000  C
  H994     1.0000 0.72386  0.68905  0.49915  Biso   1.000  H
  C1412    1.0000 0.73023  0.58456  0.43173  Biso   1.000  C
  H995     1.0000 0.72384  0.68904  0.49910  Biso   1.000  H
  H996     1.0000 0.72386  0.68911  0.49915  Biso   1.000  H
  H997     1.0000 0.72385  0.68911  0.49910  Biso   1.000  H
  O223     1.0000 0.77633  0.62354  0.95405  Biso   1.000  O
  O224     1.0000 0.77625  0.62353  0.95400  Biso   1.000  O
  O225     1.0000 0.77626  0.62354  0.95405  Biso   1.000  O
  C1413    1.0000 0.59421  0.70691  0.84624  Biso   1.000  C
  H998     1.0000 0.62279  0.57984  0.87154  Biso   1.000  H
  C1414    1.0000 0.57654  0.57573  0.76765  Biso   1.000  C
  C1415    1.0000 0.59414  0.70691  0.84624  Biso   1.000  C
  H999     1.0000 0.62271  0.57977  0.87149  Biso   1.000  H
  C1416    1.0000 0.57645  0.57566  0.76760  Biso   1.000  C
  C1417    1.0000 0.57648  0.57573  0.76765  Biso   1.000  C
  H1000    1.0000 0.62278  0.57983  0.87149  Biso   1.000  H
  C1418    1.0000 0.57646  0.57572  0.76760  Biso   1.000  C
  O226     1.0000 0.95179  0.74410  0.00440  Biso   1.000  O
  O227     1.0000 0.95177  0.74410  0.00435  Biso   1.000  O
  N78      1.0000 0.02532  0.63179  0.97632  Biso   1.000  N
  N79      1.0000 0.02526  0.63179  0.97632  Biso   1.000  N
  N80      1.0000 0.02526  0.63185  0.97632  Biso   1.000  N
  C1419    1.0000 0.51313  0.10443  0.23867  Biso   1.000  C
  C1420    1.0000 0.44462  0.24060  0.20310  Biso   1.000  C
  C1421    1.0000 0.44461  0.24060  0.20305  Biso   1.000  C
  C1422    1.0000 0.44469  0.24066  0.20310  Biso   1.000  C
  C1423    1.0000 0.44461  0.24066  0.20305  Biso   1.000  C
  C1424    1.0000 0.42960  0.98408  0.10070  Biso   1.000  C
  C1425    1.0000 0.42958  0.98407  0.10065  Biso   1.000  C
  C1426    1.0000 0.42960  0.98414  0.10070  Biso   1.000  C
  C1427    1.0000 0.42958  0.98413  0.10065  Biso   1.000  C
  C1428    1.0000 0.36945  0.37831  0.16520  Biso   1.000  C
  C1429    1.0000 0.36943  0.37830  0.16515  Biso   1.000  C
  C1430    1.0000 0.36937  0.37830  0.16515  Biso   1.000  C
  C1431    1.0000 0.26106  0.31222  0.00991  Biso   1.000  C
  C1432    1.0000 0.26104  0.31216  0.00986  Biso   1.000  C
  C1433    1.0000 0.26098  0.31222  0.00986  Biso   1.000  C
  C1434    1.0000 0.54213  0.86429  0.88092  Biso   1.000  C
  C1435    1.0000 0.55551  0.75952  0.79692  Biso   1.000  C
  C1436    1.0000 0.54207  0.86429  0.88092  Biso   1.000  C
  C1437    1.0000 0.55545  0.75952  0.79692  Biso   1.000  C
  C1438    1.0000 0.54207  0.86436  0.88092  Biso   1.000  C
  C1439    1.0000 0.37462  0.90458  0.64754  Biso   1.000  C
  H1001    1.0000 0.47402  0.81561  0.67304  Biso   1.000  H
  H1002    1.0000 0.38252  0.80148  0.70772  Biso   1.000  H
  C1440    1.0000 0.37454  0.90458  0.64749  Biso   1.000  C
  H1003    1.0000 0.47393  0.81561  0.67299  Biso   1.000  H
  H1004    1.0000 0.38246  0.80148  0.70772  Biso   1.000  H
  C1441    1.0000 0.37456  0.90458  0.64754  Biso   1.000  C
  H1005    1.0000 0.47395  0.81561  0.67304  Biso   1.000  H
  C1442    1.0000 0.57041  0.01604  0.89932  Biso   1.000  C
  C1443    1.0000 0.57047  0.01598  0.89932  Biso   1.000  C
  C1444    1.0000 0.57048  0.01604  0.89932  Biso   1.000  C
  C1445    1.0000 0.76432  0.26594  0.90295  Biso   1.000  C
  C1446    1.0000 0.76437  0.26593  0.90290  Biso   1.000  C
  C1447    1.0000 0.76439  0.26594  0.90295  Biso   1.000  C
  C1448    1.0000 0.57831  0.80112  0.33335  Biso   1.000  C
  H1006    1.0000 0.45845  0.85477  0.34833  Biso   1.000  H
  C1449    1.0000 0.57823  0.80111  0.33330  Biso   1.000  C
  C1450    1.0000 0.57825  0.80118  0.33335  Biso   1.000  C
  C1451    1.0000 0.57823  0.80118  0.33330  Biso   1.000  C
  H1007    1.0000 0.70815  0.75633  0.33240  Biso   1.000  H
  H1008    1.0000 0.70815  0.75639  0.33240  Biso   1.000  H
  C1452    1.0000 0.77746  0.51475  0.42091  Biso   1.000  C
  H1009    1.0000 0.89170  0.44156  0.46105  Biso   1.000  H
  C1453    1.0000 0.77740  0.51475  0.42091  Biso   1.000  C
  H1010    1.0000 0.89162  0.44156  0.46100  Biso   1.000  H
  H1011    1.0000 0.89164  0.44156  0.46105  Biso   1.000  H
  H1012    1.0000 0.67015  0.59937  0.39422  Biso   1.000  H
  C1454    1.0000 0.73908  0.68789  0.99011  Biso   1.000  C
  C1455    1.0000 0.73908  0.68796  0.99011  Biso   1.000  C
  C1456    1.0000 0.60693  0.73290  0.91282  Biso   1.000  C
  C1457    1.0000 0.60686  0.73290  0.91282  Biso   1.000  C
  C1458    1.0000 0.60686  0.73296  0.91282  Biso   1.000  C
  H1013    1.0000 0.60706  0.51771  0.76011  Biso   1.000  H
  H1014    1.0000 0.58089  0.61638  0.72945  Biso   1.000  H
  C1459    1.0000 0.47459  0.55609  0.76254  Biso   1.000  C
  H1015    1.0000 0.58081  0.61638  0.72940  Biso   1.000  H
  C1460    1.0000 0.47457  0.55608  0.76249  Biso   1.000  C
  H1016    1.0000 0.58083  0.61644  0.72945  Biso   1.000  H
  H1017    1.0000 0.58088  0.61638  0.72940  Biso   1.000  H
  C1461    1.0000 0.11144  0.64668  0.02499  Biso   1.000  C
  C1462    1.0000 0.11150  0.64668  0.02499  Biso   1.000  C
  C1463    1.0000 0.11151  0.64675  0.02499  Biso   1.000  C
  C1464    1.0000 0.57143  0.15292  0.30362  Biso   1.000  C
  H1018    1.0000 0.56063  0.06742  0.22141  Biso   1.000  H
  C1465    1.0000 0.43961  0.04410  0.25058  Biso   1.000  C
  C1466    1.0000 0.57148  0.15292  0.30357  Biso   1.000  C
  H1019    1.0000 0.56067  0.06741  0.22136  Biso   1.000  H
  C1467    1.0000 0.43967  0.04410  0.25058  Biso   1.000  C
  C1468    1.0000 0.57150  0.15292  0.30362  Biso   1.000  C
  H1020    1.0000 0.56069  0.06742  0.22141  Biso   1.000  H
  C1469    1.0000 0.43968  0.04416  0.25058  Biso   1.000  C
  C1470    1.0000 0.57141  0.15292  0.30357  Biso   1.000  C
  H1021    1.0000 0.56061  0.06741  0.22136  Biso   1.000  H
  C1471    1.0000 0.43961  0.04416  0.25058  Biso   1.000  C
  H1022    1.0000 0.45453  0.26075  0.25460  Biso   1.000  H
  H1023    1.0000 0.45451  0.26075  0.25455  Biso   1.000  H
  H1024    1.0000 0.43449  0.93881  0.06180  Biso   1.000  H
  O228     1.0000 0.45527  0.94851  0.16138  Biso   1.000  O
  H1025    1.0000 0.43447  0.93881  0.06176  Biso   1.000  H
  H1026    1.0000 0.36001  0.00088  0.09207  Biso   1.000  H
  H1027    1.0000 0.36007  0.00094  0.09207  Biso   1.000  H
  H1028    1.0000 0.36001  0.00094  0.09207  Biso   1.000  H
  C1472    1.0000 0.26915  0.35808  0.16530  Biso   1.000  C
  H1029    1.0000 0.37734  0.42028  0.12848  Biso   1.000  H
  C1473    1.0000 0.42360  0.42439  0.23237  Biso   1.000  C
  C1474    1.0000 0.26914  0.35808  0.16525  Biso   1.000  C
  C1475    1.0000 0.42366  0.42439  0.23237  Biso   1.000  C
  C1476    1.0000 0.26916  0.35815  0.16530  Biso   1.000  C
  H1030    1.0000 0.37735  0.42034  0.12848  Biso   1.000  H
  C1477    1.0000 0.42366  0.42445  0.23237  Biso   1.000  C
  C1478    1.0000 0.26907  0.35814  0.16525  Biso   1.000  C
  H1031    1.0000 0.37728  0.42034  0.12848  Biso   1.000  H
  C1479    1.0000 0.42360  0.42445  0.23237  Biso   1.000  C
  H1032    1.0000 0.24368  0.32413  0.95802  Biso   1.000  H
  H1033    1.0000 0.24361  0.32413  0.95802  Biso   1.000  H
  O229     1.0000 0.22381  0.37658  0.04598  Biso   1.000  O
  H1034    1.0000 0.23321  0.25098  0.01537  Biso   1.000  H
  O230     1.0000 0.22388  0.37664  0.04598  Biso   1.000  O
  O231     1.0000 0.22381  0.37664  0.04598  Biso   1.000  O
  C1480    1.0000 0.58082  0.81163  0.93023  Biso   1.000  C
  O232     1.0000 0.51548  0.94143  0.90002  Biso   1.000  O
  C1481    1.0000 0.58076  0.81163  0.93023  Biso   1.000  C
  H1035    1.0000 0.54561  0.73937  0.74543  Biso   1.000  H
  H1036    1.0000 0.54554  0.73937  0.74543  Biso   1.000  H
  H1037    1.0000 0.54554  0.73943  0.74543  Biso   1.000  H
  C1482    1.0000 0.33706  0.85948  0.57952  Biso   1.000  C
  H1038    1.0000 0.31893  0.92578  0.66535  Biso   1.000  H
  H1039    1.0000 0.41829  0.95781  0.64451  Biso   1.000  H
  H1040    1.0000 0.31884  0.92578  0.66530  Biso   1.000  H
  H1041    1.0000 0.41822  0.95775  0.64451  Biso   1.000  H
  H1042    1.0000 0.31886  0.92578  0.66535  Biso   1.000  H
  H1043    1.0000 0.41822  0.95781  0.64451  Biso   1.000  H
  H1044    1.0000 0.64013  0.99924  0.90796  Biso   1.000  H
  H1045    1.0000 0.64005  0.99923  0.90791  Biso   1.000  H
  H1046    1.0000 0.64007  0.99924  0.90796  Biso   1.000  H
  H1047    1.0000 0.56552  0.06130  0.93822  Biso   1.000  H
  H1048    1.0000 0.56559  0.06130  0.93822  Biso   1.000  H
  C1483    1.0000 0.70913  0.33392  0.89615  Biso   1.000  C
  C1484    1.0000 0.85403  0.27573  0.94244  Biso   1.000  C
  C1485    1.0000 0.70911  0.33392  0.89610  Biso   1.000  C
  C1486    1.0000 0.85409  0.27573  0.94244  Biso   1.000  C
  C1487    1.0000 0.70920  0.33392  0.89615  Biso   1.000  C
  C1488    1.0000 0.70918  0.33392  0.89610  Biso   1.000  C
  H1049    1.0000 0.54337  0.77087  0.28532  Biso   1.000  H
  H1050    1.0000 0.54330  0.77087  0.28532  Biso   1.000  H
  H1051    1.0000 0.75409  0.47566  0.37522  Biso   1.000  H
  H1052    1.0000 0.75402  0.47566  0.37522  Biso   1.000  H
  H1053    1.0000 0.76693  0.74913  0.98466  Biso   1.000  H
  O233     1.0000 0.64234  0.68399  0.96496  Biso   1.000  O
  H1054    1.0000 0.76685  0.74913  0.98461  Biso   1.000  H
  O234     1.0000 0.64225  0.68399  0.96491  Biso   1.000  O
  H1055    1.0000 0.76686  0.74913  0.98466  Biso   1.000  H
  O235     1.0000 0.64227  0.68405  0.96496  Biso   1.000  O
  O236     1.0000 0.64226  0.68405  0.96491  Biso   1.000  O
  H1056    1.0000 0.75640  0.67599  0.04201  Biso   1.000  H
  H1057    1.0000 0.75638  0.67598  0.04196  Biso   1.000  H
  H1058    1.0000 0.75640  0.67605  0.04201  Biso   1.000  H
  H1059    1.0000 0.44448  0.61407  0.77103  Biso   1.000  H
  H1060    1.0000 0.44001  0.52782  0.71372  Biso   1.000  H
  C1489    1.0000 0.46248  0.49712  0.81325  Biso   1.000  C
  H1061    1.0000 0.43994  0.52776  0.71372  Biso   1.000  H
  C1490    1.0000 0.46247  0.49711  0.81320  Biso   1.000  C
  H1062    1.0000 0.44448  0.61413  0.77103  Biso   1.000  H
  H1063    1.0000 0.43995  0.52782  0.71372  Biso   1.000  H
  C1491    1.0000 0.16656  0.57870  0.03179  Biso   1.000  C
  C1492    1.0000 0.14598  0.72439  0.05759  Biso   1.000  C
  C1493    1.0000 0.14598  0.72445  0.05759  Biso   1.000  C
  C1494    1.0000 0.16663  0.57870  0.03179  Biso   1.000  C
  C1495    1.0000 0.62552  0.09553  0.35248  Biso   1.000  C
  H1064    1.0000 0.52612  0.18451  0.32698  Biso   1.000  H
  H1065    1.0000 0.61761  0.19864  0.29230  Biso   1.000  H
  C1496    1.0000 0.62558  0.09553  0.35248  Biso   1.000  C
  H1066    1.0000 0.52619  0.18451  0.32698  Biso   1.000  H
  H1067    1.0000 0.61766  0.19863  0.29225  Biso   1.000  H
  H1068    1.0000 0.52619  0.18457  0.32698  Biso   1.000  H
  H1069    1.0000 0.61768  0.19864  0.29230  Biso   1.000  H
  H1070    1.0000 0.52612  0.18457  0.32698  Biso   1.000  H
  H1071    1.0000 0.61760  0.19863  0.29225  Biso   1.000  H
  C1497    1.0000 0.41435  0.97002  0.21000  Biso   1.000  C
  C1498    1.0000 0.41439  0.97001  0.20995  Biso   1.000  C
  C1499    1.0000 0.41441  0.97002  0.21000  Biso   1.000  C
  C1500    1.0000 0.39745  0.06295  0.30019  Biso   1.000  C
  C1501    1.0000 0.39738  0.06295  0.30019  Biso   1.000  C
  C1502    1.0000 0.24367  0.34001  0.22200  Biso   1.000  C
  C1503    1.0000 0.20412  0.35412  0.10388  Biso   1.000  C
  C1504    1.0000 0.24365  0.34000  0.22195  Biso   1.000  C
  C1505    1.0000 0.24368  0.34007  0.22200  Biso   1.000  C
  C1506    1.0000 0.24359  0.34000  0.22195  Biso   1.000  C
  H1072    1.0000 0.39307  0.48241  0.23991  Biso   1.000  H
  H1073    1.0000 0.41924  0.38374  0.27057  Biso   1.000  H
  C1507    1.0000 0.52555  0.44403  0.23748  Biso   1.000  C
  H1074    1.0000 0.39306  0.48240  0.23986  Biso   1.000  H
  H1075    1.0000 0.39308  0.48247  0.23991  Biso   1.000  H
  H1076    1.0000 0.39299  0.48246  0.23986  Biso   1.000  H
  H1077    1.0000 0.41918  0.38374  0.27057  Biso   1.000  H
  C1508    1.0000 0.52549  0.44403  0.23748  Biso   1.000  C
  C1509    1.0000 0.58485  0.83972  0.00068  Biso   1.000  C
  C1510    1.0000 0.58485  0.83966  0.00068  Biso   1.000  C
  C1511    1.0000 0.58492  0.83972  0.00068  Biso   1.000  C
  C1512    1.0000 0.37895  0.87479  0.52991  Biso   1.000  C
  C1513    1.0000 0.26598  0.79838  0.56771  Biso   1.000  C
  C1514    1.0000 0.26592  0.79838  0.56771  Biso   1.000  C
  C1515    1.0000 0.74374  0.41163  0.92874  Biso   1.000  C
  H1078    1.0000 0.63974  0.32640  0.86564  Biso   1.000  H
  C1516    1.0000 0.74372  0.41162  0.92869  Biso   1.000  C
  C1517    1.0000 0.74378  0.41162  0.92869  Biso   1.000  C
  H1079    1.0000 0.63980  0.32640  0.86564  Biso   1.000  H
  C1518    1.0000 0.88857  0.35343  0.97503  Biso   1.000  C
  H1080    1.0000 0.89676  0.22302  0.94765  Biso   1.000  H
  H1081    1.0000 0.89674  0.22301  0.94760  Biso   1.000  H
  C1519    1.0000 0.47351  0.41158  0.80382  Biso   1.000  C
  C1520    1.0000 0.44033  0.52861  0.86985  Biso   1.000  C
  C1521    1.0000 0.47345  0.41158  0.80382  Biso   1.000  C
  C1522    1.0000 0.44024  0.52860  0.86980  Biso   1.000  C
  C1523    1.0000 0.47345  0.41164  0.80382  Biso   1.000  C
  C1524    1.0000 0.44026  0.52861  0.86985  Biso   1.000  C
  C1525    1.0000 0.25627  0.58849  0.07128  Biso   1.000  C
  H1082    1.0000 0.13987  0.51847  0.00659  Biso   1.000  H
  H1083    1.0000 0.13987  0.51854  0.00659  Biso   1.000  H
  C1526    1.0000 0.23568  0.73418  0.09708  Biso   1.000  C
  C1527    1.0000 0.23569  0.73424  0.09708  Biso   1.000  C
  H1084    1.0000 0.10325  0.77710  0.05238  Biso   1.000  H
  H1085    1.0000 0.10331  0.77710  0.05238  Biso   1.000  H
  C1528    1.0000 0.66307  0.14063  0.42050  Biso   1.000  C
  H1086    1.0000 0.68121  0.07433  0.33467  Biso   1.000  H
  H1087    1.0000 0.58185  0.04231  0.35551  Biso   1.000  H
  C1529    1.0000 0.66305  0.14063  0.42045  Biso   1.000  C
  H1088    1.0000 0.68127  0.07433  0.33467  Biso   1.000  H
  H1089    1.0000 0.58183  0.04230  0.35546  Biso   1.000  H
  H1090    1.0000 0.58185  0.04237  0.35551  Biso   1.000  H
  C1530    1.0000 0.66299  0.14063  0.42045  Biso   1.000  C
  H1091    1.0000 0.58184  0.04236  0.35546  Biso   1.000  H
  C1531    1.0000 0.34685  0.91485  0.21898  Biso   1.000  C
  C1532    1.0000 0.34691  0.91479  0.21898  Biso   1.000  C
  C1533    1.0000 0.34691  0.91485  0.21898  Biso   1.000  C
  C1534    1.0000 0.33004  0.00760  0.30927  Biso   1.000  C
  H1092    1.0000 0.41706  0.12026  0.33170  Biso   1.000  H
  C1535    1.0000 0.33005  0.00766  0.30927  Biso   1.000  C
  C1536    1.0000 0.32998  0.00766  0.30927  Biso   1.000  C
  H1093    1.0000 0.41700  0.12026  0.33170  Biso   1.000  H
  C1537    1.0000 0.15303  0.31791  0.21729  Biso   1.000  C
  H1094    1.0000 0.29406  0.34312  0.26958  Biso   1.000  H
  C1538    1.0000 0.15303  0.31797  0.21729  Biso   1.000  C
  H1095    1.0000 0.29399  0.34312  0.26958  Biso   1.000  H
  C1539    1.0000 0.11353  0.33201  0.09911  Biso   1.000  C
  C1540    1.0000 0.11351  0.33201  0.09906  Biso   1.000  C
  C1541    1.0000 0.11359  0.33201  0.09911  Biso   1.000  C
  H1096    1.0000 0.55566  0.38605  0.22900  Biso   1.000  H
  H1097    1.0000 0.56013  0.47230  0.28630  Biso   1.000  H
  C1542    1.0000 0.53765  0.50300  0.18678  Biso   1.000  C
  H1098    1.0000 0.55564  0.38598  0.22895  Biso   1.000  H
  H1099    1.0000 0.56017  0.47229  0.28625  Biso   1.000  H
  H1100    1.0000 0.56019  0.47236  0.28630  Biso   1.000  H
  C1543    1.0000 0.53766  0.50306  0.18678  Biso   1.000  C
  H1101    1.0000 0.55557  0.38605  0.22895  Biso   1.000  H
  H1102    1.0000 0.56011  0.47236  0.28625  Biso   1.000  H
  C1544    1.0000 0.53759  0.50300  0.18678  Biso   1.000  C
  N81      1.0000 0.66868  0.87318  0.03888  Biso   1.000  N
  O237     1.0000 0.51994  0.82482  0.02241  Biso   1.000  O
  O238     1.0000 0.51999  0.82482  0.02236  Biso   1.000  O
  N82      1.0000 0.66868  0.87325  0.03888  Biso   1.000  N
  O239     1.0000 0.52001  0.82482  0.02241  Biso   1.000  O
  C1545    1.0000 0.34987  0.82888  0.46864  Biso   1.000  C
  H1103    1.0000 0.43397  0.92210  0.53914  Biso   1.000  H
  C1546    1.0000 0.34985  0.82887  0.46859  Biso   1.000  C
  H1104    1.0000 0.43396  0.92209  0.53909  Biso   1.000  H
  C1547    1.0000 0.23690  0.75247  0.50644  Biso   1.000  C
  H1105    1.0000 0.23347  0.78660  0.60611  Biso   1.000  H
  C1548    1.0000 0.23682  0.75247  0.50639  Biso   1.000  C
  H1106    1.0000 0.23341  0.78660  0.60611  Biso   1.000  H
  C1549    1.0000 0.23684  0.75247  0.50644  Biso   1.000  C
  C1550    1.0000 0.83344  0.42142  0.96824  Biso   1.000  C
  C1551    1.0000 0.83351  0.42142  0.96824  Biso   1.000  C
  H1107    1.0000 0.70107  0.46434  0.92353  Biso   1.000  H
  N83      1.0000 0.97482  0.36833  0.02370  Biso   1.000  N
  N84      1.0000 0.97480  0.36826  0.02365  Biso   1.000  N
  N85      1.0000 0.97488  0.36833  0.02370  Biso   1.000  N
  N86      1.0000 0.97480  0.36832  0.02365  Biso   1.000  N
  C1552    1.0000 0.46224  0.35758  0.85095  Biso   1.000  C
  H1108    1.0000 0.49072  0.38727  0.76001  Biso   1.000  H
  C1553    1.0000 0.46216  0.35758  0.85090  Biso   1.000  C
  H1109    1.0000 0.49066  0.38727  0.76001  Biso   1.000  H
  C1554    1.0000 0.46218  0.35765  0.85095  Biso   1.000  C
  H1110    1.0000 0.49066  0.38733  0.76001  Biso   1.000  H
  C1555    1.0000 0.46216  0.35764  0.85090  Biso   1.000  C
  C1556    1.0000 0.42903  0.47461  0.91694  Biso   1.000  C
  H1111    1.0000 0.43180  0.59478  0.87715  Biso   1.000  H
  C1557    1.0000 0.42897  0.47461  0.91694  Biso   1.000  C
  H1112    1.0000 0.43171  0.59478  0.87710  Biso   1.000  H
  H1113    1.0000 0.43174  0.59484  0.87715  Biso   1.000  H
  H1114    1.0000 0.43178  0.59484  0.87710  Biso   1.000  H
  C1558    1.0000 0.29088  0.66620  0.10388  Biso   1.000  C
  H1115    1.0000 0.29894  0.53578  0.07649  Biso   1.000  H
  H1116    1.0000 0.29900  0.53578  0.07649  Biso   1.000  H
  H1117    1.0000 0.29900  0.53584  0.07649  Biso   1.000  H
  N87      1.0000 0.26389  0.81533  0.12977  Biso   1.000  N
  C1559    1.0000 0.62119  0.12533  0.47011  Biso   1.000  C
  C1560    1.0000 0.73415  0.20173  0.43231  Biso   1.000  C
  C1561    1.0000 0.62117  0.12533  0.47007  Biso   1.000  C
  C1562    1.0000 0.73414  0.20173  0.43226  Biso   1.000  C
  C1563    1.0000 0.62119  0.12539  0.47011  Biso   1.000  C
  C1564    1.0000 0.73416  0.20180  0.43231  Biso   1.000  C
  C1565    1.0000 0.62111  0.12539  0.47007  Biso   1.000  C
  C1566    1.0000 0.30468  0.93351  0.26859  Biso   1.000  C
  C1567    1.0000 0.33515  0.82724  0.18727  Biso   1.000  C
  C1568    1.0000 0.33521  0.82724  0.18727  Biso   1.000  C
  C1569    1.0000 0.30468  0.93357  0.26859  Biso   1.000  C
  C1570    1.0000 0.27636  0.02801  0.35958  Biso   1.000  C
  C1571    1.0000 0.27636  0.02808  0.35958  Biso   1.000  C
  C1572    1.0000 0.27629  0.02808  0.35958  Biso   1.000  C
  C1573    1.0000 0.12142  0.29613  0.27648  Biso   1.000  C
  C1574    1.0000 0.08803  0.31399  0.15577  Biso   1.000  C
  C1575    1.0000 0.12148  0.29613  0.27648  Biso   1.000  C
  C1576    1.0000 0.08803  0.31406  0.15577  Biso   1.000  C
  C1577    1.0000 0.04134  0.31448  0.03348  Biso   1.000  C
  C1578    1.0000 0.04135  0.31454  0.03348  Biso   1.000  C
  C1579    1.0000 0.04128  0.31454  0.03348  Biso   1.000  C
  C1580    1.0000 0.52662  0.58854  0.19620  Biso   1.000  C
  C1581    1.0000 0.55981  0.47151  0.13017  Biso   1.000  C
  C1582    1.0000 0.52667  0.58854  0.19616  Biso   1.000  C
  C1583    1.0000 0.52669  0.58854  0.19620  Biso   1.000  C
  C1584    1.0000 0.55988  0.47151  0.13017  Biso   1.000  C
  C1585    1.0000 0.52660  0.58854  0.19616  Biso   1.000  C
  C1586    1.0000 0.68998  0.89832  0.10641  Biso   1.000  C
  C1587    1.0000 0.68997  0.89832  0.10636  Biso   1.000  C
  C1588    1.0000 0.27892  0.76778  0.45683  Biso   1.000  C
  H1118    1.0000 0.38251  0.84066  0.43024  Biso   1.000  H
  C1589    1.0000 0.27885  0.76778  0.45683  Biso   1.000  C
  H1119    1.0000 0.38243  0.84066  0.43019  Biso   1.000  H
  H1120    1.0000 0.38244  0.84066  0.43024  Biso   1.000  H
  H1121    1.0000 0.18188  0.70516  0.49722  Biso   1.000  H
  H1122    1.0000 0.18181  0.70516  0.49722  Biso   1.000  H
  H1123    1.0000 0.86014  0.48164  0.99344  Biso   1.000  H
  H1124    1.0000 0.86020  0.48164  0.99344  Biso   1.000  H
  C1590    1.0000 0.44002  0.38913  0.90756  Biso   1.000  C
  H1125    1.0000 0.47083  0.29141  0.84366  Biso   1.000  H
  C1591    1.0000 0.43994  0.38913  0.90751  Biso   1.000  C
  H1126    1.0000 0.47075  0.29140  0.84361  Biso   1.000  H
  C1592    1.0000 0.43995  0.38913  0.90756  Biso   1.000  C
  H1127    1.0000 0.47077  0.29141  0.84366  Biso   1.000  H
  C1593    1.0000 0.44000  0.38913  0.90751  Biso   1.000  C
  H1128    1.0000 0.41183  0.49904  0.96074  Biso   1.000  H
  H1129    1.0000 0.41175  0.49903  0.96069  Biso   1.000  H
  H1130    1.0000 0.41176  0.49904  0.96074  Biso   1.000  H
  H1131    1.0000 0.36027  0.67372  0.13439  Biso   1.000  H
  H1132    1.0000 0.36033  0.67372  0.13439  Biso   1.000  H
  C1594    1.0000 0.65027  0.17124  0.53139  Biso   1.000  C
  H1133    1.0000 0.56616  0.07802  0.46089  Biso   1.000  H
  C1595    1.0000 0.65027  0.17130  0.53139  Biso   1.000  C
  H1134    1.0000 0.56617  0.07808  0.46089  Biso   1.000  H
  C1596    1.0000 0.65021  0.17124  0.53139  Biso   1.000  C
  H1135    1.0000 0.56610  0.07808  0.46089  Biso   1.000  H
  C1597    1.0000 0.76324  0.24764  0.49358  Biso   1.000  C
  H1136    1.0000 0.76667  0.21352  0.39391  Biso   1.000  H
  H1137    1.0000 0.76665  0.21352  0.39386  Biso   1.000  H
  H1138    1.0000 0.76667  0.21358  0.39391  Biso   1.000  H
  H1139    1.0000 0.76659  0.21358  0.39386  Biso   1.000  H
  O240     1.0000 0.24079  0.87381  0.27851  Biso   1.000  O
  O241     1.0000 0.24077  0.87380  0.27846  Biso   1.000  O
  O242     1.0000 0.24079  0.87387  0.27851  Biso   1.000  O
  O243     1.0000 0.24078  0.87387  0.27846  Biso   1.000  O
  O244     1.0000 0.38230  0.77084  0.21327  Biso   1.000  O
  H1140    1.0000 0.25148  0.97296  0.37789  Biso   1.000  H
  H1141    1.0000 0.25154  0.97296  0.37789  Biso   1.000  H
  C1598    1.0000 0.33464  0.07186  0.42482  Biso   1.000  C
  C1599    1.0000 0.19476  0.07391  0.32272  Biso   1.000  C
  C1600    1.0000 0.33468  0.07185  0.42477  Biso   1.000  C
  C1601    1.0000 0.19474  0.07390  0.32267  Biso   1.000  C
  C1602    1.0000 0.33470  0.07186  0.42482  Biso   1.000  C
  C1603    1.0000 0.19477  0.07397  0.32272  Biso   1.000  C
  C1604    1.0000 0.33462  0.07185  0.42477  Biso   1.000  C
  C1605    1.0000 0.19468  0.07397  0.32267  Biso   1.000  C
  C1606    1.0000 0.12281  0.19942  0.28258  Biso   1.000  C
  H1142    1.0000 0.05161  0.31240  0.26680  Biso   1.000  H
  C1607    1.0000 0.17422  0.34476  0.34291  Biso   1.000  C
  C1608    1.0000 0.12287  0.19942  0.28258  Biso   1.000  C
  H1143    1.0000 0.05166  0.31239  0.26675  Biso   1.000  H
  C1609    1.0000 0.17427  0.34476  0.34286  Biso   1.000  C
  H1144    1.0000 0.05168  0.31246  0.26680  Biso   1.000  H
  C1610    1.0000 0.17429  0.34476  0.34291  Biso   1.000  C
  H1145    1.0000 0.05159  0.31245  0.26675  Biso   1.000  H
  C1611    1.0000 0.17420  0.34476  0.34286  Biso   1.000  C
  O245     1.0000 0.99626  0.29653  0.14927  Biso   1.000  O
  O246     1.0000 0.99619  0.29653  0.14927  Biso   1.000  O
  O247     1.0000 0.04829  0.25601  0.99562  Biso   1.000  O
  O248     1.0000 0.04822  0.25601  0.99562  Biso   1.000  O
  C1612    1.0000 0.53790  0.64253  0.14907  Biso   1.000  C
  H1146    1.0000 0.50941  0.61285  0.24001  Biso   1.000  H
  C1613    1.0000 0.53796  0.64253  0.14907  Biso   1.000  C
  H1147    1.0000 0.50946  0.61284  0.23996  Biso   1.000  H
  H1148    1.0000 0.50948  0.61285  0.24001  Biso   1.000  H
  H1149    1.0000 0.50940  0.61284  0.23996  Biso   1.000  H
  C1614    1.0000 0.57110  0.52551  0.08309  Biso   1.000  C
  H1150    1.0000 0.56834  0.40534  0.12288  Biso   1.000  H
  C1615    1.0000 0.57117  0.52551  0.08309  Biso   1.000  C
  H1151    1.0000 0.56834  0.40527  0.12288  Biso   1.000  H
  H1152    1.0000 0.56827  0.40534  0.12288  Biso   1.000  H
  C1616    1.0000 0.63485  0.88471  0.14808  Biso   1.000  C
  C1617    1.0000 0.77586  0.93859  0.13191  Biso   1.000  C
  C1618    1.0000 0.77584  0.93859  0.13186  Biso   1.000  C
  C1619    1.0000 0.77587  0.93865  0.13191  Biso   1.000  C
  C1620    1.0000 0.63492  0.88471  0.14808  Biso   1.000  C
  C1621    1.0000 0.77591  0.93865  0.13186  Biso   1.000  C
  H1153    1.0000 0.25639  0.73214  0.40935  Biso   1.000  H
  H1154    1.0000 0.25630  0.73214  0.40930  Biso   1.000  H
  H1155    1.0000 0.25632  0.73220  0.40935  Biso   1.000  H
  H1156    1.0000 0.25637  0.73214  0.40930  Biso   1.000  H
  H1157    1.0000 0.43132  0.34732  0.94402  Biso   1.000  H
  H1158    1.0000 0.43126  0.34732  0.94402  Biso   1.000  H
  C1622    1.0000 0.72122  0.23234  0.54319  Biso   1.000  C
  H1159    1.0000 0.61763  0.15945  0.56979  Biso   1.000  H
  C1623    1.0000 0.72129  0.23234  0.54319  Biso   1.000  C
  H1160    1.0000 0.61769  0.15945  0.56979  Biso   1.000  H
  C1624    1.0000 0.72129  0.23240  0.54319  Biso   1.000  C
  C1625    1.0000 0.72122  0.23240  0.54319  Biso   1.000  C
  H1161    1.0000 0.81826  0.29495  0.50281  Biso   1.000  H
  H1162    1.0000 0.81824  0.29495  0.50276  Biso   1.000  H
  C1626    1.0000 0.14900  0.89394  0.24319  Biso   1.000  C
  H1163    1.0000 0.35254  0.13483  0.41519  Biso   1.000  H
  H1164    1.0000 0.39573  0.03925  0.44347  Biso   1.000  H
  C1627    1.0000 0.28362  0.07657  0.47547  Biso   1.000  C
  H1165    1.0000 0.39579  0.03925  0.44347  Biso   1.000  H
  C1628    1.0000 0.28369  0.07657  0.47547  Biso   1.000  C
  C1629    1.0000 0.19721  0.16091  0.32098  Biso   1.000  C
  C1630    1.0000 0.11774  0.02553  0.28590  Biso   1.000  C
  C1631    1.0000 0.19727  0.16091  0.32098  Biso   1.000  C
  C1632    1.0000 0.11772  0.02553  0.28585  Biso   1.000  C
  C1633    1.0000 0.19727  0.16097  0.32098  Biso   1.000  C
  C1634    1.0000 0.19721  0.16097  0.32098  Biso   1.000  C
  C1635    1.0000 0.04591  0.15104  0.24577  Biso   1.000  C
  C1636    1.0000 0.04598  0.15104  0.24577  Biso   1.000  C
  H1166    1.0000 0.17534  0.41111  0.33661  Biso   1.000  H
  H1167    1.0000 0.24296  0.32485  0.35710  Biso   1.000  H
  C1637    1.0000 0.12802  0.32703  0.39798  Biso   1.000  C
  H1168    1.0000 0.17532  0.41110  0.33656  Biso   1.000  H
  C1638    1.0000 0.12809  0.32703  0.39798  Biso   1.000  C
  H1169    1.0000 0.17534  0.41117  0.33661  Biso   1.000  H
  H1170    1.0000 0.17532  0.41117  0.33656  Biso   1.000  H
  H1171    1.0000 0.24289  0.32485  0.35710  Biso   1.000  H
  C1639    1.0000 0.96766  0.21032  0.14679  Biso   1.000  C
  C1640    1.0000 0.96760  0.21032  0.14679  Biso   1.000  C
  C1641    1.0000 0.56012  0.61098  0.09247  Biso   1.000  C
  H1172    1.0000 0.52930  0.70871  0.15637  Biso   1.000  H
  H1173    1.0000 0.52937  0.70871  0.15637  Biso   1.000  H
  C1642    1.0000 0.56012  0.61105  0.09247  Biso   1.000  C
  H1174    1.0000 0.58831  0.50108  0.03928  Biso   1.000  H
  H1175    1.0000 0.58838  0.50114  0.03928  Biso   1.000  H
  H1176    1.0000 0.58831  0.50114  0.03928  Biso   1.000  H
  C1643    1.0000 0.66569  0.91145  0.21531  Biso   1.000  C
  H1177    1.0000 0.56825  0.85341  0.12838  Biso   1.000  H
  C1644    1.0000 0.66567  0.91144  0.21526  Biso   1.000  C
  H1178    1.0000 0.56832  0.85341  0.12838  Biso   1.000  H
  C1645    1.0000 0.80675  0.96544  0.19908  Biso   1.000  C
  C1646    1.0000 0.80681  0.96544  0.19908  Biso   1.000  C
  H1179    1.0000 0.81855  0.94920  0.09961  Biso   1.000  H
  H1180    1.0000 0.81859  0.94919  0.09956  Biso   1.000  H
  H1181    1.0000 0.81861  0.94920  0.09961  Biso   1.000  H
  H1182    1.0000 0.74375  0.26798  0.59067  Biso   1.000  H
  H1183    1.0000 0.10868  0.83634  0.22409  Biso   1.000  H
  H1184    1.0000 0.15138  0.93124  0.20251  Biso   1.000  H
  O249     1.0000 0.11068  0.93863  0.28799  Biso   1.000  O
  H1185    1.0000 0.15136  0.93123  0.20246  Biso   1.000  H
  H1186    1.0000 0.15142  0.93123  0.20246  Biso   1.000  H
  O250     1.0000 0.11074  0.93863  0.28799  Biso   1.000  O
  H1187    1.0000 0.22334  0.10987  0.45558  Biso   1.000  H
  H1188    1.0000 0.26437  0.01297  0.48242  Biso   1.000  H
  C1647    1.0000 0.33177  0.12064  0.54250  Biso   1.000  C
  H1189    1.0000 0.26435  0.01296  0.48237  Biso   1.000  H
  C1648    1.0000 0.33177  0.12070  0.54250  Biso   1.000  C
  C1649    1.0000 0.33171  0.12070  0.54250  Biso   1.000  C
  H1190    1.0000 0.25684  0.19833  0.34941  Biso   1.000  H
  H1191    1.0000 0.25682  0.19833  0.34936  Biso   1.000  H
  C1650    1.0000 0.04334  0.06404  0.24750  Biso   1.000  C
  C1651    1.0000 0.04332  0.06404  0.24745  Biso   1.000  C
  O251     1.0000 0.96802  0.18640  0.21039  Biso   1.000  O
  O252     1.0000 0.96808  0.18640  0.21039  Biso   1.000  O
  O253     1.0000 0.96808  0.18646  0.21039  Biso   1.000  O
  O254     1.0000 0.96802  0.18646  0.21039  Biso   1.000  O
  H1192    1.0000 0.13765  0.26265  0.40929  Biso   1.000  H
  H1193    1.0000 0.05646  0.33562  0.37818  Biso   1.000  H
  C1652    1.0000 0.16203  0.38427  0.46089  Biso   1.000  C
  C1653    1.0000 0.16209  0.38427  0.46089  Biso   1.000  C
  H1194    1.0000 0.05646  0.33568  0.37818  Biso   1.000  H
  H1195    1.0000 0.05640  0.33568  0.37818  Biso   1.000  H
  H1196    1.0000 0.89995  0.19919  0.11370  Biso   1.000  H
  H1197    1.0000 0.89993  0.19919  0.11365  Biso   1.000  H
  H1198    1.0000 0.89996  0.19925  0.11370  Biso   1.000  H
  H1199    1.0000 0.89987  0.19925  0.11365  Biso   1.000  H
  H1200    1.0000 0.01400  0.17279  0.12858  Biso   1.000  H
  H1201    1.0000 0.01406  0.17279  0.12858  Biso   1.000  H
  H1202    1.0000 0.01407  0.17286  0.12858  Biso   1.000  H
  H1203    1.0000 0.01400  0.17286  0.12858  Biso   1.000  H
  H1204    1.0000 0.56881  0.65279  0.05600  Biso   1.000  H
  H1205    1.0000 0.56886  0.65279  0.05595  Biso   1.000  H
  H1206    1.0000 0.56888  0.65279  0.05600  Biso   1.000  H
  H1207    1.0000 0.56880  0.65279  0.05595  Biso   1.000  H
  C1654    1.0000 0.75170  0.95184  0.24081  Biso   1.000  C
  C1655    1.0000 0.75168  0.95184  0.24076  Biso   1.000  C
  H1208    1.0000 0.62307  0.90090  0.24760  Biso   1.000  H
  H1209    1.0000 0.62305  0.90090  0.24755  Biso   1.000  H
  H1210    1.0000 0.62307  0.90097  0.24760  Biso   1.000  H
  H1211    1.0000 0.62312  0.90096  0.24755  Biso   1.000  H
  N88      1.0000 0.89334  0.01045  0.22979  Biso   1.000  N
  C1656    1.0000 0.42467  0.11249  0.56899  Biso   1.000  C
  C1657    1.0000 0.28397  0.16796  0.57802  Biso   1.000  C
  C1658    1.0000 0.42466  0.11243  0.56899  Biso   1.000  C
  C1659    1.0000 0.28395  0.16796  0.57797  Biso   1.000  C
  C1660    1.0000 0.42460  0.11249  0.56899  Biso   1.000  C
  C1661    1.0000 0.96512  0.01070  0.20439  Biso   1.000  C
  C1662    1.0000 0.96519  0.01077  0.20439  Biso   1.000  C
  C1663    1.0000 0.11475  0.45395  0.47160  Biso   1.000  C
  C1664    1.0000 0.23963  0.36504  0.50921  Biso   1.000  C
  C1665    1.0000 0.11473  0.45394  0.47155  Biso   1.000  C
  C1666    1.0000 0.23968  0.36504  0.50916  Biso   1.000  C
  C1667    1.0000 0.23970  0.36510  0.50921  Biso   1.000  C
  C1668    1.0000 0.23961  0.36504  0.50916  Biso   1.000  C
  H1212    1.0000 0.77556  0.97254  0.29280  Biso   1.000  H
  H1213    1.0000 0.77560  0.97253  0.29275  Biso   1.000  H
  H1214    1.0000 0.77562  0.97254  0.29280  Biso   1.000  H
  C1669    1.0000 0.46974  0.15167  0.63111  Biso   1.000  C
  H1215    1.0000 0.46178  0.07584  0.54151  Biso   1.000  H
  C1670    1.0000 0.46978  0.15167  0.63106  Biso   1.000  C
  H1216    1.0000 0.46176  0.07584  0.54146  Biso   1.000  H
  C1671    1.0000 0.46980  0.15167  0.63111  Biso   1.000  C
  H1217    1.0000 0.46179  0.07591  0.54151  Biso   1.000  H
  C1672    1.0000 0.46972  0.15167  0.63106  Biso   1.000  C
  H1218    1.0000 0.46170  0.07584  0.54146  Biso   1.000  H
  C1673    1.0000 0.32895  0.20714  0.64009  Biso   1.000  C
  H1219    1.0000 0.21197  0.17423  0.55748  Biso   1.000  H
  C1674    1.0000 0.32896  0.20720  0.64009  Biso   1.000  C
  H1220    1.0000 0.21197  0.17429  0.55748  Biso   1.000  H
  H1221    1.0000 0.21191  0.17429  0.55748  Biso   1.000  H
  O255     1.0000 0.96709  0.97833  0.15170  Biso   1.000  O
  O256     1.0000 0.96707  0.97833  0.15165  Biso   1.000  O
  C1675    1.0000 0.14503  0.50459  0.53069  Biso   1.000  C
  H1222    1.0000 0.05478  0.46882  0.43420  Biso   1.000  H
  C1676    1.0000 0.14510  0.50452  0.53069  Biso   1.000  C
  C1677    1.0000 0.14510  0.50459  0.53069  Biso   1.000  C
  H1223    1.0000 0.05478  0.46889  0.43420  Biso   1.000  H
  H1224    1.0000 0.05472  0.46889  0.43420  Biso   1.000  H
  C1678    1.0000 0.26985  0.41555  0.56830  Biso   1.000  C
  H1225    1.0000 0.27628  0.31107  0.50087  Biso   1.000  H
  H1226    1.0000 0.27621  0.31107  0.50087  Biso   1.000  H
  C1679    1.0000 0.42182  0.19900  0.66668  Biso   1.000  C
  H1227    1.0000 0.54169  0.14535  0.65170  Biso   1.000  H
  C1680    1.0000 0.42189  0.19894  0.66668  Biso   1.000  C
  C1681    1.0000 0.42189  0.19900  0.66668  Biso   1.000  C
  H1228    1.0000 0.54169  0.14541  0.65170  Biso   1.000  H
  H1229    1.0000 0.54163  0.14541  0.65170  Biso   1.000  H
  H1230    1.0000 0.29199  0.24379  0.66762  Biso   1.000  H
  H1231    1.0000 0.29197  0.24379  0.66757  Biso   1.000  H
  H1232    1.0000 0.29190  0.24379  0.66757  Biso   1.000  H
  C1682    1.0000 0.22268  0.48536  0.57911  Biso   1.000  C
  H1233    1.0000 0.10844  0.55855  0.53898  Biso   1.000  H
  C1683    1.0000 0.22266  0.48536  0.57906  Biso   1.000  C
  C1684    1.0000 0.22259  0.48536  0.57906  Biso   1.000  C
  H1234    1.0000 0.32999  0.40075  0.60580  Biso   1.000  H
  H1235    1.0000 0.32997  0.40074  0.60576  Biso   1.000  H
  H1236    1.0000 0.32999  0.40081  0.60580  Biso   1.000  H
  H1237    1.0000 0.32991  0.40081  0.60576  Biso   1.000  H
  H1238    1.0000 0.45677  0.22925  0.71470  Biso   1.000  H
  H1239    1.0000 0.45675  0.22925  0.71465  Biso   1.000  H
  H1240    1.0000 0.45677  0.22931  0.71470  Biso   1.000  H
  H1241    1.0000 0.45675  0.22931  0.71465  Biso   1.000  H
  H1242    1.0000 0.24605  0.52445  0.62481  Biso   1.000  H
  H1243    1.0000 0.24603  0.52445  0.62476  Biso   1.000  H
  H1244    1.0000 0.24612  0.52452  0.62481  Biso   1.000  H
  O257     1.0000 0.03292  0.02179  0.84832  Biso   1.000  O
  C1685    1.0000 0.03502  0.98941  0.79563  Biso   1.000  C
  C1686    1.0000 0.03495  0.98941  0.79563  Biso   1.000  C
  N89      1.0000 0.10680  0.98967  0.77023  Biso   1.000  N
  N90      1.0000 0.10674  0.98967  0.77023  Biso   1.000  N
  N91      1.0000 0.10674  0.98973  0.77023  Biso   1.000  N
  N92      1.0000 0.10681  0.98973  0.77023  Biso   1.000  N
  C1687    1.0000 0.95680  0.93608  0.75252  Biso   1.000  C
  C1688    1.0000 0.95673  0.93608  0.75252  Biso   1.000  C
  C1689    1.0000 0.95674  0.93614  0.75252  Biso   1.000  C
  O258     1.0000 0.03298  0.02179  0.84832  Biso   1.000  O
  O259     1.0000 0.03299  0.02185  0.84832  Biso   1.000  O
  C1690    1.0000 0.19326  0.03467  0.80094  Biso   1.000  C
  C1691    1.0000 0.19324  0.03467  0.80089  Biso   1.000  C
  C1692    1.0000 0.19326  0.03474  0.80094  Biso   1.000  C
  C1693    1.0000 0.19324  0.03473  0.80089  Biso   1.000  C
  C1694    1.0000 0.88240  0.97459  0.71412  Biso   1.000  C
  C1695    1.0000 0.95423  0.84908  0.75426  Biso   1.000  C
  C1696    1.0000 0.88233  0.97459  0.71412  Biso   1.000  C
  C1697    1.0000 0.95414  0.84907  0.75421  Biso   1.000  C
  C1698    1.0000 0.95416  0.84914  0.75426  Biso   1.000  C
  C1699    1.0000 0.95415  0.84914  0.75421  Biso   1.000  C
  C1700    1.0000 0.22414  0.06153  0.86812  Biso   1.000  C
  C1701    1.0000 0.24831  0.04827  0.75922  Biso   1.000  C
  C1702    1.0000 0.24837  0.04827  0.75922  Biso   1.000  C
  C1703    1.0000 0.24837  0.04834  0.75922  Biso   1.000  C
  C1704    1.0000 0.80537  0.92621  0.67731  Biso   1.000  C
  C1705    1.0000 0.80531  0.92621  0.67731  Biso   1.000  C
  O260     1.0000 0.88933  0.06149  0.71204  Biso   1.000  O
  O261     1.0000 0.88931  0.06149  0.71199  Biso   1.000  O
  O262     1.0000 0.88938  0.06149  0.71199  Biso   1.000  O
  C1706    1.0000 0.87733  0.80070  0.71745  Biso   1.000  C
  C1707    1.0000 0.87725  0.80069  0.71740  Biso   1.000  C
  C1708    1.0000 0.87727  0.80070  0.71745  Biso   1.000  C
  O263     1.0000 0.03212  0.81372  0.78963  Biso   1.000  O
  O264     1.0000 0.03206  0.81372  0.78963  Biso   1.000  O
  H1245    1.0000 0.18146  0.05092  0.90042  Biso   1.000  H
  C1709    1.0000 0.31002  0.10180  0.89362  Biso   1.000  C
  C1710    1.0000 0.31009  0.10180  0.89362  Biso   1.000  C
  H1246    1.0000 0.22445  0.02758  0.70722  Biso   1.000  H
  C1711    1.0000 0.33432  0.08867  0.78472  Biso   1.000  C
  C1712    1.0000 0.33432  0.08873  0.78472  Biso   1.000  C
  C1713    1.0000 0.33439  0.08873  0.78472  Biso   1.000  C
  C1714    1.0000 0.80293  0.83921  0.67905  Biso   1.000  C
  C1715    1.0000 0.72378  0.97210  0.64045  Biso   1.000  C
  C1716    1.0000 0.80285  0.83920  0.67900  Biso   1.000  C
  C1717    1.0000 0.72376  0.97210  0.64040  Biso   1.000  C
  C1718    1.0000 0.80287  0.83921  0.67905  Biso   1.000  C
  C1719    1.0000 0.85101  0.10618  0.75684  Biso   1.000  C
  C1720    1.0000 0.85107  0.10618  0.75684  Biso   1.000  C
  C1721    1.0000 0.85107  0.10624  0.75684  Biso   1.000  C
  C1722    1.0000 0.87872  0.70399  0.72355  Biso   1.000  C
  C1723    1.0000 0.87864  0.70399  0.72350  Biso   1.000  C
  C1724    1.0000 0.87866  0.70399  0.72355  Biso   1.000  C
  C1725    1.0000 0.03248  0.78979  0.85323  Biso   1.000  C
  C1726    1.0000 0.03248  0.78985  0.85323  Biso   1.000  C
  N93      1.0000 0.33133  0.12693  0.96114  Biso   1.000  N
  C1727    1.0000 0.36515  0.11540  0.85194  Biso   1.000  C
  N94      1.0000 0.33138  0.12693  0.96109  Biso   1.000  N
  C1728    1.0000 0.36513  0.11540  0.85189  Biso   1.000  C
  N95      1.0000 0.33139  0.12693  0.96114  Biso   1.000  N
  H1247    1.0000 0.37694  0.09921  0.75242  Biso   1.000  H
  H1248    1.0000 0.74330  0.80179  0.65062  Biso   1.000  H
  H1249    1.0000 0.74323  0.80179  0.65062  Biso   1.000  H
  C1729    1.0000 0.67009  0.99252  0.69075  Biso   1.000  C
  C1730    1.0000 0.66550  0.92826  0.57521  Biso   1.000  C
  C1731    1.0000 0.67001  0.99245  0.69070  Biso   1.000  C
  C1732    1.0000 0.66543  0.92826  0.57521  Biso   1.000  C
  C1733    1.0000 0.67003  0.99252  0.69075  Biso   1.000  C
  C1734    1.0000 0.67008  0.99251  0.69070  Biso   1.000  C
  H1250    1.0000 0.74853  0.02716  0.62214  Biso   1.000  H
  H1251    1.0000 0.74851  0.02715  0.62209  Biso   1.000  H
  H1252    1.0000 0.74853  0.02722  0.62214  Biso   1.000  H
  H1253    1.0000 0.74858  0.02721  0.62209  Biso   1.000  H
  O265     1.0000 0.75922  0.12631  0.72151  Biso   1.000  O
  H1254    1.0000 0.89133  0.16378  0.77594  Biso   1.000  H
  H1255    1.0000 0.84863  0.06888  0.79752  Biso   1.000  H
  H1256    1.0000 0.89131  0.16377  0.77589  Biso   1.000  H
  H1257    1.0000 0.89133  0.16384  0.77594  Biso   1.000  H
  H1258    1.0000 0.84863  0.06894  0.79752  Biso   1.000  H
  O266     1.0000 0.75928  0.12631  0.72151  Biso   1.000  O
  H1259    1.0000 0.89138  0.16383  0.77589  Biso   1.000  H
  H1260    1.0000 0.84870  0.06894  0.79752  Biso   1.000  H
  H1261    1.0000 0.94853  0.68772  0.73322  Biso   1.000  H
  C1735    1.0000 0.82592  0.65535  0.65712  Biso   1.000  C
  C1736    1.0000 0.84711  0.68221  0.78273  Biso   1.000  C
  H1262    1.0000 0.94846  0.68766  0.73322  Biso   1.000  H
  C1737    1.0000 0.82585  0.65535  0.65712  Biso   1.000  C
  C1738    1.0000 0.84704  0.68221  0.78273  Biso   1.000  C
  H1263    1.0000 0.94846  0.68772  0.73322  Biso   1.000  H
  C1739    1.0000 0.82585  0.65542  0.65712  Biso   1.000  C
  H1264    1.0000 0.98614  0.82732  0.87144  Biso   1.000  H
  H1265    1.0000 0.98606  0.82732  0.87139  Biso   1.000  H
  H1266    1.0000 0.98607  0.82732  0.87144  Biso   1.000  H
  O267     1.0000 0.00388  0.70359  0.85075  Biso   1.000  O
  H1267    1.0000 0.10019  0.80093  0.88633  Biso   1.000  H
  O268     1.0000 0.00386  0.70358  0.85070  Biso   1.000  O
  O269     1.0000 0.00388  0.70365  0.85075  Biso   1.000  O
  O270     1.0000 0.00386  0.70364  0.85070  Biso   1.000  O
  C1740    1.0000 0.41516  0.16040  0.99934  Biso   1.000  C
  C1741    1.0000 0.41514  0.16039  0.99929  Biso   1.000  C
  C1742    1.0000 0.41516  0.16046  0.99934  Biso   1.000  C
  C1743    1.0000 0.41514  0.16045  0.99929  Biso   1.000  C
  H1268    1.0000 0.43176  0.14671  0.87164  Biso   1.000  H
  H1269    1.0000 0.43174  0.14670  0.87159  Biso   1.000  H
  C1744    1.0000 0.60269  0.93717  0.69983  Biso   1.000  C
  C1745    1.0000 0.60262  0.93717  0.69983  Biso   1.000  C
  C1746    1.0000 0.60263  0.93723  0.69983  Biso   1.000  C
  C1747    1.0000 0.60269  0.93723  0.69983  Biso   1.000  C
  C1748    1.0000 0.69533  0.06661  0.73144  Biso   1.000  C
  C1749    1.0000 0.69539  0.06661  0.73144  Biso   1.000  C
  H1270    1.0000 0.64760  0.86528  0.58483  Biso   1.000  H
  H1271    1.0000 0.60441  0.96087  0.55655  Biso   1.000  H
  C1750    1.0000 0.71652  0.92355  0.52455  Biso   1.000  C
  H1272    1.0000 0.64753  0.86528  0.58483  Biso   1.000  H
  H1273    1.0000 0.60433  0.96086  0.55650  Biso   1.000  H
  C1751    1.0000 0.71643  0.92354  0.52450  Biso   1.000  C
  H1274    1.0000 0.60435  0.96087  0.55655  Biso   1.000  H
  C1752    1.0000 0.71645  0.92361  0.52455  Biso   1.000  C
  C1753    1.0000 0.71644  0.92361  0.52450  Biso   1.000  C
  H1275    1.0000 0.82480  0.58901  0.66342  Biso   1.000  H
  H1276    1.0000 0.75718  0.67526  0.64293  Biso   1.000  H
  C1754    1.0000 0.87211  0.67308  0.60205  Biso   1.000  C
  H1277    1.0000 0.82473  0.58901  0.66342  Biso   1.000  H
  H1278    1.0000 0.75711  0.67526  0.64293  Biso   1.000  H
  C1755    1.0000 0.87203  0.67308  0.60200  Biso   1.000  C
  H1279    1.0000 0.75712  0.67533  0.64293  Biso   1.000  H
  C1756    1.0000 0.87205  0.67308  0.60205  Biso   1.000  C
  H1280    1.0000 0.75718  0.67533  0.64293  Biso   1.000  H
  C1757    1.0000 0.75646  0.66011  0.77802  Biso   1.000  C
  C1758    1.0000 0.91211  0.68612  0.84425  Biso   1.000  C
  C1759    1.0000 0.91203  0.68612  0.84420  Biso   1.000  C
  C1760    1.0000 0.91204  0.68612  0.84425  Biso   1.000  C
  C1761    1.0000 0.91209  0.68612  0.84420  Biso   1.000  C
  O271     1.0000 0.48007  0.17529  0.97761  Biso   1.000  O
  O272     1.0000 0.48007  0.17536  0.97761  Biso   1.000  O
  C1762    1.0000 0.41932  0.18849  0.06979  Biso   1.000  C
  C1763    1.0000 0.41938  0.18855  0.06979  Biso   1.000  C
  C1764    1.0000 0.56053  0.95602  0.74945  Biso   1.000  C
  H1281    1.0000 0.58308  0.87986  0.66833  Biso   1.000  H
  C1765    1.0000 0.56045  0.95602  0.74940  Biso   1.000  C
  C1766    1.0000 0.56046  0.95602  0.74945  Biso   1.000  C
  H1282    1.0000 0.58308  0.87992  0.66833  Biso   1.000  H
  C1767    1.0000 0.65316  0.08527  0.78105  Biso   1.000  C
  C1768    1.0000 0.65314  0.08526  0.78100  Biso   1.000  C
  C1769    1.0000 0.65316  0.08533  0.78105  Biso   1.000  C
  C1770    1.0000 0.65315  0.08533  0.78100  Biso   1.000  C
  H1283    1.0000 0.77680  0.89025  0.54445  Biso   1.000  H
  H1284    1.0000 0.73577  0.98715  0.51761  Biso   1.000  H
  C1771    1.0000 0.66837  0.87948  0.45753  Biso   1.000  C
  H1285    1.0000 0.77672  0.89024  0.54440  Biso   1.000  H
  H1286    1.0000 0.73571  0.98715  0.51761  Biso   1.000  H
  C1772    1.0000 0.66830  0.87948  0.45753  Biso   1.000  C
  H1287    1.0000 0.77674  0.89031  0.54445  Biso   1.000  H
  H1288    1.0000 0.73571  0.98721  0.51761  Biso   1.000  H
  H1289    1.0000 0.77672  0.89031  0.54440  Biso   1.000  H
  H1290    1.0000 0.86249  0.73746  0.59073  Biso   1.000  H
  H1291    1.0000 0.94368  0.66450  0.62184  Biso   1.000  H
  C1773    1.0000 0.83811  0.61585  0.53914  Biso   1.000  C
  H1292    1.0000 0.86241  0.73746  0.59069  Biso   1.000  H
  H1293    1.0000 0.94366  0.66449  0.62179  Biso   1.000  H
  C1774    1.0000 0.83803  0.61584  0.53909  Biso   1.000  C
  H1294    1.0000 0.86243  0.73746  0.59073  Biso   1.000  H
  C1775    1.0000 0.83805  0.61591  0.53914  Biso   1.000  C
  H1295    1.0000 0.86247  0.73746  0.59069  Biso   1.000  H
  C1776    1.0000 0.83803  0.61590  0.53909  Biso   1.000  C
  C1777    1.0000 0.73098  0.64203  0.83473  Biso   1.000  C
  H1296    1.0000 0.70608  0.65699  0.73044  Biso   1.000  H
  C1778    1.0000 0.73098  0.64197  0.83473  Biso   1.000  C
  H1297    1.0000 0.70606  0.65699  0.73039  Biso   1.000  H
  C1779    1.0000 0.88661  0.66811  0.90091  Biso   1.000  C
  C1780    1.0000 0.88655  0.66811  0.90091  Biso   1.000  C
  C1781    1.0000 0.45801  0.13582  0.11911  Biso   1.000  C
  C1782    1.0000 0.39321  0.26722  0.08721  Biso   1.000  C
  C1783    1.0000 0.45805  0.13582  0.11906  Biso   1.000  C
  C1784    1.0000 0.39326  0.26721  0.08716  Biso   1.000  C
  C1785    1.0000 0.45807  0.13582  0.11911  Biso   1.000  C
  C1786    1.0000 0.39328  0.26722  0.08721  Biso   1.000  C
  C1787    1.0000 0.45799  0.13582  0.11906  Biso   1.000  C
  C1788    1.0000 0.39319  0.26721  0.08716  Biso   1.000  C
  C1789    1.0000 0.48700  0.89569  0.76135  Biso   1.000  C
  C1790    1.0000 0.48692  0.89569  0.76130  Biso   1.000  C
  C1791    1.0000 0.48694  0.89569  0.76135  Biso   1.000  C
  C1792    1.0000 0.48699  0.89569  0.76130  Biso   1.000  C
  C1793    1.0000 0.58566  0.03010  0.79003  Biso   1.000  C
  C1794    1.0000 0.66486  0.17288  0.81275  Biso   1.000  C
  C1795    1.0000 0.66484  0.17288  0.81270  Biso   1.000  C
  C1796    1.0000 0.66486  0.17294  0.81275  Biso   1.000  C
  C1797    1.0000 0.66484  0.17294  0.81270  Biso   1.000  C
  C1798    1.0000 0.57547  0.88763  0.43103  Biso   1.000  C
  C1799    1.0000 0.71617  0.83216  0.42200  Biso   1.000  C
  C1800    1.0000 0.57539  0.88762  0.43098  Biso   1.000  C
  C1801    1.0000 0.71610  0.83216  0.42200  Biso   1.000  C
  C1802    1.0000 0.57541  0.88769  0.43103  Biso   1.000  C
  C1803    1.0000 0.57545  0.88769  0.43098  Biso   1.000  C
  C1804    1.0000 0.88539  0.54617  0.52842  Biso   1.000  C
  C1805    1.0000 0.76051  0.63508  0.49082  Biso   1.000  C
  C1806    1.0000 0.88532  0.54617  0.52842  Biso   1.000  C
  C1807    1.0000 0.76044  0.63508  0.49082  Biso   1.000  C
  C1808    1.0000 0.79601  0.64600  0.89615  Biso   1.000  C
  C1809    1.0000 0.63069  0.62181  0.83483  Biso   1.000  C
  C1810    1.0000 0.79593  0.64599  0.89610  Biso   1.000  C
  C1811    1.0000 0.63062  0.62181  0.83483  Biso   1.000  C
  C1812    1.0000 0.79595  0.64606  0.89615  Biso   1.000  C
  C1813    1.0000 0.79599  0.64599  0.89610  Biso   1.000  C
  C1814    1.0000 0.95879  0.68564  0.96655  Biso   1.000  C
  C1815    1.0000 0.95878  0.68563  0.96650  Biso   1.000  C
  C1816    1.0000 0.47073  0.16181  0.18569  Biso   1.000  C
  O273     1.0000 0.48466  0.05869  0.10001  Biso   1.000  O
  O274     1.0000 0.48464  0.05868  0.09996  Biso   1.000  O
  O275     1.0000 0.48466  0.05875  0.10001  Biso   1.000  O
  O276     1.0000 0.48458  0.05874  0.09996  Biso   1.000  O
  C1817    1.0000 0.40593  0.29320  0.15379  Biso   1.000  C
  O277     1.0000 0.35780  0.31613  0.03506  Biso   1.000  O
  O278     1.0000 0.35786  0.31606  0.03506  Biso   1.000  O
  O279     1.0000 0.35787  0.31613  0.03506  Biso   1.000  O
  C1818    1.0000 0.52941  0.83831  0.81434  Biso   1.000  C
  C1819    1.0000 0.42871  0.84719  0.69641  Biso   1.000  C
  H1298    1.0000 0.43951  0.93270  0.77862  Biso   1.000  H
  C1820    1.0000 0.52934  0.83831  0.81434  Biso   1.000  C
  C1821    1.0000 0.42864  0.84719  0.69641  Biso   1.000  C
  H1299    1.0000 0.43945  0.93270  0.77862  Biso   1.000  H
  O280     1.0000 0.54474  0.05160  0.83865  Biso   1.000  O
  O281     1.0000 0.54472  0.05160  0.83860  Biso   1.000  O
  O282     1.0000 0.54478  0.05160  0.83860  Biso   1.000  O
  N96      1.0000 0.73611  0.18479  0.87025  Biso   1.000  N
  O283     1.0000 0.61771  0.22928  0.78675  Biso   1.000  O
  N97      1.0000 0.73616  0.18478  0.87020  Biso   1.000  N
  O284     1.0000 0.61776  0.22927  0.78670  Biso   1.000  O
  N98      1.0000 0.73618  0.18485  0.87025  Biso   1.000  N
  O285     1.0000 0.61778  0.22934  0.78675  Biso   1.000  O
  N99      1.0000 0.73616  0.18484  0.87020  Biso   1.000  N
  O286     1.0000 0.61776  0.22934  0.78670  Biso   1.000  O
  C1822    1.0000 0.53040  0.84845  0.36892  Biso   1.000  C
  H1300    1.0000 0.53836  0.92427  0.45852  Biso   1.000  H
  C1823    1.0000 0.53034  0.84845  0.36892  Biso   1.000  C
  C1824    1.0000 0.67118  0.79298  0.35994  Biso   1.000  C
  H1301    1.0000 0.78817  0.82589  0.44254  Biso   1.000  H
  C1825    1.0000 0.67110  0.79291  0.35989  Biso   1.000  C
  H1302    1.0000 0.78815  0.82582  0.44249  Biso   1.000  H
  C1826    1.0000 0.67112  0.79298  0.35994  Biso   1.000  C
  C1827    1.0000 0.67116  0.79297  0.35989  Biso   1.000  C
  H1303    1.0000 0.78815  0.82588  0.44249  Biso   1.000  H
  C1828    1.0000 0.85510  0.49553  0.46933  Biso   1.000  C
  H1304    1.0000 0.94536  0.53129  0.56583  Biso   1.000  H
  C1829    1.0000 0.85502  0.49553  0.46928  Biso   1.000  C
  C1830    1.0000 0.85504  0.49559  0.46933  Biso   1.000  C
  C1831    1.0000 0.85502  0.49559  0.46928  Biso   1.000  C
  C1832    1.0000 0.73029  0.58456  0.43173  Biso   1.000  C
  H1305    1.0000 0.72386  0.68905  0.49915  Biso   1.000  H
  C1833    1.0000 0.73023  0.58456  0.43173  Biso   1.000  C
  H1306    1.0000 0.72384  0.68904  0.49910  Biso   1.000  H
  H1307    1.0000 0.72386  0.68911  0.49915  Biso   1.000  H
  H1308    1.0000 0.72385  0.68911  0.49910  Biso   1.000  H
  O287     1.0000 0.77633  0.62354  0.95405  Biso   1.000  O
  O288     1.0000 0.77625  0.62353  0.95400  Biso   1.000  O
  O289     1.0000 0.77626  0.62354  0.95405  Biso   1.000  O
  C1834    1.0000 0.59421  0.70691  0.84624  Biso   1.000  C
  H1309    1.0000 0.62279  0.57984  0.87154  Biso   1.000  H
  C1835    1.0000 0.57654  0.57573  0.76765  Biso   1.000  C
  C1836    1.0000 0.59414  0.70691  0.84624  Biso   1.000  C
  H1310    1.0000 0.62271  0.57977  0.87149  Biso   1.000  H
  C1837    1.0000 0.57645  0.57566  0.76760  Biso   1.000  C
  C1838    1.0000 0.57648  0.57573  0.76765  Biso   1.000  C
  H1311    1.0000 0.62278  0.57983  0.87149  Biso   1.000  H
  C1839    1.0000 0.57646  0.57572  0.76760  Biso   1.000  C
  O290     1.0000 0.95179  0.74410  0.00440  Biso   1.000  O
  O291     1.0000 0.95177  0.74410  0.00435  Biso   1.000  O
  N100     1.0000 0.02532  0.63179  0.97632  Biso   1.000  N
  N101     1.0000 0.02526  0.63179  0.97632  Biso   1.000  N
  N102     1.0000 0.02526  0.63185  0.97632  Biso   1.000  N
  C1840    1.0000 0.51313  0.10443  0.23867  Biso   1.000  C
  C1841    1.0000 0.44462  0.24060  0.20310  Biso   1.000  C
  C1842    1.0000 0.44461  0.24060  0.20305  Biso   1.000  C
  C1843    1.0000 0.44469  0.24066  0.20310  Biso   1.000  C
  C1844    1.0000 0.44461  0.24066  0.20305  Biso   1.000  C
  C1845    1.0000 0.42960  0.98408  0.10070  Biso   1.000  C
  C1846    1.0000 0.42958  0.98407  0.10065  Biso   1.000  C
  C1847    1.0000 0.42960  0.98414  0.10070  Biso   1.000  C
  C1848    1.0000 0.42958  0.98413  0.10065  Biso   1.000  C
  C1849    1.0000 0.36945  0.37831  0.16520  Biso   1.000  C
  C1850    1.0000 0.36943  0.37830  0.16515  Biso   1.000  C
  C1851    1.0000 0.36937  0.37830  0.16515  Biso   1.000  C
  C1852    1.0000 0.26106  0.31222  0.00991  Biso   1.000  C
  C1853    1.0000 0.26104  0.31216  0.00986  Biso   1.000  C
  C1854    1.0000 0.26098  0.31222  0.00986  Biso   1.000  C
  C1855    1.0000 0.54213  0.86429  0.88092  Biso   1.000  C
  C1856    1.0000 0.55551  0.75952  0.79692  Biso   1.000  C
  C1857    1.0000 0.54207  0.86429  0.88092  Biso   1.000  C
  C1858    1.0000 0.55545  0.75952  0.79692  Biso   1.000  C
  C1859    1.0000 0.54207  0.86436  0.88092  Biso   1.000  C
  C1860    1.0000 0.37462  0.90458  0.64754  Biso   1.000  C
  H1312    1.0000 0.47402  0.81561  0.67304  Biso   1.000  H
  H1313    1.0000 0.38252  0.80148  0.70772  Biso   1.000  H
  C1861    1.0000 0.37454  0.90458  0.64749  Biso   1.000  C
  H1314    1.0000 0.47393  0.81561  0.67299  Biso   1.000  H
  H1315    1.0000 0.38246  0.80148  0.70772  Biso   1.000  H
  C1862    1.0000 0.37456  0.90458  0.64754  Biso   1.000  C
  H1316    1.0000 0.47395  0.81561  0.67304  Biso   1.000  H
  C1863    1.0000 0.57041  0.01604  0.89932  Biso   1.000  C
  C1864    1.0000 0.57047  0.01598  0.89932  Biso   1.000  C
  C1865    1.0000 0.57048  0.01604  0.89932  Biso   1.000  C
  C1866    1.0000 0.76432  0.26594  0.90295  Biso   1.000  C
  C1867    1.0000 0.76437  0.26593  0.90290  Biso   1.000  C
  C1868    1.0000 0.76439  0.26594  0.90295  Biso   1.000  C
  C1869    1.0000 0.57831  0.80112  0.33335  Biso   1.000  C
  H1317    1.0000 0.45845  0.85477  0.34833  Biso   1.000  H
  C1870    1.0000 0.57823  0.80111  0.33330  Biso   1.000  C
  C1871    1.0000 0.57825  0.80118  0.33335  Biso   1.000  C
  C1872    1.0000 0.57823  0.80118  0.33330  Biso   1.000  C
  H1318    1.0000 0.70815  0.75633  0.33240  Biso   1.000  H
  H1319    1.0000 0.70815  0.75639  0.33240  Biso   1.000  H
  C1873    1.0000 0.77746  0.51475  0.42091  Biso   1.000  C
  H1320    1.0000 0.89170  0.44156  0.46105  Biso   1.000  H
  C1874    1.0000 0.77740  0.51475  0.42091  Biso   1.000  C
  H1321    1.0000 0.89162  0.44156  0.46100  Biso   1.000  H
  H1322    1.0000 0.89164  0.44156  0.46105  Biso   1.000  H
  H1323    1.0000 0.67015  0.59937  0.39422  Biso   1.000  H
  C1875    1.0000 0.73908  0.68789  0.99011  Biso   1.000  C
  C1876    1.0000 0.73908  0.68796  0.99011  Biso   1.000  C
  C1877    1.0000 0.60693  0.73290  0.91282  Biso   1.000  C
  C1878    1.0000 0.60686  0.73290  0.91282  Biso   1.000  C
  C1879    1.0000 0.60686  0.73296  0.91282  Biso   1.000  C
  H1324    1.0000 0.60706  0.51771  0.76011  Biso   1.000  H
  H1325    1.0000 0.58089  0.61638  0.72945  Biso   1.000  H
  C1880    1.0000 0.47459  0.55609  0.76254  Biso   1.000  C
  H1326    1.0000 0.58081  0.61638  0.72940  Biso   1.000  H
  C1881    1.0000 0.47457  0.55608  0.76249  Biso   1.000  C
  H1327    1.0000 0.58083  0.61644  0.72945  Biso   1.000  H
  H1328    1.0000 0.58088  0.61638  0.72940  Biso   1.000  H
  C1882    1.0000 0.11144  0.64668  0.02499  Biso   1.000  C
  C1883    1.0000 0.11150  0.64668  0.02499  Biso   1.000  C
  C1884    1.0000 0.11151  0.64675  0.02499  Biso   1.000  C
  C1885    1.0000 0.57143  0.15292  0.30362  Biso   1.000  C
  H1329    1.0000 0.56063  0.06742  0.22141  Biso   1.000  H
  C1886    1.0000 0.43961  0.04410  0.25058  Biso   1.000  C
  C1887    1.0000 0.57148  0.15292  0.30357  Biso   1.000  C
  H1330    1.0000 0.56067  0.06741  0.22136  Biso   1.000  H
  C1888    1.0000 0.43967  0.04410  0.25058  Biso   1.000  C
  C1889    1.0000 0.57150  0.15292  0.30362  Biso   1.000  C
  H1331    1.0000 0.56069  0.06742  0.22141  Biso   1.000  H
  C1890    1.0000 0.43968  0.04416  0.25058  Biso   1.000  C
  C1891    1.0000 0.57141  0.15292  0.30357  Biso   1.000  C
  H1332    1.0000 0.56061  0.06741  0.22136  Biso   1.000  H
  C1892    1.0000 0.43961  0.04416  0.25058  Biso   1.000  C
  H1333    1.0000 0.45453  0.26075  0.25460  Biso   1.000  H
  H1334    1.0000 0.45451  0.26075  0.25455  Biso   1.000  H
  H1335    1.0000 0.43449  0.93881  0.06180  Biso   1.000  H
  O292     1.0000 0.45527  0.94851  0.16138  Biso   1.000  O
  H1336    1.0000 0.43447  0.93881  0.06176  Biso   1.000  H
  H1337    1.0000 0.36001  0.00088  0.09207  Biso   1.000  H
  H1338    1.0000 0.36007  0.00094  0.09207  Biso   1.000  H
  H1339    1.0000 0.36001  0.00094  0.09207  Biso   1.000  H
  C1893    1.0000 0.26915  0.35808  0.16530  Biso   1.000  C
  H1340    1.0000 0.37734  0.42028  0.12848  Biso   1.000  H
  C1894    1.0000 0.42360  0.42439  0.23237  Biso   1.000  C
  C1895    1.0000 0.26914  0.35808  0.16525  Biso   1.000  C
  C1896    1.0000 0.42366  0.42439  0.23237  Biso   1.000  C
  C1897    1.0000 0.26916  0.35815  0.16530  Biso   1.000  C
  H1341    1.0000 0.37735  0.42034  0.12848  Biso   1.000  H
  C1898    1.0000 0.42366  0.42445  0.23237  Biso   1.000  C
  C1899    1.0000 0.26907  0.35814  0.16525  Biso   1.000  C
  H1342    1.0000 0.37728  0.42034  0.12848  Biso   1.000  H
  C1900    1.0000 0.42360  0.42445  0.23237  Biso   1.000  C
  H1343    1.0000 0.24368  0.32413  0.95802  Biso   1.000  H
  H1344    1.0000 0.24361  0.32413  0.95802  Biso   1.000  H
  O293     1.0000 0.22381  0.37658  0.04598  Biso   1.000  O
  H1345    1.0000 0.23321  0.25098  0.01537  Biso   1.000  H
  O294     1.0000 0.22388  0.37664  0.04598  Biso   1.000  O
  O295     1.0000 0.22381  0.37664  0.04598  Biso   1.000  O
  C1901    1.0000 0.58082  0.81163  0.93023  Biso   1.000  C
  O296     1.0000 0.51548  0.94143  0.90002  Biso   1.000  O
  C1902    1.0000 0.58076  0.81163  0.93023  Biso   1.000  C
  H1346    1.0000 0.54561  0.73937  0.74543  Biso   1.000  H
  H1347    1.0000 0.54554  0.73937  0.74543  Biso   1.000  H
  H1348    1.0000 0.54554  0.73943  0.74543  Biso   1.000  H
  C1903    1.0000 0.33706  0.85948  0.57952  Biso   1.000  C
  H1349    1.0000 0.31893  0.92578  0.66535  Biso   1.000  H
  H1350    1.0000 0.41829  0.95781  0.64451  Biso   1.000  H
  H1351    1.0000 0.31884  0.92578  0.66530  Biso   1.000  H
  H1352    1.0000 0.41822  0.95775  0.64451  Biso   1.000  H
  H1353    1.0000 0.31886  0.92578  0.66535  Biso   1.000  H
  H1354    1.0000 0.41822  0.95781  0.64451  Biso   1.000  H
  H1355    1.0000 0.64013  0.99924  0.90796  Biso   1.000  H
  H1356    1.0000 0.64005  0.99923  0.90791  Biso   1.000  H
  H1357    1.0000 0.64007  0.99924  0.90796  Biso   1.000  H
  H1358    1.0000 0.56552  0.06130  0.93822  Biso   1.000  H
  H1359    1.0000 0.56559  0.06130  0.93822  Biso   1.000  H
  C1904    1.0000 0.70913  0.33392  0.89615  Biso   1.000  C
  C1905    1.0000 0.85403  0.27573  0.94244  Biso   1.000  C
  C1906    1.0000 0.70911  0.33392  0.89610  Biso   1.000  C
  C1907    1.0000 0.85409  0.27573  0.94244  Biso   1.000  C
  C1908    1.0000 0.70920  0.33392  0.89615  Biso   1.000  C
  C1909    1.0000 0.70918  0.33392  0.89610  Biso   1.000  C
  H1360    1.0000 0.54337  0.77087  0.28532  Biso   1.000  H
  H1361    1.0000 0.54330  0.77087  0.28532  Biso   1.000  H
  H1362    1.0000 0.75409  0.47566  0.37522  Biso   1.000  H
  H1363    1.0000 0.75402  0.47566  0.37522  Biso   1.000  H
  H1364    1.0000 0.76693  0.74913  0.98466  Biso   1.000  H
  O297     1.0000 0.64234  0.68399  0.96496  Biso   1.000  O
  H1365    1.0000 0.76685  0.74913  0.98461  Biso   1.000  H
  O298     1.0000 0.64225  0.68399  0.96491  Biso   1.000  O
  H1366    1.0000 0.76686  0.74913  0.98466  Biso   1.000  H
  O299     1.0000 0.64227  0.68405  0.96496  Biso   1.000  O
  O300     1.0000 0.64226  0.68405  0.96491  Biso   1.000  O
  H1367    1.0000 0.75640  0.67599  0.04201  Biso   1.000  H
  H1368    1.0000 0.75638  0.67598  0.04196  Biso   1.000  H
  H1369    1.0000 0.75640  0.67605  0.04201  Biso   1.000  H
  H1370    1.0000 0.44448  0.61407  0.77103  Biso   1.000  H
  H1371    1.0000 0.44001  0.52782  0.71372  Biso   1.000  H
  C1910    1.0000 0.46248  0.49712  0.81325  Biso   1.000  C
  H1372    1.0000 0.43994  0.52776  0.71372  Biso   1.000  H
  C1911    1.0000 0.46247  0.49711  0.81320  Biso   1.000  C
  H1373    1.0000 0.44448  0.61413  0.77103  Biso   1.000  H
  H1374    1.0000 0.43995  0.52782  0.71372  Biso   1.000  H
  C1912    1.0000 0.16656  0.57870  0.03179  Biso   1.000  C
  C1913    1.0000 0.14598  0.72439  0.05759  Biso   1.000  C
  C1914    1.0000 0.14598  0.72445  0.05759  Biso   1.000  C
  C1915    1.0000 0.16663  0.57870  0.03179  Biso   1.000  C
  C1916    1.0000 0.62552  0.09553  0.35248  Biso   1.000  C
  H1375    1.0000 0.52612  0.18451  0.32698  Biso   1.000  H
  H1376    1.0000 0.61761  0.19864  0.29230  Biso   1.000  H
  C1917    1.0000 0.62558  0.09553  0.35248  Biso   1.000  C
  H1377    1.0000 0.52619  0.18451  0.32698  Biso   1.000  H
  H1378    1.0000 0.61766  0.19863  0.29225  Biso   1.000  H
  H1379    1.0000 0.52619  0.18457  0.32698  Biso   1.000  H
  H1380    1.0000 0.61768  0.19864  0.29230  Biso   1.000  H
  H1381    1.0000 0.52612  0.18457  0.32698  Biso   1.000  H
  H1382    1.0000 0.61760  0.19863  0.29225  Biso   1.000  H
  C1918    1.0000 0.41435  0.97002  0.21000  Biso   1.000  C
  C1919    1.0000 0.41439  0.97001  0.20995  Biso   1.000  C
  C1920    1.0000 0.41441  0.97002  0.21000  Biso   1.000  C
  C1921    1.0000 0.39745  0.06295  0.30019  Biso   1.000  C
  C1922    1.0000 0.39738  0.06295  0.30019  Biso   1.000  C
  C1923    1.0000 0.24367  0.34001  0.22200  Biso   1.000  C
  C1924    1.0000 0.20412  0.35412  0.10388  Biso   1.000  C
  C1925    1.0000 0.24365  0.34000  0.22195  Biso   1.000  C
  C1926    1.0000 0.24368  0.34007  0.22200  Biso   1.000  C
  C1927    1.0000 0.24359  0.34000  0.22195  Biso   1.000  C
  H1383    1.0000 0.39307  0.48241  0.23991  Biso   1.000  H
  H1384    1.0000 0.41924  0.38374  0.27057  Biso   1.000  H
  C1928    1.0000 0.52555  0.44403  0.23748  Biso   1.000  C
  H1385    1.0000 0.39306  0.48240  0.23986  Biso   1.000  H
  H1386    1.0000 0.39308  0.48247  0.23991  Biso   1.000  H
  H1387    1.0000 0.39299  0.48246  0.23986  Biso   1.000  H
  H1388    1.0000 0.41918  0.38374  0.27057  Biso   1.000  H
  C1929    1.0000 0.52549  0.44403  0.23748  Biso   1.000  C
  C1930    1.0000 0.58485  0.83972  0.00068  Biso   1.000  C
  C1931    1.0000 0.58485  0.83966  0.00068  Biso   1.000  C
  C1932    1.0000 0.58492  0.83972  0.00068  Biso   1.000  C
  C1933    1.0000 0.37895  0.87479  0.52991  Biso   1.000  C
  C1934    1.0000 0.26598  0.79838  0.56771  Biso   1.000  C
  C1935    1.0000 0.26592  0.79838  0.56771  Biso   1.000  C
  C1936    1.0000 0.74374  0.41163  0.92874  Biso   1.000  C
  H1389    1.0000 0.63974  0.32640  0.86564  Biso   1.000  H
  C1937    1.0000 0.74372  0.41162  0.92869  Biso   1.000  C
  C1938    1.0000 0.74378  0.41162  0.92869  Biso   1.000  C
  H1390    1.0000 0.63980  0.32640  0.86564  Biso   1.000  H
  C1939    1.0000 0.88857  0.35343  0.97503  Biso   1.000  C
  H1391    1.0000 0.89676  0.22302  0.94765  Biso   1.000  H
  H1392    1.0000 0.89674  0.22301  0.94760  Biso   1.000  H
  C1940    1.0000 0.47351  0.41158  0.80382  Biso   1.000  C
  C1941    1.0000 0.44033  0.52861  0.86985  Biso   1.000  C
  C1942    1.0000 0.47345  0.41158  0.80382  Biso   1.000  C
  C1943    1.0000 0.44024  0.52860  0.86980  Biso   1.000  C
  C1944    1.0000 0.47345  0.41164  0.80382  Biso   1.000  C
  C1945    1.0000 0.44026  0.52861  0.86985  Biso   1.000  C
  C1946    1.0000 0.25627  0.58849  0.07128  Biso   1.000  C
  H1393    1.0000 0.13987  0.51847  0.00659  Biso   1.000  H
  H1394    1.0000 0.13987  0.51854  0.00659  Biso   1.000  H
  C1947    1.0000 0.23568  0.73418  0.09708  Biso   1.000  C
  C1948    1.0000 0.23569  0.73424  0.09708  Biso   1.000  C
  H1395    1.0000 0.10325  0.77710  0.05238  Biso   1.000  H
  H1396    1.0000 0.10331  0.77710  0.05238  Biso   1.000  H
  C1949    1.0000 0.66307  0.14063  0.42050  Biso   1.000  C
  H1397    1.0000 0.68121  0.07433  0.33467  Biso   1.000  H
  H1398    1.0000 0.58185  0.04231  0.35551  Biso   1.000  H
  C1950    1.0000 0.66305  0.14063  0.42045  Biso   1.000  C
  H1399    1.0000 0.68127  0.07433  0.33467  Biso   1.000  H
  H1400    1.0000 0.58183  0.04230  0.35546  Biso   1.000  H
  H1401    1.0000 0.58185  0.04237  0.35551  Biso   1.000  H
  C1951    1.0000 0.66299  0.14063  0.42045  Biso   1.000  C
  H1402    1.0000 0.58184  0.04236  0.35546  Biso   1.000  H
  C1952    1.0000 0.34685  0.91485  0.21898  Biso   1.000  C
  C1953    1.0000 0.34691  0.91479  0.21898  Biso   1.000  C
  C1954    1.0000 0.34691  0.91485  0.21898  Biso   1.000  C
  C1955    1.0000 0.33004  0.00760  0.30927  Biso   1.000  C
  H1403    1.0000 0.41706  0.12026  0.33170  Biso   1.000  H
  C1956    1.0000 0.33005  0.00766  0.30927  Biso   1.000  C
  C1957    1.0000 0.32998  0.00766  0.30927  Biso   1.000  C
  H1404    1.0000 0.41700  0.12026  0.33170  Biso   1.000  H
  C1958    1.0000 0.15303  0.31791  0.21729  Biso   1.000  C
  H1405    1.0000 0.29406  0.34312  0.26958  Biso   1.000  H
  C1959    1.0000 0.15303  0.31797  0.21729  Biso   1.000  C
  H1406    1.0000 0.29399  0.34312  0.26958  Biso   1.000  H
  C1960    1.0000 0.11353  0.33201  0.09911  Biso   1.000  C
  C1961    1.0000 0.11351  0.33201  0.09906  Biso   1.000  C
  C1962    1.0000 0.11359  0.33201  0.09911  Biso   1.000  C
  H1407    1.0000 0.55566  0.38605  0.22900  Biso   1.000  H
  H1408    1.0000 0.56013  0.47230  0.28630  Biso   1.000  H
  C1963    1.0000 0.53765  0.50300  0.18678  Biso   1.000  C
  H1409    1.0000 0.55564  0.38598  0.22895  Biso   1.000  H
  H1410    1.0000 0.56017  0.47229  0.28625  Biso   1.000  H
  H1411    1.0000 0.56019  0.47236  0.28630  Biso   1.000  H
  C1964    1.0000 0.53766  0.50306  0.18678  Biso   1.000  C
  H1412    1.0000 0.55557  0.38605  0.22895  Biso   1.000  H
  H1413    1.0000 0.56011  0.47236  0.28625  Biso   1.000  H
  C1965    1.0000 0.53759  0.50300  0.18678  Biso   1.000  C
  N103     1.0000 0.66868  0.87318  0.03888  Biso   1.000  N
  O301     1.0000 0.51994  0.82482  0.02241  Biso   1.000  O
  O302     1.0000 0.51999  0.82482  0.02236  Biso   1.000  O
  N104     1.0000 0.66868  0.87325  0.03888  Biso   1.000  N
  O303     1.0000 0.52001  0.82482  0.02241  Biso   1.000  O
  C1966    1.0000 0.34987  0.82888  0.46864  Biso   1.000  C
  H1414    1.0000 0.43397  0.92210  0.53914  Biso   1.000  H
  C1967    1.0000 0.34985  0.82887  0.46859  Biso   1.000  C
  H1415    1.0000 0.43396  0.92209  0.53909  Biso   1.000  H
  C1968    1.0000 0.23690  0.75247  0.50644  Biso   1.000  C
  H1416    1.0000 0.23347  0.78660  0.60611  Biso   1.000  H
  C1969    1.0000 0.23682  0.75247  0.50639  Biso   1.000  C
  H1417    1.0000 0.23341  0.78660  0.60611  Biso   1.000  H
  C1970    1.0000 0.23684  0.75247  0.50644  Biso   1.000  C
  C1971    1.0000 0.83344  0.42142  0.96824  Biso   1.000  C
  C1972    1.0000 0.83351  0.42142  0.96824  Biso   1.000  C
  H1418    1.0000 0.70107  0.46434  0.92353  Biso   1.000  H
  N105     1.0000 0.97482  0.36833  0.02370  Biso   1.000  N
  N106     1.0000 0.97480  0.36826  0.02365  Biso   1.000  N
  N107     1.0000 0.97488  0.36833  0.02370  Biso   1.000  N
  N108     1.0000 0.97480  0.36832  0.02365  Biso   1.000  N
  C1973    1.0000 0.46224  0.35758  0.85095  Biso   1.000  C
  H1419    1.0000 0.49072  0.38727  0.76001  Biso   1.000  H
  C1974    1.0000 0.46216  0.35758  0.85090  Biso   1.000  C
  H1420    1.0000 0.49066  0.38727  0.76001  Biso   1.000  H
  C1975    1.0000 0.46218  0.35765  0.85095  Biso   1.000  C
  H1421    1.0000 0.49066  0.38733  0.76001  Biso   1.000  H
  C1976    1.0000 0.46216  0.35764  0.85090  Biso   1.000  C
  C1977    1.0000 0.42903  0.47461  0.91694  Biso   1.000  C
  H1422    1.0000 0.43180  0.59478  0.87715  Biso   1.000  H
  C1978    1.0000 0.42897  0.47461  0.91694  Biso   1.000  C
  H1423    1.0000 0.43171  0.59478  0.87710  Biso   1.000  H
  H1424    1.0000 0.43174  0.59484  0.87715  Biso   1.000  H
  H1425    1.0000 0.43178  0.59484  0.87710  Biso   1.000  H
  C1979    1.0000 0.29088  0.66620  0.10388  Biso   1.000  C
  H1426    1.0000 0.29894  0.53578  0.07649  Biso   1.000  H
  H1427    1.0000 0.29900  0.53578  0.07649  Biso   1.000  H
  H1428    1.0000 0.29900  0.53584  0.07649  Biso   1.000  H
  N109     1.0000 0.26389  0.81533  0.12977  Biso   1.000  N
  C1980    1.0000 0.62119  0.12533  0.47011  Biso   1.000  C
  C1981    1.0000 0.73415  0.20173  0.43231  Biso   1.000  C
  C1982    1.0000 0.62117  0.12533  0.47007  Biso   1.000  C
  C1983    1.0000 0.73414  0.20173  0.43226  Biso   1.000  C
  C1984    1.0000 0.62119  0.12539  0.47011  Biso   1.000  C
  C1985    1.0000 0.73416  0.20180  0.43231  Biso   1.000  C
  C1986    1.0000 0.62111  0.12539  0.47007  Biso   1.000  C
  C1987    1.0000 0.30468  0.93351  0.26859  Biso   1.000  C
  C1988    1.0000 0.33515  0.82724  0.18727  Biso   1.000  C
  C1989    1.0000 0.33521  0.82724  0.18727  Biso   1.000  C
  C1990    1.0000 0.30468  0.93357  0.26859  Biso   1.000  C
  C1991    1.0000 0.27636  0.02801  0.35958  Biso   1.000  C
  C1992    1.0000 0.27636  0.02808  0.35958  Biso   1.000  C
  C1993    1.0000 0.27629  0.02808  0.35958  Biso   1.000  C
  C1994    1.0000 0.12142  0.29613  0.27648  Biso   1.000  C
  C1995    1.0000 0.08803  0.31399  0.15577  Biso   1.000  C
  C1996    1.0000 0.12148  0.29613  0.27648  Biso   1.000  C
  C1997    1.0000 0.08803  0.31406  0.15577  Biso   1.000  C
  C1998    1.0000 0.04134  0.31448  0.03348  Biso   1.000  C
  C1999    1.0000 0.04135  0.31454  0.03348  Biso   1.000  C
  C2000    1.0000 0.04128  0.31454  0.03348  Biso   1.000  C
  C2001    1.0000 0.52662  0.58854  0.19620  Biso   1.000  C
  C2002    1.0000 0.55981  0.47151  0.13017  Biso   1.000  C
  C2003    1.0000 0.52667  0.58854  0.19616  Biso   1.000  C
  C2004    1.0000 0.52669  0.58854  0.19620  Biso   1.000  C
  C2005    1.0000 0.55988  0.47151  0.13017  Biso   1.000  C
  C2006    1.0000 0.52660  0.58854  0.19616  Biso   1.000  C
  C2007    1.0000 0.68998  0.89832  0.10641  Biso   1.000  C
  C2008    1.0000 0.68997  0.89832  0.10636  Biso   1.000  C
  C2009    1.0000 0.27892  0.76778  0.45683  Biso   1.000  C
  H1429    1.0000 0.38251  0.84066  0.43024  Biso   1.000  H
  C2010    1.0000 0.27885  0.76778  0.45683  Biso   1.000  C
  H1430    1.0000 0.38243  0.84066  0.43019  Biso   1.000  H
  H1431    1.0000 0.38244  0.84066  0.43024  Biso   1.000  H
  H1432    1.0000 0.18188  0.70516  0.49722  Biso   1.000  H
  H1433    1.0000 0.18181  0.70516  0.49722  Biso   1.000  H
  H1434    1.0000 0.86014  0.48164  0.99344  Biso   1.000  H
  H1435    1.0000 0.86020  0.48164  0.99344  Biso   1.000  H
  C2011    1.0000 0.44002  0.38913  0.90756  Biso   1.000  C
  H1436    1.0000 0.47083  0.29141  0.84366  Biso   1.000  H
  C2012    1.0000 0.43994  0.38913  0.90751  Biso   1.000  C
  H1437    1.0000 0.47075  0.29140  0.84361  Biso   1.000  H
  C2013    1.0000 0.43995  0.38913  0.90756  Biso   1.000  C
  H1438    1.0000 0.47077  0.29141  0.84366  Biso   1.000  H
  C2014    1.0000 0.44000  0.38913  0.90751  Biso   1.000  C
  H1439    1.0000 0.41183  0.49904  0.96074  Biso   1.000  H
  H1440    1.0000 0.41175  0.49903  0.96069  Biso   1.000  H
  H1441    1.0000 0.41176  0.49904  0.96074  Biso   1.000  H
  H1442    1.0000 0.36027  0.67372  0.13439  Biso   1.000  H
  H1443    1.0000 0.36033  0.67372  0.13439  Biso   1.000  H
  C2015    1.0000 0.65027  0.17124  0.53139  Biso   1.000  C
  H1444    1.0000 0.56616  0.07802  0.46089  Biso   1.000  H
  C2016    1.0000 0.65027  0.17130  0.53139  Biso   1.000  C
  H1445    1.0000 0.56617  0.07808  0.46089  Biso   1.000  H
  C2017    1.0000 0.65021  0.17124  0.53139  Biso   1.000  C
  H1446    1.0000 0.56610  0.07808  0.46089  Biso   1.000  H
  C2018    1.0000 0.76324  0.24764  0.49358  Biso   1.000  C
  H1447    1.0000 0.76667  0.21352  0.39391  Biso   1.000  H
  H1448    1.0000 0.76665  0.21352  0.39386  Biso   1.000  H
  H1449    1.0000 0.76667  0.21358  0.39391  Biso   1.000  H
  H1450    1.0000 0.76659  0.21358  0.39386  Biso   1.000  H
  O304     1.0000 0.24079  0.87381  0.27851  Biso   1.000  O
  O305     1.0000 0.24077  0.87380  0.27846  Biso   1.000  O
  O306     1.0000 0.24079  0.87387  0.27851  Biso   1.000  O
  O307     1.0000 0.24078  0.87387  0.27846  Biso   1.000  O
  O308     1.0000 0.38230  0.77084  0.21327  Biso   1.000  O
  H1451    1.0000 0.25148  0.97296  0.37789  Biso   1.000  H
  H1452    1.0000 0.25154  0.97296  0.37789  Biso   1.000  H
  C2019    1.0000 0.33464  0.07186  0.42482  Biso   1.000  C
  C2020    1.0000 0.19476  0.07391  0.32272  Biso   1.000  C
  C2021    1.0000 0.33468  0.07185  0.42477  Biso   1.000  C
  C2022    1.0000 0.19474  0.07390  0.32267  Biso   1.000  C
  C2023    1.0000 0.33470  0.07186  0.42482  Biso   1.000  C
  C2024    1.0000 0.19477  0.07397  0.32272  Biso   1.000  C
  C2025    1.0000 0.33462  0.07185  0.42477  Biso   1.000  C
  C2026    1.0000 0.19468  0.07397  0.32267  Biso   1.000  C
  C2027    1.0000 0.12281  0.19942  0.28258  Biso   1.000  C
  H1453    1.0000 0.05161  0.31240  0.26680  Biso   1.000  H
  C2028    1.0000 0.17422  0.34476  0.34291  Biso   1.000  C
  C2029    1.0000 0.12287  0.19942  0.28258  Biso   1.000  C
  H1454    1.0000 0.05166  0.31239  0.26675  Biso   1.000  H
  C2030    1.0000 0.17427  0.34476  0.34286  Biso   1.000  C
  H1455    1.0000 0.05168  0.31246  0.26680  Biso   1.000  H
  C2031    1.0000 0.17429  0.34476  0.34291  Biso   1.000  C
  H1456    1.0000 0.05159  0.31245  0.26675  Biso   1.000  H
  C2032    1.0000 0.17420  0.34476  0.34286  Biso   1.000  C
  O309     1.0000 0.99626  0.29653  0.14927  Biso   1.000  O
  O310     1.0000 0.99619  0.29653  0.14927  Biso   1.000  O
  O311     1.0000 0.04829  0.25601  0.99562  Biso   1.000  O
  O312     1.0000 0.04822  0.25601  0.99562  Biso   1.000  O
  C2033    1.0000 0.53790  0.64253  0.14907  Biso   1.000  C
  H1457    1.0000 0.50941  0.61285  0.24001  Biso   1.000  H
  C2034    1.0000 0.53796  0.64253  0.14907  Biso   1.000  C
  H1458    1.0000 0.50946  0.61284  0.23996  Biso   1.000  H
  H1459    1.0000 0.50948  0.61285  0.24001  Biso   1.000  H
  H1460    1.0000 0.50940  0.61284  0.23996  Biso   1.000  H
  C2035    1.0000 0.57110  0.52551  0.08309  Biso   1.000  C
  H1461    1.0000 0.56834  0.40534  0.12288  Biso   1.000  H
  C2036    1.0000 0.57117  0.52551  0.08309  Biso   1.000  C
  H1462    1.0000 0.56834  0.40527  0.12288  Biso   1.000  H
  H1463    1.0000 0.56827  0.40534  0.12288  Biso   1.000  H
  C2037    1.0000 0.63485  0.88471  0.14808  Biso   1.000  C
  C2038    1.0000 0.77586  0.93859  0.13191  Biso   1.000  C
  C2039    1.0000 0.77584  0.93859  0.13186  Biso   1.000  C
  C2040    1.0000 0.77587  0.93865  0.13191  Biso   1.000  C
  C2041    1.0000 0.63492  0.88471  0.14808  Biso   1.000  C
  C2042    1.0000 0.77591  0.93865  0.13186  Biso   1.000  C
  H1464    1.0000 0.25639  0.73214  0.40935  Biso   1.000  H
  H1465    1.0000 0.25630  0.73214  0.40930  Biso   1.000  H
  H1466    1.0000 0.25632  0.73220  0.40935  Biso   1.000  H
  H1467    1.0000 0.25637  0.73214  0.40930  Biso   1.000  H
  H1468    1.0000 0.43132  0.34732  0.94402  Biso   1.000  H
  H1469    1.0000 0.43126  0.34732  0.94402  Biso   1.000  H
  C2043    1.0000 0.72122  0.23234  0.54319  Biso   1.000  C
  H1470    1.0000 0.61763  0.15945  0.56979  Biso   1.000  H
  C2044    1.0000 0.72129  0.23234  0.54319  Biso   1.000  C
  H1471    1.0000 0.61769  0.15945  0.56979  Biso   1.000  H
  C2045    1.0000 0.72129  0.23240  0.54319  Biso   1.000  C
  C2046    1.0000 0.72122  0.23240  0.54319  Biso   1.000  C
  H1472    1.0000 0.81826  0.29495  0.50281  Biso   1.000  H
  H1473    1.0000 0.81824  0.29495  0.50276  Biso   1.000  H
  C2047    1.0000 0.14900  0.89394  0.24319  Biso   1.000  C
  H1474    1.0000 0.35254  0.13483  0.41519  Biso   1.000  H
  H1475    1.0000 0.39573  0.03925  0.44347  Biso   1.000  H
  C2048    1.0000 0.28362  0.07657  0.47547  Biso   1.000  C
  H1476    1.0000 0.39579  0.03925  0.44347  Biso   1.000  H
  C2049    1.0000 0.28369  0.07657  0.47547  Biso   1.000  C
  C2050    1.0000 0.19721  0.16091  0.32098  Biso   1.000  C
  C2051    1.0000 0.11774  0.02553  0.28590  Biso   1.000  C
  C2052    1.0000 0.19727  0.16091  0.32098  Biso   1.000  C
  C2053    1.0000 0.11772  0.02553  0.28585  Biso   1.000  C
  C2054    1.0000 0.19727  0.16097  0.32098  Biso   1.000  C
  C2055    1.0000 0.19721  0.16097  0.32098  Biso   1.000  C
  C2056    1.0000 0.04591  0.15104  0.24577  Biso   1.000  C
  C2057    1.0000 0.04598  0.15104  0.24577  Biso   1.000  C
  H1477    1.0000 0.17534  0.41111  0.33661  Biso   1.000  H
  H1478    1.0000 0.24296  0.32485  0.35710  Biso   1.000  H
  C2058    1.0000 0.12802  0.32703  0.39798  Biso   1.000  C
  H1479    1.0000 0.17532  0.41110  0.33656  Biso   1.000  H
  C2059    1.0000 0.12809  0.32703  0.39798  Biso   1.000  C
  H1480    1.0000 0.17534  0.41117  0.33661  Biso   1.000  H
  H1481    1.0000 0.17532  0.41117  0.33656  Biso   1.000  H
  H1482    1.0000 0.24289  0.32485  0.35710  Biso   1.000  H
  C2060    1.0000 0.96766  0.21032  0.14679  Biso   1.000  C
  C2061    1.0000 0.96760  0.21032  0.14679  Biso   1.000  C
  C2062    1.0000 0.56012  0.61098  0.09247  Biso   1.000  C
  H1483    1.0000 0.52930  0.70871  0.15637  Biso   1.000  H
  H1484    1.0000 0.52937  0.70871  0.15637  Biso   1.000  H
  C2063    1.0000 0.56012  0.61105  0.09247  Biso   1.000  C
  H1485    1.0000 0.58831  0.50108  0.03928  Biso   1.000  H
  H1486    1.0000 0.58838  0.50114  0.03928  Biso   1.000  H
  H1487    1.0000 0.58831  0.50114  0.03928  Biso   1.000  H
  C2064    1.0000 0.66569  0.91145  0.21531  Biso   1.000  C
  H1488    1.0000 0.56825  0.85341  0.12838  Biso   1.000  H
  C2065    1.0000 0.66567  0.91144  0.21526  Biso   1.000  C
  H1489    1.0000 0.56832  0.85341  0.12838  Biso   1.000  H
  C2066    1.0000 0.80675  0.96544  0.19908  Biso   1.000  C
  C2067    1.0000 0.80681  0.96544  0.19908  Biso   1.000  C
  H1490    1.0000 0.81855  0.94920  0.09961  Biso   1.000  H
  H1491    1.0000 0.81859  0.94919  0.09956  Biso   1.000  H
  H1492    1.0000 0.81861  0.94920  0.09961  Biso   1.000  H
  H1493    1.0000 0.74375  0.26798  0.59067  Biso   1.000  H
  H1494    1.0000 0.10868  0.83634  0.22409  Biso   1.000  H
  H1495    1.0000 0.15138  0.93124  0.20251  Biso   1.000  H
  O313     1.0000 0.11068  0.93863  0.28799  Biso   1.000  O
  H1496    1.0000 0.15136  0.93123  0.20246  Biso   1.000  H
  H1497    1.0000 0.15142  0.93123  0.20246  Biso   1.000  H
  O314     1.0000 0.11074  0.93863  0.28799  Biso   1.000  O
  H1498    1.0000 0.22334  0.10987  0.45558  Biso   1.000  H
  H1499    1.0000 0.26437  0.01297  0.48242  Biso   1.000  H
  C2068    1.0000 0.33177  0.12064  0.54250  Biso   1.000  C
  H1500    1.0000 0.26435  0.01296  0.48237  Biso   1.000  H
  C2069    1.0000 0.33177  0.12070  0.54250  Biso   1.000  C
  C2070    1.0000 0.33171  0.12070  0.54250  Biso   1.000  C
  H1501    1.0000 0.25684  0.19833  0.34941  Biso   1.000  H
  H1502    1.0000 0.25682  0.19833  0.34936  Biso   1.000  H
  C2071    1.0000 0.04334  0.06404  0.24750  Biso   1.000  C
  C2072    1.0000 0.04332  0.06404  0.24745  Biso   1.000  C
  O315     1.0000 0.96802  0.18640  0.21039  Biso   1.000  O
  O316     1.0000 0.96808  0.18640  0.21039  Biso   1.000  O
  O317     1.0000 0.96808  0.18646  0.21039  Biso   1.000  O
  O318     1.0000 0.96802  0.18646  0.21039  Biso   1.000  O
  H1503    1.0000 0.13765  0.26265  0.40929  Biso   1.000  H
  H1504    1.0000 0.05646  0.33562  0.37818  Biso   1.000  H
  C2073    1.0000 0.16203  0.38427  0.46089  Biso   1.000  C
  C2074    1.0000 0.16209  0.38427  0.46089  Biso   1.000  C
  H1505    1.0000 0.05646  0.33568  0.37818  Biso   1.000  H
  H1506    1.0000 0.05640  0.33568  0.37818  Biso   1.000  H
  H1507    1.0000 0.89995  0.19919  0.11370  Biso   1.000  H
  H1508    1.0000 0.89993  0.19919  0.11365  Biso   1.000  H
  H1509    1.0000 0.89996  0.19925  0.11370  Biso   1.000  H
  H1510    1.0000 0.89987  0.19925  0.11365  Biso   1.000  H
  H1511    1.0000 0.01400  0.17279  0.12858  Biso   1.000  H
  H1512    1.0000 0.01406  0.17279  0.12858  Biso   1.000  H
  H1513    1.0000 0.01407  0.17286  0.12858  Biso   1.000  H
  H1514    1.0000 0.01400  0.17286  0.12858  Biso   1.000  H
  H1515    1.0000 0.56881  0.65279  0.05600  Biso   1.000  H
  H1516    1.0000 0.56886  0.65279  0.05595  Biso   1.000  H
  H1517    1.0000 0.56888  0.65279  0.05600  Biso   1.000  H
  H1518    1.0000 0.56880  0.65279  0.05595  Biso   1.000  H
  C2075    1.0000 0.75170  0.95184  0.24081  Biso   1.000  C
  C2076    1.0000 0.75168  0.95184  0.24076  Biso   1.000  C
  H1519    1.0000 0.62307  0.90090  0.24760  Biso   1.000  H
  H1520    1.0000 0.62305  0.90090  0.24755  Biso   1.000  H
  H1521    1.0000 0.62307  0.90097  0.24760  Biso   1.000  H
  H1522    1.0000 0.62312  0.90096  0.24755  Biso   1.000  H
  N110     1.0000 0.89334  0.01045  0.22979  Biso   1.000  N
  C2077    1.0000 0.42467  0.11249  0.56899  Biso   1.000  C
  C2078    1.0000 0.28397  0.16796  0.57802  Biso   1.000  C
  C2079    1.0000 0.42466  0.11243  0.56899  Biso   1.000  C
  C2080    1.0000 0.28395  0.16796  0.57797  Biso   1.000  C
  C2081    1.0000 0.42460  0.11249  0.56899  Biso   1.000  C
  C2082    1.0000 0.96512  0.01070  0.20439  Biso   1.000  C
  C2083    1.0000 0.96519  0.01077  0.20439  Biso   1.000  C
  C2084    1.0000 0.11475  0.45395  0.47160  Biso   1.000  C
  C2085    1.0000 0.23963  0.36504  0.50921  Biso   1.000  C
  C2086    1.0000 0.11473  0.45394  0.47155  Biso   1.000  C
  C2087    1.0000 0.23968  0.36504  0.50916  Biso   1.000  C
  C2088    1.0000 0.23970  0.36510  0.50921  Biso   1.000  C
  C2089    1.0000 0.23961  0.36504  0.50916  Biso   1.000  C
  H1523    1.0000 0.77556  0.97254  0.29280  Biso   1.000  H
  H1524    1.0000 0.77560  0.97253  0.29275  Biso   1.000  H
  H1525    1.0000 0.77562  0.97254  0.29280  Biso   1.000  H
  C2090    1.0000 0.46974  0.15167  0.63111  Biso   1.000  C
  H1526    1.0000 0.46178  0.07584  0.54151  Biso   1.000  H
  C2091    1.0000 0.46978  0.15167  0.63106  Biso   1.000  C
  H1527    1.0000 0.46176  0.07584  0.54146  Biso   1.000  H
  C2092    1.0000 0.46980  0.15167  0.63111  Biso   1.000  C
  H1528    1.0000 0.46179  0.07591  0.54151  Biso   1.000  H
  C2093    1.0000 0.46972  0.15167  0.63106  Biso   1.000  C
  H1529    1.0000 0.46170  0.07584  0.54146  Biso   1.000  H
  C2094    1.0000 0.32895  0.20714  0.64009  Biso   1.000  C
  H1530    1.0000 0.21197  0.17423  0.55748  Biso   1.000  H
  C2095    1.0000 0.32896  0.20720  0.64009  Biso   1.000  C
  H1531    1.0000 0.21197  0.17429  0.55748  Biso   1.000  H
  H1532    1.0000 0.21191  0.17429  0.55748  Biso   1.000  H
  O319     1.0000 0.96709  0.97833  0.15170  Biso   1.000  O
  O320     1.0000 0.96707  0.97833  0.15165  Biso   1.000  O
  C2096    1.0000 0.14503  0.50459  0.53069  Biso   1.000  C
  H1533    1.0000 0.05478  0.46882  0.43420  Biso   1.000  H
  C2097    1.0000 0.14510  0.50452  0.53069  Biso   1.000  C
  C2098    1.0000 0.14510  0.50459  0.53069  Biso   1.000  C
  H1534    1.0000 0.05478  0.46889  0.43420  Biso   1.000  H
  H1535    1.0000 0.05472  0.46889  0.43420  Biso   1.000  H
  C2099    1.0000 0.26985  0.41555  0.56830  Biso   1.000  C
  H1536    1.0000 0.27628  0.31107  0.50087  Biso   1.000  H
  H1537    1.0000 0.27621  0.31107  0.50087  Biso   1.000  H
  C2100    1.0000 0.42182  0.19900  0.66668  Biso   1.000  C
  H1538    1.0000 0.54169  0.14535  0.65170  Biso   1.000  H
  C2101    1.0000 0.42189  0.19894  0.66668  Biso   1.000  C
  C2102    1.0000 0.42189  0.19900  0.66668  Biso   1.000  C
  H1539    1.0000 0.54169  0.14541  0.65170  Biso   1.000  H
  H1540    1.0000 0.54163  0.14541  0.65170  Biso   1.000  H
  H1541    1.0000 0.29199  0.24379  0.66762  Biso   1.000  H
  H1542    1.0000 0.29197  0.24379  0.66757  Biso   1.000  H
  H1543    1.0000 0.29190  0.24379  0.66757  Biso   1.000  H
  C2103    1.0000 0.22268  0.48536  0.57911  Biso   1.000  C
  H1544    1.0000 0.10844  0.55855  0.53898  Biso   1.000  H
  C2104    1.0000 0.22266  0.48536  0.57906  Biso   1.000  C
  C2105    1.0000 0.22259  0.48536  0.57906  Biso   1.000  C
  H1545    1.0000 0.32999  0.40075  0.60580  Biso   1.000  H
  H1546    1.0000 0.32997  0.40074  0.60576  Biso   1.000  H
  H1547    1.0000 0.32999  0.40081  0.60580  Biso   1.000  H
  H1548    1.0000 0.32991  0.40081  0.60576  Biso   1.000  H
  H1549    1.0000 0.45677  0.22925  0.71470  Biso   1.000  H
  H1550    1.0000 0.45675  0.22925  0.71465  Biso   1.000  H
  H1551    1.0000 0.45677  0.22931  0.71470  Biso   1.000  H
  H1552    1.0000 0.45675  0.22931  0.71465  Biso   1.000  H
  H1553    1.0000 0.24605  0.52445  0.62481  Biso   1.000  H
  H1554    1.0000 0.24603  0.52445  0.62476  Biso   1.000  H
  H1555    1.0000 0.24612  0.52452  0.62481  Biso   1.000  H
  O321     1.0000 0.03292  0.02179  0.84832  Biso   1.000  O
  C2106    1.0000 0.03502  0.98941  0.79563  Biso   1.000  C
  C2107    1.0000 0.03495  0.98941  0.79563  Biso   1.000  C
  N111     1.0000 0.10680  0.98967  0.77023  Biso   1.000  N
  N112     1.0000 0.10674  0.98967  0.77023  Biso   1.000  N
  N113     1.0000 0.10674  0.98973  0.77023  Biso   1.000  N
  N114     1.0000 0.10681  0.98973  0.77023  Biso   1.000  N
  C2108    1.0000 0.95680  0.93608  0.75252  Biso   1.000  C
  C2109    1.0000 0.95673  0.93608  0.75252  Biso   1.000  C
  C2110    1.0000 0.95674  0.93614  0.75252  Biso   1.000  C
  O322     1.0000 0.03298  0.02179  0.84832  Biso   1.000  O
  O323     1.0000 0.03299  0.02185  0.84832  Biso   1.000  O
  C2111    1.0000 0.19326  0.03467  0.80094  Biso   1.000  C
  C2112    1.0000 0.19324  0.03467  0.80089  Biso   1.000  C
  C2113    1.0000 0.19326  0.03474  0.80094  Biso   1.000  C
  C2114    1.0000 0.19324  0.03473  0.80089  Biso   1.000  C
  C2115    1.0000 0.88240  0.97459  0.71412  Biso   1.000  C
  C2116    1.0000 0.95423  0.84908  0.75426  Biso   1.000  C
  C2117    1.0000 0.88233  0.97459  0.71412  Biso   1.000  C
  C2118    1.0000 0.95414  0.84907  0.75421  Biso   1.000  C
  C2119    1.0000 0.95416  0.84914  0.75426  Biso   1.000  C
  C2120    1.0000 0.95415  0.84914  0.75421  Biso   1.000  C
  C2121    1.0000 0.22414  0.06153  0.86812  Biso   1.000  C
  C2122    1.0000 0.24831  0.04827  0.75922  Biso   1.000  C
  C2123    1.0000 0.24837  0.04827  0.75922  Biso   1.000  C
  C2124    1.0000 0.24837  0.04834  0.75922  Biso   1.000  C
  C2125    1.0000 0.80537  0.92621  0.67731  Biso   1.000  C
  C2126    1.0000 0.80531  0.92621  0.67731  Biso   1.000  C
  O324     1.0000 0.88933  0.06149  0.71204  Biso   1.000  O
  O325     1.0000 0.88931  0.06149  0.71199  Biso   1.000  O
  O326     1.0000 0.88938  0.06149  0.71199  Biso   1.000  O
  C2127    1.0000 0.87733  0.80070  0.71745  Biso   1.000  C
  C2128    1.0000 0.87725  0.80069  0.71740  Biso   1.000  C
  C2129    1.0000 0.87727  0.80070  0.71745  Biso   1.000  C
  O327     1.0000 0.03212  0.81372  0.78963  Biso   1.000  O
  O328     1.0000 0.03206  0.81372  0.78963  Biso   1.000  O
  H1556    1.0000 0.18146  0.05092  0.90042  Biso   1.000  H
  C2130    1.0000 0.31002  0.10180  0.89362  Biso   1.000  C
  C2131    1.0000 0.31009  0.10180  0.89362  Biso   1.000  C
  H1557    1.0000 0.22445  0.02758  0.70722  Biso   1.000  H
  C2132    1.0000 0.33432  0.08867  0.78472  Biso   1.000  C
  C2133    1.0000 0.33432  0.08873  0.78472  Biso   1.000  C
  C2134    1.0000 0.33439  0.08873  0.78472  Biso   1.000  C
  C2135    1.0000 0.80293  0.83921  0.67905  Biso   1.000  C
  C2136    1.0000 0.72378  0.97210  0.64045  Biso   1.000  C
  C2137    1.0000 0.80285  0.83920  0.67900  Biso   1.000  C
  C2138    1.0000 0.72376  0.97210  0.64040  Biso   1.000  C
  C2139    1.0000 0.80287  0.83921  0.67905  Biso   1.000  C
  C2140    1.0000 0.85101  0.10618  0.75684  Biso   1.000  C
  C2141    1.0000 0.85107  0.10618  0.75684  Biso   1.000  C
  C2142    1.0000 0.85107  0.10624  0.75684  Biso   1.000  C
  C2143    1.0000 0.87872  0.70399  0.72355  Biso   1.000  C
  C2144    1.0000 0.87864  0.70399  0.72350  Biso   1.000  C
  C2145    1.0000 0.87866  0.70399  0.72355  Biso   1.000  C
  C2146    1.0000 0.03248  0.78979  0.85323  Biso   1.000  C
  C2147    1.0000 0.03248  0.78985  0.85323  Biso   1.000  C
  N115     1.0000 0.33133  0.12693  0.96114  Biso   1.000  N
  C2148    1.0000 0.36515  0.11540  0.85194  Biso   1.000  C
  N116     1.0000 0.33138  0.12693  0.96109  Biso   1.000  N
  C2149    1.0000 0.36513  0.11540  0.85189  Biso   1.000  C
  N117     1.0000 0.33139  0.12693  0.96114  Biso   1.000  N
  H1558    1.0000 0.37694  0.09921  0.75242  Biso   1.000  H
  H1559    1.0000 0.74330  0.80179  0.65062  Biso   1.000  H
  H1560    1.0000 0.74323  0.80179  0.65062  Biso   1.000  H
  C2150    1.0000 0.67009  0.99252  0.69075  Biso   1.000  C
  C2151    1.0000 0.66550  0.92826  0.57521  Biso   1.000  C
  C2152    1.0000 0.67001  0.99245  0.69070  Biso   1.000  C
  C2153    1.0000 0.66543  0.92826  0.57521  Biso   1.000  C
  C2154    1.0000 0.67003  0.99252  0.69075  Biso   1.000  C
  C2155    1.0000 0.67008  0.99251  0.69070  Biso   1.000  C
  H1561    1.0000 0.74853  0.02716  0.62214  Biso   1.000  H
  H1562    1.0000 0.74851  0.02715  0.62209  Biso   1.000  H
  H1563    1.0000 0.74853  0.02722  0.62214  Biso   1.000  H
  H1564    1.0000 0.74858  0.02721  0.62209  Biso   1.000  H
  O329     1.0000 0.75922  0.12631  0.72151  Biso   1.000  O
  H1565    1.0000 0.89133  0.16378  0.77594  Biso   1.000  H
  H1566    1.0000 0.84863  0.06888  0.79752  Biso   1.000  H
  H1567    1.0000 0.89131  0.16377  0.77589  Biso   1.000  H
  H1568    1.0000 0.89133  0.16384  0.77594  Biso   1.000  H
  H1569    1.0000 0.84863  0.06894  0.79752  Biso   1.000  H
  O330     1.0000 0.75928  0.12631  0.72151  Biso   1.000  O
  H1570    1.0000 0.89138  0.16383  0.77589  Biso   1.000  H
  H1571    1.0000 0.84870  0.06894  0.79752  Biso   1.000  H
  H1572    1.0000 0.94853  0.68772  0.73322  Biso   1.000  H
  C2156    1.0000 0.82592  0.65535  0.65712  Biso   1.000  C
  C2157    1.0000 0.84711  0.68221  0.78273  Biso   1.000  C
  H1573    1.0000 0.94846  0.68766  0.73322  Biso   1.000  H
  C2158    1.0000 0.82585  0.65535  0.65712  Biso   1.000  C
  C2159    1.0000 0.84704  0.68221  0.78273  Biso   1.000  C
  H1574    1.0000 0.94846  0.68772  0.73322  Biso   1.000  H
  C2160    1.0000 0.82585  0.65542  0.65712  Biso   1.000  C
  H1575    1.0000 0.98614  0.82732  0.87144  Biso   1.000  H
  H1576    1.0000 0.98606  0.82732  0.87139  Biso   1.000  H
  H1577    1.0000 0.98607  0.82732  0.87144  Biso   1.000  H
  O331     1.0000 0.00388  0.70359  0.85075  Biso   1.000  O
  H1578    1.0000 0.10019  0.80093  0.88633  Biso   1.000  H
  O332     1.0000 0.00386  0.70358  0.85070  Biso   1.000  O
  O333     1.0000 0.00388  0.70365  0.85075  Biso   1.000  O
  O334     1.0000 0.00386  0.70364  0.85070  Biso   1.000  O
  C2161    1.0000 0.41516  0.16040  0.99934  Biso   1.000  C
  C2162    1.0000 0.41514  0.16039  0.99929  Biso   1.000  C
  C2163    1.0000 0.41516  0.16046  0.99934  Biso   1.000  C
  C2164    1.0000 0.41514  0.16045  0.99929  Biso   1.000  C
  H1579    1.0000 0.43176  0.14671  0.87164  Biso   1.000  H
  H1580    1.0000 0.43174  0.14670  0.87159  Biso   1.000  H
  C2165    1.0000 0.60269  0.93717  0.69983  Biso   1.000  C
  C2166    1.0000 0.60262  0.93717  0.69983  Biso   1.000  C
  C2167    1.0000 0.60263  0.93723  0.69983  Biso   1.000  C
  C2168    1.0000 0.60269  0.93723  0.69983  Biso   1.000  C
  C2169    1.0000 0.69533  0.06661  0.73144  Biso   1.000  C
  C2170    1.0000 0.69539  0.06661  0.73144  Biso   1.000  C
  H1581    1.0000 0.64760  0.86528  0.58483  Biso   1.000  H
  H1582    1.0000 0.60441  0.96087  0.55655  Biso   1.000  H
  C2171    1.0000 0.71652  0.92355  0.52455  Biso   1.000  C
  H1583    1.0000 0.64753  0.86528  0.58483  Biso   1.000  H
  H1584    1.0000 0.60433  0.96086  0.55650  Biso   1.000  H
  C2172    1.0000 0.71643  0.92354  0.52450  Biso   1.000  C
  H1585    1.0000 0.60435  0.96087  0.55655  Biso   1.000  H
  C2173    1.0000 0.71645  0.92361  0.52455  Biso   1.000  C
  C2174    1.0000 0.71644  0.92361  0.52450  Biso   1.000  C
  H1586    1.0000 0.82480  0.58901  0.66342  Biso   1.000  H
  H1587    1.0000 0.75718  0.67526  0.64293  Biso   1.000  H
  C2175    1.0000 0.87211  0.67308  0.60205  Biso   1.000  C
  H1588    1.0000 0.82473  0.58901  0.66342  Biso   1.000  H
  H1589    1.0000 0.75711  0.67526  0.64293  Biso   1.000  H
  C2176    1.0000 0.87203  0.67308  0.60200  Biso   1.000  C
  H1590    1.0000 0.75712  0.67533  0.64293  Biso   1.000  H
  C2177    1.0000 0.87205  0.67308  0.60205  Biso   1.000  C
  H1591    1.0000 0.75718  0.67533  0.64293  Biso   1.000  H
  C2178    1.0000 0.75646  0.66011  0.77802  Biso   1.000  C
  C2179    1.0000 0.91211  0.68612  0.84425  Biso   1.000  C
  C2180    1.0000 0.91203  0.68612  0.84420  Biso   1.000  C
  C2181    1.0000 0.91204  0.68612  0.84425  Biso   1.000  C
  C2182    1.0000 0.91209  0.68612  0.84420  Biso   1.000  C
  O335     1.0000 0.48007  0.17529  0.97761  Biso   1.000  O
  O336     1.0000 0.48007  0.17536  0.97761  Biso   1.000  O
  C2183    1.0000 0.41932  0.18849  0.06979  Biso   1.000  C
  C2184    1.0000 0.41938  0.18855  0.06979  Biso   1.000  C
  C2185    1.0000 0.56053  0.95602  0.74945  Biso   1.000  C
  H1592    1.0000 0.58308  0.87986  0.66833  Biso   1.000  H
  C2186    1.0000 0.56045  0.95602  0.74940  Biso   1.000  C
  C2187    1.0000 0.56046  0.95602  0.74945  Biso   1.000  C
  H1593    1.0000 0.58308  0.87992  0.66833  Biso   1.000  H
  C2188    1.0000 0.65316  0.08527  0.78105  Biso   1.000  C
  C2189    1.0000 0.65314  0.08526  0.78100  Biso   1.000  C
  C2190    1.0000 0.65316  0.08533  0.78105  Biso   1.000  C
  C2191    1.0000 0.65315  0.08533  0.78100  Biso   1.000  C
  H1594    1.0000 0.77680  0.89025  0.54445  Biso   1.000  H
  H1595    1.0000 0.73577  0.98715  0.51761  Biso   1.000  H
  C2192    1.0000 0.66837  0.87948  0.45753  Biso   1.000  C
  H1596    1.0000 0.77672  0.89024  0.54440  Biso   1.000  H
  H1597    1.0000 0.73571  0.98715  0.51761  Biso   1.000  H
  C2193    1.0000 0.66830  0.87948  0.45753  Biso   1.000  C
  H1598    1.0000 0.77674  0.89031  0.54445  Biso   1.000  H
  H1599    1.0000 0.73571  0.98721  0.51761  Biso   1.000  H
  H1600    1.0000 0.77672  0.89031  0.54440  Biso   1.000  H
  H1601    1.0000 0.86249  0.73746  0.59073  Biso   1.000  H
  H1602    1.0000 0.94368  0.66450  0.62184  Biso   1.000  H
  C2194    1.0000 0.83811  0.61585  0.53914  Biso   1.000  C
  H1603    1.0000 0.86241  0.73746  0.59069  Biso   1.000  H
  H1604    1.0000 0.94366  0.66449  0.62179  Biso   1.000  H
  C2195    1.0000 0.83803  0.61584  0.53909  Biso   1.000  C
  H1605    1.0000 0.86243  0.73746  0.59073  Biso   1.000  H
  C2196    1.0000 0.83805  0.61591  0.53914  Biso   1.000  C
  H1606    1.0000 0.86247  0.73746  0.59069  Biso   1.000  H
  C2197    1.0000 0.83803  0.61590  0.53909  Biso   1.000  C
  C2198    1.0000 0.73098  0.64203  0.83473  Biso   1.000  C
  H1607    1.0000 0.70608  0.65699  0.73044  Biso   1.000  H
  C2199    1.0000 0.73098  0.64197  0.83473  Biso   1.000  C
  H1608    1.0000 0.70606  0.65699  0.73039  Biso   1.000  H
  C2200    1.0000 0.88661  0.66811  0.90091  Biso   1.000  C
  C2201    1.0000 0.88655  0.66811  0.90091  Biso   1.000  C
  C2202    1.0000 0.45801  0.13582  0.11911  Biso   1.000  C
  C2203    1.0000 0.39321  0.26722  0.08721  Biso   1.000  C
  C2204    1.0000 0.45805  0.13582  0.11906  Biso   1.000  C
  C2205    1.0000 0.39326  0.26721  0.08716  Biso   1.000  C
  C2206    1.0000 0.45807  0.13582  0.11911  Biso   1.000  C
  C2207    1.0000 0.39328  0.26722  0.08721  Biso   1.000  C
  C2208    1.0000 0.45799  0.13582  0.11906  Biso   1.000  C
  C2209    1.0000 0.39319  0.26721  0.08716  Biso   1.000  C
  C2210    1.0000 0.48700  0.89569  0.76135  Biso   1.000  C
  C2211    1.0000 0.48692  0.89569  0.76130  Biso   1.000  C
  C2212    1.0000 0.48694  0.89569  0.76135  Biso   1.000  C
  C2213    1.0000 0.48699  0.89569  0.76130  Biso   1.000  C
  C2214    1.0000 0.58566  0.03010  0.79003  Biso   1.000  C
  C2215    1.0000 0.66486  0.17288  0.81275  Biso   1.000  C
  C2216    1.0000 0.66484  0.17288  0.81270  Biso   1.000  C
  C2217    1.0000 0.66486  0.17294  0.81275  Biso   1.000  C
  C2218    1.0000 0.66484  0.17294  0.81270  Biso   1.000  C
  C2219    1.0000 0.57547  0.88763  0.43103  Biso   1.000  C
  C2220    1.0000 0.71617  0.83216  0.42200  Biso   1.000  C
  C2221    1.0000 0.57539  0.88762  0.43098  Biso   1.000  C
  C2222    1.0000 0.71610  0.83216  0.42200  Biso   1.000  C
  C2223    1.0000 0.57541  0.88769  0.43103  Biso   1.000  C
  C2224    1.0000 0.57545  0.88769  0.43098  Biso   1.000  C
  C2225    1.0000 0.88539  0.54617  0.52842  Biso   1.000  C
  C2226    1.0000 0.76051  0.63508  0.49082  Biso   1.000  C
  C2227    1.0000 0.88532  0.54617  0.52842  Biso   1.000  C
  C2228    1.0000 0.76044  0.63508  0.49082  Biso   1.000  C
  C2229    1.0000 0.79601  0.64600  0.89615  Biso   1.000  C
  C2230    1.0000 0.63069  0.62181  0.83483  Biso   1.000  C
  C2231    1.0000 0.79593  0.64599  0.89610  Biso   1.000  C
  C2232    1.0000 0.63062  0.62181  0.83483  Biso   1.000  C
  C2233    1.0000 0.79595  0.64606  0.89615  Biso   1.000  C
  C2234    1.0000 0.79599  0.64599  0.89610  Biso   1.000  C
  C2235    1.0000 0.95879  0.68564  0.96655  Biso   1.000  C
  C2236    1.0000 0.95878  0.68563  0.96650  Biso   1.000  C
  C2237    1.0000 0.47073  0.16181  0.18569  Biso   1.000  C
  O337     1.0000 0.48466  0.05869  0.10001  Biso   1.000  O
  O338     1.0000 0.48464  0.05868  0.09996  Biso   1.000  O
  O339     1.0000 0.48466  0.05875  0.10001  Biso   1.000  O
  O340     1.0000 0.48458  0.05874  0.09996  Biso   1.000  O
  C2238    1.0000 0.40593  0.29320  0.15379  Biso   1.000  C
  O341     1.0000 0.35780  0.31613  0.03506  Biso   1.000  O
  O342     1.0000 0.35786  0.31606  0.03506  Biso   1.000  O
  O343     1.0000 0.35787  0.31613  0.03506  Biso   1.000  O
  C2239    1.0000 0.52941  0.83831  0.81434  Biso   1.000  C
  C2240    1.0000 0.42871  0.84719  0.69641  Biso   1.000  C
  H1609    1.0000 0.43951  0.93270  0.77862  Biso   1.000  H
  C2241    1.0000 0.52934  0.83831  0.81434  Biso   1.000  C
  C2242    1.0000 0.42864  0.84719  0.69641  Biso   1.000  C
  H1610    1.0000 0.43945  0.93270  0.77862  Biso   1.000  H
  O344     1.0000 0.54474  0.05160  0.83865  Biso   1.000  O
  O345     1.0000 0.54472  0.05160  0.83860  Biso   1.000  O
  O346     1.0000 0.54478  0.05160  0.83860  Biso   1.000  O
  N118     1.0000 0.73611  0.18479  0.87025  Biso   1.000  N
  O347     1.0000 0.61771  0.22928  0.78675  Biso   1.000  O
  N119     1.0000 0.73616  0.18478  0.87020  Biso   1.000  N
  O348     1.0000 0.61776  0.22927  0.78670  Biso   1.000  O
  N120     1.0000 0.73618  0.18485  0.87025  Biso   1.000  N
  O349     1.0000 0.61778  0.22934  0.78675  Biso   1.000  O
  N121     1.0000 0.73616  0.18484  0.87020  Biso   1.000  N
  O350     1.0000 0.61776  0.22934  0.78670  Biso   1.000  O
  C2243    1.0000 0.53040  0.84845  0.36892  Biso   1.000  C
  H1611    1.0000 0.53836  0.92427  0.45852  Biso   1.000  H
  C2244    1.0000 0.53034  0.84845  0.36892  Biso   1.000  C
  C2245    1.0000 0.67118  0.79298  0.35994  Biso   1.000  C
  H1612    1.0000 0.78817  0.82589  0.44254  Biso   1.000  H
  C2246    1.0000 0.67110  0.79291  0.35989  Biso   1.000  C
  H1613    1.0000 0.78815  0.82582  0.44249  Biso   1.000  H
  C2247    1.0000 0.67112  0.79298  0.35994  Biso   1.000  C
  C2248    1.0000 0.67116  0.79297  0.35989  Biso   1.000  C
  H1614    1.0000 0.78815  0.82588  0.44249  Biso   1.000  H
  C2249    1.0000 0.85510  0.49553  0.46933  Biso   1.000  C
  H1615    1.0000 0.94536  0.53129  0.56583  Biso   1.000  H
  C2250    1.0000 0.85502  0.49553  0.46928  Biso   1.000  C
  C2251    1.0000 0.85504  0.49559  0.46933  Biso   1.000  C
  C2252    1.0000 0.85502  0.49559  0.46928  Biso   1.000  C
  C2253    1.0000 0.73029  0.58456  0.43173  Biso   1.000  C
  H1616    1.0000 0.72386  0.68905  0.49915  Biso   1.000  H
  C2254    1.0000 0.73023  0.58456  0.43173  Biso   1.000  C
  H1617    1.0000 0.72384  0.68904  0.49910  Biso   1.000  H
  H1618    1.0000 0.72386  0.68911  0.49915  Biso   1.000  H
  H1619    1.0000 0.72385  0.68911  0.49910  Biso   1.000  H
  O351     1.0000 0.77633  0.62354  0.95405  Biso   1.000  O
  O352     1.0000 0.77625  0.62353  0.95400  Biso   1.000  O
  O353     1.0000 0.77626  0.62354  0.95405  Biso   1.000  O
  C2255    1.0000 0.59421  0.70691  0.84624  Biso   1.000  C
  H1620    1.0000 0.62279  0.57984  0.87154  Biso   1.000  H
  C2256    1.0000 0.57654  0.57573  0.76765  Biso   1.000  C
  C2257    1.0000 0.59414  0.70691  0.84624  Biso   1.000  C
  H1621    1.0000 0.62271  0.57977  0.87149  Biso   1.000  H
  C2258    1.0000 0.57645  0.57566  0.76760  Biso   1.000  C
  C2259    1.0000 0.57648  0.57573  0.76765  Biso   1.000  C
  H1622    1.0000 0.62278  0.57983  0.87149  Biso   1.000  H
  C2260    1.0000 0.57646  0.57572  0.76760  Biso   1.000  C
  O354     1.0000 0.95179  0.74410  0.00440  Biso   1.000  O
  O355     1.0000 0.95177  0.74410  0.00435  Biso   1.000  O
  N122     1.0000 0.02532  0.63179  0.97632  Biso   1.000  N
  N123     1.0000 0.02526  0.63179  0.97632  Biso   1.000  N
  N124     1.0000 0.02526  0.63185  0.97632  Biso   1.000  N
  C2261    1.0000 0.51313  0.10443  0.23867  Biso   1.000  C
  C2262    1.0000 0.44462  0.24060  0.20310  Biso   1.000  C
  C2263    1.0000 0.44461  0.24060  0.20305  Biso   1.000  C
  C2264    1.0000 0.44469  0.24066  0.20310  Biso   1.000  C
  C2265    1.0000 0.44461  0.24066  0.20305  Biso   1.000  C
  C2266    1.0000 0.42960  0.98408  0.10070  Biso   1.000  C
  C2267    1.0000 0.42958  0.98407  0.10065  Biso   1.000  C
  C2268    1.0000 0.42960  0.98414  0.10070  Biso   1.000  C
  C2269    1.0000 0.42958  0.98413  0.10065  Biso   1.000  C
  C2270    1.0000 0.36945  0.37831  0.16520  Biso   1.000  C
  C2271    1.0000 0.36943  0.37830  0.16515  Biso   1.000  C
  C2272    1.0000 0.36937  0.37830  0.16515  Biso   1.000  C
  C2273    1.0000 0.26106  0.31222  0.00991  Biso   1.000  C
  C2274    1.0000 0.26104  0.31216  0.00986  Biso   1.000  C
  C2275    1.0000 0.26098  0.31222  0.00986  Biso   1.000  C
  C2276    1.0000 0.54213  0.86429  0.88092  Biso   1.000  C
  C2277    1.0000 0.55551  0.75952  0.79692  Biso   1.000  C
  C2278    1.0000 0.54207  0.86429  0.88092  Biso   1.000  C
  C2279    1.0000 0.55545  0.75952  0.79692  Biso   1.000  C
  C2280    1.0000 0.54207  0.86436  0.88092  Biso   1.000  C
  C2281    1.0000 0.37462  0.90458  0.64754  Biso   1.000  C
  H1623    1.0000 0.47402  0.81561  0.67304  Biso   1.000  H
  H1624    1.0000 0.38252  0.80148  0.70772  Biso   1.000  H
  C2282    1.0000 0.37454  0.90458  0.64749  Biso   1.000  C
  H1625    1.0000 0.47393  0.81561  0.67299  Biso   1.000  H
  H1626    1.0000 0.38246  0.80148  0.70772  Biso   1.000  H
  C2283    1.0000 0.37456  0.90458  0.64754  Biso   1.000  C
  H1627    1.0000 0.47395  0.81561  0.67304  Biso   1.000  H
  C2284    1.0000 0.57041  0.01604  0.89932  Biso   1.000  C
  C2285    1.0000 0.57047  0.01598  0.89932  Biso   1.000  C
  C2286    1.0000 0.57048  0.01604  0.89932  Biso   1.000  C
  C2287    1.0000 0.76432  0.26594  0.90295  Biso   1.000  C
  C2288    1.0000 0.76437  0.26593  0.90290  Biso   1.000  C
  C2289    1.0000 0.76439  0.26594  0.90295  Biso   1.000  C
  C2290    1.0000 0.57831  0.80112  0.33335  Biso   1.000  C
  H1628    1.0000 0.45845  0.85477  0.34833  Biso   1.000  H
  C2291    1.0000 0.57823  0.80111  0.33330  Biso   1.000  C
  C2292    1.0000 0.57825  0.80118  0.33335  Biso   1.000  C
  C2293    1.0000 0.57823  0.80118  0.33330  Biso   1.000  C
  H1629    1.0000 0.70815  0.75633  0.33240  Biso   1.000  H
  H1630    1.0000 0.70815  0.75639  0.33240  Biso   1.000  H
  C2294    1.0000 0.77746  0.51475  0.42091  Biso   1.000  C
  H1631    1.0000 0.89170  0.44156  0.46105  Biso   1.000  H
  C2295    1.0000 0.77740  0.51475  0.42091  Biso   1.000  C
  H1632    1.0000 0.89162  0.44156  0.46100  Biso   1.000  H
  H1633    1.0000 0.89164  0.44156  0.46105  Biso   1.000  H
  H1634    1.0000 0.67015  0.59937  0.39422  Biso   1.000  H
  C2296    1.0000 0.73908  0.68789  0.99011  Biso   1.000  C
  C2297    1.0000 0.73908  0.68796  0.99011  Biso   1.000  C
  C2298    1.0000 0.60693  0.73290  0.91282  Biso   1.000  C
  C2299    1.0000 0.60686  0.73290  0.91282  Biso   1.000  C
  C2300    1.0000 0.60686  0.73296  0.91282  Biso   1.000  C
  H1635    1.0000 0.60706  0.51771  0.76011  Biso   1.000  H
  H1636    1.0000 0.58089  0.61638  0.72945  Biso   1.000  H
  C2301    1.0000 0.47459  0.55609  0.76254  Biso   1.000  C
  H1637    1.0000 0.58081  0.61638  0.72940  Biso   1.000  H
  C2302    1.0000 0.47457  0.55608  0.76249  Biso   1.000  C
  H1638    1.0000 0.58083  0.61644  0.72945  Biso   1.000  H
  H1639    1.0000 0.58088  0.61638  0.72940  Biso   1.000  H
  C2303    1.0000 0.11144  0.64668  0.02499  Biso   1.000  C
  C2304    1.0000 0.11150  0.64668  0.02499  Biso   1.000  C
  C2305    1.0000 0.11151  0.64675  0.02499  Biso   1.000  C
  C2306    1.0000 0.57143  0.15292  0.30362  Biso   1.000  C
  H1640    1.0000 0.56063  0.06742  0.22141  Biso   1.000  H
  C2307    1.0000 0.43961  0.04410  0.25058  Biso   1.000  C
  C2308    1.0000 0.57148  0.15292  0.30357  Biso   1.000  C
  H1641    1.0000 0.56067  0.06741  0.22136  Biso   1.000  H
  C2309    1.0000 0.43967  0.04410  0.25058  Biso   1.000  C
  C2310    1.0000 0.57150  0.15292  0.30362  Biso   1.000  C
  H1642    1.0000 0.56069  0.06742  0.22141  Biso   1.000  H
  C2311    1.0000 0.43968  0.04416  0.25058  Biso   1.000  C
  C2312    1.0000 0.57141  0.15292  0.30357  Biso   1.000  C
  H1643    1.0000 0.56061  0.06741  0.22136  Biso   1.000  H
  C2313    1.0000 0.43961  0.04416  0.25058  Biso   1.000  C
  H1644    1.0000 0.45453  0.26075  0.25460  Biso   1.000  H
  H1645    1.0000 0.45451  0.26075  0.25455  Biso   1.000  H
  H1646    1.0000 0.43449  0.93881  0.06180  Biso   1.000  H
  O356     1.0000 0.45527  0.94851  0.16138  Biso   1.000  O
  H1647    1.0000 0.43447  0.93881  0.06176  Biso   1.000  H
  H1648    1.0000 0.36001  0.00088  0.09207  Biso   1.000  H
  H1649    1.0000 0.36007  0.00094  0.09207  Biso   1.000  H
  H1650    1.0000 0.36001  0.00094  0.09207  Biso   1.000  H
  C2314    1.0000 0.26915  0.35808  0.16530  Biso   1.000  C
  H1651    1.0000 0.37734  0.42028  0.12848  Biso   1.000  H
  C2315    1.0000 0.42360  0.42439  0.23237  Biso   1.000  C
  C2316    1.0000 0.26914  0.35808  0.16525  Biso   1.000  C
  C2317    1.0000 0.42366  0.42439  0.23237  Biso   1.000  C
  C2318    1.0000 0.26916  0.35815  0.16530  Biso   1.000  C
  H1652    1.0000 0.37735  0.42034  0.12848  Biso   1.000  H
  C2319    1.0000 0.42366  0.42445  0.23237  Biso   1.000  C
  C2320    1.0000 0.26907  0.35814  0.16525  Biso   1.000  C
  H1653    1.0000 0.37728  0.42034  0.12848  Biso   1.000  H
  C2321    1.0000 0.42360  0.42445  0.23237  Biso   1.000  C
  H1654    1.0000 0.24368  0.32413  0.95802  Biso   1.000  H
  H1655    1.0000 0.24361  0.32413  0.95802  Biso   1.000  H
  O357     1.0000 0.22381  0.37658  0.04598  Biso   1.000  O
  H1656    1.0000 0.23321  0.25098  0.01537  Biso   1.000  H
  O358     1.0000 0.22388  0.37664  0.04598  Biso   1.000  O
  O359     1.0000 0.22381  0.37664  0.04598  Biso   1.000  O
  C2322    1.0000 0.58082  0.81163  0.93023  Biso   1.000  C
  O360     1.0000 0.51548  0.94143  0.90002  Biso   1.000  O
  C2323    1.0000 0.58076  0.81163  0.93023  Biso   1.000  C
  H1657    1.0000 0.54561  0.73937  0.74543  Biso   1.000  H
  H1658    1.0000 0.54554  0.73937  0.74543  Biso   1.000  H
  H1659    1.0000 0.54554  0.73943  0.74543  Biso   1.000  H
  C2324    1.0000 0.33706  0.85948  0.57952  Biso   1.000  C
  H1660    1.0000 0.31893  0.92578  0.66535  Biso   1.000  H
  H1661    1.0000 0.41829  0.95781  0.64451  Biso   1.000  H
  H1662    1.0000 0.31884  0.92578  0.66530  Biso   1.000  H
  H1663    1.0000 0.41822  0.95775  0.64451  Biso   1.000  H
  H1664    1.0000 0.31886  0.92578  0.66535  Biso   1.000  H
  H1665    1.0000 0.41822  0.95781  0.64451  Biso   1.000  H
  H1666    1.0000 0.64013  0.99924  0.90796  Biso   1.000  H
  H1667    1.0000 0.64005  0.99923  0.90791  Biso   1.000  H
  H1668    1.0000 0.64007  0.99924  0.90796  Biso   1.000  H
  H1669    1.0000 0.56552  0.06130  0.93822  Biso   1.000  H
  H1670    1.0000 0.56559  0.06130  0.93822  Biso   1.000  H
  C2325    1.0000 0.70913  0.33392  0.89615  Biso   1.000  C
  C2326    1.0000 0.85403  0.27573  0.94244  Biso   1.000  C
  C2327    1.0000 0.70911  0.33392  0.89610  Biso   1.000  C
  C2328    1.0000 0.85409  0.27573  0.94244  Biso   1.000  C
  C2329    1.0000 0.70920  0.33392  0.89615  Biso   1.000  C
  C2330    1.0000 0.70918  0.33392  0.89610  Biso   1.000  C
  H1671    1.0000 0.54337  0.77087  0.28532  Biso   1.000  H
  H1672    1.0000 0.54330  0.77087  0.28532  Biso   1.000  H
  H1673    1.0000 0.75409  0.47566  0.37522  Biso   1.000  H
  H1674    1.0000 0.75402  0.47566  0.37522  Biso   1.000  H
  H1675    1.0000 0.76693  0.74913  0.98466  Biso   1.000  H
  O361     1.0000 0.64234  0.68399  0.96496  Biso   1.000  O
  H1676    1.0000 0.76685  0.74913  0.98461  Biso   1.000  H
  O362     1.0000 0.64225  0.68399  0.96491  Biso   1.000  O
  H1677    1.0000 0.76686  0.74913  0.98466  Biso   1.000  H
  O363     1.0000 0.64227  0.68405  0.96496  Biso   1.000  O
  O364     1.0000 0.64226  0.68405  0.96491  Biso   1.000  O
  H1678    1.0000 0.75640  0.67599  0.04201  Biso   1.000  H
  H1679    1.0000 0.75638  0.67598  0.04196  Biso   1.000  H
  H1680    1.0000 0.75640  0.67605  0.04201  Biso   1.000  H
  H1681    1.0000 0.44448  0.61407  0.77103  Biso   1.000  H
  H1682    1.0000 0.44001  0.52782  0.71372  Biso   1.000  H
  C2331    1.0000 0.46248  0.49712  0.81325  Biso   1.000  C
  H1683    1.0000 0.43994  0.52776  0.71372  Biso   1.000  H
  C2332    1.0000 0.46247  0.49711  0.81320  Biso   1.000  C
  H1684    1.0000 0.44448  0.61413  0.77103  Biso   1.000  H
  H1685    1.0000 0.43995  0.52782  0.71372  Biso   1.000  H
  C2333    1.0000 0.16656  0.57870  0.03179  Biso   1.000  C
  C2334    1.0000 0.14598  0.72439  0.05759  Biso   1.000  C
  C2335    1.0000 0.14598  0.72445  0.05759  Biso   1.000  C
  C2336    1.0000 0.16663  0.57870  0.03179  Biso   1.000  C
  C2337    1.0000 0.62552  0.09553  0.35248  Biso   1.000  C
  H1686    1.0000 0.52612  0.18451  0.32698  Biso   1.000  H
  H1687    1.0000 0.61761  0.19864  0.29230  Biso   1.000  H
  C2338    1.0000 0.62558  0.09553  0.35248  Biso   1.000  C
  H1688    1.0000 0.52619  0.18451  0.32698  Biso   1.000  H
  H1689    1.0000 0.61766  0.19863  0.29225  Biso   1.000  H
  H1690    1.0000 0.52619  0.18457  0.32698  Biso   1.000  H
  H1691    1.0000 0.61768  0.19864  0.29230  Biso   1.000  H
  H1692    1.0000 0.52612  0.18457  0.32698  Biso   1.000  H
  H1693    1.0000 0.61760  0.19863  0.29225  Biso   1.000  H
  C2339    1.0000 0.41435  0.97002  0.21000  Biso   1.000  C
  C2340    1.0000 0.41439  0.97001  0.20995  Biso   1.000  C
  C2341    1.0000 0.41441  0.97002  0.21000  Biso   1.000  C
  C2342    1.0000 0.39745  0.06295  0.30019  Biso   1.000  C
  C2343    1.0000 0.39738  0.06295  0.30019  Biso   1.000  C
  C2344    1.0000 0.24367  0.34001  0.22200  Biso   1.000  C
  C2345    1.0000 0.20412  0.35412  0.10388  Biso   1.000  C
  C2346    1.0000 0.24365  0.34000  0.22195  Biso   1.000  C
  C2347    1.0000 0.24368  0.34007  0.22200  Biso   1.000  C
  C2348    1.0000 0.24359  0.34000  0.22195  Biso   1.000  C
  H1694    1.0000 0.39307  0.48241  0.23991  Biso   1.000  H
  H1695    1.0000 0.41924  0.38374  0.27057  Biso   1.000  H
  C2349    1.0000 0.52555  0.44403  0.23748  Biso   1.000  C
  H1696    1.0000 0.39306  0.48240  0.23986  Biso   1.000  H
  H1697    1.0000 0.39308  0.48247  0.23991  Biso   1.000  H
  H1698    1.0000 0.39299  0.48246  0.23986  Biso   1.000  H
  H1699    1.0000 0.41918  0.38374  0.27057  Biso   1.000  H
  C2350    1.0000 0.52549  0.44403  0.23748  Biso   1.000  C
  C2351    1.0000 0.58485  0.83972  0.00068  Biso   1.000  C
  C2352    1.0000 0.58485  0.83966  0.00068  Biso   1.000  C
  C2353    1.0000 0.58492  0.83972  0.00068  Biso   1.000  C
  C2354    1.0000 0.37895  0.87479  0.52991  Biso   1.000  C
  C2355    1.0000 0.26598  0.79838  0.56771  Biso   1.000  C
  C2356    1.0000 0.26592  0.79838  0.56771  Biso   1.000  C
  C2357    1.0000 0.74374  0.41163  0.92874  Biso   1.000  C
  H1700    1.0000 0.63974  0.32640  0.86564  Biso   1.000  H
  C2358    1.0000 0.74372  0.41162  0.92869  Biso   1.000  C
  C2359    1.0000 0.74378  0.41162  0.92869  Biso   1.000  C
  H1701    1.0000 0.63980  0.32640  0.86564  Biso   1.000  H
  C2360    1.0000 0.88857  0.35343  0.97503  Biso   1.000  C
  H1702    1.0000 0.89676  0.22302  0.94765  Biso   1.000  H
  H1703    1.0000 0.89674  0.22301  0.94760  Biso   1.000  H
  C2361    1.0000 0.47351  0.41158  0.80382  Biso   1.000  C
  C2362    1.0000 0.44033  0.52861  0.86985  Biso   1.000  C
  C2363    1.0000 0.47345  0.41158  0.80382  Biso   1.000  C
  C2364    1.0000 0.44024  0.52860  0.86980  Biso   1.000  C
  C2365    1.0000 0.47345  0.41164  0.80382  Biso   1.000  C
  C2366    1.0000 0.44026  0.52861  0.86985  Biso   1.000  C
  C2367    1.0000 0.25627  0.58849  0.07128  Biso   1.000  C
  H1704    1.0000 0.13987  0.51847  0.00659  Biso   1.000  H
  H1705    1.0000 0.13987  0.51854  0.00659  Biso   1.000  H
  C2368    1.0000 0.23568  0.73418  0.09708  Biso   1.000  C
  C2369    1.0000 0.23569  0.73424  0.09708  Biso   1.000  C
  H1706    1.0000 0.10325  0.77710  0.05238  Biso   1.000  H
  H1707    1.0000 0.10331  0.77710  0.05238  Biso   1.000  H
  C2370    1.0000 0.66307  0.14063  0.42050  Biso   1.000  C
  H1708    1.0000 0.68121  0.07433  0.33467  Biso   1.000  H
  H1709    1.0000 0.58185  0.04231  0.35551  Biso   1.000  H
  C2371    1.0000 0.66305  0.14063  0.42045  Biso   1.000  C
  H1710    1.0000 0.68127  0.07433  0.33467  Biso   1.000  H
  H1711    1.0000 0.58183  0.04230  0.35546  Biso   1.000  H
  H1712    1.0000 0.58185  0.04237  0.35551  Biso   1.000  H
  C2372    1.0000 0.66299  0.14063  0.42045  Biso   1.000  C
  H1713    1.0000 0.58184  0.04236  0.35546  Biso   1.000  H
  C2373    1.0000 0.34685  0.91485  0.21898  Biso   1.000  C
  C2374    1.0000 0.34691  0.91479  0.21898  Biso   1.000  C
  C2375    1.0000 0.34691  0.91485  0.21898  Biso   1.000  C
  C2376    1.0000 0.33004  0.00760  0.30927  Biso   1.000  C
  H1714    1.0000 0.41706  0.12026  0.33170  Biso   1.000  H
  C2377    1.0000 0.33005  0.00766  0.30927  Biso   1.000  C
  C2378    1.0000 0.32998  0.00766  0.30927  Biso   1.000  C
  H1715    1.0000 0.41700  0.12026  0.33170  Biso   1.000  H
  C2379    1.0000 0.15303  0.31791  0.21729  Biso   1.000  C
  H1716    1.0000 0.29406  0.34312  0.26958  Biso   1.000  H
  C2380    1.0000 0.15303  0.31797  0.21729  Biso   1.000  C
  H1717    1.0000 0.29399  0.34312  0.26958  Biso   1.000  H
  C2381    1.0000 0.11353  0.33201  0.09911  Biso   1.000  C
  C2382    1.0000 0.11351  0.33201  0.09906  Biso   1.000  C
  C2383    1.0000 0.11359  0.33201  0.09911  Biso   1.000  C
  H1718    1.0000 0.55566  0.38605  0.22900  Biso   1.000  H
  H1719    1.0000 0.56013  0.47230  0.28630  Biso   1.000  H
  C2384    1.0000 0.53765  0.50300  0.18678  Biso   1.000  C
  H1720    1.0000 0.55564  0.38598  0.22895  Biso   1.000  H
  H1721    1.0000 0.56017  0.47229  0.28625  Biso   1.000  H
  H1722    1.0000 0.56019  0.47236  0.28630  Biso   1.000  H
  C2385    1.0000 0.53766  0.50306  0.18678  Biso   1.000  C
  H1723    1.0000 0.55557  0.38605  0.22895  Biso   1.000  H
  H1724    1.0000 0.56011  0.47236  0.28625  Biso   1.000  H
  C2386    1.0000 0.53759  0.50300  0.18678  Biso   1.000  C
  N125     1.0000 0.66868  0.87318  0.03888  Biso   1.000  N
  O365     1.0000 0.51994  0.82482  0.02241  Biso   1.000  O
  O366     1.0000 0.51999  0.82482  0.02236  Biso   1.000  O
  N126     1.0000 0.66868  0.87325  0.03888  Biso   1.000  N
  O367     1.0000 0.52001  0.82482  0.02241  Biso   1.000  O
  C2387    1.0000 0.34987  0.82888  0.46864  Biso   1.000  C
  H1725    1.0000 0.43397  0.92210  0.53914  Biso   1.000  H
  C2388    1.0000 0.34985  0.82887  0.46859  Biso   1.000  C
  H1726    1.0000 0.43396  0.92209  0.53909  Biso   1.000  H
  C2389    1.0000 0.23690  0.75247  0.50644  Biso   1.000  C
  H1727    1.0000 0.23347  0.78660  0.60611  Biso   1.000  H
  C2390    1.0000 0.23682  0.75247  0.50639  Biso   1.000  C
  H1728    1.0000 0.23341  0.78660  0.60611  Biso   1.000  H
  C2391    1.0000 0.23684  0.75247  0.50644  Biso   1.000  C
  C2392    1.0000 0.83344  0.42142  0.96824  Biso   1.000  C
  C2393    1.0000 0.83351  0.42142  0.96824  Biso   1.000  C
  H1729    1.0000 0.70107  0.46434  0.92353  Biso   1.000  H
  N127     1.0000 0.97482  0.36833  0.02370  Biso   1.000  N
  N128     1.0000 0.97480  0.36826  0.02365  Biso   1.000  N
  N129     1.0000 0.97488  0.36833  0.02370  Biso   1.000  N
  N130     1.0000 0.97480  0.36832  0.02365  Biso   1.000  N
  C2394    1.0000 0.46224  0.35758  0.85095  Biso   1.000  C
  H1730    1.0000 0.49072  0.38727  0.76001  Biso   1.000  H
  C2395    1.0000 0.46216  0.35758  0.85090  Biso   1.000  C
  H1731    1.0000 0.49066  0.38727  0.76001  Biso   1.000  H
  C2396    1.0000 0.46218  0.35765  0.85095  Biso   1.000  C
  H1732    1.0000 0.49066  0.38733  0.76001  Biso   1.000  H
  C2397    1.0000 0.46216  0.35764  0.85090  Biso   1.000  C
  C2398    1.0000 0.42903  0.47461  0.91694  Biso   1.000  C
  H1733    1.0000 0.43180  0.59478  0.87715  Biso   1.000  H
  C2399    1.0000 0.42897  0.47461  0.91694  Biso   1.000  C
  H1734    1.0000 0.43171  0.59478  0.87710  Biso   1.000  H
  H1735    1.0000 0.43174  0.59484  0.87715  Biso   1.000  H
  H1736    1.0000 0.43178  0.59484  0.87710  Biso   1.000  H
  C2400    1.0000 0.29088  0.66620  0.10388  Biso   1.000  C
  H1737    1.0000 0.29894  0.53578  0.07649  Biso   1.000  H
  H1738    1.0000 0.29900  0.53578  0.07649  Biso   1.000  H
  H1739    1.0000 0.29900  0.53584  0.07649  Biso   1.000  H
  N131     1.0000 0.26389  0.81533  0.12977  Biso   1.000  N
  C2401    1.0000 0.62119  0.12533  0.47011  Biso   1.000  C
  C2402    1.0000 0.73415  0.20173  0.43231  Biso   1.000  C
  C2403    1.0000 0.62117  0.12533  0.47007  Biso   1.000  C
  C2404    1.0000 0.73414  0.20173  0.43226  Biso   1.000  C
  C2405    1.0000 0.62119  0.12539  0.47011  Biso   1.000  C
  C2406    1.0000 0.73416  0.20180  0.43231  Biso   1.000  C
  C2407    1.0000 0.62111  0.12539  0.47007  Biso   1.000  C
  C2408    1.0000 0.30468  0.93351  0.26859  Biso   1.000  C
  C2409    1.0000 0.33515  0.82724  0.18727  Biso   1.000  C
  C2410    1.0000 0.33521  0.82724  0.18727  Biso   1.000  C
  C2411    1.0000 0.30468  0.93357  0.26859  Biso   1.000  C
  C2412    1.0000 0.27636  0.02801  0.35958  Biso   1.000  C
  C2413    1.0000 0.27636  0.02808  0.35958  Biso   1.000  C
  C2414    1.0000 0.27629  0.02808  0.35958  Biso   1.000  C
  C2415    1.0000 0.12142  0.29613  0.27648  Biso   1.000  C
  C2416    1.0000 0.08803  0.31399  0.15577  Biso   1.000  C
  C2417    1.0000 0.12148  0.29613  0.27648  Biso   1.000  C
  C2418    1.0000 0.08803  0.31406  0.15577  Biso   1.000  C
  C2419    1.0000 0.04134  0.31448  0.03348  Biso   1.000  C
  C2420    1.0000 0.04135  0.31454  0.03348  Biso   1.000  C
  C2421    1.0000 0.04128  0.31454  0.03348  Biso   1.000  C
  C2422    1.0000 0.52662  0.58854  0.19620  Biso   1.000  C
  C2423    1.0000 0.55981  0.47151  0.13017  Biso   1.000  C
  C2424    1.0000 0.52667  0.58854  0.19616  Biso   1.000  C
  C2425    1.0000 0.52669  0.58854  0.19620  Biso   1.000  C
  C2426    1.0000 0.55988  0.47151  0.13017  Biso   1.000  C
  C2427    1.0000 0.52660  0.58854  0.19616  Biso   1.000  C
  C2428    1.0000 0.68998  0.89832  0.10641  Biso   1.000  C
  C2429    1.0000 0.68997  0.89832  0.10636  Biso   1.000  C
  C2430    1.0000 0.27892  0.76778  0.45683  Biso   1.000  C
  H1740    1.0000 0.38251  0.84066  0.43024  Biso   1.000  H
  C2431    1.0000 0.27885  0.76778  0.45683  Biso   1.000  C
  H1741    1.0000 0.38243  0.84066  0.43019  Biso   1.000  H
  H1742    1.0000 0.38244  0.84066  0.43024  Biso   1.000  H
  H1743    1.0000 0.18188  0.70516  0.49722  Biso   1.000  H
  H1744    1.0000 0.18181  0.70516  0.49722  Biso   1.000  H
  H1745    1.0000 0.86014  0.48164  0.99344  Biso   1.000  H
  H1746    1.0000 0.86020  0.48164  0.99344  Biso   1.000  H
  C2432    1.0000 0.44002  0.38913  0.90756  Biso   1.000  C
  H1747    1.0000 0.47083  0.29141  0.84366  Biso   1.000  H
  C2433    1.0000 0.43994  0.38913  0.90751  Biso   1.000  C
  H1748    1.0000 0.47075  0.29140  0.84361  Biso   1.000  H
  C2434    1.0000 0.43995  0.38913  0.90756  Biso   1.000  C
  H1749    1.0000 0.47077  0.29141  0.84366  Biso   1.000  H
  C2435    1.0000 0.44000  0.38913  0.90751  Biso   1.000  C
  H1750    1.0000 0.41183  0.49904  0.96074  Biso   1.000  H
  H1751    1.0000 0.41175  0.49903  0.96069  Biso   1.000  H
  H1752    1.0000 0.41176  0.49904  0.96074  Biso   1.000  H
  H1753    1.0000 0.36027  0.67372  0.13439  Biso   1.000  H
  H1754    1.0000 0.36033  0.67372  0.13439  Biso   1.000  H
  C2436    1.0000 0.65027  0.17124  0.53139  Biso   1.000  C
  H1755    1.0000 0.56616  0.07802  0.46089  Biso   1.000  H
  C2437    1.0000 0.65027  0.17130  0.53139  Biso   1.000  C
  H1756    1.0000 0.56617  0.07808  0.46089  Biso   1.000  H
  C2438    1.0000 0.65021  0.17124  0.53139  Biso   1.000  C
  H1757    1.0000 0.56610  0.07808  0.46089  Biso   1.000  H
  C2439    1.0000 0.76324  0.24764  0.49358  Biso   1.000  C
  H1758    1.0000 0.76667  0.21352  0.39391  Biso   1.000  H
  H1759    1.0000 0.76665  0.21352  0.39386  Biso   1.000  H
  H1760    1.0000 0.76667  0.21358  0.39391  Biso   1.000  H
  H1761    1.0000 0.76659  0.21358  0.39386  Biso   1.000  H
  O368     1.0000 0.24079  0.87381  0.27851  Biso   1.000  O
  O369     1.0000 0.24077  0.87380  0.27846  Biso   1.000  O
  O370     1.0000 0.24079  0.87387  0.27851  Biso   1.000  O
  O371     1.0000 0.24078  0.87387  0.27846  Biso   1.000  O
  O372     1.0000 0.38230  0.77084  0.21327  Biso   1.000  O
  H1762    1.0000 0.25148  0.97296  0.37789  Biso   1.000  H
  H1763    1.0000 0.25154  0.97296  0.37789  Biso   1.000  H
  C2440    1.0000 0.33464  0.07186  0.42482  Biso   1.000  C
  C2441    1.0000 0.19476  0.07391  0.32272  Biso   1.000  C
  C2442    1.0000 0.33468  0.07185  0.42477  Biso   1.000  C
  C2443    1.0000 0.19474  0.07390  0.32267  Biso   1.000  C
  C2444    1.0000 0.33470  0.07186  0.42482  Biso   1.000  C
  C2445    1.0000 0.19477  0.07397  0.32272  Biso   1.000  C
  C2446    1.0000 0.33462  0.07185  0.42477  Biso   1.000  C
  C2447    1.0000 0.19468  0.07397  0.32267  Biso   1.000  C
  C2448    1.0000 0.12281  0.19942  0.28258  Biso   1.000  C
  H1764    1.0000 0.05161  0.31240  0.26680  Biso   1.000  H
  C2449    1.0000 0.17422  0.34476  0.34291  Biso   1.000  C
  C2450    1.0000 0.12287  0.19942  0.28258  Biso   1.000  C
  H1765    1.0000 0.05166  0.31239  0.26675  Biso   1.000  H
  C2451    1.0000 0.17427  0.34476  0.34286  Biso   1.000  C
  H1766    1.0000 0.05168  0.31246  0.26680  Biso   1.000  H
  C2452    1.0000 0.17429  0.34476  0.34291  Biso   1.000  C
  H1767    1.0000 0.05159  0.31245  0.26675  Biso   1.000  H
  C2453    1.0000 0.17420  0.34476  0.34286  Biso   1.000  C
  O373     1.0000 0.99626  0.29653  0.14927  Biso   1.000  O
  O374     1.0000 0.99619  0.29653  0.14927  Biso   1.000  O
  O375     1.0000 0.04829  0.25601  0.99562  Biso   1.000  O
  O376     1.0000 0.04822  0.25601  0.99562  Biso   1.000  O
  C2454    1.0000 0.53790  0.64253  0.14907  Biso   1.000  C
  H1768    1.0000 0.50941  0.61285  0.24001  Biso   1.000  H
  C2455    1.0000 0.53796  0.64253  0.14907  Biso   1.000  C
  H1769    1.0000 0.50946  0.61284  0.23996  Biso   1.000  H
  H1770    1.0000 0.50948  0.61285  0.24001  Biso   1.000  H
  H1771    1.0000 0.50940  0.61284  0.23996  Biso   1.000  H
  C2456    1.0000 0.57110  0.52551  0.08309  Biso   1.000  C
  H1772    1.0000 0.56834  0.40534  0.12288  Biso   1.000  H
  C2457    1.0000 0.57117  0.52551  0.08309  Biso   1.000  C
  H1773    1.0000 0.56834  0.40527  0.12288  Biso   1.000  H
  H1774    1.0000 0.56827  0.40534  0.12288  Biso   1.000  H
  C2458    1.0000 0.63485  0.88471  0.14808  Biso   1.000  C
  C2459    1.0000 0.77586  0.93859  0.13191  Biso   1.000  C
  C2460    1.0000 0.77584  0.93859  0.13186  Biso   1.000  C
  C2461    1.0000 0.77587  0.93865  0.13191  Biso   1.000  C
  C2462    1.0000 0.63492  0.88471  0.14808  Biso   1.000  C
  C2463    1.0000 0.77591  0.93865  0.13186  Biso   1.000  C
  H1775    1.0000 0.25639  0.73214  0.40935  Biso   1.000  H
  H1776    1.0000 0.25630  0.73214  0.40930  Biso   1.000  H
  H1777    1.0000 0.25632  0.73220  0.40935  Biso   1.000  H
  H1778    1.0000 0.25637  0.73214  0.40930  Biso   1.000  H
  H1779    1.0000 0.43132  0.34732  0.94402  Biso   1.000  H
  H1780    1.0000 0.43126  0.34732  0.94402  Biso   1.000  H
  C2464    1.0000 0.72122  0.23234  0.54319  Biso   1.000  C
  H1781    1.0000 0.61763  0.15945  0.56979  Biso   1.000  H
  C2465    1.0000 0.72129  0.23234  0.54319  Biso   1.000  C
  H1782    1.0000 0.61769  0.15945  0.56979  Biso   1.000  H
  C2466    1.0000 0.72129  0.23240  0.54319  Biso   1.000  C
  C2467    1.0000 0.72122  0.23240  0.54319  Biso   1.000  C
  H1783    1.0000 0.81826  0.29495  0.50281  Biso   1.000  H
  H1784    1.0000 0.81824  0.29495  0.50276  Biso   1.000  H
  C2468    1.0000 0.14900  0.89394  0.24319  Biso   1.000  C
  H1785    1.0000 0.35254  0.13483  0.41519  Biso   1.000  H
  H1786    1.0000 0.39573  0.03925  0.44347  Biso   1.000  H
  C2469    1.0000 0.28362  0.07657  0.47547  Biso   1.000  C
  H1787    1.0000 0.39579  0.03925  0.44347  Biso   1.000  H
  C2470    1.0000 0.28369  0.07657  0.47547  Biso   1.000  C
  C2471    1.0000 0.19721  0.16091  0.32098  Biso   1.000  C
  C2472    1.0000 0.11774  0.02553  0.28590  Biso   1.000  C
  C2473    1.0000 0.19727  0.16091  0.32098  Biso   1.000  C
  C2474    1.0000 0.11772  0.02553  0.28585  Biso   1.000  C
  C2475    1.0000 0.19727  0.16097  0.32098  Biso   1.000  C
  C2476    1.0000 0.19721  0.16097  0.32098  Biso   1.000  C
  C2477    1.0000 0.04591  0.15104  0.24577  Biso   1.000  C
  C2478    1.0000 0.04598  0.15104  0.24577  Biso   1.000  C
  H1788    1.0000 0.17534  0.41111  0.33661  Biso   1.000  H
  H1789    1.0000 0.24296  0.32485  0.35710  Biso   1.000  H
  C2479    1.0000 0.12802  0.32703  0.39798  Biso   1.000  C
  H1790    1.0000 0.17532  0.41110  0.33656  Biso   1.000  H
  C2480    1.0000 0.12809  0.32703  0.39798  Biso   1.000  C
  H1791    1.0000 0.17534  0.41117  0.33661  Biso   1.000  H
  H1792    1.0000 0.17532  0.41117  0.33656  Biso   1.000  H
  H1793    1.0000 0.24289  0.32485  0.35710  Biso   1.000  H
  C2481    1.0000 0.96766  0.21032  0.14679  Biso   1.000  C
  C2482    1.0000 0.96760  0.21032  0.14679  Biso   1.000  C
  C2483    1.0000 0.56012  0.61098  0.09247  Biso   1.000  C
  H1794    1.0000 0.52930  0.70871  0.15637  Biso   1.000  H
  H1795    1.0000 0.52937  0.70871  0.15637  Biso   1.000  H
  C2484    1.0000 0.56012  0.61105  0.09247  Biso   1.000  C
  H1796    1.0000 0.58831  0.50108  0.03928  Biso   1.000  H
  H1797    1.0000 0.58838  0.50114  0.03928  Biso   1.000  H
  H1798    1.0000 0.58831  0.50114  0.03928  Biso   1.000  H
  C2485    1.0000 0.66569  0.91145  0.21531  Biso   1.000  C
  H1799    1.0000 0.56825  0.85341  0.12838  Biso   1.000  H
  C2486    1.0000 0.66567  0.91144  0.21526  Biso   1.000  C
  H1800    1.0000 0.56832  0.85341  0.12838  Biso   1.000  H
  C2487    1.0000 0.80675  0.96544  0.19908  Biso   1.000  C
  C2488    1.0000 0.80681  0.96544  0.19908  Biso   1.000  C
  H1801    1.0000 0.81855  0.94920  0.09961  Biso   1.000  H
  H1802    1.0000 0.81859  0.94919  0.09956  Biso   1.000  H
  H1803    1.0000 0.81861  0.94920  0.09961  Biso   1.000  H
  H1804    1.0000 0.74375  0.26798  0.59067  Biso   1.000  H
  H1805    1.0000 0.10868  0.83634  0.22409  Biso   1.000  H
  H1806    1.0000 0.15138  0.93124  0.20251  Biso   1.000  H
  O377     1.0000 0.11068  0.93863  0.28799  Biso   1.000  O
  H1807    1.0000 0.15136  0.93123  0.20246  Biso   1.000  H
  H1808    1.0000 0.15142  0.93123  0.20246  Biso   1.000  H
  O378     1.0000 0.11074  0.93863  0.28799  Biso   1.000  O
  H1809    1.0000 0.22334  0.10987  0.45558  Biso   1.000  H
  H1810    1.0000 0.26437  0.01297  0.48242  Biso   1.000  H
  C2489    1.0000 0.33177  0.12064  0.54250  Biso   1.000  C
  H1811    1.0000 0.26435  0.01296  0.48237  Biso   1.000  H
  C2490    1.0000 0.33177  0.12070  0.54250  Biso   1.000  C
  C2491    1.0000 0.33171  0.12070  0.54250  Biso   1.000  C
  H1812    1.0000 0.25684  0.19833  0.34941  Biso   1.000  H
  H1813    1.0000 0.25682  0.19833  0.34936  Biso   1.000  H
  C2492    1.0000 0.04334  0.06404  0.24750  Biso   1.000  C
  C2493    1.0000 0.04332  0.06404  0.24745  Biso   1.000  C
  O379     1.0000 0.96802  0.18640  0.21039  Biso   1.000  O
  O380     1.0000 0.96808  0.18640  0.21039  Biso   1.000  O
  O381     1.0000 0.96808  0.18646  0.21039  Biso   1.000  O
  O382     1.0000 0.96802  0.18646  0.21039  Biso   1.000  O
  H1814    1.0000 0.13765  0.26265  0.40929  Biso   1.000  H
  H1815    1.0000 0.05646  0.33562  0.37818  Biso   1.000  H
  C2494    1.0000 0.16203  0.38427  0.46089  Biso   1.000  C
  C2495    1.0000 0.16209  0.38427  0.46089  Biso   1.000  C
  H1816    1.0000 0.05646  0.33568  0.37818  Biso   1.000  H
  H1817    1.0000 0.05640  0.33568  0.37818  Biso   1.000  H
  H1818    1.0000 0.89995  0.19919  0.11370  Biso   1.000  H
  H1819    1.0000 0.89993  0.19919  0.11365  Biso   1.000  H
  H1820    1.0000 0.89996  0.19925  0.11370  Biso   1.000  H
  H1821    1.0000 0.89987  0.19925  0.11365  Biso   1.000  H
  H1822    1.0000 0.01400  0.17279  0.12858  Biso   1.000  H
  H1823    1.0000 0.01406  0.17279  0.12858  Biso   1.000  H
  H1824    1.0000 0.01407  0.17286  0.12858  Biso   1.000  H
  H1825    1.0000 0.01400  0.17286  0.12858  Biso   1.000  H
  H1826    1.0000 0.56881  0.65279  0.05600  Biso   1.000  H
  H1827    1.0000 0.56886  0.65279  0.05595  Biso   1.000  H
  H1828    1.0000 0.56888  0.65279  0.05600  Biso   1.000  H
  H1829    1.0000 0.56880  0.65279  0.05595  Biso   1.000  H
  C2496    1.0000 0.75170  0.95184  0.24081  Biso   1.000  C
  C2497    1.0000 0.75168  0.95184  0.24076  Biso   1.000  C
  H1830    1.0000 0.62307  0.90090  0.24760  Biso   1.000  H
  H1831    1.0000 0.62305  0.90090  0.24755  Biso   1.000  H
  H1832    1.0000 0.62307  0.90097  0.24760  Biso   1.000  H
  H1833    1.0000 0.62312  0.90096  0.24755  Biso   1.000  H
  N132     1.0000 0.89334  0.01045  0.22979  Biso   1.000  N
  C2498    1.0000 0.42467  0.11249  0.56899  Biso   1.000  C
  C2499    1.0000 0.28397  0.16796  0.57802  Biso   1.000  C
  C2500    1.0000 0.42466  0.11243  0.56899  Biso   1.000  C
  C2501    1.0000 0.28395  0.16796  0.57797  Biso   1.000  C
  C2502    1.0000 0.42460  0.11249  0.56899  Biso   1.000  C
  C2503    1.0000 0.96512  0.01070  0.20439  Biso   1.000  C
  C2504    1.0000 0.96519  0.01077  0.20439  Biso   1.000  C
  C2505    1.0000 0.11475  0.45395  0.47160  Biso   1.000  C
  C2506    1.0000 0.23963  0.36504  0.50921  Biso   1.000  C
  C2507    1.0000 0.11473  0.45394  0.47155  Biso   1.000  C
  C2508    1.0000 0.23968  0.36504  0.50916  Biso   1.000  C
  C2509    1.0000 0.23970  0.36510  0.50921  Biso   1.000  C
  C2510    1.0000 0.23961  0.36504  0.50916  Biso   1.000  C
  H1834    1.0000 0.77556  0.97254  0.29280  Biso   1.000  H
  H1835    1.0000 0.77560  0.97253  0.29275  Biso   1.000  H
  H1836    1.0000 0.77562  0.97254  0.29280  Biso   1.000  H
  C2511    1.0000 0.46974  0.15167  0.63111  Biso   1.000  C
  H1837    1.0000 0.46178  0.07584  0.54151  Biso   1.000  H
  C2512    1.0000 0.46978  0.15167  0.63106  Biso   1.000  C
  H1838    1.0000 0.46176  0.07584  0.54146  Biso   1.000  H
  C2513    1.0000 0.46980  0.15167  0.63111  Biso   1.000  C
  H1839    1.0000 0.46179  0.07591  0.54151  Biso   1.000  H
  C2514    1.0000 0.46972  0.15167  0.63106  Biso   1.000  C
  H1840    1.0000 0.46170  0.07584  0.54146  Biso   1.000  H
  C2515    1.0000 0.32895  0.20714  0.64009  Biso   1.000  C
  H1841    1.0000 0.21197  0.17423  0.55748  Biso   1.000  H
  C2516    1.0000 0.32896  0.20720  0.64009  Biso   1.000  C
  H1842    1.0000 0.21197  0.17429  0.55748  Biso   1.000  H
  H1843    1.0000 0.21191  0.17429  0.55748  Biso   1.000  H
  O383     1.0000 0.96709  0.97833  0.15170  Biso   1.000  O
  O384     1.0000 0.96707  0.97833  0.15165  Biso   1.000  O
  C2517    1.0000 0.14503  0.50459  0.53069  Biso   1.000  C
  H1844    1.0000 0.05478  0.46882  0.43420  Biso   1.000  H
  C2518    1.0000 0.14510  0.50452  0.53069  Biso   1.000  C
  C2519    1.0000 0.14510  0.50459  0.53069  Biso   1.000  C
  H1845    1.0000 0.05478  0.46889  0.43420  Biso   1.000  H
  H1846    1.0000 0.05472  0.46889  0.43420  Biso   1.000  H
  C2520    1.0000 0.26985  0.41555  0.56830  Biso   1.000  C
  H1847    1.0000 0.27628  0.31107  0.50087  Biso   1.000  H
  H1848    1.0000 0.27621  0.31107  0.50087  Biso   1.000  H
  C2521    1.0000 0.42182  0.19900  0.66668  Biso   1.000  C
  H1849    1.0000 0.54169  0.14535  0.65170  Biso   1.000  H
  C2522    1.0000 0.42189  0.19894  0.66668  Biso   1.000  C
  C2523    1.0000 0.42189  0.19900  0.66668  Biso   1.000  C
  H1850    1.0000 0.54169  0.14541  0.65170  Biso   1.000  H
  H1851    1.0000 0.54163  0.14541  0.65170  Biso   1.000  H
  H1852    1.0000 0.29199  0.24379  0.66762  Biso   1.000  H
  H1853    1.0000 0.29197  0.24379  0.66757  Biso   1.000  H
  H1854    1.0000 0.29190  0.24379  0.66757  Biso   1.000  H
  C2524    1.0000 0.22268  0.48536  0.57911  Biso   1.000  C
  H1855    1.0000 0.10844  0.55855  0.53898  Biso   1.000  H
  C2525    1.0000 0.22266  0.48536  0.57906  Biso   1.000  C
  C2526    1.0000 0.22259  0.48536  0.57906  Biso   1.000  C
  H1856    1.0000 0.32999  0.40075  0.60580  Biso   1.000  H
  H1857    1.0000 0.32997  0.40074  0.60576  Biso   1.000  H
  H1858    1.0000 0.32999  0.40081  0.60580  Biso   1.000  H
  H1859    1.0000 0.32991  0.40081  0.60576  Biso   1.000  H
  H1860    1.0000 0.45677  0.22925  0.71470  Biso   1.000  H
  H1861    1.0000 0.45675  0.22925  0.71465  Biso   1.000  H
  H1862    1.0000 0.45677  0.22931  0.71470  Biso   1.000  H
  H1863    1.0000 0.45675  0.22931  0.71465  Biso   1.000  H
  H1864    1.0000 0.24605  0.52445  0.62481  Biso   1.000  H
  H1865    1.0000 0.24603  0.52445  0.62476  Biso   1.000  H
  H1866    1.0000 0.24612  0.52452  0.62481  Biso   1.000  H
  O385     1.0000 0.03292  0.02179  0.84832  Biso   1.000  O
  C2527    1.0000 0.03502  0.98941  0.79563  Biso   1.000  C
  C2528    1.0000 0.03495  0.98941  0.79563  Biso   1.000  C
  N133     1.0000 0.10680  0.98967  0.77023  Biso   1.000  N
  N134     1.0000 0.10674  0.98967  0.77023  Biso   1.000  N
  N135     1.0000 0.10674  0.98973  0.77023  Biso   1.000  N
  N136     1.0000 0.10681  0.98973  0.77023  Biso   1.000  N
  C2529    1.0000 0.95680  0.93608  0.75252  Biso   1.000  C
  C2530    1.0000 0.95673  0.93608  0.75252  Biso   1.000  C
  C2531    1.0000 0.95674  0.93614  0.75252  Biso   1.000  C
  O386     1.0000 0.03298  0.02179  0.84832  Biso   1.000  O
  O387     1.0000 0.03299  0.02185  0.84832  Biso   1.000  O
  C2532    1.0000 0.19326  0.03467  0.80094  Biso   1.000  C
  C2533    1.0000 0.19324  0.03467  0.80089  Biso   1.000  C
  C2534    1.0000 0.19326  0.03474  0.80094  Biso   1.000  C
  C2535    1.0000 0.19324  0.03473  0.80089  Biso   1.000  C
  C2536    1.0000 0.88240  0.97459  0.71412  Biso   1.000  C
  C2537    1.0000 0.95423  0.84908  0.75426  Biso   1.000  C
  C2538    1.0000 0.88233  0.97459  0.71412  Biso   1.000  C
  C2539    1.0000 0.95414  0.84907  0.75421  Biso   1.000  C
  C2540    1.0000 0.95416  0.84914  0.75426  Biso   1.000  C
  C2541    1.0000 0.95415  0.84914  0.75421  Biso   1.000  C
  C2542    1.0000 0.22414  0.06153  0.86812  Biso   1.000  C
  C2543    1.0000 0.24831  0.04827  0.75922  Biso   1.000  C
  C2544    1.0000 0.24837  0.04827  0.75922  Biso   1.000  C
  C2545    1.0000 0.24837  0.04834  0.75922  Biso   1.000  C
  C2546    1.0000 0.80537  0.92621  0.67731  Biso   1.000  C
  C2547    1.0000 0.80531  0.92621  0.67731  Biso   1.000  C
  O388     1.0000 0.88933  0.06149  0.71204  Biso   1.000  O
  O389     1.0000 0.88931  0.06149  0.71199  Biso   1.000  O
  O390     1.0000 0.88938  0.06149  0.71199  Biso   1.000  O
  C2548    1.0000 0.87733  0.80070  0.71745  Biso   1.000  C
  C2549    1.0000 0.87725  0.80069  0.71740  Biso   1.000  C
  C2550    1.0000 0.87727  0.80070  0.71745  Biso   1.000  C
  O391     1.0000 0.03212  0.81372  0.78963  Biso   1.000  O
  O392     1.0000 0.03206  0.81372  0.78963  Biso   1.000  O
  H1867    1.0000 0.18146  0.05092  0.90042  Biso   1.000  H
  C2551    1.0000 0.31002  0.10180  0.89362  Biso   1.000  C
  C2552    1.0000 0.31009  0.10180  0.89362  Biso   1.000  C
  H1868    1.0000 0.22445  0.02758  0.70722  Biso   1.000  H
  C2553    1.0000 0.33432  0.08867  0.78472  Biso   1.000  C
  C2554    1.0000 0.33432  0.08873  0.78472  Biso   1.000  C
  C2555    1.0000 0.33439  0.08873  0.78472  Biso   1.000  C
  C2556    1.0000 0.80293  0.83921  0.67905  Biso   1.000  C
  C2557    1.0000 0.72378  0.97210  0.64045  Biso   1.000  C
  C2558    1.0000 0.80285  0.83920  0.67900  Biso   1.000  C
  C2559    1.0000 0.72376  0.97210  0.64040  Biso   1.000  C
  C2560    1.0000 0.80287  0.83921  0.67905  Biso   1.000  C
  C2561    1.0000 0.85101  0.10618  0.75684  Biso   1.000  C
  C2562    1.0000 0.85107  0.10618  0.75684  Biso   1.000  C
  C2563    1.0000 0.85107  0.10624  0.75684  Biso   1.000  C
  C2564    1.0000 0.87872  0.70399  0.72355  Biso   1.000  C
  C2565    1.0000 0.87864  0.70399  0.72350  Biso   1.000  C
  C2566    1.0000 0.87866  0.70399  0.72355  Biso   1.000  C
  C2567    1.0000 0.03248  0.78979  0.85323  Biso   1.000  C
  C2568    1.0000 0.03248  0.78985  0.85323  Biso   1.000  C
  N137     1.0000 0.33133  0.12693  0.96114  Biso   1.000  N
  C2569    1.0000 0.36515  0.11540  0.85194  Biso   1.000  C
  N138     1.0000 0.33138  0.12693  0.96109  Biso   1.000  N
  C2570    1.0000 0.36513  0.11540  0.85189  Biso   1.000  C
  N139     1.0000 0.33139  0.12693  0.96114  Biso   1.000  N
  H1869    1.0000 0.37694  0.09921  0.75242  Biso   1.000  H
  H1870    1.0000 0.74330  0.80179  0.65062  Biso   1.000  H
  H1871    1.0000 0.74323  0.80179  0.65062  Biso   1.000  H
  C2571    1.0000 0.67009  0.99252  0.69075  Biso   1.000  C
  C2572    1.0000 0.66550  0.92826  0.57521  Biso   1.000  C
  C2573    1.0000 0.67001  0.99245  0.69070  Biso   1.000  C
  C2574    1.0000 0.66543  0.92826  0.57521  Biso   1.000  C
  C2575    1.0000 0.67003  0.99252  0.69075  Biso   1.000  C
  C2576    1.0000 0.67008  0.99251  0.69070  Biso   1.000  C
  H1872    1.0000 0.74853  0.02716  0.62214  Biso   1.000  H
  H1873    1.0000 0.74851  0.02715  0.62209  Biso   1.000  H
  H1874    1.0000 0.74853  0.02722  0.62214  Biso   1.000  H
  H1875    1.0000 0.74858  0.02721  0.62209  Biso   1.000  H
  O393     1.0000 0.75922  0.12631  0.72151  Biso   1.000  O
  H1876    1.0000 0.89133  0.16378  0.77594  Biso   1.000  H
  H1877    1.0000 0.84863  0.06888  0.79752  Biso   1.000  H
  H1878    1.0000 0.89131  0.16377  0.77589  Biso   1.000  H
  H1879    1.0000 0.89133  0.16384  0.77594  Biso   1.000  H
  H1880    1.0000 0.84863  0.06894  0.79752  Biso   1.000  H
  O394     1.0000 0.75928  0.12631  0.72151  Biso   1.000  O
  H1881    1.0000 0.89138  0.16383  0.77589  Biso   1.000  H
  H1882    1.0000 0.84870  0.06894  0.79752  Biso   1.000  H
  H1883    1.0000 0.94853  0.68772  0.73322  Biso   1.000  H
  C2577    1.0000 0.82592  0.65535  0.65712  Biso   1.000  C
  C2578    1.0000 0.84711  0.68221  0.78273  Biso   1.000  C
  H1884    1.0000 0.94846  0.68766  0.73322  Biso   1.000  H
  C2579    1.0000 0.82585  0.65535  0.65712  Biso   1.000  C
  C2580    1.0000 0.84704  0.68221  0.78273  Biso   1.000  C
  H1885    1.0000 0.94846  0.68772  0.73322  Biso   1.000  H
  C2581    1.0000 0.82585  0.65542  0.65712  Biso   1.000  C
  H1886    1.0000 0.98614  0.82732  0.87144  Biso   1.000  H
  H1887    1.0000 0.98606  0.82732  0.87139  Biso   1.000  H
  H1888    1.0000 0.98607  0.82732  0.87144  Biso   1.000  H
  O395     1.0000 0.00388  0.70359  0.85075  Biso   1.000  O
  H1889    1.0000 0.10019  0.80093  0.88633  Biso   1.000  H
  O396     1.0000 0.00386  0.70358  0.85070  Biso   1.000  O
  O397     1.0000 0.00388  0.70365  0.85075  Biso   1.000  O
  O398     1.0000 0.00386  0.70364  0.85070  Biso   1.000  O
  C2582    1.0000 0.41516  0.16040  0.99934  Biso   1.000  C
  C2583    1.0000 0.41514  0.16039  0.99929  Biso   1.000  C
  C2584    1.0000 0.41516  0.16046  0.99934  Biso   1.000  C
  C2585    1.0000 0.41514  0.16045  0.99929  Biso   1.000  C
  H1890    1.0000 0.43176  0.14671  0.87164  Biso   1.000  H
  H1891    1.0000 0.43174  0.14670  0.87159  Biso   1.000  H
  C2586    1.0000 0.60269  0.93717  0.69983  Biso   1.000  C
  C2587    1.0000 0.60262  0.93717  0.69983  Biso   1.000  C
  C2588    1.0000 0.60263  0.93723  0.69983  Biso   1.000  C
  C2589    1.0000 0.60269  0.93723  0.69983  Biso   1.000  C
  C2590    1.0000 0.69533  0.06661  0.73144  Biso   1.000  C
  C2591    1.0000 0.69539  0.06661  0.73144  Biso   1.000  C
  H1892    1.0000 0.64760  0.86528  0.58483  Biso   1.000  H
  H1893    1.0000 0.60441  0.96087  0.55655  Biso   1.000  H
  C2592    1.0000 0.71652  0.92355  0.52455  Biso   1.000  C
  H1894    1.0000 0.64753  0.86528  0.58483  Biso   1.000  H
  H1895    1.0000 0.60433  0.96086  0.55650  Biso   1.000  H
  C2593    1.0000 0.71643  0.92354  0.52450  Biso   1.000  C
  H1896    1.0000 0.60435  0.96087  0.55655  Biso   1.000  H
  C2594    1.0000 0.71645  0.92361  0.52455  Biso   1.000  C
  C2595    1.0000 0.71644  0.92361  0.52450  Biso   1.000  C
  H1897    1.0000 0.82480  0.58901  0.66342  Biso   1.000  H
  H1898    1.0000 0.75718  0.67526  0.64293  Biso   1.000  H
  C2596    1.0000 0.87211  0.67308  0.60205  Biso   1.000  C
  H1899    1.0000 0.82473  0.58901  0.66342  Biso   1.000  H
  H1900    1.0000 0.75711  0.67526  0.64293  Biso   1.000  H
  C2597    1.0000 0.87203  0.67308  0.60200  Biso   1.000  C
  H1901    1.0000 0.75712  0.67533  0.64293  Biso   1.000  H
  C2598    1.0000 0.87205  0.67308  0.60205  Biso   1.000  C
  H1902    1.0000 0.75718  0.67533  0.64293  Biso   1.000  H
  C2599    1.0000 0.75646  0.66011  0.77802  Biso   1.000  C
  C2600    1.0000 0.91211  0.68612  0.84425  Biso   1.000  C
  C2601    1.0000 0.91203  0.68612  0.84420  Biso   1.000  C
  C2602    1.0000 0.91204  0.68612  0.84425  Biso   1.000  C
  C2603    1.0000 0.91209  0.68612  0.84420  Biso   1.000  C
  O399     1.0000 0.48007  0.17529  0.97761  Biso   1.000  O
  O400     1.0000 0.48007  0.17536  0.97761  Biso   1.000  O
  C2604    1.0000 0.41932  0.18849  0.06979  Biso   1.000  C
  C2605    1.0000 0.41938  0.18855  0.06979  Biso   1.000  C
  C2606    1.0000 0.56053  0.95602  0.74945  Biso   1.000  C
  H1903    1.0000 0.58308  0.87986  0.66833  Biso   1.000  H
  C2607    1.0000 0.56045  0.95602  0.74940  Biso   1.000  C
  C2608    1.0000 0.56046  0.95602  0.74945  Biso   1.000  C
  H1904    1.0000 0.58308  0.87992  0.66833  Biso   1.000  H
  C2609    1.0000 0.65316  0.08527  0.78105  Biso   1.000  C
  C2610    1.0000 0.65314  0.08526  0.78100  Biso   1.000  C
  C2611    1.0000 0.65316  0.08533  0.78105  Biso   1.000  C
  C2612    1.0000 0.65315  0.08533  0.78100  Biso   1.000  C
  H1905    1.0000 0.77680  0.89025  0.54445  Biso   1.000  H
  H1906    1.0000 0.73577  0.98715  0.51761  Biso   1.000  H
  C2613    1.0000 0.66837  0.87948  0.45753  Biso   1.000  C
  H1907    1.0000 0.77672  0.89024  0.54440  Biso   1.000  H
  H1908    1.0000 0.73571  0.98715  0.51761  Biso   1.000  H
  C2614    1.0000 0.66830  0.87948  0.45753  Biso   1.000  C
  H1909    1.0000 0.77674  0.89031  0.54445  Biso   1.000  H
  H1910    1.0000 0.73571  0.98721  0.51761  Biso   1.000  H
  H1911    1.0000 0.77672  0.89031  0.54440  Biso   1.000  H
  H1912    1.0000 0.86249  0.73746  0.59073  Biso   1.000  H
  H1913    1.0000 0.94368  0.66450  0.62184  Biso   1.000  H
  C2615    1.0000 0.83811  0.61585  0.53914  Biso   1.000  C
  H1914    1.0000 0.86241  0.73746  0.59069  Biso   1.000  H
  H1915    1.0000 0.94366  0.66449  0.62179  Biso   1.000  H
  C2616    1.0000 0.83803  0.61584  0.53909  Biso   1.000  C
  H1916    1.0000 0.86243  0.73746  0.59073  Biso   1.000  H
  C2617    1.0000 0.83805  0.61591  0.53914  Biso   1.000  C
  H1917    1.0000 0.86247  0.73746  0.59069  Biso   1.000  H
  C2618    1.0000 0.83803  0.61590  0.53909  Biso   1.000  C
  C2619    1.0000 0.73098  0.64203  0.83473  Biso   1.000  C
  H1918    1.0000 0.70608  0.65699  0.73044  Biso   1.000  H
  C2620    1.0000 0.73098  0.64197  0.83473  Biso   1.000  C
  H1919    1.0000 0.70606  0.65699  0.73039  Biso   1.000  H
  C2621    1.0000 0.88661  0.66811  0.90091  Biso   1.000  C
  C2622    1.0000 0.88655  0.66811  0.90091  Biso   1.000  C
  C2623    1.0000 0.45801  0.13582  0.11911  Biso   1.000  C
  C2624    1.0000 0.39321  0.26722  0.08721  Biso   1.000  C
  C2625    1.0000 0.45805  0.13582  0.11906  Biso   1.000  C
  C2626    1.0000 0.39326  0.26721  0.08716  Biso   1.000  C
  C2627    1.0000 0.45807  0.13582  0.11911  Biso   1.000  C
  C2628    1.0000 0.39328  0.26722  0.08721  Biso   1.000  C
  C2629    1.0000 0.45799  0.13582  0.11906  Biso   1.000  C
  C2630    1.0000 0.39319  0.26721  0.08716  Biso   1.000  C
  C2631    1.0000 0.48700  0.89569  0.76135  Biso   1.000  C
  C2632    1.0000 0.48692  0.89569  0.76130  Biso   1.000  C
  C2633    1.0000 0.48694  0.89569  0.76135  Biso   1.000  C
  C2634    1.0000 0.48699  0.89569  0.76130  Biso   1.000  C
  C2635    1.0000 0.58566  0.03010  0.79003  Biso   1.000  C
  C2636    1.0000 0.66486  0.17288  0.81275  Biso   1.000  C
  C2637    1.0000 0.66484  0.17288  0.81270  Biso   1.000  C
  C2638    1.0000 0.66486  0.17294  0.81275  Biso   1.000  C
  C2639    1.0000 0.66484  0.17294  0.81270  Biso   1.000  C
  C2640    1.0000 0.57547  0.88763  0.43103  Biso   1.000  C
  C2641    1.0000 0.71617  0.83216  0.42200  Biso   1.000  C
  C2642    1.0000 0.57539  0.88762  0.43098  Biso   1.000  C
  C2643    1.0000 0.71610  0.83216  0.42200  Biso   1.000  C
  C2644    1.0000 0.57541  0.88769  0.43103  Biso   1.000  C
  C2645    1.0000 0.57545  0.88769  0.43098  Biso   1.000  C
  C2646    1.0000 0.88539  0.54617  0.52842  Biso   1.000  C
  C2647    1.0000 0.76051  0.63508  0.49082  Biso   1.000  C
  C2648    1.0000 0.88532  0.54617  0.52842  Biso   1.000  C
  C2649    1.0000 0.76044  0.63508  0.49082  Biso   1.000  C
  C2650    1.0000 0.79601  0.64600  0.89615  Biso   1.000  C
  C2651    1.0000 0.63069  0.62181  0.83483  Biso   1.000  C
  C2652    1.0000 0.79593  0.64599  0.89610  Biso   1.000  C
  C2653    1.0000 0.63062  0.62181  0.83483  Biso   1.000  C
  C2654    1.0000 0.79595  0.64606  0.89615  Biso   1.000  C
  C2655    1.0000 0.79599  0.64599  0.89610  Biso   1.000  C
  C2656    1.0000 0.95879  0.68564  0.96655  Biso   1.000  C
  C2657    1.0000 0.95878  0.68563  0.96650  Biso   1.000  C
  C2658    1.0000 0.47073  0.16181  0.18569  Biso   1.000  C
  O401     1.0000 0.48466  0.05869  0.10001  Biso   1.000  O
  O402     1.0000 0.48464  0.05868  0.09996  Biso   1.000  O
  O403     1.0000 0.48466  0.05875  0.10001  Biso   1.000  O
  O404     1.0000 0.48458  0.05874  0.09996  Biso   1.000  O
  C2659    1.0000 0.40593  0.29320  0.15379  Biso   1.000  C
  O405     1.0000 0.35780  0.31613  0.03506  Biso   1.000  O
  O406     1.0000 0.35786  0.31606  0.03506  Biso   1.000  O
  O407     1.0000 0.35787  0.31613  0.03506  Biso   1.000  O
  C2660    1.0000 0.52941  0.83831  0.81434  Biso   1.000  C
  C2661    1.0000 0.42871  0.84719  0.69641  Biso   1.000  C
  H1920    1.0000 0.43951  0.93270  0.77862  Biso   1.000  H
  C2662    1.0000 0.52934  0.83831  0.81434  Biso   1.000  C
  C2663    1.0000 0.42864  0.84719  0.69641  Biso   1.000  C
  H1921    1.0000 0.43945  0.93270  0.77862  Biso   1.000  H
  O408     1.0000 0.54474  0.05160  0.83865  Biso   1.000  O
  O409     1.0000 0.54472  0.05160  0.83860  Biso   1.000  O
  O410     1.0000 0.54478  0.05160  0.83860  Biso   1.000  O
  N140     1.0000 0.73611  0.18479  0.87025  Biso   1.000  N
  O411     1.0000 0.61771  0.22928  0.78675  Biso   1.000  O
  N141     1.0000 0.73616  0.18478  0.87020  Biso   1.000  N
  O412     1.0000 0.61776  0.22927  0.78670  Biso   1.000  O
  N142     1.0000 0.73618  0.18485  0.87025  Biso   1.000  N
  O413     1.0000 0.61778  0.22934  0.78675  Biso   1.000  O
  N143     1.0000 0.73616  0.18484  0.87020  Biso   1.000  N
  O414     1.0000 0.61776  0.22934  0.78670  Biso   1.000  O
  C2664    1.0000 0.53040  0.84845  0.36892  Biso   1.000  C
  H1922    1.0000 0.53836  0.92427  0.45852  Biso   1.000  H
  C2665    1.0000 0.53034  0.84845  0.36892  Biso   1.000  C
  C2666    1.0000 0.67118  0.79298  0.35994  Biso   1.000  C
  H1923    1.0000 0.78817  0.82589  0.44254  Biso   1.000  H
  C2667    1.0000 0.67110  0.79291  0.35989  Biso   1.000  C
  H1924    1.0000 0.78815  0.82582  0.44249  Biso   1.000  H
  C2668    1.0000 0.67112  0.79298  0.35994  Biso   1.000  C
  C2669    1.0000 0.67116  0.79297  0.35989  Biso   1.000  C
  H1925    1.0000 0.78815  0.82588  0.44249  Biso   1.000  H
  C2670    1.0000 0.85510  0.49553  0.46933  Biso   1.000  C
  H1926    1.0000 0.94536  0.53129  0.56583  Biso   1.000  H
  C2671    1.0000 0.85502  0.49553  0.46928  Biso   1.000  C
  C2672    1.0000 0.85504  0.49559  0.46933  Biso   1.000  C
  C2673    1.0000 0.85502  0.49559  0.46928  Biso   1.000  C
  C2674    1.0000 0.73029  0.58456  0.43173  Biso   1.000  C
  H1927    1.0000 0.72386  0.68905  0.49915  Biso   1.000  H
  C2675    1.0000 0.73023  0.58456  0.43173  Biso   1.000  C
  H1928    1.0000 0.72384  0.68904  0.49910  Biso   1.000  H
  H1929    1.0000 0.72386  0.68911  0.49915  Biso   1.000  H
  H1930    1.0000 0.72385  0.68911  0.49910  Biso   1.000  H
  O415     1.0000 0.77633  0.62354  0.95405  Biso   1.000  O
  O416     1.0000 0.77625  0.62353  0.95400  Biso   1.000  O
  O417     1.0000 0.77626  0.62354  0.95405  Biso   1.000  O
  C2676    1.0000 0.59421  0.70691  0.84624  Biso   1.000  C
  H1931    1.0000 0.62279  0.57984  0.87154  Biso   1.000  H
  C2677    1.0000 0.57654  0.57573  0.76765  Biso   1.000  C
  C2678    1.0000 0.59414  0.70691  0.84624  Biso   1.000  C
  H1932    1.0000 0.62271  0.57977  0.87149  Biso   1.000  H
  C2679    1.0000 0.57645  0.57566  0.76760  Biso   1.000  C
  C2680    1.0000 0.57648  0.57573  0.76765  Biso   1.000  C
  H1933    1.0000 0.62278  0.57983  0.87149  Biso   1.000  H
  C2681    1.0000 0.57646  0.57572  0.76760  Biso   1.000  C
  O418     1.0000 0.95179  0.74410  0.00440  Biso   1.000  O
  O419     1.0000 0.95177  0.74410  0.00435  Biso   1.000  O
  N144     1.0000 0.02532  0.63179  0.97632  Biso   1.000  N
  N145     1.0000 0.02526  0.63179  0.97632  Biso   1.000  N
  N146     1.0000 0.02526  0.63185  0.97632  Biso   1.000  N
  C2682    1.0000 0.51313  0.10443  0.23867  Biso   1.000  C
  C2683    1.0000 0.44462  0.24060  0.20310  Biso   1.000  C
  C2684    1.0000 0.44461  0.24060  0.20305  Biso   1.000  C
  C2685    1.0000 0.44469  0.24066  0.20310  Biso   1.000  C
  C2686    1.0000 0.44461  0.24066  0.20305  Biso   1.000  C
  C2687    1.0000 0.42960  0.98408  0.10070  Biso   1.000  C
  C2688    1.0000 0.42958  0.98407  0.10065  Biso   1.000  C
  C2689    1.0000 0.42960  0.98414  0.10070  Biso   1.000  C
  C2690    1.0000 0.42958  0.98413  0.10065  Biso   1.000  C
  C2691    1.0000 0.36945  0.37831  0.16520  Biso   1.000  C
  C2692    1.0000 0.36943  0.37830  0.16515  Biso   1.000  C
  C2693    1.0000 0.36937  0.37830  0.16515  Biso   1.000  C
  C2694    1.0000 0.26106  0.31222  0.00991  Biso   1.000  C
  C2695    1.0000 0.26104  0.31216  0.00986  Biso   1.000  C
  C2696    1.0000 0.26098  0.31222  0.00986  Biso   1.000  C
  C2697    1.0000 0.54213  0.86429  0.88092  Biso   1.000  C
  C2698    1.0000 0.55551  0.75952  0.79692  Biso   1.000  C
  C2699    1.0000 0.54207  0.86429  0.88092  Biso   1.000  C
  C2700    1.0000 0.55545  0.75952  0.79692  Biso   1.000  C
  C2701    1.0000 0.54207  0.86436  0.88092  Biso   1.000  C
  C2702    1.0000 0.37462  0.90458  0.64754  Biso   1.000  C
  H1934    1.0000 0.47402  0.81561  0.67304  Biso   1.000  H
  H1935    1.0000 0.38252  0.80148  0.70772  Biso   1.000  H
  C2703    1.0000 0.37454  0.90458  0.64749  Biso   1.000  C
  H1936    1.0000 0.47393  0.81561  0.67299  Biso   1.000  H
  H1937    1.0000 0.38246  0.80148  0.70772  Biso   1.000  H
  C2704    1.0000 0.37456  0.90458  0.64754  Biso   1.000  C
  H1938    1.0000 0.47395  0.81561  0.67304  Biso   1.000  H
  C2705    1.0000 0.57041  0.01604  0.89932  Biso   1.000  C
  C2706    1.0000 0.57047  0.01598  0.89932  Biso   1.000  C
  C2707    1.0000 0.57048  0.01604  0.89932  Biso   1.000  C
  C2708    1.0000 0.76432  0.26594  0.90295  Biso   1.000  C
  C2709    1.0000 0.76437  0.26593  0.90290  Biso   1.000  C
  C2710    1.0000 0.76439  0.26594  0.90295  Biso   1.000  C
  C2711    1.0000 0.57831  0.80112  0.33335  Biso   1.000  C
  H1939    1.0000 0.45845  0.85477  0.34833  Biso   1.000  H
  C2712    1.0000 0.57823  0.80111  0.33330  Biso   1.000  C
  C2713    1.0000 0.57825  0.80118  0.33335  Biso   1.000  C
  C2714    1.0000 0.57823  0.80118  0.33330  Biso   1.000  C
  H1940    1.0000 0.70815  0.75633  0.33240  Biso   1.000  H
  H1941    1.0000 0.70815  0.75639  0.33240  Biso   1.000  H
  C2715    1.0000 0.77746  0.51475  0.42091  Biso   1.000  C
  H1942    1.0000 0.89170  0.44156  0.46105  Biso   1.000  H
  C2716    1.0000 0.77740  0.51475  0.42091  Biso   1.000  C
  H1943    1.0000 0.89162  0.44156  0.46100  Biso   1.000  H
  H1944    1.0000 0.89164  0.44156  0.46105  Biso   1.000  H
  H1945    1.0000 0.67015  0.59937  0.39422  Biso   1.000  H
  C2717    1.0000 0.73908  0.68789  0.99011  Biso   1.000  C
  C2718    1.0000 0.73908  0.68796  0.99011  Biso   1.000  C
  C2719    1.0000 0.60693  0.73290  0.91282  Biso   1.000  C
  C2720    1.0000 0.60686  0.73290  0.91282  Biso   1.000  C
  C2721    1.0000 0.60686  0.73296  0.91282  Biso   1.000  C
  H1946    1.0000 0.60706  0.51771  0.76011  Biso   1.000  H
  H1947    1.0000 0.58089  0.61638  0.72945  Biso   1.000  H
  C2722    1.0000 0.47459  0.55609  0.76254  Biso   1.000  C
  H1948    1.0000 0.58081  0.61638  0.72940  Biso   1.000  H
  C2723    1.0000 0.47457  0.55608  0.76249  Biso   1.000  C
  H1949    1.0000 0.58083  0.61644  0.72945  Biso   1.000  H
  H1950    1.0000 0.58088  0.61638  0.72940  Biso   1.000  H
  C2724    1.0000 0.11144  0.64668  0.02499  Biso   1.000  C
  C2725    1.0000 0.11150  0.64668  0.02499  Biso   1.000  C
  C2726    1.0000 0.11151  0.64675  0.02499  Biso   1.000  C
  C2727    1.0000 0.57143  0.15292  0.30362  Biso   1.000  C
  H1951    1.0000 0.56063  0.06742  0.22141  Biso   1.000  H
  C2728    1.0000 0.43961  0.04410  0.25058  Biso   1.000  C
  C2729    1.0000 0.57148  0.15292  0.30357  Biso   1.000  C
  H1952    1.0000 0.56067  0.06741  0.22136  Biso   1.000  H
  C2730    1.0000 0.43967  0.04410  0.25058  Biso   1.000  C
  C2731    1.0000 0.57150  0.15292  0.30362  Biso   1.000  C
  H1953    1.0000 0.56069  0.06742  0.22141  Biso   1.000  H
  C2732    1.0000 0.43968  0.04416  0.25058  Biso   1.000  C
  C2733    1.0000 0.57141  0.15292  0.30357  Biso   1.000  C
  H1954    1.0000 0.56061  0.06741  0.22136  Biso   1.000  H
  C2734    1.0000 0.43961  0.04416  0.25058  Biso   1.000  C
  H1955    1.0000 0.45453  0.26075  0.25460  Biso   1.000  H
  H1956    1.0000 0.45451  0.26075  0.25455  Biso   1.000  H
  H1957    1.0000 0.43449  0.93881  0.06180  Biso   1.000  H
  O420     1.0000 0.45527  0.94851  0.16138  Biso   1.000  O
  H1958    1.0000 0.43447  0.93881  0.06176  Biso   1.000  H
  H1959    1.0000 0.36001  0.00088  0.09207  Biso   1.000  H
  H1960    1.0000 0.36007  0.00094  0.09207  Biso   1.000  H
  H1961    1.0000 0.36001  0.00094  0.09207  Biso   1.000  H
  C2735    1.0000 0.26915  0.35808  0.16530  Biso   1.000  C
  H1962    1.0000 0.37734  0.42028  0.12848  Biso   1.000  H
  C2736    1.0000 0.42360  0.42439  0.23237  Biso   1.000  C
  C2737    1.0000 0.26914  0.35808  0.16525  Biso   1.000  C
  C2738    1.0000 0.42366  0.42439  0.23237  Biso   1.000  C
  C2739    1.0000 0.26916  0.35815  0.16530  Biso   1.000  C
  H1963    1.0000 0.37735  0.42034  0.12848  Biso   1.000  H
  C2740    1.0000 0.42366  0.42445  0.23237  Biso   1.000  C
  C2741    1.0000 0.26907  0.35814  0.16525  Biso   1.000  C
  H1964    1.0000 0.37728  0.42034  0.12848  Biso   1.000  H
  C2742    1.0000 0.42360  0.42445  0.23237  Biso   1.000  C
  H1965    1.0000 0.24361  0.32413  0.95802  Biso   1.000  H
  H1966    1.0000 0.24368  0.32413  0.95802  Biso   1.000  H
  O421     1.0000 0.22381  0.37658  0.04598  Biso   1.000  O
  H1967    1.0000 0.23321  0.25098  0.01537  Biso   1.000  H
  O422     1.0000 0.22388  0.37664  0.04598  Biso   1.000  O
  O423     1.0000 0.22381  0.37664  0.04598  Biso   1.000  O
  C2743    1.0000 0.58082  0.81163  0.93023  Biso   1.000  C
  O424     1.0000 0.51548  0.94143  0.90002  Biso   1.000  O
  C2744    1.0000 0.58076  0.81163  0.93023  Biso   1.000  C
  H1968    1.0000 0.54561  0.73937  0.74543  Biso   1.000  H
  H1969    1.0000 0.54554  0.73937  0.74543  Biso   1.000  H
  H1970    1.0000 0.54554  0.73943  0.74543  Biso   1.000  H
  C2745    1.0000 0.33706  0.85948  0.57952  Biso   1.000  C
  H1971    1.0000 0.31893  0.92578  0.66535  Biso   1.000  H
  H1972    1.0000 0.41829  0.95781  0.64451  Biso   1.000  H
  H1973    1.0000 0.31884  0.92578  0.66530  Biso   1.000  H
  H1974    1.0000 0.41822  0.95775  0.64451  Biso   1.000  H
  H1975    1.0000 0.31886  0.92578  0.66535  Biso   1.000  H
  H1976    1.0000 0.41822  0.95781  0.64451  Biso   1.000  H
  H1977    1.0000 0.64013  0.99924  0.90796  Biso   1.000  H
  H1978    1.0000 0.64005  0.99923  0.90791  Biso   1.000  H
  H1979    1.0000 0.64007  0.99924  0.90796  Biso   1.000  H
  H1980    1.0000 0.56552  0.06130  0.93822  Biso   1.000  H
  H1981    1.0000 0.56559  0.06130  0.93822  Biso   1.000  H
  C2746    1.0000 0.70913  0.33392  0.89615  Biso   1.000  C
  C2747    1.0000 0.85403  0.27573  0.94244  Biso   1.000  C
  C2748    1.0000 0.70911  0.33392  0.89610  Biso   1.000  C
  C2749    1.0000 0.85409  0.27573  0.94244  Biso   1.000  C
  C2750    1.0000 0.70920  0.33392  0.89615  Biso   1.000  C
  C2751    1.0000 0.70918  0.33392  0.89610  Biso   1.000  C
  H1982    1.0000 0.54337  0.77087  0.28532  Biso   1.000  H
  H1983    1.0000 0.54330  0.77087  0.28532  Biso   1.000  H
  H1984    1.0000 0.75409  0.47566  0.37522  Biso   1.000  H
  H1985    1.0000 0.75402  0.47566  0.37522  Biso   1.000  H
  H1986    1.0000 0.76693  0.74913  0.98466  Biso   1.000  H
  O425     1.0000 0.64234  0.68399  0.96496  Biso   1.000  O
  H1987    1.0000 0.76685  0.74913  0.98461  Biso   1.000  H
  O426     1.0000 0.64225  0.68399  0.96491  Biso   1.000  O
  H1988    1.0000 0.76686  0.74913  0.98466  Biso   1.000  H
  O427     1.0000 0.64227  0.68405  0.96496  Biso   1.000  O
  O428     1.0000 0.64226  0.68405  0.96491  Biso   1.000  O
  H1989    1.0000 0.75640  0.67599  0.04201  Biso   1.000  H
  H1990    1.0000 0.75638  0.67598  0.04196  Biso   1.000  H
  H1991    1.0000 0.75640  0.67605  0.04201  Biso   1.000  H
  H1992    1.0000 0.44448  0.61407  0.77103  Biso   1.000  H
  H1993    1.0000 0.44001  0.52782  0.71372  Biso   1.000  H
  C2752    1.0000 0.46248  0.49712  0.81325  Biso   1.000  C
  H1994    1.0000 0.43994  0.52776  0.71372  Biso   1.000  H
  C2753    1.0000 0.46247  0.49711  0.81320  Biso   1.000  C
  H1995    1.0000 0.44448  0.61413  0.77103  Biso   1.000  H
  H1996    1.0000 0.43995  0.52782  0.71372  Biso   1.000  H
  C2754    1.0000 0.16656  0.57870  0.03179  Biso   1.000  C
  C2755    1.0000 0.14598  0.72439  0.05759  Biso   1.000  C
  C2756    1.0000 0.14598  0.72445  0.05759  Biso   1.000  C
  C2757    1.0000 0.16663  0.57870  0.03179  Biso   1.000  C
  C2758    1.0000 0.62552  0.09553  0.35248  Biso   1.000  C
  H1997    1.0000 0.52612  0.18451  0.32698  Biso   1.000  H
  H1998    1.0000 0.61761  0.19864  0.29230  Biso   1.000  H
  C2759    1.0000 0.62558  0.09553  0.35248  Biso   1.000  C
  H1999    1.0000 0.52619  0.18451  0.32698  Biso   1.000  H
  H2000    1.0000 0.61766  0.19863  0.29225  Biso   1.000  H
  H2001    1.0000 0.52619  0.18457  0.32698  Biso   1.000  H
  H2002    1.0000 0.61768  0.19864  0.29230  Biso   1.000  H
  H2003    1.0000 0.52612  0.18457  0.32698  Biso   1.000  H
  H2004    1.0000 0.61760  0.19863  0.29225  Biso   1.000  H
  C2760    1.0000 0.41435  0.97002  0.21000  Biso   1.000  C
  C2761    1.0000 0.41439  0.97001  0.20995  Biso   1.000  C
  C2762    1.0000 0.41441  0.97002  0.21000  Biso   1.000  C
  C2763    1.0000 0.39745  0.06295  0.30019  Biso   1.000  C
  C2764    1.0000 0.39738  0.06295  0.30019  Biso   1.000  C
  C2765    1.0000 0.24367  0.34001  0.22200  Biso   1.000  C
  C2766    1.0000 0.20412  0.35412  0.10388  Biso   1.000  C
  C2767    1.0000 0.24365  0.34000  0.22195  Biso   1.000  C
  C2768    1.0000 0.24368  0.34007  0.22200  Biso   1.000  C
  C2769    1.0000 0.24359  0.34000  0.22195  Biso   1.000  C
  H2005    1.0000 0.39307  0.48241  0.23991  Biso   1.000  H
  H2006    1.0000 0.41924  0.38374  0.27057  Biso   1.000  H
  C2770    1.0000 0.52555  0.44403  0.23748  Biso   1.000  C
  H2007    1.0000 0.39306  0.48240  0.23986  Biso   1.000  H
  H2008    1.0000 0.39308  0.48247  0.23991  Biso   1.000  H
  H2009    1.0000 0.39299  0.48246  0.23986  Biso   1.000  H
  H2010    1.0000 0.41918  0.38374  0.27057  Biso   1.000  H
  C2771    1.0000 0.52549  0.44403  0.23748  Biso   1.000  C
  C2772    1.0000 0.58485  0.83972  0.00068  Biso   1.000  C
  C2773    1.0000 0.58485  0.83966  0.00068  Biso   1.000  C
  C2774    1.0000 0.58492  0.83972  0.00068  Biso   1.000  C
  C2775    1.0000 0.37895  0.87479  0.52991  Biso   1.000  C
  C2776    1.0000 0.26598  0.79838  0.56771  Biso   1.000  C
  C2777    1.0000 0.26592  0.79838  0.56771  Biso   1.000  C
  C2778    1.0000 0.74374  0.41163  0.92874  Biso   1.000  C
  H2011    1.0000 0.63974  0.32640  0.86564  Biso   1.000  H
  C2779    1.0000 0.74372  0.41162  0.92869  Biso   1.000  C
  C2780    1.0000 0.74378  0.41162  0.92869  Biso   1.000  C
  H2012    1.0000 0.63980  0.32640  0.86564  Biso   1.000  H
  C2781    1.0000 0.88857  0.35343  0.97503  Biso   1.000  C
  H2013    1.0000 0.89676  0.22302  0.94765  Biso   1.000  H
  H2014    1.0000 0.89674  0.22301  0.94760  Biso   1.000  H
  C2782    1.0000 0.47351  0.41158  0.80382  Biso   1.000  C
  C2783    1.0000 0.44033  0.52861  0.86985  Biso   1.000  C
  C2784    1.0000 0.47345  0.41158  0.80382  Biso   1.000  C
  C2785    1.0000 0.44024  0.52860  0.86980  Biso   1.000  C
  C2786    1.0000 0.47345  0.41164  0.80382  Biso   1.000  C
  C2787    1.0000 0.44026  0.52861  0.86985  Biso   1.000  C
  C2788    1.0000 0.25627  0.58849  0.07128  Biso   1.000  C
  H2015    1.0000 0.13987  0.51847  0.00659  Biso   1.000  H
  H2016    1.0000 0.13987  0.51854  0.00659  Biso   1.000  H
  C2789    1.0000 0.23568  0.73418  0.09708  Biso   1.000  C
  C2790    1.0000 0.23569  0.73424  0.09708  Biso   1.000  C
  H2017    1.0000 0.10325  0.77710  0.05238  Biso   1.000  H
  H2018    1.0000 0.10331  0.77710  0.05238  Biso   1.000  H
  C2791    1.0000 0.66307  0.14063  0.42050  Biso   1.000  C
  H2019    1.0000 0.68121  0.07433  0.33467  Biso   1.000  H
  H2020    1.0000 0.58185  0.04231  0.35551  Biso   1.000  H
  C2792    1.0000 0.66305  0.14063  0.42045  Biso   1.000  C
  H2021    1.0000 0.68127  0.07433  0.33467  Biso   1.000  H
  H2022    1.0000 0.58183  0.04230  0.35546  Biso   1.000  H
  H2023    1.0000 0.58185  0.04237  0.35551  Biso   1.000  H
  C2793    1.0000 0.66299  0.14063  0.42045  Biso   1.000  C
  H2024    1.0000 0.58184  0.04236  0.35546  Biso   1.000  H
  C2794    1.0000 0.34685  0.91485  0.21898  Biso   1.000  C
  C2795    1.0000 0.34691  0.91479  0.21898  Biso   1.000  C
  C2796    1.0000 0.34691  0.91485  0.21898  Biso   1.000  C
  C2797    1.0000 0.33004  0.00760  0.30927  Biso   1.000  C
  H2025    1.0000 0.41706  0.12026  0.33170  Biso   1.000  H
  C2798    1.0000 0.33005  0.00766  0.30927  Biso   1.000  C
  C2799    1.0000 0.32998  0.00766  0.30927  Biso   1.000  C
  H2026    1.0000 0.41700  0.12026  0.33170  Biso   1.000  H
  C2800    1.0000 0.15303  0.31791  0.21729  Biso   1.000  C
  H2027    1.0000 0.29406  0.34312  0.26958  Biso   1.000  H
  C2801    1.0000 0.15303  0.31797  0.21729  Biso   1.000  C
  H2028    1.0000 0.29399  0.34312  0.26958  Biso   1.000  H
  C2802    1.0000 0.11353  0.33201  0.09911  Biso   1.000  C
  C2803    1.0000 0.11351  0.33201  0.09906  Biso   1.000  C
  C2804    1.0000 0.11359  0.33201  0.09911  Biso   1.000  C
  H2029    1.0000 0.55566  0.38605  0.22900  Biso   1.000  H
  H2030    1.0000 0.56013  0.47230  0.28630  Biso   1.000  H
  C2805    1.0000 0.53765  0.50300  0.18678  Biso   1.000  C
  H2031    1.0000 0.55564  0.38598  0.22895  Biso   1.000  H
  H2032    1.0000 0.56017  0.47229  0.28625  Biso   1.000  H
  H2033    1.0000 0.56019  0.47236  0.28630  Biso   1.000  H
  C2806    1.0000 0.53766  0.50306  0.18678  Biso   1.000  C
  H2034    1.0000 0.55557  0.38605  0.22895  Biso   1.000  H
  H2035    1.0000 0.56011  0.47236  0.28625  Biso   1.000  H
  C2807    1.0000 0.53759  0.50300  0.18678  Biso   1.000  C
  N147     1.0000 0.66868  0.87318  0.03888  Biso   1.000  N
  O429     1.0000 0.51994  0.82482  0.02241  Biso   1.000  O
  O430     1.0000 0.51999  0.82482  0.02236  Biso   1.000  O
  N148     1.0000 0.66868  0.87325  0.03888  Biso   1.000  N
  O431     1.0000 0.52001  0.82482  0.02241  Biso   1.000  O
  C2808    1.0000 0.34987  0.82888  0.46864  Biso   1.000  C
  H2036    1.0000 0.43397  0.92210  0.53914  Biso   1.000  H
  C2809    1.0000 0.34985  0.82887  0.46859  Biso   1.000  C
  H2037    1.0000 0.43396  0.92209  0.53909  Biso   1.000  H
  C2810    1.0000 0.23690  0.75247  0.50644  Biso   1.000  C
  H2038    1.0000 0.23347  0.78660  0.60611  Biso   1.000  H
  C2811    1.0000 0.23682  0.75247  0.50639  Biso   1.000  C
  H2039    1.0000 0.23341  0.78660  0.60611  Biso   1.000  H
  C2812    1.0000 0.23684  0.75247  0.50644  Biso   1.000  C
  C2813    1.0000 0.83344  0.42142  0.96824  Biso   1.000  C
  C2814    1.0000 0.83351  0.42142  0.96824  Biso   1.000  C
  H2040    1.0000 0.70107  0.46434  0.92353  Biso   1.000  H
  N149     1.0000 0.97482  0.36833  0.02370  Biso   1.000  N
  N150     1.0000 0.97480  0.36826  0.02365  Biso   1.000  N
  N151     1.0000 0.97488  0.36833  0.02370  Biso   1.000  N
  N152     1.0000 0.97480  0.36832  0.02365  Biso   1.000  N
  C2815    1.0000 0.46224  0.35758  0.85095  Biso   1.000  C
  H2041    1.0000 0.49072  0.38727  0.76001  Biso   1.000  H
  C2816    1.0000 0.46216  0.35758  0.85090  Biso   1.000  C
  H2042    1.0000 0.49066  0.38727  0.76001  Biso   1.000  H
  C2817    1.0000 0.46218  0.35765  0.85095  Biso   1.000  C
  H2043    1.0000 0.49066  0.38733  0.76001  Biso   1.000  H
  C2818    1.0000 0.46216  0.35764  0.85090  Biso   1.000  C
  C2819    1.0000 0.42903  0.47461  0.91694  Biso   1.000  C
  H2044    1.0000 0.43180  0.59478  0.87715  Biso   1.000  H
  C2820    1.0000 0.42897  0.47461  0.91694  Biso   1.000  C
  H2045    1.0000 0.43171  0.59478  0.87710  Biso   1.000  H
  H2046    1.0000 0.43174  0.59484  0.87715  Biso   1.000  H
  H2047    1.0000 0.43178  0.59484  0.87710  Biso   1.000  H
  C2821    1.0000 0.29088  0.66620  0.10388  Biso   1.000  C
  H2048    1.0000 0.29894  0.53578  0.07649  Biso   1.000  H
  H2049    1.0000 0.29900  0.53578  0.07649  Biso   1.000  H
  H2050    1.0000 0.29900  0.53584  0.07649  Biso   1.000  H
  N153     1.0000 0.26389  0.81533  0.12977  Biso   1.000  N
  C2822    1.0000 0.62119  0.12533  0.47011  Biso   1.000  C
  C2823    1.0000 0.73415  0.20173  0.43231  Biso   1.000  C
  C2824    1.0000 0.62117  0.12533  0.47007  Biso   1.000  C
  C2825    1.0000 0.73414  0.20173  0.43226  Biso   1.000  C
  C2826    1.0000 0.62119  0.12539  0.47011  Biso   1.000  C
  C2827    1.0000 0.73416  0.20180  0.43231  Biso   1.000  C
  C2828    1.0000 0.62111  0.12539  0.47007  Biso   1.000  C
  C2829    1.0000 0.30468  0.93351  0.26859  Biso   1.000  C
  C2830    1.0000 0.33515  0.82724  0.18727  Biso   1.000  C
  C2831    1.0000 0.33521  0.82724  0.18727  Biso   1.000  C
  C2832    1.0000 0.30468  0.93357  0.26859  Biso   1.000  C
  C2833    1.0000 0.27636  0.02801  0.35958  Biso   1.000  C
  C2834    1.0000 0.27636  0.02808  0.35958  Biso   1.000  C
  C2835    1.0000 0.27629  0.02808  0.35958  Biso   1.000  C
  C2836    1.0000 0.12142  0.29613  0.27648  Biso   1.000  C
  C2837    1.0000 0.08803  0.31399  0.15577  Biso   1.000  C
  C2838    1.0000 0.12148  0.29613  0.27648  Biso   1.000  C
  C2839    1.0000 0.08803  0.31406  0.15577  Biso   1.000  C
  C2840    1.0000 0.04134  0.31448  0.03348  Biso   1.000  C
  C2841    1.0000 0.04135  0.31454  0.03348  Biso   1.000  C
  C2842    1.0000 0.04128  0.31454  0.03348  Biso   1.000  C
  C2843    1.0000 0.52662  0.58854  0.19620  Biso   1.000  C
  C2844    1.0000 0.55981  0.47151  0.13017  Biso   1.000  C
  C2845    1.0000 0.52667  0.58854  0.19616  Biso   1.000  C
  C2846    1.0000 0.52669  0.58854  0.19620  Biso   1.000  C
  C2847    1.0000 0.55988  0.47151  0.13017  Biso   1.000  C
  C2848    1.0000 0.52660  0.58854  0.19616  Biso   1.000  C
  C2849    1.0000 0.68998  0.89832  0.10641  Biso   1.000  C
  C2850    1.0000 0.68997  0.89832  0.10636  Biso   1.000  C
  C2851    1.0000 0.27892  0.76778  0.45683  Biso   1.000  C
  H2051    1.0000 0.38251  0.84066  0.43024  Biso   1.000  H
  C2852    1.0000 0.27885  0.76778  0.45683  Biso   1.000  C
  H2052    1.0000 0.38243  0.84066  0.43019  Biso   1.000  H
  H2053    1.0000 0.38244  0.84066  0.43024  Biso   1.000  H
  H2054    1.0000 0.18188  0.70516  0.49722  Biso   1.000  H
  H2055    1.0000 0.18181  0.70516  0.49722  Biso   1.000  H
  H2056    1.0000 0.86014  0.48164  0.99344  Biso   1.000  H
  H2057    1.0000 0.86020  0.48164  0.99344  Biso   1.000  H
  C2853    1.0000 0.44002  0.38913  0.90756  Biso   1.000  C
  H2058    1.0000 0.47083  0.29141  0.84366  Biso   1.000  H
  C2854    1.0000 0.43994  0.38913  0.90751  Biso   1.000  C
  H2059    1.0000 0.47075  0.29140  0.84361  Biso   1.000  H
  C2855    1.0000 0.43995  0.38913  0.90756  Biso   1.000  C
  H2060    1.0000 0.47077  0.29141  0.84366  Biso   1.000  H
  C2856    1.0000 0.44000  0.38913  0.90751  Biso   1.000  C
  H2061    1.0000 0.41183  0.49904  0.96074  Biso   1.000  H
  H2062    1.0000 0.41175  0.49903  0.96069  Biso   1.000  H
  H2063    1.0000 0.41176  0.49904  0.96074  Biso   1.000  H
  H2064    1.0000 0.36027  0.67372  0.13439  Biso   1.000  H
  H2065    1.0000 0.36033  0.67372  0.13439  Biso   1.000  H
  C2857    1.0000 0.65027  0.17124  0.53139  Biso   1.000  C
  H2066    1.0000 0.56616  0.07802  0.46089  Biso   1.000  H
  C2858    1.0000 0.65027  0.17130  0.53139  Biso   1.000  C
  H2067    1.0000 0.56617  0.07808  0.46089  Biso   1.000  H
  C2859    1.0000 0.65021  0.17124  0.53139  Biso   1.000  C
  H2068    1.0000 0.56610  0.07808  0.46089  Biso   1.000  H
  C2860    1.0000 0.76324  0.24764  0.49358  Biso   1.000  C
  H2069    1.0000 0.76667  0.21352  0.39391  Biso   1.000  H
  H2070    1.0000 0.76665  0.21352  0.39386  Biso   1.000  H
  H2071    1.0000 0.76667  0.21358  0.39391  Biso   1.000  H
  H2072    1.0000 0.76659  0.21358  0.39386  Biso   1.000  H
  O432     1.0000 0.24079  0.87381  0.27851  Biso   1.000  O
  O433     1.0000 0.24077  0.87380  0.27846  Biso   1.000  O
  O434     1.0000 0.24079  0.87387  0.27851  Biso   1.000  O
  O435     1.0000 0.24078  0.87387  0.27846  Biso   1.000  O
  O436     1.0000 0.38230  0.77084  0.21327  Biso   1.000  O
  H2073    1.0000 0.25148  0.97296  0.37789  Biso   1.000  H
  H2074    1.0000 0.25154  0.97296  0.37789  Biso   1.000  H
  C2861    1.0000 0.33464  0.07186  0.42482  Biso   1.000  C
  C2862    1.0000 0.19476  0.07391  0.32272  Biso   1.000  C
  C2863    1.0000 0.33468  0.07185  0.42477  Biso   1.000  C
  C2864    1.0000 0.19474  0.07390  0.32267  Biso   1.000  C
  C2865    1.0000 0.33470  0.07186  0.42482  Biso   1.000  C
  C2866    1.0000 0.19477  0.07397  0.32272  Biso   1.000  C
  C2867    1.0000 0.33462  0.07185  0.42477  Biso   1.000  C
  C2868    1.0000 0.19468  0.07397  0.32267  Biso   1.000  C
  C2869    1.0000 0.12281  0.19942  0.28258  Biso   1.000  C
  H2075    1.0000 0.05161  0.31240  0.26680  Biso   1.000  H
  C2870    1.0000 0.17422  0.34476  0.34291  Biso   1.000  C
  C2871    1.0000 0.12287  0.19942  0.28258  Biso   1.000  C
  H2076    1.0000 0.05166  0.31239  0.26675  Biso   1.000  H
  C2872    1.0000 0.17427  0.34476  0.34286  Biso   1.000  C
  H2077    1.0000 0.05168  0.31246  0.26680  Biso   1.000  H
  C2873    1.0000 0.17429  0.34476  0.34291  Biso   1.000  C
  H2078    1.0000 0.05159  0.31245  0.26675  Biso   1.000  H
  C2874    1.0000 0.17420  0.34476  0.34286  Biso   1.000  C
  O437     1.0000 0.99626  0.29653  0.14927  Biso   1.000  O
  O438     1.0000 0.99619  0.29653  0.14927  Biso   1.000  O
  O439     1.0000 0.04822  0.25601  0.99562  Biso   1.000  O
  O440     1.0000 0.04829  0.25601  0.99562  Biso   1.000  O
  C2875    1.0000 0.53790  0.64253  0.14907  Biso   1.000  C
  H2079    1.0000 0.50941  0.61285  0.24001  Biso   1.000  H
  C2876    1.0000 0.53796  0.64253  0.14907  Biso   1.000  C
  H2080    1.0000 0.50946  0.61284  0.23996  Biso   1.000  H
  H2081    1.0000 0.50948  0.61285  0.24001  Biso   1.000  H
  H2082    1.0000 0.50940  0.61284  0.23996  Biso   1.000  H
  C2877    1.0000 0.57110  0.52551  0.08309  Biso   1.000  C
  H2083    1.0000 0.56834  0.40534  0.12288  Biso   1.000  H
  C2878    1.0000 0.57117  0.52551  0.08309  Biso   1.000  C
  H2084    1.0000 0.56834  0.40527  0.12288  Biso   1.000  H
  H2085    1.0000 0.56827  0.40534  0.12288  Biso   1.000  H
  C2879    1.0000 0.63485  0.88471  0.14808  Biso   1.000  C
  C2880    1.0000 0.77586  0.93859  0.13191  Biso   1.000  C
  C2881    1.0000 0.77584  0.93859  0.13186  Biso   1.000  C
  C2882    1.0000 0.77587  0.93865  0.13191  Biso   1.000  C
  C2883    1.0000 0.63492  0.88471  0.14808  Biso   1.000  C
  C2884    1.0000 0.77591  0.93865  0.13186  Biso   1.000  C
  H2086    1.0000 0.25639  0.73214  0.40935  Biso   1.000  H
  H2087    1.0000 0.25630  0.73214  0.40930  Biso   1.000  H
  H2088    1.0000 0.25632  0.73220  0.40935  Biso   1.000  H
  H2089    1.0000 0.25637  0.73214  0.40930  Biso   1.000  H
  H2090    1.0000 0.43132  0.34732  0.94402  Biso   1.000  H
  H2091    1.0000 0.43126  0.34732  0.94402  Biso   1.000  H
  C2885    1.0000 0.72122  0.23234  0.54319  Biso   1.000  C
  H2092    1.0000 0.61763  0.15945  0.56979  Biso   1.000  H
  C2886    1.0000 0.72129  0.23234  0.54319  Biso   1.000  C
  H2093    1.0000 0.61769  0.15945  0.56979  Biso   1.000  H
  C2887    1.0000 0.72129  0.23240  0.54319  Biso   1.000  C
  C2888    1.0000 0.72122  0.23240  0.54319  Biso   1.000  C
  H2094    1.0000 0.81826  0.29495  0.50281  Biso   1.000  H
  H2095    1.0000 0.81824  0.29495  0.50276  Biso   1.000  H
  C2889    1.0000 0.14900  0.89394  0.24319  Biso   1.000  C
  H2096    1.0000 0.35254  0.13483  0.41519  Biso   1.000  H
  H2097    1.0000 0.39573  0.03925  0.44347  Biso   1.000  H
  C2890    1.0000 0.28362  0.07657  0.47547  Biso   1.000  C
  H2098    1.0000 0.39579  0.03925  0.44347  Biso   1.000  H
  C2891    1.0000 0.28369  0.07657  0.47547  Biso   1.000  C
  C2892    1.0000 0.19721  0.16091  0.32098  Biso   1.000  C
  C2893    1.0000 0.11774  0.02553  0.28590  Biso   1.000  C
  C2894    1.0000 0.19727  0.16091  0.32098  Biso   1.000  C
  C2895    1.0000 0.11772  0.02553  0.28585  Biso   1.000  C
  C2896    1.0000 0.19727  0.16097  0.32098  Biso   1.000  C
  C2897    1.0000 0.19721  0.16097  0.32098  Biso   1.000  C
  C2898    1.0000 0.04591  0.15104  0.24577  Biso   1.000  C
  C2899    1.0000 0.04598  0.15104  0.24577  Biso   1.000  C
  H2099    1.0000 0.17534  0.41111  0.33661  Biso   1.000  H
  H2100    1.0000 0.24296  0.32485  0.35710  Biso   1.000  H
  C2900    1.0000 0.12802  0.32703  0.39798  Biso   1.000  C
  H2101    1.0000 0.17532  0.41110  0.33656  Biso   1.000  H
  C2901    1.0000 0.12809  0.32703  0.39798  Biso   1.000  C
  H2102    1.0000 0.17534  0.41117  0.33661  Biso   1.000  H
  H2103    1.0000 0.17532  0.41117  0.33656  Biso   1.000  H
  H2104    1.0000 0.24289  0.32485  0.35710  Biso   1.000  H
  C2902    1.0000 0.96766  0.21032  0.14679  Biso   1.000  C
  C2903    1.0000 0.96760  0.21032  0.14679  Biso   1.000  C
  C2904    1.0000 0.56012  0.61098  0.09247  Biso   1.000  C
  H2105    1.0000 0.52930  0.70871  0.15637  Biso   1.000  H
  H2106    1.0000 0.52937  0.70871  0.15637  Biso   1.000  H
  C2905    1.0000 0.56012  0.61105  0.09247  Biso   1.000  C
  H2107    1.0000 0.58831  0.50108  0.03928  Biso   1.000  H
  H2108    1.0000 0.58838  0.50114  0.03928  Biso   1.000  H
  H2109    1.0000 0.58831  0.50114  0.03928  Biso   1.000  H
  C2906    1.0000 0.66569  0.91145  0.21531  Biso   1.000  C
  H2110    1.0000 0.56825  0.85341  0.12838  Biso   1.000  H
  C2907    1.0000 0.66567  0.91144  0.21526  Biso   1.000  C
  H2111    1.0000 0.56832  0.85341  0.12838  Biso   1.000  H
  C2908    1.0000 0.80675  0.96544  0.19908  Biso   1.000  C
  C2909    1.0000 0.80681  0.96544  0.19908  Biso   1.000  C
  H2112    1.0000 0.81855  0.94920  0.09961  Biso   1.000  H
  H2113    1.0000 0.81859  0.94919  0.09956  Biso   1.000  H
  H2114    1.0000 0.81861  0.94920  0.09961  Biso   1.000  H
  H2115    1.0000 0.74375  0.26798  0.59067  Biso   1.000  H
  H2116    1.0000 0.10868  0.83634  0.22409  Biso   1.000  H
  H2117    1.0000 0.15138  0.93124  0.20251  Biso   1.000  H
  O441     1.0000 0.11068  0.93863  0.28799  Biso   1.000  O
  H2118    1.0000 0.15136  0.93123  0.20246  Biso   1.000  H
  H2119    1.0000 0.15142  0.93123  0.20246  Biso   1.000  H
  O442     1.0000 0.11074  0.93863  0.28799  Biso   1.000  O
  H2120    1.0000 0.22334  0.10987  0.45558  Biso   1.000  H
  H2121    1.0000 0.26437  0.01297  0.48242  Biso   1.000  H
  C2910    1.0000 0.33177  0.12064  0.54250  Biso   1.000  C
  H2122    1.0000 0.26435  0.01296  0.48237  Biso   1.000  H
  C2911    1.0000 0.33177  0.12070  0.54250  Biso   1.000  C
  C2912    1.0000 0.33171  0.12070  0.54250  Biso   1.000  C
  H2123    1.0000 0.25684  0.19833  0.34941  Biso   1.000  H
  H2124    1.0000 0.25682  0.19833  0.34936  Biso   1.000  H
  C2913    1.0000 0.04334  0.06404  0.24750  Biso   1.000  C
  C2914    1.0000 0.04332  0.06404  0.24745  Biso   1.000  C
  O443     1.0000 0.96802  0.18640  0.21039  Biso   1.000  O
  O444     1.0000 0.96808  0.18640  0.21039  Biso   1.000  O
  O445     1.0000 0.96808  0.18646  0.21039  Biso   1.000  O
  O446     1.0000 0.96802  0.18646  0.21039  Biso   1.000  O
  H2125    1.0000 0.13765  0.26265  0.40929  Biso   1.000  H
  H2126    1.0000 0.05646  0.33562  0.37818  Biso   1.000  H
  C2915    1.0000 0.16203  0.38427  0.46089  Biso   1.000  C
  C2916    1.0000 0.16209  0.38427  0.46089  Biso   1.000  C
  H2127    1.0000 0.05646  0.33568  0.37818  Biso   1.000  H
  H2128    1.0000 0.05640  0.33568  0.37818  Biso   1.000  H
  H2129    1.0000 0.89995  0.19919  0.11370  Biso   1.000  H
  H2130    1.0000 0.89993  0.19919  0.11365  Biso   1.000  H
  H2131    1.0000 0.89996  0.19925  0.11370  Biso   1.000  H
  H2132    1.0000 0.89987  0.19925  0.11365  Biso   1.000  H
  H2133    1.0000 0.01400  0.17279  0.12858  Biso   1.000  H
  H2134    1.0000 0.01406  0.17279  0.12858  Biso   1.000  H
  H2135    1.0000 0.01407  0.17286  0.12858  Biso   1.000  H
  H2136    1.0000 0.01400  0.17286  0.12858  Biso   1.000  H
  H2137    1.0000 0.56881  0.65279  0.05600  Biso   1.000  H
  H2138    1.0000 0.56886  0.65279  0.05595  Biso   1.000  H
  H2139    1.0000 0.56888  0.65279  0.05600  Biso   1.000  H
  H2140    1.0000 0.56880  0.65279  0.05595  Biso   1.000  H
  C2917    1.0000 0.75170  0.95184  0.24081  Biso   1.000  C
  C2918    1.0000 0.75168  0.95184  0.24076  Biso   1.000  C
  H2141    1.0000 0.62307  0.90090  0.24760  Biso   1.000  H
  H2142    1.0000 0.62305  0.90090  0.24755  Biso   1.000  H
  H2143    1.0000 0.62307  0.90097  0.24760  Biso   1.000  H
  H2144    1.0000 0.62312  0.90096  0.24755  Biso   1.000  H
  N154     1.0000 0.89334  0.01045  0.22979  Biso   1.000  N
  C2919    1.0000 0.42467  0.11249  0.56899  Biso   1.000  C
  C2920    1.0000 0.28397  0.16796  0.57802  Biso   1.000  C
  C2921    1.0000 0.42466  0.11243  0.56899  Biso   1.000  C
  C2922    1.0000 0.28395  0.16796  0.57797  Biso   1.000  C
  C2923    1.0000 0.42460  0.11249  0.56899  Biso   1.000  C
  C2924    1.0000 0.96512  0.01070  0.20439  Biso   1.000  C
  C2925    1.0000 0.96519  0.01077  0.20439  Biso   1.000  C
  C2926    1.0000 0.11475  0.45395  0.47160  Biso   1.000  C
  C2927    1.0000 0.23963  0.36504  0.50921  Biso   1.000  C
  C2928    1.0000 0.11473  0.45394  0.47155  Biso   1.000  C
  C2929    1.0000 0.23968  0.36504  0.50916  Biso   1.000  C
  C2930    1.0000 0.23970  0.36510  0.50921  Biso   1.000  C
  C2931    1.0000 0.23961  0.36504  0.50916  Biso   1.000  C
  H2145    1.0000 0.77556  0.97254  0.29280  Biso   1.000  H
  H2146    1.0000 0.77560  0.97253  0.29275  Biso   1.000  H
  H2147    1.0000 0.77562  0.97254  0.29280  Biso   1.000  H
  C2932    1.0000 0.46974  0.15167  0.63111  Biso   1.000  C
  H2148    1.0000 0.46178  0.07584  0.54151  Biso   1.000  H
  C2933    1.0000 0.46978  0.15167  0.63106  Biso   1.000  C
  H2149    1.0000 0.46176  0.07584  0.54146  Biso   1.000  H
  C2934    1.0000 0.46980  0.15167  0.63111  Biso   1.000  C
  H2150    1.0000 0.46179  0.07591  0.54151  Biso   1.000  H
  C2935    1.0000 0.46972  0.15167  0.63106  Biso   1.000  C
  H2151    1.0000 0.46170  0.07584  0.54146  Biso   1.000  H
  C2936    1.0000 0.32895  0.20714  0.64009  Biso   1.000  C
  H2152    1.0000 0.21197  0.17423  0.55748  Biso   1.000  H
  C2937    1.0000 0.32896  0.20720  0.64009  Biso   1.000  C
  H2153    1.0000 0.21197  0.17429  0.55748  Biso   1.000  H
  H2154    1.0000 0.21191  0.17429  0.55748  Biso   1.000  H
  O447     1.0000 0.96709  0.97833  0.15170  Biso   1.000  O
  O448     1.0000 0.96707  0.97833  0.15165  Biso   1.000  O
  C2938    1.0000 0.14503  0.50459  0.53069  Biso   1.000  C
  H2155    1.0000 0.05478  0.46882  0.43420  Biso   1.000  H
  C2939    1.0000 0.14510  0.50452  0.53069  Biso   1.000  C
  C2940    1.0000 0.14510  0.50459  0.53069  Biso   1.000  C
  H2156    1.0000 0.05478  0.46889  0.43420  Biso   1.000  H
  H2157    1.0000 0.05472  0.46889  0.43420  Biso   1.000  H
  C2941    1.0000 0.26985  0.41555  0.56830  Biso   1.000  C
  H2158    1.0000 0.27628  0.31107  0.50087  Biso   1.000  H
  H2159    1.0000 0.27621  0.31107  0.50087  Biso   1.000  H
  C2942    1.0000 0.42182  0.19900  0.66668  Biso   1.000  C
  H2160    1.0000 0.54169  0.14535  0.65170  Biso   1.000  H
  C2943    1.0000 0.42189  0.19894  0.66668  Biso   1.000  C
  C2944    1.0000 0.42189  0.19900  0.66668  Biso   1.000  C
  H2161    1.0000 0.54169  0.14541  0.65170  Biso   1.000  H
  H2162    1.0000 0.54163  0.14541  0.65170  Biso   1.000  H
  H2163    1.0000 0.29199  0.24379  0.66762  Biso   1.000  H
  H2164    1.0000 0.29197  0.24379  0.66757  Biso   1.000  H
  H2165    1.0000 0.29190  0.24379  0.66757  Biso   1.000  H
  C2945    1.0000 0.22268  0.48536  0.57911  Biso   1.000  C
  H2166    1.0000 0.10844  0.55855  0.53898  Biso   1.000  H
  C2946    1.0000 0.22266  0.48536  0.57906  Biso   1.000  C
  C2947    1.0000 0.22259  0.48536  0.57906  Biso   1.000  C
  H2167    1.0000 0.32999  0.40075  0.60580  Biso   1.000  H
  H2168    1.0000 0.32997  0.40074  0.60576  Biso   1.000  H
  H2169    1.0000 0.32999  0.40081  0.60580  Biso   1.000  H
  H2170    1.0000 0.32991  0.40081  0.60576  Biso   1.000  H
  H2171    1.0000 0.45677  0.22925  0.71470  Biso   1.000  H
  H2172    1.0000 0.45675  0.22925  0.71465  Biso   1.000  H
  H2173    1.0000 0.45677  0.22931  0.71470  Biso   1.000  H
  H2174    1.0000 0.45675  0.22931  0.71465  Biso   1.000  H
  H2175    1.0000 0.24605  0.52445  0.62481  Biso   1.000  H
  H2176    1.0000 0.24603  0.52445  0.62476  Biso   1.000  H
  H2177    1.0000 0.24612  0.52452  0.62481  Biso   1.000  H
  O449     1.0000 0.03292  0.02179  0.84832  Biso   1.000  O
  C2948    1.0000 0.03502  0.98941  0.79563  Biso   1.000  C
  C2949    1.0000 0.03495  0.98941  0.79563  Biso   1.000  C
  N155     1.0000 0.10680  0.98967  0.77023  Biso   1.000  N
  N156     1.0000 0.10674  0.98967  0.77023  Biso   1.000  N
  N157     1.0000 0.10674  0.98973  0.77023  Biso   1.000  N
  N158     1.0000 0.10681  0.98973  0.77023  Biso   1.000  N
  C2950    1.0000 0.95680  0.93608  0.75252  Biso   1.000  C
  C2951    1.0000 0.95673  0.93608  0.75252  Biso   1.000  C
  C2952    1.0000 0.95674  0.93614  0.75252  Biso   1.000  C
  O450     1.0000 0.03298  0.02179  0.84832  Biso   1.000  O
  O451     1.0000 0.03299  0.02185  0.84832  Biso   1.000  O
  C2953    1.0000 0.19326  0.03467  0.80094  Biso   1.000  C
  C2954    1.0000 0.19324  0.03467  0.80089  Biso   1.000  C
  C2955    1.0000 0.19326  0.03474  0.80094  Biso   1.000  C
  C2956    1.0000 0.19324  0.03473  0.80089  Biso   1.000  C
  C2957    1.0000 0.88240  0.97459  0.71412  Biso   1.000  C
  C2958    1.0000 0.95423  0.84908  0.75426  Biso   1.000  C
  C2959    1.0000 0.88233  0.97459  0.71412  Biso   1.000  C
  C2960    1.0000 0.95414  0.84907  0.75421  Biso   1.000  C
  C2961    1.0000 0.95416  0.84914  0.75426  Biso   1.000  C
  C2962    1.0000 0.95415  0.84914  0.75421  Biso   1.000  C
  C2963    1.0000 0.22414  0.06153  0.86812  Biso   1.000  C
  C2964    1.0000 0.24831  0.04827  0.75922  Biso   1.000  C
  C2965    1.0000 0.24837  0.04827  0.75922  Biso   1.000  C
  C2966    1.0000 0.24837  0.04834  0.75922  Biso   1.000  C
  C2967    1.0000 0.80537  0.92621  0.67731  Biso   1.000  C
  C2968    1.0000 0.80531  0.92621  0.67731  Biso   1.000  C
  O452     1.0000 0.88933  0.06149  0.71204  Biso   1.000  O
  O453     1.0000 0.88931  0.06149  0.71199  Biso   1.000  O
  O454     1.0000 0.88938  0.06149  0.71199  Biso   1.000  O
  C2969    1.0000 0.87733  0.80070  0.71745  Biso   1.000  C
  C2970    1.0000 0.87725  0.80069  0.71740  Biso   1.000  C
  C2971    1.0000 0.87727  0.80070  0.71745  Biso   1.000  C
  O455     1.0000 0.03212  0.81372  0.78963  Biso   1.000  O
  O456     1.0000 0.03206  0.81372  0.78963  Biso   1.000  O
  H2178    1.0000 0.18146  0.05092  0.90042  Biso   1.000  H
  C2972    1.0000 0.31002  0.10180  0.89362  Biso   1.000  C
  C2973    1.0000 0.31009  0.10180  0.89362  Biso   1.000  C
  H2179    1.0000 0.22445  0.02758  0.70722  Biso   1.000  H
  C2974    1.0000 0.33432  0.08867  0.78472  Biso   1.000  C
  C2975    1.0000 0.33432  0.08873  0.78472  Biso   1.000  C
  C2976    1.0000 0.33439  0.08873  0.78472  Biso   1.000  C
  C2977    1.0000 0.80293  0.83921  0.67905  Biso   1.000  C
  C2978    1.0000 0.72378  0.97210  0.64045  Biso   1.000  C
  C2979    1.0000 0.80285  0.83920  0.67900  Biso   1.000  C
  C2980    1.0000 0.72376  0.97210  0.64040  Biso   1.000  C
  C2981    1.0000 0.80287  0.83921  0.67905  Biso   1.000  C
  C2982    1.0000 0.85101  0.10618  0.75684  Biso   1.000  C
  C2983    1.0000 0.85107  0.10618  0.75684  Biso   1.000  C
  C2984    1.0000 0.85107  0.10624  0.75684  Biso   1.000  C
  C2985    1.0000 0.87872  0.70399  0.72355  Biso   1.000  C
  C2986    1.0000 0.87864  0.70399  0.72350  Biso   1.000  C
  C2987    1.0000 0.87866  0.70399  0.72355  Biso   1.000  C
  C2988    1.0000 0.03248  0.78979  0.85323  Biso   1.000  C
  C2989    1.0000 0.03248  0.78985  0.85323  Biso   1.000  C
  N159     1.0000 0.33133  0.12693  0.96114  Biso   1.000  N
  C2990    1.0000 0.36515  0.11540  0.85194  Biso   1.000  C
  N160     1.0000 0.33138  0.12693  0.96109  Biso   1.000  N
  C2991    1.0000 0.36513  0.11540  0.85189  Biso   1.000  C
  N161     1.0000 0.33139  0.12693  0.96114  Biso   1.000  N
  H2180    1.0000 0.37694  0.09921  0.75242  Biso   1.000  H
  H2181    1.0000 0.74330  0.80179  0.65062  Biso   1.000  H
  H2182    1.0000 0.74323  0.80179  0.65062  Biso   1.000  H
  C2992    1.0000 0.67009  0.99252  0.69075  Biso   1.000  C
  C2993    1.0000 0.66550  0.92826  0.57521  Biso   1.000  C
  C2994    1.0000 0.67001  0.99245  0.69070  Biso   1.000  C
  C2995    1.0000 0.66543  0.92826  0.57521  Biso   1.000  C
  C2996    1.0000 0.67003  0.99252  0.69075  Biso   1.000  C
  C2997    1.0000 0.67008  0.99251  0.69070  Biso   1.000  C
  H2183    1.0000 0.74853  0.02716  0.62214  Biso   1.000  H
  H2184    1.0000 0.74851  0.02715  0.62209  Biso   1.000  H
  H2185    1.0000 0.74853  0.02722  0.62214  Biso   1.000  H
  H2186    1.0000 0.74858  0.02721  0.62209  Biso   1.000  H
  O457     1.0000 0.75922  0.12631  0.72151  Biso   1.000  O
  H2187    1.0000 0.89133  0.16378  0.77594  Biso   1.000  H
  H2188    1.0000 0.84863  0.06888  0.79752  Biso   1.000  H
  H2189    1.0000 0.89131  0.16377  0.77589  Biso   1.000  H
  H2190    1.0000 0.89133  0.16384  0.77594  Biso   1.000  H
  H2191    1.0000 0.84863  0.06894  0.79752  Biso   1.000  H
  O458     1.0000 0.75928  0.12631  0.72151  Biso   1.000  O
  H2192    1.0000 0.89138  0.16383  0.77589  Biso   1.000  H
  H2193    1.0000 0.84870  0.06894  0.79752  Biso   1.000  H
  H2194    1.0000 0.94853  0.68772  0.73322  Biso   1.000  H
  C2998    1.0000 0.82592  0.65535  0.65712  Biso   1.000  C
  C2999    1.0000 0.84711  0.68221  0.78273  Biso   1.000  C
  H2195    1.0000 0.94846  0.68766  0.73322  Biso   1.000  H
  C3000    1.0000 0.82585  0.65535  0.65712  Biso   1.000  C
  C3001    1.0000 0.84704  0.68221  0.78273  Biso   1.000  C
  H2196    1.0000 0.94846  0.68772  0.73322  Biso   1.000  H
  C3002    1.0000 0.82585  0.65542  0.65712  Biso   1.000  C
  H2197    1.0000 0.98614  0.82732  0.87144  Biso   1.000  H
  H2198    1.0000 0.98606  0.82732  0.87139  Biso   1.000  H
  H2199    1.0000 0.98607  0.82732  0.87144  Biso   1.000  H
  O459     1.0000 0.00388  0.70359  0.85075  Biso   1.000  O
  H2200    1.0000 0.10019  0.80093  0.88633  Biso   1.000  H
  O460     1.0000 0.00386  0.70358  0.85070  Biso   1.000  O
  O461     1.0000 0.00388  0.70365  0.85075  Biso   1.000  O
  O462     1.0000 0.00386  0.70364  0.85070  Biso   1.000  O
  C3003    1.0000 0.41516  0.16040  0.99934  Biso   1.000  C
  C3004    1.0000 0.41514  0.16039  0.99929  Biso   1.000  C
  C3005    1.0000 0.41516  0.16046  0.99934  Biso   1.000  C
  C3006    1.0000 0.41514  0.16045  0.99929  Biso   1.000  C
  H2201    1.0000 0.43176  0.14671  0.87164  Biso   1.000  H
  H2202    1.0000 0.43174  0.14670  0.87159  Biso   1.000  H
  C3007    1.0000 0.60269  0.93717  0.69983  Biso   1.000  C
  C3008    1.0000 0.60262  0.93717  0.69983  Biso   1.000  C
  C3009    1.0000 0.60263  0.93723  0.69983  Biso   1.000  C
  C3010    1.0000 0.60269  0.93723  0.69983  Biso   1.000  C
  C3011    1.0000 0.69533  0.06661  0.73144  Biso   1.000  C
  C3012    1.0000 0.69539  0.06661  0.73144  Biso   1.000  C
  H2203    1.0000 0.64760  0.86528  0.58483  Biso   1.000  H
  H2204    1.0000 0.60441  0.96087  0.55655  Biso   1.000  H
  C3013    1.0000 0.71652  0.92355  0.52455  Biso   1.000  C
  H2205    1.0000 0.64753  0.86528  0.58483  Biso   1.000  H
  H2206    1.0000 0.60433  0.96086  0.55650  Biso   1.000  H
  C3014    1.0000 0.71643  0.92354  0.52450  Biso   1.000  C
  H2207    1.0000 0.60435  0.96087  0.55655  Biso   1.000  H
  C3015    1.0000 0.71645  0.92361  0.52455  Biso   1.000  C
  C3016    1.0000 0.71644  0.92361  0.52450  Biso   1.000  C
  H2208    1.0000 0.82480  0.58901  0.66342  Biso   1.000  H
  H2209    1.0000 0.75718  0.67526  0.64293  Biso   1.000  H
  C3017    1.0000 0.87211  0.67308  0.60205  Biso   1.000  C
  H2210    1.0000 0.82473  0.58901  0.66342  Biso   1.000  H
  H2211    1.0000 0.75711  0.67526  0.64293  Biso   1.000  H
  C3018    1.0000 0.87203  0.67308  0.60200  Biso   1.000  C
  H2212    1.0000 0.75712  0.67533  0.64293  Biso   1.000  H
  C3019    1.0000 0.87205  0.67308  0.60205  Biso   1.000  C
  H2213    1.0000 0.75718  0.67533  0.64293  Biso   1.000  H
  C3020    1.0000 0.75646  0.66011  0.77802  Biso   1.000  C
  C3021    1.0000 0.91211  0.68612  0.84425  Biso   1.000  C
  C3022    1.0000 0.91203  0.68612  0.84420  Biso   1.000  C
  C3023    1.0000 0.91204  0.68612  0.84425  Biso   1.000  C
  C3024    1.0000 0.91209  0.68612  0.84420  Biso   1.000  C
  O463     1.0000 0.48007  0.17529  0.97761  Biso   1.000  O
  O464     1.0000 0.48007  0.17536  0.97761  Biso   1.000  O
  C3025    1.0000 0.41932  0.18849  0.06979  Biso   1.000  C
  C3026    1.0000 0.41938  0.18855  0.06979  Biso   1.000  C
  C3027    1.0000 0.56053  0.95602  0.74945  Biso   1.000  C
  H2214    1.0000 0.58308  0.87986  0.66833  Biso   1.000  H
  C3028    1.0000 0.56045  0.95602  0.74940  Biso   1.000  C
  C3029    1.0000 0.56046  0.95602  0.74945  Biso   1.000  C
  H2215    1.0000 0.58308  0.87992  0.66833  Biso   1.000  H
  C3030    1.0000 0.65316  0.08527  0.78105  Biso   1.000  C
  C3031    1.0000 0.65314  0.08526  0.78100  Biso   1.000  C
  C3032    1.0000 0.65316  0.08533  0.78105  Biso   1.000  C
  C3033    1.0000 0.65315  0.08533  0.78100  Biso   1.000  C
  H2216    1.0000 0.77680  0.89025  0.54445  Biso   1.000  H
  H2217    1.0000 0.73577  0.98715  0.51761  Biso   1.000  H
  C3034    1.0000 0.66837  0.87948  0.45753  Biso   1.000  C
  H2218    1.0000 0.77672  0.89024  0.54440  Biso   1.000  H
  H2219    1.0000 0.73571  0.98715  0.51761  Biso   1.000  H
  C3035    1.0000 0.66830  0.87948  0.45753  Biso   1.000  C
  H2220    1.0000 0.77674  0.89031  0.54445  Biso   1.000  H
  H2221    1.0000 0.73571  0.98721  0.51761  Biso   1.000  H
  H2222    1.0000 0.77672  0.89031  0.54440  Biso   1.000  H
  H2223    1.0000 0.86249  0.73746  0.59073  Biso   1.000  H
  H2224    1.0000 0.94368  0.66450  0.62184  Biso   1.000  H
  C3036    1.0000 0.83811  0.61585  0.53914  Biso   1.000  C
  H2225    1.0000 0.86241  0.73746  0.59069  Biso   1.000  H
  H2226    1.0000 0.94366  0.66449  0.62179  Biso   1.000  H
  C3037    1.0000 0.83803  0.61584  0.53909  Biso   1.000  C
  H2227    1.0000 0.86243  0.73746  0.59073  Biso   1.000  H
  C3038    1.0000 0.83805  0.61591  0.53914  Biso   1.000  C
  H2228    1.0000 0.86247  0.73746  0.59069  Biso   1.000  H
  C3039    1.0000 0.83803  0.61590  0.53909  Biso   1.000  C
  C3040    1.0000 0.73098  0.64203  0.83473  Biso   1.000  C
  H2229    1.0000 0.70608  0.65699  0.73044  Biso   1.000  H
  C3041    1.0000 0.73098  0.64197  0.83473  Biso   1.000  C
  H2230    1.0000 0.70606  0.65699  0.73039  Biso   1.000  H
  C3042    1.0000 0.88661  0.66811  0.90091  Biso   1.000  C
  C3043    1.0000 0.88655  0.66811  0.90091  Biso   1.000  C
  C3044    1.0000 0.45801  0.13582  0.11911  Biso   1.000  C
  C3045    1.0000 0.39321  0.26722  0.08721  Biso   1.000  C
  C3046    1.0000 0.45805  0.13582  0.11906  Biso   1.000  C
  C3047    1.0000 0.39326  0.26721  0.08716  Biso   1.000  C
  C3048    1.0000 0.45807  0.13582  0.11911  Biso   1.000  C
  C3049    1.0000 0.39328  0.26722  0.08721  Biso   1.000  C
  C3050    1.0000 0.45799  0.13582  0.11906  Biso   1.000  C
  C3051    1.0000 0.39319  0.26721  0.08716  Biso   1.000  C
  C3052    1.0000 0.48700  0.89569  0.76135  Biso   1.000  C
  C3053    1.0000 0.48692  0.89569  0.76130  Biso   1.000  C
  C3054    1.0000 0.48694  0.89569  0.76135  Biso   1.000  C
  C3055    1.0000 0.48699  0.89569  0.76130  Biso   1.000  C
  C3056    1.0000 0.58566  0.03010  0.79003  Biso   1.000  C
  C3057    1.0000 0.66486  0.17288  0.81275  Biso   1.000  C
  C3058    1.0000 0.66484  0.17288  0.81270  Biso   1.000  C
  C3059    1.0000 0.66486  0.17294  0.81275  Biso   1.000  C
  C3060    1.0000 0.66484  0.17294  0.81270  Biso   1.000  C
  C3061    1.0000 0.57547  0.88763  0.43103  Biso   1.000  C
  C3062    1.0000 0.71617  0.83216  0.42200  Biso   1.000  C
  C3063    1.0000 0.57539  0.88762  0.43098  Biso   1.000  C
  C3064    1.0000 0.71610  0.83216  0.42200  Biso   1.000  C
  C3065    1.0000 0.57541  0.88769  0.43103  Biso   1.000  C
  C3066    1.0000 0.57545  0.88769  0.43098  Biso   1.000  C
  C3067    1.0000 0.88539  0.54617  0.52842  Biso   1.000  C
  C3068    1.0000 0.76051  0.63508  0.49082  Biso   1.000  C
  C3069    1.0000 0.88532  0.54617  0.52842  Biso   1.000  C
  C3070    1.0000 0.76044  0.63508  0.49082  Biso   1.000  C
  C3071    1.0000 0.79601  0.64600  0.89615  Biso   1.000  C
  C3072    1.0000 0.63069  0.62181  0.83483  Biso   1.000  C
  C3073    1.0000 0.79593  0.64599  0.89610  Biso   1.000  C
  C3074    1.0000 0.63062  0.62181  0.83483  Biso   1.000  C
  C3075    1.0000 0.79595  0.64606  0.89615  Biso   1.000  C
  C3076    1.0000 0.79599  0.64599  0.89610  Biso   1.000  C
  C3077    1.0000 0.95879  0.68564  0.96655  Biso   1.000  C
  C3078    1.0000 0.95878  0.68563  0.96650  Biso   1.000  C
  C3079    1.0000 0.47073  0.16181  0.18569  Biso   1.000  C
  O465     1.0000 0.48466  0.05869  0.10001  Biso   1.000  O
  O466     1.0000 0.48464  0.05868  0.09996  Biso   1.000  O
  O467     1.0000 0.48466  0.05875  0.10001  Biso   1.000  O
  O468     1.0000 0.48458  0.05874  0.09996  Biso   1.000  O
  C3080    1.0000 0.40593  0.29320  0.15379  Biso   1.000  C
  O469     1.0000 0.35780  0.31613  0.03506  Biso   1.000  O
  O470     1.0000 0.35786  0.31606  0.03506  Biso   1.000  O
  O471     1.0000 0.35787  0.31613  0.03506  Biso   1.000  O
  C3081    1.0000 0.52941  0.83831  0.81434  Biso   1.000  C
  C3082    1.0000 0.42871  0.84719  0.69641  Biso   1.000  C
  H2231    1.0000 0.43951  0.93270  0.77862  Biso   1.000  H
  C3083    1.0000 0.52934  0.83831  0.81434  Biso   1.000  C
  C3084    1.0000 0.42864  0.84719  0.69641  Biso   1.000  C
  H2232    1.0000 0.43945  0.93270  0.77862  Biso   1.000  H
  O472     1.0000 0.54474  0.05160  0.83865  Biso   1.000  O
  O473     1.0000 0.54472  0.05160  0.83860  Biso   1.000  O
  O474     1.0000 0.54478  0.05160  0.83860  Biso   1.000  O
  N162     1.0000 0.73611  0.18479  0.87025  Biso   1.000  N
  O475     1.0000 0.61771  0.22928  0.78675  Biso   1.000  O
  N163     1.0000 0.73616  0.18478  0.87020  Biso   1.000  N
  O476     1.0000 0.61776  0.22927  0.78670  Biso   1.000  O
  N164     1.0000 0.73618  0.18485  0.87025  Biso   1.000  N
  O477     1.0000 0.61778  0.22934  0.78675  Biso   1.000  O
  N165     1.0000 0.73616  0.18484  0.87020  Biso   1.000  N
  O478     1.0000 0.61776  0.22934  0.78670  Biso   1.000  O
  C3085    1.0000 0.53040  0.84845  0.36892  Biso   1.000  C
  H2233    1.0000 0.53836  0.92427  0.45852  Biso   1.000  H
  C3086    1.0000 0.53034  0.84845  0.36892  Biso   1.000  C
  C3087    1.0000 0.67118  0.79298  0.35994  Biso   1.000  C
  H2234    1.0000 0.78817  0.82589  0.44254  Biso   1.000  H
  C3088    1.0000 0.67110  0.79291  0.35989  Biso   1.000  C
  H2235    1.0000 0.78815  0.82582  0.44249  Biso   1.000  H
  C3089    1.0000 0.67112  0.79298  0.35994  Biso   1.000  C
  C3090    1.0000 0.67116  0.79297  0.35989  Biso   1.000  C
  H2236    1.0000 0.78815  0.82588  0.44249  Biso   1.000  H
  C3091    1.0000 0.85510  0.49553  0.46933  Biso   1.000  C
  H2237    1.0000 0.94536  0.53129  0.56583  Biso   1.000  H
  C3092    1.0000 0.85502  0.49553  0.46928  Biso   1.000  C
  C3093    1.0000 0.85504  0.49559  0.46933  Biso   1.000  C
  C3094    1.0000 0.85502  0.49559  0.46928  Biso   1.000  C
  C3095    1.0000 0.73029  0.58456  0.43173  Biso   1.000  C
  H2238    1.0000 0.72386  0.68905  0.49915  Biso   1.000  H
  C3096    1.0000 0.73023  0.58456  0.43173  Biso   1.000  C
  H2239    1.0000 0.72384  0.68904  0.49910  Biso   1.000  H
  H2240    1.0000 0.72386  0.68911  0.49915  Biso   1.000  H
  H2241    1.0000 0.72385  0.68911  0.49910  Biso   1.000  H
  O479     1.0000 0.77633  0.62354  0.95405  Biso   1.000  O
  O480     1.0000 0.77625  0.62353  0.95400  Biso   1.000  O
  O481     1.0000 0.77626  0.62354  0.95405  Biso   1.000  O
  C3097    1.0000 0.59421  0.70691  0.84624  Biso   1.000  C
  H2242    1.0000 0.62279  0.57984  0.87154  Biso   1.000  H
  C3098    1.0000 0.57654  0.57573  0.76765  Biso   1.000  C
  C3099    1.0000 0.59414  0.70691  0.84624  Biso   1.000  C
  H2243    1.0000 0.62271  0.57977  0.87149  Biso   1.000  H
  C3100    1.0000 0.57645  0.57566  0.76760  Biso   1.000  C
  C3101    1.0000 0.57648  0.57573  0.76765  Biso   1.000  C
  H2244    1.0000 0.62278  0.57983  0.87149  Biso   1.000  H
  C3102    1.0000 0.57646  0.57572  0.76760  Biso   1.000  C
  O482     1.0000 0.95179  0.74410  0.00440  Biso   1.000  O
  O483     1.0000 0.95177  0.74410  0.00435  Biso   1.000  O
  N166     1.0000 0.02532  0.63179  0.97632  Biso   1.000  N
  N167     1.0000 0.02526  0.63179  0.97632  Biso   1.000  N
  N168     1.0000 0.02526  0.63185  0.97632  Biso   1.000  N
  C3103    1.0000 0.51313  0.10443  0.23867  Biso   1.000  C
  C3104    1.0000 0.44462  0.24060  0.20310  Biso   1.000  C
  C3105    1.0000 0.44461  0.24060  0.20305  Biso   1.000  C
  C3106    1.0000 0.44469  0.24066  0.20310  Biso   1.000  C
  C3107    1.0000 0.44461  0.24066  0.20305  Biso   1.000  C
  C3108    1.0000 0.42960  0.98408  0.10070  Biso   1.000  C
  C3109    1.0000 0.42958  0.98407  0.10065  Biso   1.000  C
  C3110    1.0000 0.42960  0.98414  0.10070  Biso   1.000  C
  C3111    1.0000 0.42958  0.98413  0.10065  Biso   1.000  C
  C3112    1.0000 0.36945  0.37831  0.16520  Biso   1.000  C
  C3113    1.0000 0.36943  0.37830  0.16515  Biso   1.000  C
  C3114    1.0000 0.36937  0.37830  0.16515  Biso   1.000  C
  C3115    1.0000 0.26106  0.31222  0.00991  Biso   1.000  C
  C3116    1.0000 0.26104  0.31216  0.00986  Biso   1.000  C
  C3117    1.0000 0.26098  0.31222  0.00986  Biso   1.000  C
  C3118    1.0000 0.54213  0.86429  0.88092  Biso   1.000  C
  C3119    1.0000 0.55551  0.75952  0.79692  Biso   1.000  C
  C3120    1.0000 0.54207  0.86429  0.88092  Biso   1.000  C
  C3121    1.0000 0.55545  0.75952  0.79692  Biso   1.000  C
  C3122    1.0000 0.54207  0.86436  0.88092  Biso   1.000  C
  C3123    1.0000 0.37462  0.90458  0.64754  Biso   1.000  C
  H2245    1.0000 0.47402  0.81561  0.67304  Biso   1.000  H
  H2246    1.0000 0.38252  0.80148  0.70772  Biso   1.000  H
  C3124    1.0000 0.37454  0.90458  0.64749  Biso   1.000  C
  H2247    1.0000 0.47393  0.81561  0.67299  Biso   1.000  H
  H2248    1.0000 0.38246  0.80148  0.70772  Biso   1.000  H
  C3125    1.0000 0.37456  0.90458  0.64754  Biso   1.000  C
  H2249    1.0000 0.47395  0.81561  0.67304  Biso   1.000  H
  C3126    1.0000 0.57041  0.01604  0.89932  Biso   1.000  C
  C3127    1.0000 0.57047  0.01598  0.89932  Biso   1.000  C
  C3128    1.0000 0.57048  0.01604  0.89932  Biso   1.000  C
  C3129    1.0000 0.76432  0.26594  0.90295  Biso   1.000  C
  C3130    1.0000 0.76437  0.26593  0.90290  Biso   1.000  C
  C3131    1.0000 0.76439  0.26594  0.90295  Biso   1.000  C
  C3132    1.0000 0.57831  0.80112  0.33335  Biso   1.000  C
  H2250    1.0000 0.45845  0.85477  0.34833  Biso   1.000  H
  C3133    1.0000 0.57823  0.80111  0.33330  Biso   1.000  C
  C3134    1.0000 0.57825  0.80118  0.33335  Biso   1.000  C
  C3135    1.0000 0.57823  0.80118  0.33330  Biso   1.000  C
  H2251    1.0000 0.70815  0.75633  0.33240  Biso   1.000  H
  H2252    1.0000 0.70815  0.75639  0.33240  Biso   1.000  H
  C3136    1.0000 0.77746  0.51475  0.42091  Biso   1.000  C
  H2253    1.0000 0.89170  0.44156  0.46105  Biso   1.000  H
  C3137    1.0000 0.77740  0.51475  0.42091  Biso   1.000  C
  H2254    1.0000 0.89162  0.44156  0.46100  Biso   1.000  H
  H2255    1.0000 0.89164  0.44156  0.46105  Biso   1.000  H
  H2256    1.0000 0.67015  0.59937  0.39422  Biso   1.000  H
  C3138    1.0000 0.73908  0.68789  0.99011  Biso   1.000  C
  C3139    1.0000 0.73908  0.68796  0.99011  Biso   1.000  C
  C3140    1.0000 0.60693  0.73290  0.91282  Biso   1.000  C
  C3141    1.0000 0.60686  0.73290  0.91282  Biso   1.000  C
  C3142    1.0000 0.60686  0.73296  0.91282  Biso   1.000  C
  H2257    1.0000 0.60706  0.51771  0.76011  Biso   1.000  H
  H2258    1.0000 0.58089  0.61638  0.72945  Biso   1.000  H
  C3143    1.0000 0.47459  0.55609  0.76254  Biso   1.000  C
  H2259    1.0000 0.58081  0.61638  0.72940  Biso   1.000  H
  C3144    1.0000 0.47457  0.55608  0.76249  Biso   1.000  C
  H2260    1.0000 0.58083  0.61644  0.72945  Biso   1.000  H
  H2261    1.0000 0.58088  0.61638  0.72940  Biso   1.000  H
  C3145    1.0000 0.11144  0.64668  0.02499  Biso   1.000  C
  C3146    1.0000 0.11150  0.64668  0.02499  Biso   1.000  C
  C3147    1.0000 0.11151  0.64675  0.02499  Biso   1.000  C
  C3148    1.0000 0.57143  0.15292  0.30362  Biso   1.000  C
  H2262    1.0000 0.56063  0.06742  0.22141  Biso   1.000  H
  C3149    1.0000 0.43961  0.04410  0.25058  Biso   1.000  C
  C3150    1.0000 0.57148  0.15292  0.30357  Biso   1.000  C
  H2263    1.0000 0.56067  0.06741  0.22136  Biso   1.000  H
  C3151    1.0000 0.43967  0.04410  0.25058  Biso   1.000  C
  C3152    1.0000 0.57150  0.15292  0.30362  Biso   1.000  C
  H2264    1.0000 0.56069  0.06742  0.22141  Biso   1.000  H
  C3153    1.0000 0.43968  0.04416  0.25058  Biso   1.000  C
  C3154    1.0000 0.57141  0.15292  0.30357  Biso   1.000  C
  H2265    1.0000 0.56061  0.06741  0.22136  Biso   1.000  H
  C3155    1.0000 0.43961  0.04416  0.25058  Biso   1.000  C
  H2266    1.0000 0.45453  0.26075  0.25460  Biso   1.000  H
  H2267    1.0000 0.45451  0.26075  0.25455  Biso   1.000  H
  H2268    1.0000 0.43449  0.93881  0.06180  Biso   1.000  H
  O484     1.0000 0.45527  0.94851  0.16138  Biso   1.000  O
  H2269    1.0000 0.43447  0.93881  0.06176  Biso   1.000  H
  H2270    1.0000 0.36001  0.00088  0.09207  Biso   1.000  H
  H2271    1.0000 0.36007  0.00094  0.09207  Biso   1.000  H
  H2272    1.0000 0.36001  0.00094  0.09207  Biso   1.000  H
  C3156    1.0000 0.26915  0.35808  0.16530  Biso   1.000  C
  H2273    1.0000 0.37734  0.42028  0.12848  Biso   1.000  H
  C3157    1.0000 0.42360  0.42439  0.23237  Biso   1.000  C
  C3158    1.0000 0.26914  0.35808  0.16525  Biso   1.000  C
  C3159    1.0000 0.42366  0.42439  0.23237  Biso   1.000  C
  C3160    1.0000 0.26916  0.35815  0.16530  Biso   1.000  C
  H2274    1.0000 0.37735  0.42034  0.12848  Biso   1.000  H
  C3161    1.0000 0.42366  0.42445  0.23237  Biso   1.000  C
  C3162    1.0000 0.26907  0.35814  0.16525  Biso   1.000  C
  H2275    1.0000 0.37728  0.42034  0.12848  Biso   1.000  H
  C3163    1.0000 0.42360  0.42445  0.23237  Biso   1.000  C
  H2276    1.0000 0.24361  0.32413  0.95802  Biso   1.000  H
  H2277    1.0000 0.24368  0.32413  0.95802  Biso   1.000  H
  O485     1.0000 0.22381  0.37658  0.04598  Biso   1.000  O
  H2278    1.0000 0.23321  0.25098  0.01537  Biso   1.000  H
  O486     1.0000 0.22388  0.37664  0.04598  Biso   1.000  O
  O487     1.0000 0.22381  0.37664  0.04598  Biso   1.000  O
  C3164    1.0000 0.58082  0.81163  0.93023  Biso   1.000  C
  O488     1.0000 0.51548  0.94143  0.90002  Biso   1.000  O
  C3165    1.0000 0.58076  0.81163  0.93023  Biso   1.000  C
  H2279    1.0000 0.54561  0.73937  0.74543  Biso   1.000  H
  H2280    1.0000 0.54554  0.73937  0.74543  Biso   1.000  H
  H2281    1.0000 0.54554  0.73943  0.74543  Biso   1.000  H
  C3166    1.0000 0.33706  0.85948  0.57952  Biso   1.000  C
  H2282    1.0000 0.31893  0.92578  0.66535  Biso   1.000  H
  H2283    1.0000 0.41829  0.95781  0.64451  Biso   1.000  H
  H2284    1.0000 0.31884  0.92578  0.66530  Biso   1.000  H
  H2285    1.0000 0.41822  0.95775  0.64451  Biso   1.000  H
  H2286    1.0000 0.31886  0.92578  0.66535  Biso   1.000  H
  H2287    1.0000 0.41822  0.95781  0.64451  Biso   1.000  H
  H2288    1.0000 0.64013  0.99924  0.90796  Biso   1.000  H
  H2289    1.0000 0.64005  0.99923  0.90791  Biso   1.000  H
  H2290    1.0000 0.64007  0.99924  0.90796  Biso   1.000  H
  H2291    1.0000 0.56552  0.06130  0.93822  Biso   1.000  H
  H2292    1.0000 0.56559  0.06130  0.93822  Biso   1.000  H
  C3167    1.0000 0.70913  0.33392  0.89615  Biso   1.000  C
  C3168    1.0000 0.85403  0.27573  0.94244  Biso   1.000  C
  C3169    1.0000 0.70911  0.33392  0.89610  Biso   1.000  C
  C3170    1.0000 0.85409  0.27573  0.94244  Biso   1.000  C
  C3171    1.0000 0.70920  0.33392  0.89615  Biso   1.000  C
  C3172    1.0000 0.70918  0.33392  0.89610  Biso   1.000  C
  H2293    1.0000 0.54337  0.77087  0.28532  Biso   1.000  H
  H2294    1.0000 0.54330  0.77087  0.28532  Biso   1.000  H
  H2295    1.0000 0.75409  0.47566  0.37522  Biso   1.000  H
  H2296    1.0000 0.75402  0.47566  0.37522  Biso   1.000  H
  H2297    1.0000 0.76693  0.74913  0.98466  Biso   1.000  H
  O489     1.0000 0.64234  0.68399  0.96496  Biso   1.000  O
  H2298    1.0000 0.76685  0.74913  0.98461  Biso   1.000  H
  O490     1.0000 0.64225  0.68399  0.96491  Biso   1.000  O
  H2299    1.0000 0.76686  0.74913  0.98466  Biso   1.000  H
  O491     1.0000 0.64227  0.68405  0.96496  Biso   1.000  O
  O492     1.0000 0.64226  0.68405  0.96491  Biso   1.000  O
  H2300    1.0000 0.75640  0.67599  0.04201  Biso   1.000  H
  H2301    1.0000 0.75638  0.67598  0.04196  Biso   1.000  H
  H2302    1.0000 0.75640  0.67605  0.04201  Biso   1.000  H
  H2303    1.0000 0.44448  0.61407  0.77103  Biso   1.000  H
  H2304    1.0000 0.44001  0.52782  0.71372  Biso   1.000  H
  C3173    1.0000 0.46248  0.49712  0.81325  Biso   1.000  C
  H2305    1.0000 0.43994  0.52776  0.71372  Biso   1.000  H
  C3174    1.0000 0.46247  0.49711  0.81320  Biso   1.000  C
  H2306    1.0000 0.44448  0.61413  0.77103  Biso   1.000  H
  H2307    1.0000 0.43995  0.52782  0.71372  Biso   1.000  H
  C3175    1.0000 0.16656  0.57870  0.03179  Biso   1.000  C
  C3176    1.0000 0.14598  0.72439  0.05759  Biso   1.000  C
  C3177    1.0000 0.14598  0.72445  0.05759  Biso   1.000  C
  C3178    1.0000 0.16663  0.57870  0.03179  Biso   1.000  C
  C3179    1.0000 0.62552  0.09553  0.35248  Biso   1.000  C
  H2308    1.0000 0.52612  0.18451  0.32698  Biso   1.000  H
  H2309    1.0000 0.61761  0.19864  0.29230  Biso   1.000  H
  C3180    1.0000 0.62558  0.09553  0.35248  Biso   1.000  C
  H2310    1.0000 0.52619  0.18451  0.32698  Biso   1.000  H
  H2311    1.0000 0.61766  0.19863  0.29225  Biso   1.000  H
  H2312    1.0000 0.52619  0.18457  0.32698  Biso   1.000  H
  H2313    1.0000 0.61768  0.19864  0.29230  Biso   1.000  H
  H2314    1.0000 0.52612  0.18457  0.32698  Biso   1.000  H
  H2315    1.0000 0.61760  0.19863  0.29225  Biso   1.000  H
  C3181    1.0000 0.41435  0.97002  0.21000  Biso   1.000  C
  C3182    1.0000 0.41439  0.97001  0.20995  Biso   1.000  C
  C3183    1.0000 0.41441  0.97002  0.21000  Biso   1.000  C
  C3184    1.0000 0.39745  0.06295  0.30019  Biso   1.000  C
  C3185    1.0000 0.39738  0.06295  0.30019  Biso   1.000  C
  C3186    1.0000 0.24367  0.34001  0.22200  Biso   1.000  C
  C3187    1.0000 0.20412  0.35412  0.10388  Biso   1.000  C
  C3188    1.0000 0.24365  0.34000  0.22195  Biso   1.000  C
  C3189    1.0000 0.24368  0.34007  0.22200  Biso   1.000  C
  C3190    1.0000 0.24359  0.34000  0.22195  Biso   1.000  C
  H2316    1.0000 0.39307  0.48241  0.23991  Biso   1.000  H
  H2317    1.0000 0.41924  0.38374  0.27057  Biso   1.000  H
  C3191    1.0000 0.52555  0.44403  0.23748  Biso   1.000  C
  H2318    1.0000 0.39306  0.48240  0.23986  Biso   1.000  H
  H2319    1.0000 0.39308  0.48247  0.23991  Biso   1.000  H
  H2320    1.0000 0.39299  0.48246  0.23986  Biso   1.000  H
  H2321    1.0000 0.41918  0.38374  0.27057  Biso   1.000  H
  C3192    1.0000 0.52549  0.44403  0.23748  Biso   1.000  C
  C3193    1.0000 0.58485  0.83972  0.00068  Biso   1.000  C
  C3194    1.0000 0.58485  0.83966  0.00068  Biso   1.000  C
  C3195    1.0000 0.58492  0.83972  0.00068  Biso   1.000  C
  C3196    1.0000 0.37895  0.87479  0.52991  Biso   1.000  C
  C3197    1.0000 0.26598  0.79838  0.56771  Biso   1.000  C
  C3198    1.0000 0.26592  0.79838  0.56771  Biso   1.000  C
  C3199    1.0000 0.74374  0.41163  0.92874  Biso   1.000  C
  H2322    1.0000 0.63974  0.32640  0.86564  Biso   1.000  H
  C3200    1.0000 0.74372  0.41162  0.92869  Biso   1.000  C
  C3201    1.0000 0.74378  0.41162  0.92869  Biso   1.000  C
  H2323    1.0000 0.63980  0.32640  0.86564  Biso   1.000  H
  C3202    1.0000 0.88857  0.35343  0.97503  Biso   1.000  C
  H2324    1.0000 0.89676  0.22302  0.94765  Biso   1.000  H
  H2325    1.0000 0.89674  0.22301  0.94760  Biso   1.000  H
  C3203    1.0000 0.47351  0.41158  0.80382  Biso   1.000  C
  C3204    1.0000 0.44033  0.52861  0.86985  Biso   1.000  C
  C3205    1.0000 0.47345  0.41158  0.80382  Biso   1.000  C
  C3206    1.0000 0.44024  0.52860  0.86980  Biso   1.000  C
  C3207    1.0000 0.47345  0.41164  0.80382  Biso   1.000  C
  C3208    1.0000 0.44026  0.52861  0.86985  Biso   1.000  C
  C3209    1.0000 0.25627  0.58849  0.07128  Biso   1.000  C
  H2326    1.0000 0.13987  0.51847  0.00659  Biso   1.000  H
  H2327    1.0000 0.13987  0.51854  0.00659  Biso   1.000  H
  C3210    1.0000 0.23568  0.73418  0.09708  Biso   1.000  C
  C3211    1.0000 0.23569  0.73424  0.09708  Biso   1.000  C
  H2328    1.0000 0.10325  0.77710  0.05238  Biso   1.000  H
  H2329    1.0000 0.10331  0.77710  0.05238  Biso   1.000  H
  C3212    1.0000 0.66307  0.14063  0.42050  Biso   1.000  C
  H2330    1.0000 0.68121  0.07433  0.33467  Biso   1.000  H
  H2331    1.0000 0.58185  0.04231  0.35551  Biso   1.000  H
  C3213    1.0000 0.66305  0.14063  0.42045  Biso   1.000  C
  H2332    1.0000 0.68127  0.07433  0.33467  Biso   1.000  H
  H2333    1.0000 0.58183  0.04230  0.35546  Biso   1.000  H
  H2334    1.0000 0.58185  0.04237  0.35551  Biso   1.000  H
  C3214    1.0000 0.66299  0.14063  0.42045  Biso   1.000  C
  H2335    1.0000 0.58184  0.04236  0.35546  Biso   1.000  H
  C3215    1.0000 0.34685  0.91485  0.21898  Biso   1.000  C
  C3216    1.0000 0.34691  0.91479  0.21898  Biso   1.000  C
  C3217    1.0000 0.34691  0.91485  0.21898  Biso   1.000  C
  C3218    1.0000 0.33004  0.00760  0.30927  Biso   1.000  C
  H2336    1.0000 0.41706  0.12026  0.33170  Biso   1.000  H
  C3219    1.0000 0.33005  0.00766  0.30927  Biso   1.000  C
  C3220    1.0000 0.32998  0.00766  0.30927  Biso   1.000  C
  H2337    1.0000 0.41700  0.12026  0.33170  Biso   1.000  H
  C3221    1.0000 0.15303  0.31791  0.21729  Biso   1.000  C
  H2338    1.0000 0.29406  0.34312  0.26958  Biso   1.000  H
  C3222    1.0000 0.15303  0.31797  0.21729  Biso   1.000  C
  H2339    1.0000 0.29399  0.34312  0.26958  Biso   1.000  H
  C3223    1.0000 0.11353  0.33201  0.09911  Biso   1.000  C
  C3224    1.0000 0.11351  0.33201  0.09906  Biso   1.000  C
  C3225    1.0000 0.11359  0.33201  0.09911  Biso   1.000  C
  H2340    1.0000 0.55566  0.38605  0.22900  Biso   1.000  H
  H2341    1.0000 0.56013  0.47230  0.28630  Biso   1.000  H
  C3226    1.0000 0.53765  0.50300  0.18678  Biso   1.000  C
  H2342    1.0000 0.55564  0.38598  0.22895  Biso   1.000  H
  H2343    1.0000 0.56017  0.47229  0.28625  Biso   1.000  H
  H2344    1.0000 0.56019  0.47236  0.28630  Biso   1.000  H
  C3227    1.0000 0.53766  0.50306  0.18678  Biso   1.000  C
  H2345    1.0000 0.55557  0.38605  0.22895  Biso   1.000  H
  H2346    1.0000 0.56011  0.47236  0.28625  Biso   1.000  H
  C3228    1.0000 0.53759  0.50300  0.18678  Biso   1.000  C
  N169     1.0000 0.66868  0.87318  0.03888  Biso   1.000  N
  O493     1.0000 0.51994  0.82482  0.02241  Biso   1.000  O
  O494     1.0000 0.51999  0.82482  0.02236  Biso   1.000  O
  N170     1.0000 0.66868  0.87325  0.03888  Biso   1.000  N
  O495     1.0000 0.52001  0.82482  0.02241  Biso   1.000  O
  C3229    1.0000 0.34987  0.82888  0.46864  Biso   1.000  C
  H2347    1.0000 0.43397  0.92210  0.53914  Biso   1.000  H
  C3230    1.0000 0.34985  0.82887  0.46859  Biso   1.000  C
  H2348    1.0000 0.43396  0.92209  0.53909  Biso   1.000  H
  C3231    1.0000 0.23690  0.75247  0.50644  Biso   1.000  C
  H2349    1.0000 0.23347  0.78660  0.60611  Biso   1.000  H
  C3232    1.0000 0.23682  0.75247  0.50639  Biso   1.000  C
  H2350    1.0000 0.23341  0.78660  0.60611  Biso   1.000  H
  C3233    1.0000 0.23684  0.75247  0.50644  Biso   1.000  C
  C3234    1.0000 0.83344  0.42142  0.96824  Biso   1.000  C
  C3235    1.0000 0.83351  0.42142  0.96824  Biso   1.000  C
  H2351    1.0000 0.70107  0.46434  0.92353  Biso   1.000  H
  N171     1.0000 0.97482  0.36833  0.02370  Biso   1.000  N
  N172     1.0000 0.97480  0.36826  0.02365  Biso   1.000  N
  N173     1.0000 0.97488  0.36833  0.02370  Biso   1.000  N
  N174     1.0000 0.97480  0.36832  0.02365  Biso   1.000  N
  C3236    1.0000 0.46224  0.35758  0.85095  Biso   1.000  C
  H2352    1.0000 0.49072  0.38727  0.76001  Biso   1.000  H
  C3237    1.0000 0.46216  0.35758  0.85090  Biso   1.000  C
  H2353    1.0000 0.49066  0.38727  0.76001  Biso   1.000  H
  C3238    1.0000 0.46218  0.35765  0.85095  Biso   1.000  C
  H2354    1.0000 0.49066  0.38733  0.76001  Biso   1.000  H
  C3239    1.0000 0.46216  0.35764  0.85090  Biso   1.000  C
  C3240    1.0000 0.42903  0.47461  0.91694  Biso   1.000  C
  H2355    1.0000 0.43180  0.59478  0.87715  Biso   1.000  H
  C3241    1.0000 0.42897  0.47461  0.91694  Biso   1.000  C
  H2356    1.0000 0.43171  0.59478  0.87710  Biso   1.000  H
  H2357    1.0000 0.43174  0.59484  0.87715  Biso   1.000  H
  H2358    1.0000 0.43178  0.59484  0.87710  Biso   1.000  H
  C3242    1.0000 0.29088  0.66620  0.10388  Biso   1.000  C
  H2359    1.0000 0.29894  0.53578  0.07649  Biso   1.000  H
  H2360    1.0000 0.29900  0.53578  0.07649  Biso   1.000  H
  H2361    1.0000 0.29900  0.53584  0.07649  Biso   1.000  H
  N175     1.0000 0.26389  0.81533  0.12977  Biso   1.000  N
  C3243    1.0000 0.62119  0.12533  0.47011  Biso   1.000  C
  C3244    1.0000 0.73415  0.20173  0.43231  Biso   1.000  C
  C3245    1.0000 0.62117  0.12533  0.47007  Biso   1.000  C
  C3246    1.0000 0.73414  0.20173  0.43226  Biso   1.000  C
  C3247    1.0000 0.62119  0.12539  0.47011  Biso   1.000  C
  C3248    1.0000 0.73416  0.20180  0.43231  Biso   1.000  C
  C3249    1.0000 0.62111  0.12539  0.47007  Biso   1.000  C
  C3250    1.0000 0.30468  0.93351  0.26859  Biso   1.000  C
  C3251    1.0000 0.33515  0.82724  0.18727  Biso   1.000  C
  C3252    1.0000 0.33521  0.82724  0.18727  Biso   1.000  C
  C3253    1.0000 0.30468  0.93357  0.26859  Biso   1.000  C
  C3254    1.0000 0.27636  0.02801  0.35958  Biso   1.000  C
  C3255    1.0000 0.27636  0.02808  0.35958  Biso   1.000  C
  C3256    1.0000 0.27629  0.02808  0.35958  Biso   1.000  C
  C3257    1.0000 0.12142  0.29613  0.27648  Biso   1.000  C
  C3258    1.0000 0.08803  0.31399  0.15577  Biso   1.000  C
  C3259    1.0000 0.12148  0.29613  0.27648  Biso   1.000  C
  C3260    1.0000 0.08803  0.31406  0.15577  Biso   1.000  C
  C3261    1.0000 0.04134  0.31448  0.03348  Biso   1.000  C
  C3262    1.0000 0.04135  0.31454  0.03348  Biso   1.000  C
  C3263    1.0000 0.04128  0.31454  0.03348  Biso   1.000  C
  C3264    1.0000 0.52662  0.58854  0.19620  Biso   1.000  C
  C3265    1.0000 0.55981  0.47151  0.13017  Biso   1.000  C
  C3266    1.0000 0.52667  0.58854  0.19616  Biso   1.000  C
  C3267    1.0000 0.52669  0.58854  0.19620  Biso   1.000  C
  C3268    1.0000 0.55988  0.47151  0.13017  Biso   1.000  C
  C3269    1.0000 0.52660  0.58854  0.19616  Biso   1.000  C
  C3270    1.0000 0.68998  0.89832  0.10641  Biso   1.000  C
  C3271    1.0000 0.68997  0.89832  0.10636  Biso   1.000  C
  C3272    1.0000 0.27892  0.76778  0.45683  Biso   1.000  C
  H2362    1.0000 0.38251  0.84066  0.43024  Biso   1.000  H
  C3273    1.0000 0.27885  0.76778  0.45683  Biso   1.000  C
  H2363    1.0000 0.38243  0.84066  0.43019  Biso   1.000  H
  H2364    1.0000 0.38244  0.84066  0.43024  Biso   1.000  H
  H2365    1.0000 0.18188  0.70516  0.49722  Biso   1.000  H
  H2366    1.0000 0.18181  0.70516  0.49722  Biso   1.000  H
  H2367    1.0000 0.86014  0.48164  0.99344  Biso   1.000  H
  H2368    1.0000 0.86020  0.48164  0.99344  Biso   1.000  H
  C3274    1.0000 0.44002  0.38913  0.90756  Biso   1.000  C
  H2369    1.0000 0.47083  0.29141  0.84366  Biso   1.000  H
  C3275    1.0000 0.43994  0.38913  0.90751  Biso   1.000  C
  H2370    1.0000 0.47075  0.29140  0.84361  Biso   1.000  H
  C3276    1.0000 0.43995  0.38913  0.90756  Biso   1.000  C
  H2371    1.0000 0.47077  0.29141  0.84366  Biso   1.000  H
  C3277    1.0000 0.44000  0.38913  0.90751  Biso   1.000  C
  H2372    1.0000 0.41183  0.49904  0.96074  Biso   1.000  H
  H2373    1.0000 0.41175  0.49903  0.96069  Biso   1.000  H
  H2374    1.0000 0.41176  0.49904  0.96074  Biso   1.000  H
  H2375    1.0000 0.36027  0.67372  0.13439  Biso   1.000  H
  H2376    1.0000 0.36033  0.67372  0.13439  Biso   1.000  H
  C3278    1.0000 0.65027  0.17124  0.53139  Biso   1.000  C
  H2377    1.0000 0.56616  0.07802  0.46089  Biso   1.000  H
  C3279    1.0000 0.65027  0.17130  0.53139  Biso   1.000  C
  H2378    1.0000 0.56617  0.07808  0.46089  Biso   1.000  H
  C3280    1.0000 0.65021  0.17124  0.53139  Biso   1.000  C
  H2379    1.0000 0.56610  0.07808  0.46089  Biso   1.000  H
  C3281    1.0000 0.76324  0.24764  0.49358  Biso   1.000  C
  H2380    1.0000 0.76667  0.21352  0.39391  Biso   1.000  H
  H2381    1.0000 0.76665  0.21352  0.39386  Biso   1.000  H
  H2382    1.0000 0.76667  0.21358  0.39391  Biso   1.000  H
  H2383    1.0000 0.76659  0.21358  0.39386  Biso   1.000  H
  O496     1.0000 0.24079  0.87381  0.27851  Biso   1.000  O
  O497     1.0000 0.24077  0.87380  0.27846  Biso   1.000  O
  O498     1.0000 0.24079  0.87387  0.27851  Biso   1.000  O
  O499     1.0000 0.24078  0.87387  0.27846  Biso   1.000  O
  O500     1.0000 0.38230  0.77084  0.21327  Biso   1.000  O
  H2384    1.0000 0.25148  0.97296  0.37789  Biso   1.000  H
  H2385    1.0000 0.25154  0.97296  0.37789  Biso   1.000  H
  C3282    1.0000 0.33464  0.07186  0.42482  Biso   1.000  C
  C3283    1.0000 0.19476  0.07391  0.32272  Biso   1.000  C
  C3284    1.0000 0.33468  0.07185  0.42477  Biso   1.000  C
  C3285    1.0000 0.19474  0.07390  0.32267  Biso   1.000  C
  C3286    1.0000 0.33470  0.07186  0.42482  Biso   1.000  C
  C3287    1.0000 0.19477  0.07397  0.32272  Biso   1.000  C
  C3288    1.0000 0.33462  0.07185  0.42477  Biso   1.000  C
  C3289    1.0000 0.19468  0.07397  0.32267  Biso   1.000  C
  C3290    1.0000 0.12281  0.19942  0.28258  Biso   1.000  C
  H2386    1.0000 0.05161  0.31240  0.26680  Biso   1.000  H
  C3291    1.0000 0.17422  0.34476  0.34291  Biso   1.000  C
  C3292    1.0000 0.12287  0.19942  0.28258  Biso   1.000  C
  H2387    1.0000 0.05166  0.31239  0.26675  Biso   1.000  H
  C3293    1.0000 0.17427  0.34476  0.34286  Biso   1.000  C
  H2388    1.0000 0.05168  0.31246  0.26680  Biso   1.000  H
  C3294    1.0000 0.17429  0.34476  0.34291  Biso   1.000  C
  H2389    1.0000 0.05159  0.31245  0.26675  Biso   1.000  H
  C3295    1.0000 0.17420  0.34476  0.34286  Biso   1.000  C
  O501     1.0000 0.99626  0.29653  0.14927  Biso   1.000  O
  O502     1.0000 0.99619  0.29653  0.14927  Biso   1.000  O
  O503     1.0000 0.04822  0.25601  0.99562  Biso   1.000  O
  O504     1.0000 0.04829  0.25601  0.99562  Biso   1.000  O
  C3296    1.0000 0.53790  0.64253  0.14907  Biso   1.000  C
  H2390    1.0000 0.50941  0.61285  0.24001  Biso   1.000  H
  C3297    1.0000 0.53796  0.64253  0.14907  Biso   1.000  C
  H2391    1.0000 0.50946  0.61284  0.23996  Biso   1.000  H
  H2392    1.0000 0.50948  0.61285  0.24001  Biso   1.000  H
  H2393    1.0000 0.50940  0.61284  0.23996  Biso   1.000  H
  C3298    1.0000 0.57110  0.52551  0.08309  Biso   1.000  C
  H2394    1.0000 0.56834  0.40534  0.12288  Biso   1.000  H
  C3299    1.0000 0.57117  0.52551  0.08309  Biso   1.000  C
  H2395    1.0000 0.56834  0.40527  0.12288  Biso   1.000  H
  H2396    1.0000 0.56827  0.40534  0.12288  Biso   1.000  H
  C3300    1.0000 0.63485  0.88471  0.14808  Biso   1.000  C
  C3301    1.0000 0.77586  0.93859  0.13191  Biso   1.000  C
  C3302    1.0000 0.77584  0.93859  0.13186  Biso   1.000  C
  C3303    1.0000 0.77587  0.93865  0.13191  Biso   1.000  C
  C3304    1.0000 0.63492  0.88471  0.14808  Biso   1.000  C
  C3305    1.0000 0.77591  0.93865  0.13186  Biso   1.000  C
  H2397    1.0000 0.25639  0.73214  0.40935  Biso   1.000  H
  H2398    1.0000 0.25630  0.73214  0.40930  Biso   1.000  H
  H2399    1.0000 0.25632  0.73220  0.40935  Biso   1.000  H
  H2400    1.0000 0.25637  0.73214  0.40930  Biso   1.000  H
  H2401    1.0000 0.43132  0.34732  0.94402  Biso   1.000  H
  H2402    1.0000 0.43126  0.34732  0.94402  Biso   1.000  H
  C3306    1.0000 0.72122  0.23234  0.54319  Biso   1.000  C
  H2403    1.0000 0.61763  0.15945  0.56979  Biso   1.000  H
  C3307    1.0000 0.72129  0.23234  0.54319  Biso   1.000  C
  H2404    1.0000 0.61769  0.15945  0.56979  Biso   1.000  H
  C3308    1.0000 0.72129  0.23240  0.54319  Biso   1.000  C
  C3309    1.0000 0.72122  0.23240  0.54319  Biso   1.000  C
  H2405    1.0000 0.81826  0.29495  0.50281  Biso   1.000  H
  H2406    1.0000 0.81824  0.29495  0.50276  Biso   1.000  H
  C3310    1.0000 0.14900  0.89394  0.24319  Biso   1.000  C
  H2407    1.0000 0.35254  0.13483  0.41519  Biso   1.000  H
  H2408    1.0000 0.39573  0.03925  0.44347  Biso   1.000  H
  C3311    1.0000 0.28362  0.07657  0.47547  Biso   1.000  C
  H2409    1.0000 0.39579  0.03925  0.44347  Biso   1.000  H
  C3312    1.0000 0.28369  0.07657  0.47547  Biso   1.000  C
  C3313    1.0000 0.19721  0.16091  0.32098  Biso   1.000  C
  C3314    1.0000 0.11774  0.02553  0.28590  Biso   1.000  C
  C3315    1.0000 0.19727  0.16091  0.32098  Biso   1.000  C
  C3316    1.0000 0.11772  0.02553  0.28585  Biso   1.000  C
  C3317    1.0000 0.19727  0.16097  0.32098  Biso   1.000  C
  C3318    1.0000 0.19721  0.16097  0.32098  Biso   1.000  C
  C3319    1.0000 0.04591  0.15104  0.24577  Biso   1.000  C
  C3320    1.0000 0.04598  0.15104  0.24577  Biso   1.000  C
  H2410    1.0000 0.17534  0.41111  0.33661  Biso   1.000  H
  H2411    1.0000 0.24296  0.32485  0.35710  Biso   1.000  H
  C3321    1.0000 0.12802  0.32703  0.39798  Biso   1.000  C
  H2412    1.0000 0.17532  0.41110  0.33656  Biso   1.000  H
  C3322    1.0000 0.12809  0.32703  0.39798  Biso   1.000  C
  H2413    1.0000 0.17534  0.41117  0.33661  Biso   1.000  H
  H2414    1.0000 0.17532  0.41117  0.33656  Biso   1.000  H
  H2415    1.0000 0.24289  0.32485  0.35710  Biso   1.000  H
  C3323    1.0000 0.96766  0.21032  0.14679  Biso   1.000  C
  C3324    1.0000 0.96760  0.21032  0.14679  Biso   1.000  C
  C3325    1.0000 0.56012  0.61098  0.09247  Biso   1.000  C
  H2416    1.0000 0.52930  0.70871  0.15637  Biso   1.000  H
  H2417    1.0000 0.52937  0.70871  0.15637  Biso   1.000  H
  C3326    1.0000 0.56012  0.61105  0.09247  Biso   1.000  C
  H2418    1.0000 0.58831  0.50108  0.03928  Biso   1.000  H
  H2419    1.0000 0.58838  0.50114  0.03928  Biso   1.000  H
  H2420    1.0000 0.58831  0.50114  0.03928  Biso   1.000  H
  C3327    1.0000 0.66569  0.91145  0.21531  Biso   1.000  C
  H2421    1.0000 0.56825  0.85341  0.12838  Biso   1.000  H
  C3328    1.0000 0.66567  0.91144  0.21526  Biso   1.000  C
  H2422    1.0000 0.56832  0.85341  0.12838  Biso   1.000  H
  C3329    1.0000 0.80675  0.96544  0.19908  Biso   1.000  C
  C3330    1.0000 0.80681  0.96544  0.19908  Biso   1.000  C
  H2423    1.0000 0.81855  0.94920  0.09961  Biso   1.000  H
  H2424    1.0000 0.81859  0.94919  0.09956  Biso   1.000  H
  H2425    1.0000 0.81861  0.94920  0.09961  Biso   1.000  H
  H2426    1.0000 0.74375  0.26798  0.59067  Biso   1.000  H
  H2427    1.0000 0.10868  0.83634  0.22409  Biso   1.000  H
  H2428    1.0000 0.15138  0.93124  0.20251  Biso   1.000  H
  O505     1.0000 0.11068  0.93863  0.28799  Biso   1.000  O
  H2429    1.0000 0.15136  0.93123  0.20246  Biso   1.000  H
  H2430    1.0000 0.15142  0.93123  0.20246  Biso   1.000  H
  O506     1.0000 0.11074  0.93863  0.28799  Biso   1.000  O
  H2431    1.0000 0.22334  0.10987  0.45558  Biso   1.000  H
  H2432    1.0000 0.26437  0.01297  0.48242  Biso   1.000  H
  C3331    1.0000 0.33177  0.12064  0.54250  Biso   1.000  C
  H2433    1.0000 0.26435  0.01296  0.48237  Biso   1.000  H
  C3332    1.0000 0.33177  0.12070  0.54250  Biso   1.000  C
  C3333    1.0000 0.33171  0.12070  0.54250  Biso   1.000  C
  H2434    1.0000 0.25684  0.19833  0.34941  Biso   1.000  H
  H2435    1.0000 0.25682  0.19833  0.34936  Biso   1.000  H
  C3334    1.0000 0.04334  0.06404  0.24750  Biso   1.000  C
  C3335    1.0000 0.04332  0.06404  0.24745  Biso   1.000  C
  O507     1.0000 0.96802  0.18640  0.21039  Biso   1.000  O
  O508     1.0000 0.96808  0.18640  0.21039  Biso   1.000  O
  O509     1.0000 0.96808  0.18646  0.21039  Biso   1.000  O
  O510     1.0000 0.96802  0.18646  0.21039  Biso   1.000  O
  H2436    1.0000 0.13765  0.26265  0.40929  Biso   1.000  H
  H2437    1.0000 0.05646  0.33562  0.37818  Biso   1.000  H
  C3336    1.0000 0.16203  0.38427  0.46089  Biso   1.000  C
  C3337    1.0000 0.16209  0.38427  0.46089  Biso   1.000  C
  H2438    1.0000 0.05646  0.33568  0.37818  Biso   1.000  H
  H2439    1.0000 0.05640  0.33568  0.37818  Biso   1.000  H
  H2440    1.0000 0.89995  0.19919  0.11370  Biso   1.000  H
  H2441    1.0000 0.89993  0.19919  0.11365  Biso   1.000  H
  H2442    1.0000 0.89996  0.19925  0.11370  Biso   1.000  H
  H2443    1.0000 0.89987  0.19925  0.11365  Biso   1.000  H
  H2444    1.0000 0.01400  0.17279  0.12858  Biso   1.000  H
  H2445    1.0000 0.01406  0.17279  0.12858  Biso   1.000  H
  H2446    1.0000 0.01407  0.17286  0.12858  Biso   1.000  H
  H2447    1.0000 0.01400  0.17286  0.12858  Biso   1.000  H
  H2448    1.0000 0.56881  0.65279  0.05600  Biso   1.000  H
  H2449    1.0000 0.56886  0.65279  0.05595  Biso   1.000  H
  H2450    1.0000 0.56888  0.65279  0.05600  Biso   1.000  H
  H2451    1.0000 0.56880  0.65279  0.05595  Biso   1.000  H
  C3338    1.0000 0.75170  0.95184  0.24081  Biso   1.000  C
  C3339    1.0000 0.75168  0.95184  0.24076  Biso   1.000  C
  H2452    1.0000 0.62307  0.90090  0.24760  Biso   1.000  H
  H2453    1.0000 0.62305  0.90090  0.24755  Biso   1.000  H
  H2454    1.0000 0.62307  0.90097  0.24760  Biso   1.000  H
  H2455    1.0000 0.62312  0.90096  0.24755  Biso   1.000  H
  N176     1.0000 0.89334  0.01045  0.22979  Biso   1.000  N
  C3340    1.0000 0.42467  0.11249  0.56899  Biso   1.000  C
  C3341    1.0000 0.28397  0.16796  0.57802  Biso   1.000  C
  C3342    1.0000 0.42466  0.11243  0.56899  Biso   1.000  C
  C3343    1.0000 0.28395  0.16796  0.57797  Biso   1.000  C
  C3344    1.0000 0.42460  0.11249  0.56899  Biso   1.000  C
  C3345    1.0000 0.96512  0.01070  0.20439  Biso   1.000  C
  C3346    1.0000 0.96519  0.01077  0.20439  Biso   1.000  C
  C3347    1.0000 0.11475  0.45395  0.47160  Biso   1.000  C
  C3348    1.0000 0.23963  0.36504  0.50921  Biso   1.000  C
  C3349    1.0000 0.11473  0.45394  0.47155  Biso   1.000  C
  C3350    1.0000 0.23968  0.36504  0.50916  Biso   1.000  C
  C3351    1.0000 0.23970  0.36510  0.50921  Biso   1.000  C
  C3352    1.0000 0.23961  0.36504  0.50916  Biso   1.000  C
  H2456    1.0000 0.77556  0.97254  0.29280  Biso   1.000  H
  H2457    1.0000 0.77560  0.97253  0.29275  Biso   1.000  H
  H2458    1.0000 0.77562  0.97254  0.29280  Biso   1.000  H
  C3353    1.0000 0.46974  0.15167  0.63111  Biso   1.000  C
  H2459    1.0000 0.46178  0.07584  0.54151  Biso   1.000  H
  C3354    1.0000 0.46978  0.15167  0.63106  Biso   1.000  C
  H2460    1.0000 0.46176  0.07584  0.54146  Biso   1.000  H
  C3355    1.0000 0.46980  0.15167  0.63111  Biso   1.000  C
  H2461    1.0000 0.46179  0.07591  0.54151  Biso   1.000  H
  C3356    1.0000 0.46972  0.15167  0.63106  Biso   1.000  C
  H2462    1.0000 0.46170  0.07584  0.54146  Biso   1.000  H
  C3357    1.0000 0.32895  0.20714  0.64009  Biso   1.000  C
  H2463    1.0000 0.21197  0.17423  0.55748  Biso   1.000  H
  C3358    1.0000 0.32896  0.20720  0.64009  Biso   1.000  C
  H2464    1.0000 0.21197  0.17429  0.55748  Biso   1.000  H
  H2465    1.0000 0.21191  0.17429  0.55748  Biso   1.000  H
  O511     1.0000 0.96709  0.97833  0.15170  Biso   1.000  O
  O512     1.0000 0.96707  0.97833  0.15165  Biso   1.000  O
  C3359    1.0000 0.14503  0.50459  0.53069  Biso   1.000  C
  H2466    1.0000 0.05478  0.46882  0.43420  Biso   1.000  H
  C3360    1.0000 0.14510  0.50452  0.53069  Biso   1.000  C
  C3361    1.0000 0.14510  0.50459  0.53069  Biso   1.000  C
  H2467    1.0000 0.05478  0.46889  0.43420  Biso   1.000  H
  H2468    1.0000 0.05472  0.46889  0.43420  Biso   1.000  H
  C3362    1.0000 0.26985  0.41555  0.56830  Biso   1.000  C
  H2469    1.0000 0.27628  0.31107  0.50087  Biso   1.000  H
  H2470    1.0000 0.27621  0.31107  0.50087  Biso   1.000  H
  C3363    1.0000 0.42182  0.19900  0.66668  Biso   1.000  C
  H2471    1.0000 0.54169  0.14535  0.65170  Biso   1.000  H
  C3364    1.0000 0.42189  0.19894  0.66668  Biso   1.000  C
  C3365    1.0000 0.42189  0.19900  0.66668  Biso   1.000  C
  H2472    1.0000 0.54169  0.14541  0.65170  Biso   1.000  H
  H2473    1.0000 0.54163  0.14541  0.65170  Biso   1.000  H
  H2474    1.0000 0.29199  0.24379  0.66762  Biso   1.000  H
  H2475    1.0000 0.29197  0.24379  0.66757  Biso   1.000  H
  H2476    1.0000 0.29190  0.24379  0.66757  Biso   1.000  H
  C3366    1.0000 0.22268  0.48536  0.57911  Biso   1.000  C
  H2477    1.0000 0.10844  0.55855  0.53898  Biso   1.000  H
  C3367    1.0000 0.22266  0.48536  0.57906  Biso   1.000  C
  C3368    1.0000 0.22259  0.48536  0.57906  Biso   1.000  C
  H2478    1.0000 0.32999  0.40075  0.60580  Biso   1.000  H
  H2479    1.0000 0.32997  0.40074  0.60576  Biso   1.000  H
  H2480    1.0000 0.32999  0.40081  0.60580  Biso   1.000  H
  H2481    1.0000 0.32991  0.40081  0.60576  Biso   1.000  H
  H2482    1.0000 0.45677  0.22925  0.71470  Biso   1.000  H
  H2483    1.0000 0.45675  0.22925  0.71465  Biso   1.000  H
  H2484    1.0000 0.45677  0.22931  0.71470  Biso   1.000  H
  H2485    1.0000 0.45675  0.22931  0.71465  Biso   1.000  H
  H2486    1.0000 0.24605  0.52445  0.62481  Biso   1.000  H
  H2487    1.0000 0.24603  0.52445  0.62476  Biso   1.000  H
  H2488    1.0000 0.24612  0.52452  0.62481  Biso   1.000  H
