data_image0
_cell_length_a       14.834
_cell_length_b       14.834
_cell_length_c       15.594
_cell_angle_alpha    90
_cell_angle_beta     90
_cell_angle_gamma    120

_symmetry_space_group_name_H-M    "P 1"
_symmetry_int_tables_number       1

loop_
  _symmetry_equiv_pos_as_xyz
  'x, y, z'

loop_
  _atom_site_label
  _atom_site_occupancy
  _atom_site_fract_x
  _atom_site_fract_y
  _atom_site_fract_z
  _atom_site_thermal_displace_type
  _atom_site_B_iso_or_equiv
  _atom_site_type_symbol
  C1       1.0000 0.91319  0.77515  0.94799  Biso   1.000  C
  C2       1.0000 0.01032  0.82675  0.91099  Biso   1.000  C
  C3       1.0000 0.01028  0.82668  0.91099  Biso   1.000  C
  H1       1.0000 0.85261  0.74230  0.91317  Biso   1.000  H
  C4       1.0000 0.90391  0.77195  0.03630  Biso   1.000  C
  C5       1.0000 0.90387  0.77188  0.03630  Biso   1.000  C
  C6       1.0000 0.02380  0.83633  0.81788  Biso   1.000  C
  C7       1.0000 0.91315  0.77507  0.94799  Biso   1.000  C
  C8       1.0000 0.09613  0.86801  0.96370  Biso   1.000  C
  C9       1.0000 0.98970  0.81640  0.08901  Biso   1.000  C
  H2       1.0000 0.84322  0.73903  0.07112  Biso   1.000  H
  N1       1.0000 0.95224  0.80364  0.76311  Biso   1.000  N
  H3       1.0000 0.09325  0.87073  0.79678  Biso   1.000  H
  H4       1.0000 0.15681  0.89580  0.92888  Biso   1.000  H
  C10      1.0000 0.08683  0.86194  0.05201  Biso   1.000  C
  C11      1.0000 0.97623  0.81251  0.18212  Biso   1.000  C
  C12      1.0000 0.98294  0.82364  0.67212  Biso   1.000  C
  C13      1.0000 0.98290  0.82356  0.67212  Biso   1.000  C
  H5       1.0000 0.14744  0.88973  0.08683  Biso   1.000  H
  H6       1.0000 0.90685  0.77756  0.20322  Biso   1.000  H
  H7       1.0000 0.90681  0.77748  0.20322  Biso   1.000  H
  N2       1.0000 0.04780  0.85143  0.23689  Biso   1.000  N
  C14      1.0000 0.94492  0.89051  0.63140  Biso   1.000  C
  H8       1.0000 0.95412  0.75927  0.64243  Biso   1.000  H
  H9       1.0000 0.95409  0.75919  0.64243  Biso   1.000  H
  H10      1.0000 0.05663  0.85844  0.66840  Biso   1.000  H
  C15      1.0000 0.01712  0.84077  0.32788  Biso   1.000  C
  C16      1.0000 0.01708  0.84069  0.32788  Biso   1.000  C
  H11      1.0000 0.87293  0.86100  0.64390  Biso   1.000  H
  H12      1.0000 0.95423  0.89066  0.57118  Biso   1.000  H
  H13      1.0000 0.95419  0.89058  0.57118  Biso   1.000  H
  N3       1.0000 0.00001  0.00003  0.66218  Biso   1.000  N
  H14      1.0000 0.94339  0.80185  0.33160  Biso   1.000  H
  H15      1.0000 0.94335  0.80177  0.33160  Biso   1.000  H
  C17      1.0000 0.05512  0.94562  0.36860  Biso   1.000  C
  H16      1.0000 0.04588  0.80511  0.35757  Biso   1.000  H
  C18      1.0000 0.94560  0.05514  0.63140  Biso   1.000  C
  C19      1.0000 0.94556  0.05506  0.63140  Biso   1.000  C
  C20      1.0000 0.10953  0.05444  0.63140  Biso   1.000  C
  C21      1.0000 0.10949  0.05436  0.63140  Biso   1.000  C
  H17      1.0000 0.12713  0.98812  0.35610  Biso   1.000  H
  H18      1.0000 0.04581  0.93643  0.42882  Biso   1.000  H
  N4       1.0000 0.00001  0.00003  0.33782  Biso   1.000  N
  C22      1.0000 0.84072  0.01715  0.67212  Biso   1.000  C
  H19      1.0000 0.98814  0.12714  0.64390  Biso   1.000  H
  H20      1.0000 0.93641  0.04580  0.57118  Biso   1.000  H
  C23      1.0000 0.84068  0.01708  0.67212  Biso   1.000  C
  H21      1.0000 0.98810  0.12707  0.64390  Biso   1.000  H
  C24      1.0000 0.17638  0.15929  0.67212  Biso   1.000  C
  H22      1.0000 0.13904  0.01194  0.64390  Biso   1.000  H
  H23      1.0000 0.10941  0.06363  0.57118  Biso   1.000  H
  H24      1.0000 0.13900  0.01186  0.64390  Biso   1.000  H
  C25      1.0000 0.89049  0.94492  0.36860  Biso   1.000  C
  C26      1.0000 0.05444  0.10955  0.36860  Biso   1.000  C
  C27      1.0000 0.05440  0.10947  0.36860  Biso   1.000  C
  H25      1.0000 0.80184  0.94344  0.66840  Biso   1.000  H
  N5       1.0000 0.85140  0.04782  0.76311  Biso   1.000  N
  H26      1.0000 0.80510  0.04596  0.64243  Biso   1.000  H
  H27      1.0000 0.80506  0.04588  0.64243  Biso   1.000  H
  N6       1.0000 0.19640  0.14863  0.76311  Biso   1.000  N
  H28      1.0000 0.14158  0.19821  0.66840  Biso   1.000  H
  H29      1.0000 0.24079  0.19494  0.64243  Biso   1.000  H
  H30      1.0000 0.24075  0.19487  0.64243  Biso   1.000  H
  C28      1.0000 0.82359  0.98290  0.32788  Biso   1.000  C
  H31      1.0000 0.86102  0.87291  0.35610  Biso   1.000  H
  H32      1.0000 0.89064  0.95426  0.42882  Biso   1.000  H
  H33      1.0000 0.89060  0.95418  0.42882  Biso   1.000  H
  C29      1.0000 0.15933  0.17642  0.32788  Biso   1.000  C
  H34      1.0000 0.01196  0.13905  0.35610  Biso   1.000  H
  H35      1.0000 0.06360  0.10940  0.42882  Biso   1.000  H
  H36      1.0000 0.01192  0.13898  0.35610  Biso   1.000  H
  C30      1.0000 0.81249  0.97621  0.81788  Biso   1.000  C
  C31      1.0000 0.16375  0.18755  0.81788  Biso   1.000  C
  C32      1.0000 0.16371  0.18747  0.81788  Biso   1.000  C
  N7       1.0000 0.80361  0.95223  0.23689  Biso   1.000  N
  H37      1.0000 0.75917  0.95410  0.35757  Biso   1.000  H
  H38      1.0000 0.85843  0.05662  0.33160  Biso   1.000  H
  N8       1.0000 0.14864  0.19642  0.23689  Biso   1.000  N
  H39      1.0000 0.19822  0.14162  0.33160  Biso   1.000  H
  H40      1.0000 0.19489  0.24079  0.35757  Biso   1.000  H
  C33      1.0000 0.81644  0.98975  0.91099  Biso   1.000  C
  H41      1.0000 0.77755  0.90685  0.79678  Biso   1.000  H
  C34      1.0000 0.81640  0.98968  0.91099  Biso   1.000  C
  H42      1.0000 0.77751  0.90678  0.79678  Biso   1.000  H
  C35      1.0000 0.17333  0.18366  0.91099  Biso   1.000  C
  H43      1.0000 0.12932  0.22250  0.79678  Biso   1.000  H
  C36      1.0000 0.17329  0.18358  0.91099  Biso   1.000  C
  C37      1.0000 0.83631  0.02385  0.18212  Biso   1.000  C
  C38      1.0000 0.83628  0.02377  0.18212  Biso   1.000  C
  C39      1.0000 0.18750  0.16373  0.18212  Biso   1.000  C
  C40      1.0000 0.77189  0.90390  0.96370  Biso   1.000  C
  C41      1.0000 0.86194  0.08682  0.94799  Biso   1.000  C
  C42      1.0000 0.13198  0.22811  0.96370  Biso   1.000  C
  C43      1.0000 0.22492  0.13812  0.94799  Biso   1.000  C
  C44      1.0000 0.82671  0.01030  0.08901  Biso   1.000  C
  H44      1.0000 0.87072  0.09321  0.20322  Biso   1.000  H
  C45      1.0000 0.18359  0.17330  0.08901  Biso   1.000  C
  H45      1.0000 0.22254  0.12932  0.20322  Biso   1.000  H
  H46      1.0000 0.73901  0.84326  0.92888  Biso   1.000  H
  H47      1.0000 0.73897  0.84318  0.92888  Biso   1.000  H
  C46      1.0000 0.77514  0.91324  0.05201  Biso   1.000  C
  H48      1.0000 0.88976  0.14746  0.91317  Biso   1.000  H
  H49      1.0000 0.88972  0.14738  0.91317  Biso   1.000  H
  C47      1.0000 0.86802  0.09616  0.03630  Biso   1.000  C
  C48      1.0000 0.86798  0.09609  0.03630  Biso   1.000  C
  H50      1.0000 0.10423  0.26103  0.92888  Biso   1.000  H
  C49      1.0000 0.13807  0.22491  0.05201  Biso   1.000  C
  H51      1.0000 0.25774  0.11033  0.91317  Biso   1.000  H
  C50      1.0000 0.22815  0.13205  0.03630  Biso   1.000  C
  C51      1.0000 0.22811  0.13197  0.03630  Biso   1.000  C
  H52      1.0000 0.74233  0.85260  0.08683  Biso   1.000  H
  H53      1.0000 0.89578  0.15680  0.07112  Biso   1.000  H
  H54      1.0000 0.11034  0.25776  0.08683  Biso   1.000  H
  H55      1.0000 0.11030  0.25768  0.08683  Biso   1.000  H
  H56      1.0000 0.26104  0.10426  0.07112  Biso   1.000  H
  H57      1.0000 0.26100  0.10418  0.07112  Biso   1.000  H
  C52      1.0000 0.91319  0.77515  0.94799  Biso   1.000  C
  C53      1.0000 0.01032  0.82675  0.91099  Biso   1.000  C
  C54      1.0000 0.01028  0.82668  0.91099  Biso   1.000  C
  H58      1.0000 0.85261  0.74230  0.91317  Biso   1.000  H
  C55      1.0000 0.90391  0.77195  0.03630  Biso   1.000  C
  C56      1.0000 0.90387  0.77188  0.03630  Biso   1.000  C
  C57      1.0000 0.02380  0.83633  0.81788  Biso   1.000  C
  C58      1.0000 0.91315  0.77507  0.94799  Biso   1.000  C
  C59      1.0000 0.09613  0.86801  0.96370  Biso   1.000  C
  C60      1.0000 0.98970  0.81640  0.08901  Biso   1.000  C
  H59      1.0000 0.84322  0.73903  0.07112  Biso   1.000  H
  N9       1.0000 0.95224  0.80364  0.76311  Biso   1.000  N
  H60      1.0000 0.09325  0.87073  0.79678  Biso   1.000  H
  H61      1.0000 0.15681  0.89580  0.92888  Biso   1.000  H
  C61      1.0000 0.08683  0.86194  0.05201  Biso   1.000  C
  C62      1.0000 0.97623  0.81251  0.18212  Biso   1.000  C
  C63      1.0000 0.98294  0.82364  0.67212  Biso   1.000  C
  C64      1.0000 0.98290  0.82356  0.67212  Biso   1.000  C
  H62      1.0000 0.14744  0.88973  0.08683  Biso   1.000  H
  H63      1.0000 0.90685  0.77756  0.20322  Biso   1.000  H
  H64      1.0000 0.90681  0.77748  0.20322  Biso   1.000  H
  N10      1.0000 0.04780  0.85143  0.23689  Biso   1.000  N
  C65      1.0000 0.94492  0.89051  0.63140  Biso   1.000  C
  H65      1.0000 0.95412  0.75927  0.64243  Biso   1.000  H
  H66      1.0000 0.95409  0.75919  0.64243  Biso   1.000  H
  H67      1.0000 0.05663  0.85844  0.66840  Biso   1.000  H
  C66      1.0000 0.01712  0.84077  0.32788  Biso   1.000  C
  C67      1.0000 0.01708  0.84069  0.32788  Biso   1.000  C
  H68      1.0000 0.87293  0.86100  0.64390  Biso   1.000  H
  H69      1.0000 0.95423  0.89066  0.57118  Biso   1.000  H
  H70      1.0000 0.95419  0.89058  0.57118  Biso   1.000  H
  N11      1.0000 0.00001  0.00003  0.66218  Biso   1.000  N
  H71      1.0000 0.94339  0.80185  0.33160  Biso   1.000  H
  H72      1.0000 0.94335  0.80177  0.33160  Biso   1.000  H
  C68      1.0000 0.05512  0.94562  0.36860  Biso   1.000  C
  H73      1.0000 0.04588  0.80511  0.35757  Biso   1.000  H
  C69      1.0000 0.94560  0.05514  0.63140  Biso   1.000  C
  C70      1.0000 0.94556  0.05506  0.63140  Biso   1.000  C
  C71      1.0000 0.10953  0.05444  0.63140  Biso   1.000  C
  C72      1.0000 0.10949  0.05436  0.63140  Biso   1.000  C
  H74      1.0000 0.12713  0.98812  0.35610  Biso   1.000  H
  H75      1.0000 0.04581  0.93643  0.42882  Biso   1.000  H
  N12      1.0000 0.00001  0.00003  0.33782  Biso   1.000  N
  C73      1.0000 0.84072  0.01715  0.67212  Biso   1.000  C
  H76      1.0000 0.98814  0.12714  0.64390  Biso   1.000  H
  H77      1.0000 0.93641  0.04580  0.57118  Biso   1.000  H
  C74      1.0000 0.84068  0.01708  0.67212  Biso   1.000  C
  H78      1.0000 0.98810  0.12707  0.64390  Biso   1.000  H
  C75      1.0000 0.17638  0.15929  0.67212  Biso   1.000  C
  H79      1.0000 0.13904  0.01194  0.64390  Biso   1.000  H
  H80      1.0000 0.10941  0.06363  0.57118  Biso   1.000  H
  H81      1.0000 0.13900  0.01186  0.64390  Biso   1.000  H
  C76      1.0000 0.89049  0.94492  0.36860  Biso   1.000  C
  C77      1.0000 0.05444  0.10955  0.36860  Biso   1.000  C
  C78      1.0000 0.05440  0.10947  0.36860  Biso   1.000  C
  H82      1.0000 0.80184  0.94344  0.66840  Biso   1.000  H
  N13      1.0000 0.85140  0.04782  0.76311  Biso   1.000  N
  H83      1.0000 0.80510  0.04596  0.64243  Biso   1.000  H
  H84      1.0000 0.80506  0.04588  0.64243  Biso   1.000  H
  N14      1.0000 0.19640  0.14863  0.76311  Biso   1.000  N
  H85      1.0000 0.14158  0.19821  0.66840  Biso   1.000  H
  H86      1.0000 0.24079  0.19494  0.64243  Biso   1.000  H
  H87      1.0000 0.24075  0.19487  0.64243  Biso   1.000  H
  C79      1.0000 0.82359  0.98290  0.32788  Biso   1.000  C
  H88      1.0000 0.86102  0.87291  0.35610  Biso   1.000  H
  H89      1.0000 0.89064  0.95426  0.42882  Biso   1.000  H
  H90      1.0000 0.89060  0.95418  0.42882  Biso   1.000  H
  C80      1.0000 0.15933  0.17642  0.32788  Biso   1.000  C
  H91      1.0000 0.01196  0.13905  0.35610  Biso   1.000  H
  H92      1.0000 0.06360  0.10940  0.42882  Biso   1.000  H
  H93      1.0000 0.01192  0.13898  0.35610  Biso   1.000  H
  C81      1.0000 0.81249  0.97621  0.81788  Biso   1.000  C
  C82      1.0000 0.16375  0.18755  0.81788  Biso   1.000  C
  C83      1.0000 0.16371  0.18747  0.81788  Biso   1.000  C
  N15      1.0000 0.80361  0.95223  0.23689  Biso   1.000  N
  H94      1.0000 0.75917  0.95410  0.35757  Biso   1.000  H
  H95      1.0000 0.85843  0.05662  0.33160  Biso   1.000  H
  N16      1.0000 0.14864  0.19642  0.23689  Biso   1.000  N
  H96      1.0000 0.19822  0.14162  0.33160  Biso   1.000  H
  H97      1.0000 0.19489  0.24079  0.35757  Biso   1.000  H
  C84      1.0000 0.81644  0.98975  0.91099  Biso   1.000  C
  H98      1.0000 0.77755  0.90685  0.79678  Biso   1.000  H
  C85      1.0000 0.81640  0.98968  0.91099  Biso   1.000  C
  H99      1.0000 0.77751  0.90678  0.79678  Biso   1.000  H
  C86      1.0000 0.17333  0.18366  0.91099  Biso   1.000  C
  H100     1.0000 0.12932  0.22250  0.79678  Biso   1.000  H
  C87      1.0000 0.17329  0.18358  0.91099  Biso   1.000  C
  C88      1.0000 0.83631  0.02385  0.18212  Biso   1.000  C
  C89      1.0000 0.83628  0.02377  0.18212  Biso   1.000  C
  C90      1.0000 0.18750  0.16373  0.18212  Biso   1.000  C
  C91      1.0000 0.77189  0.90390  0.96370  Biso   1.000  C
  C92      1.0000 0.86194  0.08682  0.94799  Biso   1.000  C
  C93      1.0000 0.13198  0.22811  0.96370  Biso   1.000  C
  C94      1.0000 0.22492  0.13812  0.94799  Biso   1.000  C
  C95      1.0000 0.82671  0.01030  0.08901  Biso   1.000  C
  H101     1.0000 0.87072  0.09321  0.20322  Biso   1.000  H
  C96      1.0000 0.18359  0.17330  0.08901  Biso   1.000  C
  H102     1.0000 0.22254  0.12932  0.20322  Biso   1.000  H
  H103     1.0000 0.73901  0.84326  0.92888  Biso   1.000  H
  H104     1.0000 0.73897  0.84318  0.92888  Biso   1.000  H
  C97      1.0000 0.77514  0.91324  0.05201  Biso   1.000  C
  H105     1.0000 0.88976  0.14746  0.91317  Biso   1.000  H
  H106     1.0000 0.88972  0.14738  0.91317  Biso   1.000  H
  C98      1.0000 0.86802  0.09616  0.03630  Biso   1.000  C
  C99      1.0000 0.86798  0.09609  0.03630  Biso   1.000  C
  H107     1.0000 0.10423  0.26103  0.92888  Biso   1.000  H
  C100     1.0000 0.13807  0.22491  0.05201  Biso   1.000  C
  H108     1.0000 0.25774  0.11033  0.91317  Biso   1.000  H
  C101     1.0000 0.22815  0.13205  0.03630  Biso   1.000  C
  C102     1.0000 0.22811  0.13197  0.03630  Biso   1.000  C
  H109     1.0000 0.74233  0.85260  0.08683  Biso   1.000  H
  H110     1.0000 0.89578  0.15680  0.07112  Biso   1.000  H
  H111     1.0000 0.11034  0.25776  0.08683  Biso   1.000  H
  H112     1.0000 0.11030  0.25768  0.08683  Biso   1.000  H
  H113     1.0000 0.26104  0.10426  0.07112  Biso   1.000  H
  H114     1.0000 0.26100  0.10418  0.07112  Biso   1.000  H
  C103     1.0000 0.91319  0.77515  0.94799  Biso   1.000  C
  C104     1.0000 0.01032  0.82675  0.91099  Biso   1.000  C
  C105     1.0000 0.01028  0.82668  0.91099  Biso   1.000  C
  H115     1.0000 0.85261  0.74230  0.91317  Biso   1.000  H
  C106     1.0000 0.90391  0.77195  0.03630  Biso   1.000  C
  C107     1.0000 0.90387  0.77188  0.03630  Biso   1.000  C
  C108     1.0000 0.02380  0.83633  0.81788  Biso   1.000  C
  C109     1.0000 0.91315  0.77507  0.94799  Biso   1.000  C
  C110     1.0000 0.09613  0.86801  0.96370  Biso   1.000  C
  C111     1.0000 0.98970  0.81640  0.08901  Biso   1.000  C
  H116     1.0000 0.84322  0.73903  0.07112  Biso   1.000  H
  N17      1.0000 0.95224  0.80364  0.76311  Biso   1.000  N
  H117     1.0000 0.09325  0.87073  0.79678  Biso   1.000  H
  H118     1.0000 0.15681  0.89580  0.92888  Biso   1.000  H
  C112     1.0000 0.08683  0.86194  0.05201  Biso   1.000  C
  C113     1.0000 0.97623  0.81251  0.18212  Biso   1.000  C
  C114     1.0000 0.98294  0.82364  0.67212  Biso   1.000  C
  C115     1.0000 0.98290  0.82356  0.67212  Biso   1.000  C
  H119     1.0000 0.14744  0.88973  0.08683  Biso   1.000  H
  H120     1.0000 0.90685  0.77756  0.20322  Biso   1.000  H
  H121     1.0000 0.90681  0.77748  0.20322  Biso   1.000  H
  N18      1.0000 0.04780  0.85143  0.23689  Biso   1.000  N
  C116     1.0000 0.94492  0.89051  0.63140  Biso   1.000  C
  H122     1.0000 0.95412  0.75927  0.64243  Biso   1.000  H
  H123     1.0000 0.95409  0.75919  0.64243  Biso   1.000  H
  H124     1.0000 0.05663  0.85844  0.66840  Biso   1.000  H
  C117     1.0000 0.01712  0.84077  0.32788  Biso   1.000  C
  C118     1.0000 0.01708  0.84069  0.32788  Biso   1.000  C
  H125     1.0000 0.87293  0.86100  0.64390  Biso   1.000  H
  H126     1.0000 0.95423  0.89066  0.57118  Biso   1.000  H
  H127     1.0000 0.95419  0.89058  0.57118  Biso   1.000  H
  N19      1.0000 0.00001  0.00003  0.66218  Biso   1.000  N
  H128     1.0000 0.94339  0.80185  0.33160  Biso   1.000  H
  H129     1.0000 0.94335  0.80177  0.33160  Biso   1.000  H
  C119     1.0000 0.05512  0.94562  0.36860  Biso   1.000  C
  H130     1.0000 0.04588  0.80511  0.35757  Biso   1.000  H
  C120     1.0000 0.94560  0.05514  0.63140  Biso   1.000  C
  C121     1.0000 0.94556  0.05506  0.63140  Biso   1.000  C
  C122     1.0000 0.10953  0.05444  0.63140  Biso   1.000  C
  C123     1.0000 0.10949  0.05436  0.63140  Biso   1.000  C
  H131     1.0000 0.12713  0.98812  0.35610  Biso   1.000  H
  H132     1.0000 0.04581  0.93643  0.42882  Biso   1.000  H
  N20      1.0000 0.00001  0.00003  0.33782  Biso   1.000  N
  C124     1.0000 0.84072  0.01715  0.67212  Biso   1.000  C
  H133     1.0000 0.98814  0.12714  0.64390  Biso   1.000  H
  H134     1.0000 0.93641  0.04580  0.57118  Biso   1.000  H
  C125     1.0000 0.84068  0.01708  0.67212  Biso   1.000  C
  H135     1.0000 0.98810  0.12707  0.64390  Biso   1.000  H
  C126     1.0000 0.17638  0.15929  0.67212  Biso   1.000  C
  H136     1.0000 0.13904  0.01194  0.64390  Biso   1.000  H
  H137     1.0000 0.10941  0.06363  0.57118  Biso   1.000  H
  H138     1.0000 0.13900  0.01186  0.64390  Biso   1.000  H
  C127     1.0000 0.89049  0.94492  0.36860  Biso   1.000  C
  C128     1.0000 0.05444  0.10955  0.36860  Biso   1.000  C
  C129     1.0000 0.05440  0.10947  0.36860  Biso   1.000  C
  H139     1.0000 0.80184  0.94344  0.66840  Biso   1.000  H
  N21      1.0000 0.85140  0.04782  0.76311  Biso   1.000  N
  H140     1.0000 0.80510  0.04596  0.64243  Biso   1.000  H
  H141     1.0000 0.80506  0.04588  0.64243  Biso   1.000  H
  N22      1.0000 0.19640  0.14863  0.76311  Biso   1.000  N
  H142     1.0000 0.14158  0.19821  0.66840  Biso   1.000  H
  H143     1.0000 0.24079  0.19494  0.64243  Biso   1.000  H
  H144     1.0000 0.24075  0.19487  0.64243  Biso   1.000  H
  C130     1.0000 0.82359  0.98290  0.32788  Biso   1.000  C
  H145     1.0000 0.86102  0.87291  0.35610  Biso   1.000  H
  H146     1.0000 0.89064  0.95426  0.42882  Biso   1.000  H
  H147     1.0000 0.89060  0.95418  0.42882  Biso   1.000  H
  C131     1.0000 0.15933  0.17642  0.32788  Biso   1.000  C
  H148     1.0000 0.01196  0.13905  0.35610  Biso   1.000  H
  H149     1.0000 0.06360  0.10940  0.42882  Biso   1.000  H
  H150     1.0000 0.01192  0.13898  0.35610  Biso   1.000  H
  C132     1.0000 0.81249  0.97621  0.81788  Biso   1.000  C
  C133     1.0000 0.16375  0.18755  0.81788  Biso   1.000  C
  C134     1.0000 0.16371  0.18747  0.81788  Biso   1.000  C
  N23      1.0000 0.80361  0.95223  0.23689  Biso   1.000  N
  H151     1.0000 0.75917  0.95410  0.35757  Biso   1.000  H
  H152     1.0000 0.85843  0.05662  0.33160  Biso   1.000  H
  N24      1.0000 0.14864  0.19642  0.23689  Biso   1.000  N
  H153     1.0000 0.19822  0.14162  0.33160  Biso   1.000  H
  H154     1.0000 0.19489  0.24079  0.35757  Biso   1.000  H
  C135     1.0000 0.81644  0.98975  0.91099  Biso   1.000  C
  H155     1.0000 0.77755  0.90685  0.79678  Biso   1.000  H
  C136     1.0000 0.81640  0.98968  0.91099  Biso   1.000  C
  H156     1.0000 0.77751  0.90678  0.79678  Biso   1.000  H
  C137     1.0000 0.17333  0.18366  0.91099  Biso   1.000  C
  H157     1.0000 0.12932  0.22250  0.79678  Biso   1.000  H
  C138     1.0000 0.17329  0.18358  0.91099  Biso   1.000  C
  C139     1.0000 0.83631  0.02385  0.18212  Biso   1.000  C
  C140     1.0000 0.83628  0.02377  0.18212  Biso   1.000  C
  C141     1.0000 0.18750  0.16373  0.18212  Biso   1.000  C
  C142     1.0000 0.77189  0.90390  0.96370  Biso   1.000  C
  C143     1.0000 0.86194  0.08682  0.94799  Biso   1.000  C
  C144     1.0000 0.13198  0.22811  0.96370  Biso   1.000  C
  C145     1.0000 0.22492  0.13812  0.94799  Biso   1.000  C
  C146     1.0000 0.82671  0.01030  0.08901  Biso   1.000  C
  H158     1.0000 0.87072  0.09321  0.20322  Biso   1.000  H
  C147     1.0000 0.18359  0.17330  0.08901  Biso   1.000  C
  H159     1.0000 0.22254  0.12932  0.20322  Biso   1.000  H
  H160     1.0000 0.73901  0.84326  0.92888  Biso   1.000  H
  H161     1.0000 0.73897  0.84318  0.92888  Biso   1.000  H
  C148     1.0000 0.77514  0.91324  0.05201  Biso   1.000  C
  H162     1.0000 0.88976  0.14746  0.91317  Biso   1.000  H
  H163     1.0000 0.88972  0.14738  0.91317  Biso   1.000  H
  C149     1.0000 0.86802  0.09616  0.03630  Biso   1.000  C
  C150     1.0000 0.86798  0.09609  0.03630  Biso   1.000  C
  H164     1.0000 0.10423  0.26103  0.92888  Biso   1.000  H
  C151     1.0000 0.13807  0.22491  0.05201  Biso   1.000  C
  H165     1.0000 0.25774  0.11033  0.91317  Biso   1.000  H
  C152     1.0000 0.22815  0.13205  0.03630  Biso   1.000  C
  C153     1.0000 0.22811  0.13197  0.03630  Biso   1.000  C
  H166     1.0000 0.74233  0.85260  0.08683  Biso   1.000  H
  H167     1.0000 0.89578  0.15680  0.07112  Biso   1.000  H
  H168     1.0000 0.11034  0.25776  0.08683  Biso   1.000  H
  H169     1.0000 0.11030  0.25768  0.08683  Biso   1.000  H
  H170     1.0000 0.26104  0.10426  0.07112  Biso   1.000  H
  H171     1.0000 0.26100  0.10418  0.07112  Biso   1.000  H
  C154     1.0000 0.91319  0.77515  0.94799  Biso   1.000  C
  C155     1.0000 0.01032  0.82675  0.91099  Biso   1.000  C
  C156     1.0000 0.01028  0.82668  0.91099  Biso   1.000  C
  H172     1.0000 0.85261  0.74230  0.91317  Biso   1.000  H
  C157     1.0000 0.90391  0.77195  0.03630  Biso   1.000  C
  C158     1.0000 0.90387  0.77188  0.03630  Biso   1.000  C
  C159     1.0000 0.02380  0.83633  0.81788  Biso   1.000  C
  C160     1.0000 0.91315  0.77507  0.94799  Biso   1.000  C
  C161     1.0000 0.09613  0.86801  0.96370  Biso   1.000  C
  C162     1.0000 0.98970  0.81640  0.08901  Biso   1.000  C
  H173     1.0000 0.84322  0.73903  0.07112  Biso   1.000  H
  N25      1.0000 0.95224  0.80364  0.76311  Biso   1.000  N
  H174     1.0000 0.09325  0.87073  0.79678  Biso   1.000  H
  H175     1.0000 0.15681  0.89580  0.92888  Biso   1.000  H
  C163     1.0000 0.08683  0.86194  0.05201  Biso   1.000  C
  C164     1.0000 0.97623  0.81251  0.18212  Biso   1.000  C
  C165     1.0000 0.98294  0.82364  0.67212  Biso   1.000  C
  C166     1.0000 0.98290  0.82356  0.67212  Biso   1.000  C
  H176     1.0000 0.14744  0.88973  0.08683  Biso   1.000  H
  H177     1.0000 0.90685  0.77756  0.20322  Biso   1.000  H
  H178     1.0000 0.90681  0.77748  0.20322  Biso   1.000  H
  N26      1.0000 0.04780  0.85143  0.23689  Biso   1.000  N
  C167     1.0000 0.94492  0.89051  0.63140  Biso   1.000  C
  H179     1.0000 0.95412  0.75927  0.64243  Biso   1.000  H
  H180     1.0000 0.95409  0.75919  0.64243  Biso   1.000  H
  H181     1.0000 0.05663  0.85844  0.66840  Biso   1.000  H
  C168     1.0000 0.01712  0.84077  0.32788  Biso   1.000  C
  C169     1.0000 0.01708  0.84069  0.32788  Biso   1.000  C
  H182     1.0000 0.87293  0.86100  0.64390  Biso   1.000  H
  H183     1.0000 0.95423  0.89066  0.57118  Biso   1.000  H
  H184     1.0000 0.95419  0.89058  0.57118  Biso   1.000  H
  N27      1.0000 0.00001  0.00003  0.66218  Biso   1.000  N
  H185     1.0000 0.94339  0.80185  0.33160  Biso   1.000  H
  H186     1.0000 0.94335  0.80177  0.33160  Biso   1.000  H
  C170     1.0000 0.05512  0.94562  0.36860  Biso   1.000  C
  H187     1.0000 0.04588  0.80511  0.35757  Biso   1.000  H
  C171     1.0000 0.94560  0.05514  0.63140  Biso   1.000  C
  C172     1.0000 0.94556  0.05506  0.63140  Biso   1.000  C
  C173     1.0000 0.10953  0.05444  0.63140  Biso   1.000  C
  C174     1.0000 0.10949  0.05436  0.63140  Biso   1.000  C
  H188     1.0000 0.12713  0.98812  0.35610  Biso   1.000  H
  H189     1.0000 0.04581  0.93643  0.42882  Biso   1.000  H
  N28      1.0000 0.00001  0.00003  0.33782  Biso   1.000  N
  C175     1.0000 0.84072  0.01715  0.67212  Biso   1.000  C
  H190     1.0000 0.98814  0.12714  0.64390  Biso   1.000  H
  H191     1.0000 0.93641  0.04580  0.57118  Biso   1.000  H
  C176     1.0000 0.84068  0.01708  0.67212  Biso   1.000  C
  H192     1.0000 0.98810  0.12707  0.64390  Biso   1.000  H
  C177     1.0000 0.17638  0.15929  0.67212  Biso   1.000  C
  H193     1.0000 0.13904  0.01194  0.64390  Biso   1.000  H
  H194     1.0000 0.10941  0.06363  0.57118  Biso   1.000  H
  H195     1.0000 0.13900  0.01186  0.64390  Biso   1.000  H
  C178     1.0000 0.89049  0.94492  0.36860  Biso   1.000  C
  C179     1.0000 0.05444  0.10955  0.36860  Biso   1.000  C
  C180     1.0000 0.05440  0.10947  0.36860  Biso   1.000  C
  H196     1.0000 0.80184  0.94344  0.66840  Biso   1.000  H
  N29      1.0000 0.85140  0.04782  0.76311  Biso   1.000  N
  H197     1.0000 0.80510  0.04596  0.64243  Biso   1.000  H
  H198     1.0000 0.80506  0.04588  0.64243  Biso   1.000  H
  N30      1.0000 0.19640  0.14863  0.76311  Biso   1.000  N
  H199     1.0000 0.14158  0.19821  0.66840  Biso   1.000  H
  H200     1.0000 0.24079  0.19494  0.64243  Biso   1.000  H
  H201     1.0000 0.24075  0.19487  0.64243  Biso   1.000  H
  C181     1.0000 0.82359  0.98290  0.32788  Biso   1.000  C
  H202     1.0000 0.86102  0.87291  0.35610  Biso   1.000  H
  H203     1.0000 0.89064  0.95426  0.42882  Biso   1.000  H
  H204     1.0000 0.89060  0.95418  0.42882  Biso   1.000  H
  C182     1.0000 0.15933  0.17642  0.32788  Biso   1.000  C
  H205     1.0000 0.01196  0.13905  0.35610  Biso   1.000  H
  H206     1.0000 0.06360  0.10940  0.42882  Biso   1.000  H
  H207     1.0000 0.01192  0.13898  0.35610  Biso   1.000  H
  C183     1.0000 0.81249  0.97621  0.81788  Biso   1.000  C
  C184     1.0000 0.16375  0.18755  0.81788  Biso   1.000  C
  C185     1.0000 0.16371  0.18747  0.81788  Biso   1.000  C
  N31      1.0000 0.80361  0.95223  0.23689  Biso   1.000  N
  H208     1.0000 0.75917  0.95410  0.35757  Biso   1.000  H
  H209     1.0000 0.85843  0.05662  0.33160  Biso   1.000  H
  N32      1.0000 0.14864  0.19642  0.23689  Biso   1.000  N
  H210     1.0000 0.19822  0.14162  0.33160  Biso   1.000  H
  H211     1.0000 0.19489  0.24079  0.35757  Biso   1.000  H
  C186     1.0000 0.81644  0.98975  0.91099  Biso   1.000  C
  H212     1.0000 0.77755  0.90685  0.79678  Biso   1.000  H
  C187     1.0000 0.81640  0.98968  0.91099  Biso   1.000  C
  H213     1.0000 0.77751  0.90678  0.79678  Biso   1.000  H
  C188     1.0000 0.17333  0.18366  0.91099  Biso   1.000  C
  H214     1.0000 0.12932  0.22250  0.79678  Biso   1.000  H
  C189     1.0000 0.17329  0.18358  0.91099  Biso   1.000  C
  C190     1.0000 0.83631  0.02385  0.18212  Biso   1.000  C
  C191     1.0000 0.83628  0.02377  0.18212  Biso   1.000  C
  C192     1.0000 0.18750  0.16373  0.18212  Biso   1.000  C
  C193     1.0000 0.77189  0.90390  0.96370  Biso   1.000  C
  C194     1.0000 0.86194  0.08682  0.94799  Biso   1.000  C
  C195     1.0000 0.13198  0.22811  0.96370  Biso   1.000  C
  C196     1.0000 0.22492  0.13812  0.94799  Biso   1.000  C
  C197     1.0000 0.82671  0.01030  0.08901  Biso   1.000  C
  H215     1.0000 0.87072  0.09321  0.20322  Biso   1.000  H
  C198     1.0000 0.18359  0.17330  0.08901  Biso   1.000  C
  H216     1.0000 0.22254  0.12932  0.20322  Biso   1.000  H
  H217     1.0000 0.73901  0.84326  0.92888  Biso   1.000  H
  H218     1.0000 0.73897  0.84318  0.92888  Biso   1.000  H
  C199     1.0000 0.77514  0.91324  0.05201  Biso   1.000  C
  H219     1.0000 0.88976  0.14746  0.91317  Biso   1.000  H
  H220     1.0000 0.88972  0.14738  0.91317  Biso   1.000  H
  C200     1.0000 0.86802  0.09616  0.03630  Biso   1.000  C
  C201     1.0000 0.86798  0.09609  0.03630  Biso   1.000  C
  H221     1.0000 0.10423  0.26103  0.92888  Biso   1.000  H
  C202     1.0000 0.13807  0.22491  0.05201  Biso   1.000  C
  H222     1.0000 0.25774  0.11033  0.91317  Biso   1.000  H
  C203     1.0000 0.22815  0.13205  0.03630  Biso   1.000  C
  C204     1.0000 0.22811  0.13197  0.03630  Biso   1.000  C
  H223     1.0000 0.74233  0.85260  0.08683  Biso   1.000  H
  H224     1.0000 0.89578  0.15680  0.07112  Biso   1.000  H
  H225     1.0000 0.11034  0.25776  0.08683  Biso   1.000  H
  H226     1.0000 0.11030  0.25768  0.08683  Biso   1.000  H
  H227     1.0000 0.26104  0.10426  0.07112  Biso   1.000  H
  H228     1.0000 0.26100  0.10418  0.07112  Biso   1.000  H
  C205     1.0000 0.91319  0.77515  0.94799  Biso   1.000  C
  C206     1.0000 0.01032  0.82675  0.91099  Biso   1.000  C
  C207     1.0000 0.01028  0.82668  0.91099  Biso   1.000  C
  H229     1.0000 0.85261  0.74230  0.91317  Biso   1.000  H
  C208     1.0000 0.90391  0.77195  0.03630  Biso   1.000  C
  C209     1.0000 0.90387  0.77188  0.03630  Biso   1.000  C
  C210     1.0000 0.02380  0.83633  0.81788  Biso   1.000  C
  C211     1.0000 0.91315  0.77507  0.94799  Biso   1.000  C
  C212     1.0000 0.09613  0.86801  0.96370  Biso   1.000  C
  C213     1.0000 0.98970  0.81640  0.08901  Biso   1.000  C
  H230     1.0000 0.84322  0.73903  0.07112  Biso   1.000  H
  N33      1.0000 0.95224  0.80364  0.76311  Biso   1.000  N
  H231     1.0000 0.09325  0.87073  0.79678  Biso   1.000  H
  H232     1.0000 0.15681  0.89580  0.92888  Biso   1.000  H
  C214     1.0000 0.08683  0.86194  0.05201  Biso   1.000  C
  C215     1.0000 0.97623  0.81251  0.18212  Biso   1.000  C
  C216     1.0000 0.98294  0.82364  0.67212  Biso   1.000  C
  C217     1.0000 0.98290  0.82356  0.67212  Biso   1.000  C
  H233     1.0000 0.14744  0.88973  0.08683  Biso   1.000  H
  H234     1.0000 0.90685  0.77756  0.20322  Biso   1.000  H
  H235     1.0000 0.90681  0.77748  0.20322  Biso   1.000  H
  N34      1.0000 0.04780  0.85143  0.23689  Biso   1.000  N
  C218     1.0000 0.94492  0.89051  0.63140  Biso   1.000  C
  H236     1.0000 0.95412  0.75927  0.64243  Biso   1.000  H
  H237     1.0000 0.95409  0.75919  0.64243  Biso   1.000  H
  H238     1.0000 0.05663  0.85844  0.66840  Biso   1.000  H
  C219     1.0000 0.01712  0.84077  0.32788  Biso   1.000  C
  C220     1.0000 0.01708  0.84069  0.32788  Biso   1.000  C
  H239     1.0000 0.87293  0.86100  0.64390  Biso   1.000  H
  H240     1.0000 0.95423  0.89066  0.57118  Biso   1.000  H
  H241     1.0000 0.95419  0.89058  0.57118  Biso   1.000  H
  N35      1.0000 0.00001  0.00003  0.66218  Biso   1.000  N
  H242     1.0000 0.94339  0.80185  0.33160  Biso   1.000  H
  H243     1.0000 0.94335  0.80177  0.33160  Biso   1.000  H
  C221     1.0000 0.05512  0.94562  0.36860  Biso   1.000  C
  H244     1.0000 0.04588  0.80511  0.35757  Biso   1.000  H
  C222     1.0000 0.94560  0.05514  0.63140  Biso   1.000  C
  C223     1.0000 0.94556  0.05506  0.63140  Biso   1.000  C
  C224     1.0000 0.10953  0.05444  0.63140  Biso   1.000  C
  C225     1.0000 0.10949  0.05436  0.63140  Biso   1.000  C
  H245     1.0000 0.12713  0.98812  0.35610  Biso   1.000  H
  H246     1.0000 0.04581  0.93643  0.42882  Biso   1.000  H
  N36      1.0000 0.00001  0.00003  0.33782  Biso   1.000  N
  C226     1.0000 0.84072  0.01715  0.67212  Biso   1.000  C
  H247     1.0000 0.98814  0.12714  0.64390  Biso   1.000  H
  H248     1.0000 0.93641  0.04580  0.57118  Biso   1.000  H
  C227     1.0000 0.84068  0.01708  0.67212  Biso   1.000  C
  H249     1.0000 0.98810  0.12707  0.64390  Biso   1.000  H
  C228     1.0000 0.17638  0.15929  0.67212  Biso   1.000  C
  H250     1.0000 0.13904  0.01194  0.64390  Biso   1.000  H
  H251     1.0000 0.10941  0.06363  0.57118  Biso   1.000  H
  H252     1.0000 0.13900  0.01186  0.64390  Biso   1.000  H
  C229     1.0000 0.89049  0.94492  0.36860  Biso   1.000  C
  C230     1.0000 0.05444  0.10955  0.36860  Biso   1.000  C
  C231     1.0000 0.05440  0.10947  0.36860  Biso   1.000  C
  H253     1.0000 0.80184  0.94344  0.66840  Biso   1.000  H
  N37      1.0000 0.85140  0.04782  0.76311  Biso   1.000  N
  H254     1.0000 0.80510  0.04596  0.64243  Biso   1.000  H
  H255     1.0000 0.80506  0.04588  0.64243  Biso   1.000  H
  N38      1.0000 0.19640  0.14863  0.76311  Biso   1.000  N
  H256     1.0000 0.14158  0.19821  0.66840  Biso   1.000  H
  H257     1.0000 0.24079  0.19494  0.64243  Biso   1.000  H
  H258     1.0000 0.24075  0.19487  0.64243  Biso   1.000  H
  C232     1.0000 0.82359  0.98290  0.32788  Biso   1.000  C
  H259     1.0000 0.86102  0.87291  0.35610  Biso   1.000  H
  H260     1.0000 0.89064  0.95426  0.42882  Biso   1.000  H
  H261     1.0000 0.89060  0.95418  0.42882  Biso   1.000  H
  C233     1.0000 0.15933  0.17642  0.32788  Biso   1.000  C
  H262     1.0000 0.01196  0.13905  0.35610  Biso   1.000  H
  H263     1.0000 0.06360  0.10940  0.42882  Biso   1.000  H
  H264     1.0000 0.01192  0.13898  0.35610  Biso   1.000  H
  C234     1.0000 0.81249  0.97621  0.81788  Biso   1.000  C
  C235     1.0000 0.16375  0.18755  0.81788  Biso   1.000  C
  C236     1.0000 0.16371  0.18747  0.81788  Biso   1.000  C
  N39      1.0000 0.80361  0.95223  0.23689  Biso   1.000  N
  H265     1.0000 0.75917  0.95410  0.35757  Biso   1.000  H
  H266     1.0000 0.85843  0.05662  0.33160  Biso   1.000  H
  N40      1.0000 0.14864  0.19642  0.23689  Biso   1.000  N
  H267     1.0000 0.19822  0.14162  0.33160  Biso   1.000  H
  H268     1.0000 0.19489  0.24079  0.35757  Biso   1.000  H
  C237     1.0000 0.81644  0.98975  0.91099  Biso   1.000  C
  H269     1.0000 0.77755  0.90685  0.79678  Biso   1.000  H
  C238     1.0000 0.81640  0.98968  0.91099  Biso   1.000  C
  H270     1.0000 0.77751  0.90678  0.79678  Biso   1.000  H
  C239     1.0000 0.17333  0.18366  0.91099  Biso   1.000  C
  H271     1.0000 0.12932  0.22250  0.79678  Biso   1.000  H
  C240     1.0000 0.17329  0.18358  0.91099  Biso   1.000  C
  C241     1.0000 0.83631  0.02385  0.18212  Biso   1.000  C
  C242     1.0000 0.83628  0.02377  0.18212  Biso   1.000  C
  C243     1.0000 0.18750  0.16373  0.18212  Biso   1.000  C
  C244     1.0000 0.77189  0.90390  0.96370  Biso   1.000  C
  C245     1.0000 0.86194  0.08682  0.94799  Biso   1.000  C
  C246     1.0000 0.13198  0.22811  0.96370  Biso   1.000  C
  C247     1.0000 0.22492  0.13812  0.94799  Biso   1.000  C
  C248     1.0000 0.82671  0.01030  0.08901  Biso   1.000  C
  H272     1.0000 0.87072  0.09321  0.20322  Biso   1.000  H
  C249     1.0000 0.18359  0.17330  0.08901  Biso   1.000  C
  H273     1.0000 0.22254  0.12932  0.20322  Biso   1.000  H
  H274     1.0000 0.73901  0.84326  0.92888  Biso   1.000  H
  H275     1.0000 0.73897  0.84318  0.92888  Biso   1.000  H
  C250     1.0000 0.77514  0.91324  0.05201  Biso   1.000  C
  H276     1.0000 0.88976  0.14746  0.91317  Biso   1.000  H
  H277     1.0000 0.88972  0.14738  0.91317  Biso   1.000  H
  C251     1.0000 0.86802  0.09616  0.03630  Biso   1.000  C
  C252     1.0000 0.86798  0.09609  0.03630  Biso   1.000  C
  H278     1.0000 0.10423  0.26103  0.92888  Biso   1.000  H
  C253     1.0000 0.13807  0.22491  0.05201  Biso   1.000  C
  H279     1.0000 0.25774  0.11033  0.91317  Biso   1.000  H
  C254     1.0000 0.22815  0.13205  0.03630  Biso   1.000  C
  C255     1.0000 0.22811  0.13197  0.03630  Biso   1.000  C
  H280     1.0000 0.74233  0.85260  0.08683  Biso   1.000  H
  H281     1.0000 0.89578  0.15680  0.07112  Biso   1.000  H
  H282     1.0000 0.11034  0.25776  0.08683  Biso   1.000  H
  H283     1.0000 0.11030  0.25768  0.08683  Biso   1.000  H
  H284     1.0000 0.26104  0.10426  0.07112  Biso   1.000  H
  H285     1.0000 0.26100  0.10418  0.07112  Biso   1.000  H
  C256     1.0000 0.91319  0.77515  0.94799  Biso   1.000  C
  C257     1.0000 0.01032  0.82675  0.91099  Biso   1.000  C
  C258     1.0000 0.01028  0.82668  0.91099  Biso   1.000  C
  H286     1.0000 0.85261  0.74230  0.91317  Biso   1.000  H
  C259     1.0000 0.90391  0.77195  0.03630  Biso   1.000  C
  C260     1.0000 0.90387  0.77188  0.03630  Biso   1.000  C
  C261     1.0000 0.02380  0.83633  0.81788  Biso   1.000  C
  C262     1.0000 0.91315  0.77507  0.94799  Biso   1.000  C
  C263     1.0000 0.09613  0.86801  0.96370  Biso   1.000  C
  C264     1.0000 0.98970  0.81640  0.08901  Biso   1.000  C
  H287     1.0000 0.84322  0.73903  0.07112  Biso   1.000  H
  N41      1.0000 0.95224  0.80364  0.76311  Biso   1.000  N
  H288     1.0000 0.09325  0.87073  0.79678  Biso   1.000  H
  H289     1.0000 0.15681  0.89580  0.92888  Biso   1.000  H
  C265     1.0000 0.08683  0.86194  0.05201  Biso   1.000  C
  C266     1.0000 0.97623  0.81251  0.18212  Biso   1.000  C
  C267     1.0000 0.98294  0.82364  0.67212  Biso   1.000  C
  C268     1.0000 0.98290  0.82356  0.67212  Biso   1.000  C
  H290     1.0000 0.14744  0.88973  0.08683  Biso   1.000  H
  H291     1.0000 0.90685  0.77756  0.20322  Biso   1.000  H
  H292     1.0000 0.90681  0.77748  0.20322  Biso   1.000  H
  N42      1.0000 0.04780  0.85143  0.23689  Biso   1.000  N
  C269     1.0000 0.94492  0.89051  0.63140  Biso   1.000  C
  H293     1.0000 0.95412  0.75927  0.64243  Biso   1.000  H
  H294     1.0000 0.95409  0.75919  0.64243  Biso   1.000  H
  H295     1.0000 0.05663  0.85844  0.66840  Biso   1.000  H
  C270     1.0000 0.01712  0.84077  0.32788  Biso   1.000  C
  C271     1.0000 0.01708  0.84069  0.32788  Biso   1.000  C
  H296     1.0000 0.87293  0.86100  0.64390  Biso   1.000  H
  H297     1.0000 0.95423  0.89066  0.57118  Biso   1.000  H
  H298     1.0000 0.95419  0.89058  0.57118  Biso   1.000  H
  N43      1.0000 0.00001  0.00003  0.66218  Biso   1.000  N
  H299     1.0000 0.94339  0.80185  0.33160  Biso   1.000  H
  H300     1.0000 0.94335  0.80177  0.33160  Biso   1.000  H
  C272     1.0000 0.05512  0.94562  0.36860  Biso   1.000  C
  H301     1.0000 0.04588  0.80511  0.35757  Biso   1.000  H
  C273     1.0000 0.94560  0.05514  0.63140  Biso   1.000  C
  C274     1.0000 0.94556  0.05506  0.63140  Biso   1.000  C
  C275     1.0000 0.10953  0.05444  0.63140  Biso   1.000  C
  C276     1.0000 0.10949  0.05436  0.63140  Biso   1.000  C
  H302     1.0000 0.12713  0.98812  0.35610  Biso   1.000  H
  H303     1.0000 0.04581  0.93643  0.42882  Biso   1.000  H
  N44      1.0000 0.00001  0.00003  0.33782  Biso   1.000  N
  C277     1.0000 0.84072  0.01715  0.67212  Biso   1.000  C
  H304     1.0000 0.98814  0.12714  0.64390  Biso   1.000  H
  H305     1.0000 0.93641  0.04580  0.57118  Biso   1.000  H
  C278     1.0000 0.84068  0.01708  0.67212  Biso   1.000  C
  H306     1.0000 0.98810  0.12707  0.64390  Biso   1.000  H
  C279     1.0000 0.17638  0.15929  0.67212  Biso   1.000  C
  H307     1.0000 0.13904  0.01194  0.64390  Biso   1.000  H
  H308     1.0000 0.10941  0.06363  0.57118  Biso   1.000  H
  H309     1.0000 0.13900  0.01186  0.64390  Biso   1.000  H
  C280     1.0000 0.89049  0.94492  0.36860  Biso   1.000  C
  C281     1.0000 0.05444  0.10955  0.36860  Biso   1.000  C
  C282     1.0000 0.05440  0.10947  0.36860  Biso   1.000  C
  H310     1.0000 0.80184  0.94344  0.66840  Biso   1.000  H
  N45      1.0000 0.85140  0.04782  0.76311  Biso   1.000  N
  H311     1.0000 0.80510  0.04596  0.64243  Biso   1.000  H
  H312     1.0000 0.80506  0.04588  0.64243  Biso   1.000  H
  N46      1.0000 0.19640  0.14863  0.76311  Biso   1.000  N
  H313     1.0000 0.14158  0.19821  0.66840  Biso   1.000  H
  H314     1.0000 0.24079  0.19494  0.64243  Biso   1.000  H
  H315     1.0000 0.24075  0.19487  0.64243  Biso   1.000  H
  C283     1.0000 0.82359  0.98290  0.32788  Biso   1.000  C
  H316     1.0000 0.86102  0.87291  0.35610  Biso   1.000  H
  H317     1.0000 0.89064  0.95426  0.42882  Biso   1.000  H
  H318     1.0000 0.89060  0.95418  0.42882  Biso   1.000  H
  C284     1.0000 0.15933  0.17642  0.32788  Biso   1.000  C
  H319     1.0000 0.01196  0.13905  0.35610  Biso   1.000  H
  H320     1.0000 0.06360  0.10940  0.42882  Biso   1.000  H
  H321     1.0000 0.01192  0.13898  0.35610  Biso   1.000  H
  C285     1.0000 0.81249  0.97621  0.81788  Biso   1.000  C
  C286     1.0000 0.16375  0.18755  0.81788  Biso   1.000  C
  C287     1.0000 0.16371  0.18747  0.81788  Biso   1.000  C
  N47      1.0000 0.80361  0.95223  0.23689  Biso   1.000  N
  H322     1.0000 0.75917  0.95410  0.35757  Biso   1.000  H
  H323     1.0000 0.85843  0.05662  0.33160  Biso   1.000  H
  N48      1.0000 0.14864  0.19642  0.23689  Biso   1.000  N
  H324     1.0000 0.19822  0.14162  0.33160  Biso   1.000  H
  H325     1.0000 0.19489  0.24079  0.35757  Biso   1.000  H
  C288     1.0000 0.81644  0.98975  0.91099  Biso   1.000  C
  H326     1.0000 0.77755  0.90685  0.79678  Biso   1.000  H
  C289     1.0000 0.81640  0.98968  0.91099  Biso   1.000  C
  H327     1.0000 0.77751  0.90678  0.79678  Biso   1.000  H
  C290     1.0000 0.17333  0.18366  0.91099  Biso   1.000  C
  H328     1.0000 0.12932  0.22250  0.79678  Biso   1.000  H
  C291     1.0000 0.17329  0.18358  0.91099  Biso   1.000  C
  C292     1.0000 0.83631  0.02385  0.18212  Biso   1.000  C
  C293     1.0000 0.83628  0.02377  0.18212  Biso   1.000  C
  C294     1.0000 0.18750  0.16373  0.18212  Biso   1.000  C
  C295     1.0000 0.77189  0.90390  0.96370  Biso   1.000  C
  C296     1.0000 0.86194  0.08682  0.94799  Biso   1.000  C
  C297     1.0000 0.13198  0.22811  0.96370  Biso   1.000  C
  C298     1.0000 0.22492  0.13812  0.94799  Biso   1.000  C
  C299     1.0000 0.82671  0.01030  0.08901  Biso   1.000  C
  H329     1.0000 0.87072  0.09321  0.20322  Biso   1.000  H
  C300     1.0000 0.18359  0.17330  0.08901  Biso   1.000  C
  H330     1.0000 0.22254  0.12932  0.20322  Biso   1.000  H
  H331     1.0000 0.73901  0.84326  0.92888  Biso   1.000  H
  H332     1.0000 0.73897  0.84318  0.92888  Biso   1.000  H
  C301     1.0000 0.77514  0.91324  0.05201  Biso   1.000  C
  H333     1.0000 0.88976  0.14746  0.91317  Biso   1.000  H
  H334     1.0000 0.88972  0.14738  0.91317  Biso   1.000  H
  C302     1.0000 0.86802  0.09616  0.03630  Biso   1.000  C
  C303     1.0000 0.86798  0.09609  0.03630  Biso   1.000  C
  H335     1.0000 0.10423  0.26103  0.92888  Biso   1.000  H
  C304     1.0000 0.13807  0.22491  0.05201  Biso   1.000  C
  H336     1.0000 0.25774  0.11033  0.91317  Biso   1.000  H
  C305     1.0000 0.22815  0.13205  0.03630  Biso   1.000  C
  C306     1.0000 0.22811  0.13197  0.03630  Biso   1.000  C
  H337     1.0000 0.74233  0.85260  0.08683  Biso   1.000  H
  H338     1.0000 0.89578  0.15680  0.07112  Biso   1.000  H
  H339     1.0000 0.11034  0.25776  0.08683  Biso   1.000  H
  H340     1.0000 0.11030  0.25768  0.08683  Biso   1.000  H
  H341     1.0000 0.26104  0.10426  0.07112  Biso   1.000  H
  H342     1.0000 0.26100  0.10418  0.07112  Biso   1.000  H
  C307     1.0000 0.91319  0.77515  0.94799  Biso   1.000  C
  C308     1.0000 0.01032  0.82675  0.91099  Biso   1.000  C
  C309     1.0000 0.01028  0.82668  0.91099  Biso   1.000  C
  H343     1.0000 0.85261  0.74230  0.91317  Biso   1.000  H
  C310     1.0000 0.90391  0.77195  0.03630  Biso   1.000  C
  C311     1.0000 0.90387  0.77188  0.03630  Biso   1.000  C
  C312     1.0000 0.02380  0.83633  0.81788  Biso   1.000  C
  C313     1.0000 0.91315  0.77507  0.94799  Biso   1.000  C
  C314     1.0000 0.09613  0.86801  0.96370  Biso   1.000  C
  C315     1.0000 0.98970  0.81640  0.08901  Biso   1.000  C
  H344     1.0000 0.84322  0.73903  0.07112  Biso   1.000  H
  N49      1.0000 0.95224  0.80364  0.76311  Biso   1.000  N
  H345     1.0000 0.09325  0.87073  0.79678  Biso   1.000  H
  H346     1.0000 0.15681  0.89580  0.92888  Biso   1.000  H
  C316     1.0000 0.08683  0.86194  0.05201  Biso   1.000  C
  C317     1.0000 0.97623  0.81251  0.18212  Biso   1.000  C
  C318     1.0000 0.98294  0.82364  0.67212  Biso   1.000  C
  C319     1.0000 0.98290  0.82356  0.67212  Biso   1.000  C
  H347     1.0000 0.14744  0.88973  0.08683  Biso   1.000  H
  H348     1.0000 0.90685  0.77756  0.20322  Biso   1.000  H
  H349     1.0000 0.90681  0.77748  0.20322  Biso   1.000  H
  N50      1.0000 0.04780  0.85143  0.23689  Biso   1.000  N
  C320     1.0000 0.94492  0.89051  0.63140  Biso   1.000  C
  H350     1.0000 0.95412  0.75927  0.64243  Biso   1.000  H
  H351     1.0000 0.95409  0.75919  0.64243  Biso   1.000  H
  H352     1.0000 0.05663  0.85844  0.66840  Biso   1.000  H
  C321     1.0000 0.01712  0.84077  0.32788  Biso   1.000  C
  C322     1.0000 0.01708  0.84069  0.32788  Biso   1.000  C
  H353     1.0000 0.87293  0.86100  0.64390  Biso   1.000  H
  H354     1.0000 0.95423  0.89066  0.57118  Biso   1.000  H
  H355     1.0000 0.95419  0.89058  0.57118  Biso   1.000  H
  N51      1.0000 0.00001  0.00003  0.66218  Biso   1.000  N
  H356     1.0000 0.94339  0.80185  0.33160  Biso   1.000  H
  H357     1.0000 0.94335  0.80177  0.33160  Biso   1.000  H
  C323     1.0000 0.05512  0.94562  0.36860  Biso   1.000  C
  H358     1.0000 0.04588  0.80511  0.35757  Biso   1.000  H
  C324     1.0000 0.94560  0.05514  0.63140  Biso   1.000  C
  C325     1.0000 0.94556  0.05506  0.63140  Biso   1.000  C
  C326     1.0000 0.10953  0.05444  0.63140  Biso   1.000  C
  C327     1.0000 0.10949  0.05436  0.63140  Biso   1.000  C
  H359     1.0000 0.12713  0.98812  0.35610  Biso   1.000  H
  H360     1.0000 0.04581  0.93643  0.42882  Biso   1.000  H
  N52      1.0000 0.00001  0.00003  0.33782  Biso   1.000  N
  C328     1.0000 0.84072  0.01715  0.67212  Biso   1.000  C
  H361     1.0000 0.98814  0.12714  0.64390  Biso   1.000  H
  H362     1.0000 0.93641  0.04580  0.57118  Biso   1.000  H
  C329     1.0000 0.84068  0.01708  0.67212  Biso   1.000  C
  H363     1.0000 0.98810  0.12707  0.64390  Biso   1.000  H
  C330     1.0000 0.17638  0.15929  0.67212  Biso   1.000  C
  H364     1.0000 0.13904  0.01194  0.64390  Biso   1.000  H
  H365     1.0000 0.10941  0.06363  0.57118  Biso   1.000  H
  H366     1.0000 0.13900  0.01186  0.64390  Biso   1.000  H
  C331     1.0000 0.89049  0.94492  0.36860  Biso   1.000  C
  C332     1.0000 0.05444  0.10955  0.36860  Biso   1.000  C
  C333     1.0000 0.05440  0.10947  0.36860  Biso   1.000  C
  H367     1.0000 0.80184  0.94344  0.66840  Biso   1.000  H
  N53      1.0000 0.85140  0.04782  0.76311  Biso   1.000  N
  H368     1.0000 0.80510  0.04596  0.64243  Biso   1.000  H
  H369     1.0000 0.80506  0.04588  0.64243  Biso   1.000  H
  N54      1.0000 0.19640  0.14863  0.76311  Biso   1.000  N
  H370     1.0000 0.14158  0.19821  0.66840  Biso   1.000  H
  H371     1.0000 0.24079  0.19494  0.64243  Biso   1.000  H
  H372     1.0000 0.24075  0.19487  0.64243  Biso   1.000  H
  C334     1.0000 0.82359  0.98290  0.32788  Biso   1.000  C
  H373     1.0000 0.86102  0.87291  0.35610  Biso   1.000  H
  H374     1.0000 0.89064  0.95426  0.42882  Biso   1.000  H
  H375     1.0000 0.89060  0.95418  0.42882  Biso   1.000  H
  C335     1.0000 0.15933  0.17642  0.32788  Biso   1.000  C
  H376     1.0000 0.01196  0.13905  0.35610  Biso   1.000  H
  H377     1.0000 0.06360  0.10940  0.42882  Biso   1.000  H
  H378     1.0000 0.01192  0.13898  0.35610  Biso   1.000  H
  C336     1.0000 0.81249  0.97621  0.81788  Biso   1.000  C
  C337     1.0000 0.16375  0.18755  0.81788  Biso   1.000  C
  C338     1.0000 0.16371  0.18747  0.81788  Biso   1.000  C
  N55      1.0000 0.80361  0.95223  0.23689  Biso   1.000  N
  H379     1.0000 0.75917  0.95410  0.35757  Biso   1.000  H
  H380     1.0000 0.85843  0.05662  0.33160  Biso   1.000  H
  N56      1.0000 0.14864  0.19642  0.23689  Biso   1.000  N
  H381     1.0000 0.19822  0.14162  0.33160  Biso   1.000  H
  H382     1.0000 0.19489  0.24079  0.35757  Biso   1.000  H
  C339     1.0000 0.81644  0.98975  0.91099  Biso   1.000  C
  H383     1.0000 0.77755  0.90685  0.79678  Biso   1.000  H
  C340     1.0000 0.81640  0.98968  0.91099  Biso   1.000  C
  H384     1.0000 0.77751  0.90678  0.79678  Biso   1.000  H
  C341     1.0000 0.17333  0.18366  0.91099  Biso   1.000  C
  H385     1.0000 0.12932  0.22250  0.79678  Biso   1.000  H
  C342     1.0000 0.17329  0.18358  0.91099  Biso   1.000  C
  C343     1.0000 0.83631  0.02385  0.18212  Biso   1.000  C
  C344     1.0000 0.83628  0.02377  0.18212  Biso   1.000  C
  C345     1.0000 0.18750  0.16373  0.18212  Biso   1.000  C
  C346     1.0000 0.77189  0.90390  0.96370  Biso   1.000  C
  C347     1.0000 0.86194  0.08682  0.94799  Biso   1.000  C
  C348     1.0000 0.13198  0.22811  0.96370  Biso   1.000  C
  C349     1.0000 0.22492  0.13812  0.94799  Biso   1.000  C
  C350     1.0000 0.82671  0.01030  0.08901  Biso   1.000  C
  H386     1.0000 0.87072  0.09321  0.20322  Biso   1.000  H
  C351     1.0000 0.18359  0.17330  0.08901  Biso   1.000  C
  H387     1.0000 0.22254  0.12932  0.20322  Biso   1.000  H
  H388     1.0000 0.73901  0.84326  0.92888  Biso   1.000  H
  H389     1.0000 0.73897  0.84318  0.92888  Biso   1.000  H
  C352     1.0000 0.77514  0.91324  0.05201  Biso   1.000  C
  H390     1.0000 0.88976  0.14746  0.91317  Biso   1.000  H
  H391     1.0000 0.88972  0.14738  0.91317  Biso   1.000  H
  C353     1.0000 0.86802  0.09616  0.03630  Biso   1.000  C
  C354     1.0000 0.86798  0.09609  0.03630  Biso   1.000  C
  H392     1.0000 0.10423  0.26103  0.92888  Biso   1.000  H
  C355     1.0000 0.13807  0.22491  0.05201  Biso   1.000  C
  H393     1.0000 0.25774  0.11033  0.91317  Biso   1.000  H
  C356     1.0000 0.22815  0.13205  0.03630  Biso   1.000  C
  C357     1.0000 0.22811  0.13197  0.03630  Biso   1.000  C
  H394     1.0000 0.74233  0.85260  0.08683  Biso   1.000  H
  H395     1.0000 0.89578  0.15680  0.07112  Biso   1.000  H
  H396     1.0000 0.11034  0.25776  0.08683  Biso   1.000  H
  H397     1.0000 0.11030  0.25768  0.08683  Biso   1.000  H
  H398     1.0000 0.26104  0.10426  0.07112  Biso   1.000  H
  H399     1.0000 0.26100  0.10418  0.07112  Biso   1.000  H
  C358     1.0000 0.91319  0.77515  0.94799  Biso   1.000  C
  C359     1.0000 0.01032  0.82675  0.91099  Biso   1.000  C
  C360     1.0000 0.01028  0.82668  0.91099  Biso   1.000  C
  H400     1.0000 0.85261  0.74230  0.91317  Biso   1.000  H
  C361     1.0000 0.90391  0.77195  0.03630  Biso   1.000  C
  C362     1.0000 0.90387  0.77188  0.03630  Biso   1.000  C
  C363     1.0000 0.02380  0.83633  0.81788  Biso   1.000  C
  C364     1.0000 0.91315  0.77507  0.94799  Biso   1.000  C
  C365     1.0000 0.09613  0.86801  0.96370  Biso   1.000  C
  C366     1.0000 0.98970  0.81640  0.08901  Biso   1.000  C
  H401     1.0000 0.84322  0.73903  0.07112  Biso   1.000  H
  N57      1.0000 0.95224  0.80364  0.76311  Biso   1.000  N
  H402     1.0000 0.09325  0.87073  0.79678  Biso   1.000  H
  H403     1.0000 0.15681  0.89580  0.92888  Biso   1.000  H
  C367     1.0000 0.08683  0.86194  0.05201  Biso   1.000  C
  C368     1.0000 0.97623  0.81251  0.18212  Biso   1.000  C
  C369     1.0000 0.98294  0.82364  0.67212  Biso   1.000  C
  C370     1.0000 0.98290  0.82356  0.67212  Biso   1.000  C
  H404     1.0000 0.14744  0.88973  0.08683  Biso   1.000  H
  H405     1.0000 0.90685  0.77756  0.20322  Biso   1.000  H
  H406     1.0000 0.90681  0.77748  0.20322  Biso   1.000  H
  N58      1.0000 0.04780  0.85143  0.23689  Biso   1.000  N
  C371     1.0000 0.94492  0.89051  0.63140  Biso   1.000  C
  H407     1.0000 0.95412  0.75927  0.64243  Biso   1.000  H
  H408     1.0000 0.95409  0.75919  0.64243  Biso   1.000  H
  H409     1.0000 0.05663  0.85844  0.66840  Biso   1.000  H
  C372     1.0000 0.01712  0.84077  0.32788  Biso   1.000  C
  C373     1.0000 0.01708  0.84069  0.32788  Biso   1.000  C
  H410     1.0000 0.87293  0.86100  0.64390  Biso   1.000  H
  H411     1.0000 0.95423  0.89066  0.57118  Biso   1.000  H
  H412     1.0000 0.95419  0.89058  0.57118  Biso   1.000  H
  N59      1.0000 0.00001  0.00003  0.66218  Biso   1.000  N
  H413     1.0000 0.94339  0.80185  0.33160  Biso   1.000  H
  H414     1.0000 0.94335  0.80177  0.33160  Biso   1.000  H
  C374     1.0000 0.05512  0.94562  0.36860  Biso   1.000  C
  H415     1.0000 0.04588  0.80511  0.35757  Biso   1.000  H
  C375     1.0000 0.94560  0.05514  0.63140  Biso   1.000  C
  C376     1.0000 0.94556  0.05506  0.63140  Biso   1.000  C
  C377     1.0000 0.10953  0.05444  0.63140  Biso   1.000  C
  C378     1.0000 0.10949  0.05436  0.63140  Biso   1.000  C
  H416     1.0000 0.12713  0.98812  0.35610  Biso   1.000  H
  H417     1.0000 0.04581  0.93643  0.42882  Biso   1.000  H
  N60      1.0000 0.00001  0.00003  0.33782  Biso   1.000  N
  C379     1.0000 0.84072  0.01715  0.67212  Biso   1.000  C
  H418     1.0000 0.98814  0.12714  0.64390  Biso   1.000  H
  H419     1.0000 0.93641  0.04580  0.57118  Biso   1.000  H
  C380     1.0000 0.84068  0.01708  0.67212  Biso   1.000  C
  H420     1.0000 0.98810  0.12707  0.64390  Biso   1.000  H
  C381     1.0000 0.17638  0.15929  0.67212  Biso   1.000  C
  H421     1.0000 0.13904  0.01194  0.64390  Biso   1.000  H
  H422     1.0000 0.10941  0.06363  0.57118  Biso   1.000  H
  H423     1.0000 0.13900  0.01186  0.64390  Biso   1.000  H
  C382     1.0000 0.89049  0.94492  0.36860  Biso   1.000  C
  C383     1.0000 0.05444  0.10955  0.36860  Biso   1.000  C
  C384     1.0000 0.05440  0.10947  0.36860  Biso   1.000  C
  H424     1.0000 0.80184  0.94344  0.66840  Biso   1.000  H
  N61      1.0000 0.85140  0.04782  0.76311  Biso   1.000  N
  H425     1.0000 0.80510  0.04596  0.64243  Biso   1.000  H
  H426     1.0000 0.80506  0.04588  0.64243  Biso   1.000  H
  N62      1.0000 0.19640  0.14863  0.76311  Biso   1.000  N
  H427     1.0000 0.14158  0.19821  0.66840  Biso   1.000  H
  H428     1.0000 0.24079  0.19494  0.64243  Biso   1.000  H
  H429     1.0000 0.24075  0.19487  0.64243  Biso   1.000  H
  C385     1.0000 0.82359  0.98290  0.32788  Biso   1.000  C
  H430     1.0000 0.86102  0.87291  0.35610  Biso   1.000  H
  H431     1.0000 0.89064  0.95426  0.42882  Biso   1.000  H
  H432     1.0000 0.89060  0.95418  0.42882  Biso   1.000  H
  C386     1.0000 0.15933  0.17642  0.32788  Biso   1.000  C
  H433     1.0000 0.01196  0.13905  0.35610  Biso   1.000  H
  H434     1.0000 0.06360  0.10940  0.42882  Biso   1.000  H
  H435     1.0000 0.01192  0.13898  0.35610  Biso   1.000  H
  C387     1.0000 0.81249  0.97621  0.81788  Biso   1.000  C
  C388     1.0000 0.16375  0.18755  0.81788  Biso   1.000  C
  C389     1.0000 0.16371  0.18747  0.81788  Biso   1.000  C
  N63      1.0000 0.80361  0.95223  0.23689  Biso   1.000  N
  H436     1.0000 0.75917  0.95410  0.35757  Biso   1.000  H
  H437     1.0000 0.85843  0.05662  0.33160  Biso   1.000  H
  N64      1.0000 0.14864  0.19642  0.23689  Biso   1.000  N
  H438     1.0000 0.19822  0.14162  0.33160  Biso   1.000  H
  H439     1.0000 0.19489  0.24079  0.35757  Biso   1.000  H
  C390     1.0000 0.81644  0.98975  0.91099  Biso   1.000  C
  H440     1.0000 0.77755  0.90685  0.79678  Biso   1.000  H
  C391     1.0000 0.81640  0.98968  0.91099  Biso   1.000  C
  H441     1.0000 0.77751  0.90678  0.79678  Biso   1.000  H
  C392     1.0000 0.17333  0.18366  0.91099  Biso   1.000  C
  H442     1.0000 0.12932  0.22250  0.79678  Biso   1.000  H
  C393     1.0000 0.17329  0.18358  0.91099  Biso   1.000  C
  C394     1.0000 0.83631  0.02385  0.18212  Biso   1.000  C
  C395     1.0000 0.83628  0.02377  0.18212  Biso   1.000  C
  C396     1.0000 0.18750  0.16373  0.18212  Biso   1.000  C
  C397     1.0000 0.77189  0.90390  0.96370  Biso   1.000  C
  C398     1.0000 0.86194  0.08682  0.94799  Biso   1.000  C
  C399     1.0000 0.13198  0.22811  0.96370  Biso   1.000  C
  C400     1.0000 0.22492  0.13812  0.94799  Biso   1.000  C
  C401     1.0000 0.82671  0.01030  0.08901  Biso   1.000  C
  H443     1.0000 0.87072  0.09321  0.20322  Biso   1.000  H
  C402     1.0000 0.18359  0.17330  0.08901  Biso   1.000  C
  H444     1.0000 0.22254  0.12932  0.20322  Biso   1.000  H
  H445     1.0000 0.73901  0.84326  0.92888  Biso   1.000  H
  H446     1.0000 0.73897  0.84318  0.92888  Biso   1.000  H
  C403     1.0000 0.77514  0.91324  0.05201  Biso   1.000  C
  H447     1.0000 0.88976  0.14746  0.91317  Biso   1.000  H
  H448     1.0000 0.88972  0.14738  0.91317  Biso   1.000  H
  C404     1.0000 0.86802  0.09616  0.03630  Biso   1.000  C
  C405     1.0000 0.86798  0.09609  0.03630  Biso   1.000  C
  H449     1.0000 0.10423  0.26103  0.92888  Biso   1.000  H
  C406     1.0000 0.13807  0.22491  0.05201  Biso   1.000  C
  H450     1.0000 0.25774  0.11033  0.91317  Biso   1.000  H
  C407     1.0000 0.22815  0.13205  0.03630  Biso   1.000  C
  C408     1.0000 0.22811  0.13197  0.03630  Biso   1.000  C
  H451     1.0000 0.74233  0.85260  0.08683  Biso   1.000  H
  H452     1.0000 0.89578  0.15680  0.07112  Biso   1.000  H
  H453     1.0000 0.11034  0.25776  0.08683  Biso   1.000  H
  H454     1.0000 0.11030  0.25768  0.08683  Biso   1.000  H
  H455     1.0000 0.26104  0.10426  0.07112  Biso   1.000  H
  H456     1.0000 0.26100  0.10418  0.07112  Biso   1.000  H
  C409     1.0000 0.52080  0.83034  0.84879  Biso   1.000  C
  C410     1.0000 0.51693  0.83999  0.75568  Biso   1.000  C
  N65      1.0000 0.48194  0.86303  0.90355  Biso   1.000  N
  H457     1.0000 0.55585  0.79593  0.86989  Biso   1.000  H
  C411     1.0000 0.47141  0.89160  0.71867  Biso   1.000  C
  C412     1.0000 0.56145  0.79865  0.70296  Biso   1.000  C
  C413     1.0000 0.49267  0.84310  0.99455  Biso   1.000  C
  C414     1.0000 0.46533  0.89479  0.63037  Biso   1.000  C
  H458     1.0000 0.44365  0.92437  0.75349  Biso   1.000  H
  C415     1.0000 0.55826  0.80480  0.61466  Biso   1.000  C
  H459     1.0000 0.59434  0.77086  0.73778  Biso   1.000  H
  C416     1.0000 0.38774  0.77616  0.03527  Biso   1.000  C
  H460     1.0000 0.53152  0.80823  0.99827  Biso   1.000  H
  H461     1.0000 0.52823  0.90748  0.02424  Biso   1.000  H
  C417     1.0000 0.50663  0.85026  0.57766  Biso   1.000  C
  H462     1.0000 0.43753  0.92764  0.59555  Biso   1.000  H
  H463     1.0000 0.59104  0.77694  0.57984  Biso   1.000  H
  N66      1.0000 0.33332  0.66663  0.00449  Biso   1.000  N
  H464     1.0000 0.34526  0.80566  0.02277  Biso   1.000  H
  H465     1.0000 0.39694  0.77608  0.09549  Biso   1.000  H
  C418     1.0000 0.49705  0.85415  0.48455  Biso   1.000  C
  C419     1.0000 0.38846  0.61230  0.03527  Biso   1.000  C
  C420     1.0000 0.22383  0.61160  0.03527  Biso   1.000  C
  N67      1.0000 0.52970  0.81523  0.42978  Biso   1.000  N
  H466     1.0000 0.46266  0.88918  0.46345  Biso   1.000  H
  C421     1.0000 0.35042  0.50737  0.99455  Biso   1.000  C
  H467     1.0000 0.46047  0.65480  0.02277  Biso   1.000  H
  H468     1.0000 0.37911  0.60304  0.09549  Biso   1.000  H
  C422     1.0000 0.15694  0.64959  0.99455  Biso   1.000  C
  H469     1.0000 0.19436  0.53960  0.02277  Biso   1.000  H
  H470     1.0000 0.22394  0.62086  0.09549  Biso   1.000  H
  C423     1.0000 0.50973  0.82598  0.33878  Biso   1.000  C
  N68      1.0000 0.38110  0.51804  0.90355  Biso   1.000  N
  H471     1.0000 0.27670  0.46845  0.99827  Biso   1.000  H
  H472     1.0000 0.37922  0.47180  0.02424  Biso   1.000  H
  N69      1.0000 0.13691  0.61884  0.90355  Biso   1.000  N
  H473     1.0000 0.19177  0.72330  0.99827  Biso   1.000  H
  H474     1.0000 0.09252  0.62079  0.02424  Biso   1.000  H
  C424     1.0000 0.44283  0.72105  0.29806  Biso   1.000  C
  H475     1.0000 0.47492  0.86490  0.33506  Biso   1.000  H
  H476     1.0000 0.57409  0.86155  0.30909  Biso   1.000  H
  C425     1.0000 0.30957  0.47919  0.84879  Biso   1.000  C
  C426     1.0000 0.16962  0.69045  0.84879  Biso   1.000  C
  N70      1.0000 0.33332  0.66663  0.32884  Biso   1.000  N
  H477     1.0000 0.47234  0.67854  0.31057  Biso   1.000  H
  H478     1.0000 0.44271  0.73023  0.23785  Biso   1.000  H
  C427     1.0000 0.32304  0.48308  0.75568  Biso   1.000  C
  H479     1.0000 0.24015  0.44416  0.86989  Biso   1.000  H
  C428     1.0000 0.16005  0.67699  0.75568  Biso   1.000  C
  H480     1.0000 0.20406  0.75989  0.86989  Biso   1.000  H
  C429     1.0000 0.27826  0.55719  0.29806  Biso   1.000  C
  C430     1.0000 0.27890  0.72175  0.29806  Biso   1.000  C
  C431     1.0000 0.42013  0.52854  0.71867  Biso   1.000  C
  C432     1.0000 0.23721  0.43856  0.70296  Biso   1.000  C
  C433     1.0000 0.10845  0.57984  0.71867  Biso   1.000  C
  C434     1.0000 0.20133  0.76277  0.70296  Biso   1.000  C
  C435     1.0000 0.31624  0.49025  0.33878  Biso   1.000  C
  H481     1.0000 0.20627  0.52769  0.31057  Biso   1.000  H
  H482     1.0000 0.28753  0.55727  0.23785  Biso   1.000  H
  C436     1.0000 0.17402  0.68376  0.33878  Biso   1.000  C
  H483     1.0000 0.32144  0.79375  0.31057  Biso   1.000  H
  H484     1.0000 0.26975  0.71248  0.23785  Biso   1.000  H
  C437     1.0000 0.42947  0.53469  0.63037  Biso   1.000  C
  H485     1.0000 0.48074  0.55633  0.75349  Biso   1.000  H
  C438     1.0000 0.24649  0.44175  0.61466  Biso   1.000  C
  H486     1.0000 0.17653  0.40563  0.73778  Biso   1.000  H
  C439     1.0000 0.10523  0.57058  0.63037  Biso   1.000  C
  H487     1.0000 0.07567  0.51928  0.75349  Biso   1.000  H
  C440     1.0000 0.19528  0.75351  0.61466  Biso   1.000  C
  H488     1.0000 0.22912  0.82349  0.73778  Biso   1.000  H
  N71      1.0000 0.28554  0.47024  0.42978  Biso   1.000  N
  H489     1.0000 0.38993  0.52504  0.33506  Biso   1.000  H
  H490     1.0000 0.28743  0.42587  0.30909  Biso   1.000  H
  N72      1.0000 0.18471  0.71443  0.42978  Biso   1.000  N
  H491     1.0000 0.13514  0.61004  0.33506  Biso   1.000  H
  H492     1.0000 0.13840  0.71256  0.30909  Biso   1.000  H
  C441     1.0000 0.34362  0.49336  0.57766  Biso   1.000  C
  H493     1.0000 0.49015  0.56248  0.59555  Biso   1.000  H
  H494     1.0000 0.18595  0.40898  0.57984  Biso   1.000  H
  C442     1.0000 0.14974  0.65636  0.57766  Biso   1.000  C
  H495     1.0000 0.07231  0.50986  0.59555  Biso   1.000  H
  H496     1.0000 0.22306  0.81407  0.57984  Biso   1.000  H
  C443     1.0000 0.35710  0.50293  0.48455  Biso   1.000  C
  C444     1.0000 0.14584  0.64289  0.48455  Biso   1.000  C
  H497     1.0000 0.42655  0.53734  0.46345  Biso   1.000  H
  H498     1.0000 0.11085  0.57346  0.46345  Biso   1.000  H
  C445     1.0000 0.82597  0.50971  0.66122  Biso   1.000  C
  C446     1.0000 0.72108  0.44284  0.70194  Biso   1.000  C
  N73      1.0000 0.81528  0.52971  0.57022  Biso   1.000  N
  H499     1.0000 0.86487  0.47491  0.66494  Biso   1.000  H
  H500     1.0000 0.86157  0.57416  0.69091  Biso   1.000  H
  N74      1.0000 0.66666  0.33332  0.67116  Biso   1.000  N
  H501     1.0000 0.67860  0.47234  0.68943  Biso   1.000  H
  H502     1.0000 0.73028  0.44276  0.76215  Biso   1.000  H
  C447     1.0000 0.85414  0.49702  0.51545  Biso   1.000  C
  C448     1.0000 0.55713  0.27821  0.70194  Biso   1.000  C
  C449     1.0000 0.72176  0.27891  0.70194  Biso   1.000  C
  C450     1.0000 0.85027  0.50667  0.42234  Biso   1.000  C
  H503     1.0000 0.88919  0.46261  0.53655  Biso   1.000  H
  C451     1.0000 0.49028  0.31627  0.66122  Biso   1.000  C
  H504     1.0000 0.52767  0.20620  0.68943  Biso   1.000  H
  H505     1.0000 0.55728  0.28755  0.76215  Biso   1.000  H
  C452     1.0000 0.68376  0.17405  0.66122  Biso   1.000  C
  H506     1.0000 0.79378  0.32141  0.68943  Biso   1.000  H
  H507     1.0000 0.71245  0.26972  0.76215  Biso   1.000  H
  C453     1.0000 0.80472  0.55820  0.38534  Biso   1.000  C
  C454     1.0000 0.89480  0.46534  0.36963  Biso   1.000  C
  N75      1.0000 0.47025  0.28552  0.57022  Biso   1.000  N
  H508     1.0000 0.52507  0.38991  0.66494  Biso   1.000  H
  H509     1.0000 0.42586  0.28747  0.69091  Biso   1.000  H
  N76      1.0000 0.71444  0.18472  0.57022  Biso   1.000  N
  H510     1.0000 0.61004  0.13513  0.66494  Biso   1.000  H
  H511     1.0000 0.71252  0.13840  0.69091  Biso   1.000  H
  C455     1.0000 0.79867  0.56147  0.29704  Biso   1.000  C
  H512     1.0000 0.77699  0.59105  0.42016  Biso   1.000  H
  C456     1.0000 0.89156  0.47141  0.28133  Biso   1.000  C
  H513     1.0000 0.92769  0.43755  0.40445  Biso   1.000  H
  C457     1.0000 0.50296  0.35714  0.51545  Biso   1.000  C
  C458     1.0000 0.64287  0.14580  0.51545  Biso   1.000  C
  C459     1.0000 0.83997  0.51695  0.24432  Biso   1.000  C
  H514     1.0000 0.77087  0.59432  0.26222  Biso   1.000  H
  H515     1.0000 0.92438  0.44362  0.24651  Biso   1.000  H
  C460     1.0000 0.49339  0.34367  0.42234  Biso   1.000  C
  H516     1.0000 0.53741  0.42657  0.53655  Biso   1.000  H
  C461     1.0000 0.65639  0.14977  0.42234  Biso   1.000  C
  H517     1.0000 0.57349  0.11085  0.53655  Biso   1.000  H
  C462     1.0000 0.83039  0.52084  0.15121  Biso   1.000  C
  C463     1.0000 0.44179  0.24652  0.38534  Biso   1.000  C
  C464     1.0000 0.53467  0.42945  0.36963  Biso   1.000  C
  C465     1.0000 0.75347  0.19523  0.38534  Biso   1.000  C
  C466     1.0000 0.57055  0.10524  0.36963  Biso   1.000  C
  N77      1.0000 0.86304  0.48192  0.09645  Biso   1.000  N
  H518     1.0000 0.79600  0.55587  0.13011  Biso   1.000  H
  C467     1.0000 0.43857  0.23726  0.29704  Biso   1.000  C
  H519     1.0000 0.40901  0.18596  0.42016  Biso   1.000  H
  C468     1.0000 0.52858  0.42011  0.28133  Biso   1.000  C
  H520     1.0000 0.56246  0.49017  0.40445  Biso   1.000  H
  C469     1.0000 0.76278  0.20130  0.29704  Biso   1.000  C
  H521     1.0000 0.81408  0.22302  0.42016  Biso   1.000  H
  C470     1.0000 0.57983  0.10843  0.28133  Biso   1.000  C
  H522     1.0000 0.50987  0.07231  0.40445  Biso   1.000  H
  C471     1.0000 0.84307  0.49266  0.00545  Biso   1.000  C
  C472     1.0000 0.48308  0.32304  0.24432  Biso   1.000  C
  H523     1.0000 0.40565  0.17654  0.26222  Biso   1.000  H
  H524     1.0000 0.55641  0.48075  0.24651  Biso   1.000  H
  C473     1.0000 0.67696  0.16004  0.24432  Biso   1.000  C
  H525     1.0000 0.82349  0.22917  0.26222  Biso   1.000  H
  H526     1.0000 0.51929  0.07566  0.24651  Biso   1.000  H
  C474     1.0000 0.77618  0.38773  0.96473  Biso   1.000  C
  H527     1.0000 0.80822  0.53150  0.00173  Biso   1.000  H
  H528     1.0000 0.90744  0.52823  0.97576  Biso   1.000  H
  C475     1.0000 0.47914  0.30950  0.15121  Biso   1.000  C
  C476     1.0000 0.69044  0.16962  0.15121  Biso   1.000  C
  N78      1.0000 0.66666  0.33332  0.99551  Biso   1.000  N
  H529     1.0000 0.80569  0.34523  0.97723  Biso   1.000  H
  H530     1.0000 0.77605  0.39691  0.90451  Biso   1.000  H
  N79      1.0000 0.51805  0.38111  0.09645  Biso   1.000  N
  H531     1.0000 0.44419  0.24014  0.13011  Biso   1.000  H
  N80      1.0000 0.61889  0.13692  0.09645  Biso   1.000  N
  H532     1.0000 0.75989  0.20402  0.13011  Biso   1.000  H
  C477     1.0000 0.61224  0.38843  0.96473  Biso   1.000  C
  C478     1.0000 0.61160  0.22387  0.96473  Biso   1.000  C
  C479     1.0000 0.50736  0.35044  0.00545  Biso   1.000  C
  C480     1.0000 0.64958  0.15693  0.00545  Biso   1.000  C
  H533     1.0000 0.65478  0.46043  0.97723  Biso   1.000  H
  H534     1.0000 0.60309  0.37917  0.90451  Biso   1.000  H
  H535     1.0000 0.53961  0.19437  0.97723  Biso   1.000  H
  H536     1.0000 0.62087  0.22395  0.90451  Biso   1.000  H
  H537     1.0000 0.46848  0.27673  0.00173  Biso   1.000  H
  H538     1.0000 0.47174  0.37924  0.97576  Biso   1.000  H
  H539     1.0000 0.72327  0.19172  0.00173  Biso   1.000  H
  H540     1.0000 0.62077  0.09255  0.97576  Biso   1.000  H
